# generated using pymatgen
data_Ba8Ta15Sb(P2O17)4
_symmetry_space_group_name_H-M   'P 1'
_cell_length_a   7.44510705
_cell_length_b   9.56497574
_cell_length_c   21.65438537
_cell_angle_alpha   90.02831864
_cell_angle_beta   90.04587325
_cell_angle_gamma   89.90488283
_symmetry_Int_Tables_number   1
_chemical_formula_structural   Ba8Ta15Sb(P2O17)4
_chemical_formula_sum   'Ba8 Ta15 Sb1 P8 O68'
_cell_volume   1542.05509511
_cell_formula_units_Z   1
loop_
 _symmetry_equiv_pos_site_id
 _symmetry_equiv_pos_as_xyz
  1  'x, y, z'
loop_
 _atom_site_type_symbol
 _atom_site_label
 _atom_site_symmetry_multiplicity
 _atom_site_fract_x
 _atom_site_fract_y
 _atom_site_fract_z
 _atom_site_occupancy
  Ba  Ba0  1  0.249995  0.316232  0.685636  1
  Ba  Ba1  1  0.246100  0.157433  0.474844  1
  Ba  Ba2  1  0.249595  0.343158  0.973388  1
  Ba  Ba3  1  0.753038  0.684093  0.313470  1
  Ba  Ba4  1  0.748199  0.842905  0.526652  1
  Ba  Ba5  1  0.750360  0.657447  0.026101  1
  Ba  Ba6  1  0.249223  0.184638  0.184639  1
  Ba  Ba7  1  0.750303  0.815914  0.814617  1
  Ta  Ta8  1  0.999006  0.672141  0.657099  1
  Ta  Ta9  1  0.250466  0.862863  0.777392  1
  Ta  Ta10  1  0.000402  0.171323  0.843401  1
  Ta  Ta11  1  0.256146  0.633407  0.277841  1
  Ta  Ta12  1  0.001568  0.500296  0.500116  1
  Ta  Ta13  1  0.751088  0.137270  0.221953  1
  Ta  Ta14  1  0.499494  0.172132  0.842813  1
  Ta  Ta15  1  0.499999  0.671258  0.656639  1
  Ta  Ta16  1  0.750494  0.362956  0.722623  1
  Ta  Ta17  1  0.000556  0.999198  0.000620  1
  Ta  Ta18  1  0.500418  0.000306  0.999861  1
  Ta  Ta19  1  0.000054  0.825866  0.158054  1
  Ta  Ta20  1  0.001627  0.328539  0.342842  1
  Ta  Ta21  1  0.499592  0.829118  0.156935  1
  Ta  Ta22  1  0.501048  0.499968  0.499049  1
  Sb  Sb23  1  0.502710  0.322629  0.343029  1
  P  P24  1  0.250622  0.750806  0.927534  1
  P  P25  1  0.250607  0.541002  0.131836  1
  P  P26  1  0.750792  0.251096  0.572279  1
  P  P27  1  0.249047  0.749799  0.427307  1
  P  P28  1  0.748762  0.041666  0.367797  1
  P  P29  1  0.749752  0.458964  0.867957  1
  P  P30  1  0.750076  0.249575  0.072328  1
  P  P31  1  0.249361  0.959001  0.632263  1
  O  O32  1  0.750649  0.247468  0.644473  1
  O  O33  1  0.935790  0.011214  0.186258  1
  O  O34  1  0.751364  0.393091  0.346796  1
  O  O35  1  0.554032  0.245523  0.258818  1
  O  O36  1  0.921371  0.165225  0.052730  1
  O  O37  1  0.749957  0.108667  0.846456  1
  O  O38  1  0.062896  0.987645  0.814785  1
  O  O39  1  0.078651  0.869524  0.619438  1
  O  O40  1  0.750070  0.538627  0.474724  1
  O  O41  1  0.749332  0.742961  0.664839  1
  O  O42  1  0.251219  0.606853  0.955252  1
  O  O43  1  0.943219  0.255357  0.759768  1
  O  O44  1  0.442352  0.513063  0.313564  1
  O  O45  1  0.746460  0.904867  0.403734  1
  O  O46  1  0.922121  0.335027  0.552373  1
  O  O47  1  0.461899  0.129179  0.930501  1
  O  O48  1  0.056486  0.755893  0.740454  1
  O  O49  1  0.937305  0.488161  0.685665  1
  O  O50  1  0.038328  0.128592  0.930750  1
  O  O51  1  0.058995  0.741736  0.240030  1
  O  O52  1  0.961143  0.629308  0.569563  1
  O  O53  1  0.079308  0.630668  0.119105  1
  O  O54  1  0.250867  0.403779  0.095821  1
  O  O55  1  0.573837  0.129537  0.381735  1
  O  O56  1  0.556684  0.255725  0.759554  1
  O  O57  1  0.247132  0.894367  0.454477  1
  O  O58  1  0.249557  0.608712  0.653571  1
  O  O59  1  0.751681  0.106866  0.544689  1
  O  O60  1  0.249580  0.892363  0.153802  1
  O  O61  1  0.421518  0.835268  0.947519  1
  O  O62  1  0.750648  0.253952  0.144653  1
  O  O63  1  0.749686  0.757832  0.165591  1
  O  O64  1  0.420667  0.666884  0.448007  1
  O  O65  1  0.443685  0.745179  0.240402  1
  O  O66  1  0.249025  0.752040  0.355178  1
  O  O67  1  0.250498  0.038677  0.025526  1
  O  O68  1  0.420026  0.869274  0.619136  1
  O  O69  1  0.917567  0.132072  0.380988  1
  O  O70  1  0.079331  0.834878  0.947647  1
  O  O71  1  0.562503  0.013440  0.185252  1
  O  O72  1  0.251042  0.501958  0.202803  1
  O  O73  1  0.443253  0.755343  0.740275  1
  O  O74  1  0.747591  0.004834  0.296870  1
  O  O75  1  0.538835  0.871168  0.069589  1
  O  O76  1  0.749874  0.496579  0.796718  1
  O  O77  1  0.750396  0.961318  0.974926  1
  O  O78  1  0.962269  0.871075  0.070028  1
  O  O79  1  0.038332  0.371637  0.430305  1
  O  O80  1  0.749628  0.393531  0.044668  1
  O  O81  1  0.537793  0.628334  0.569276  1
  O  O82  1  0.249861  0.996544  0.703506  1
  O  O83  1  0.420461  0.631604  0.119260  1
  O  O84  1  0.437562  0.987965  0.814530  1
  O  O85  1  0.249767  0.242881  0.835114  1
  O  O86  1  0.920504  0.369221  0.880950  1
  O  O87  1  0.251734  0.253702  0.334900  1
  O  O88  1  0.579703  0.335061  0.552008  1
  O  O89  1  0.562585  0.487737  0.685374  1
  O  O90  1  0.944457  0.242801  0.259756  1
  O  O91  1  0.063037  0.511007  0.314333  1
  O  O92  1  0.078462  0.665223  0.447493  1
  O  O93  1  0.249057  0.097188  0.596994  1
  O  O94  1  0.250331  0.461363  0.525308  1
  O  O95  1  0.579071  0.165190  0.052686  1
  O  O96  1  0.457231  0.370985  0.430276  1
  O  O97  1  0.579095  0.369377  0.880674  1
  O  O98  1  0.749557  0.596978  0.903443  1
  O  O99  1  0.250575  0.746905  0.855399  1
