# generated using pymatgen
data_Lu6Fe17Co6
_symmetry_space_group_name_H-M   'P 1'
_cell_length_a   8.37269000
_cell_length_b   8.37269009
_cell_length_c   8.37269000
_cell_angle_alpha   119.99999965
_cell_angle_beta   90.00000000
_cell_angle_gamma   119.99999965
_symmetry_Int_Tables_number   1
_chemical_formula_structural   Lu6Fe17Co6
_chemical_formula_sum   'Lu6 Fe17 Co6'
_cell_volume   415.03053134
_cell_formula_units_Z   1
loop_
 _symmetry_equiv_pos_site_id
 _symmetry_equiv_pos_as_xyz
  1  'x, y, z'
loop_
 _atom_site_type_symbol
 _atom_site_label
 _atom_site_symmetry_multiplicity
 _atom_site_fract_x
 _atom_site_fract_y
 _atom_site_fract_z
 _atom_site_occupancy
  Lu  Lu0  1  0.706818  0.000000  0.293183  1
  Lu  Lu1  1  0.293184  0.000000  0.293184  1
  Lu  Lu2  1  0.293184  0.586366  0.293184  1
  Lu  Lu3  1  0.706817  0.000000  0.706817  1
  Lu  Lu4  1  0.293183  0.000000  0.706818  1
  Lu  Lu5  1  0.706818  0.413636  0.706818  1
  Fe  Fe6  1  0.000000  0.000000  0.000000  1
  Fe  Fe7  1  0.674187  0.348373  0.022560  1
  Fe  Fe8  1  0.365023  0.243349  0.121674  1
  Fe  Fe9  1  0.878324  0.243349  0.121674  1
  Fe  Fe10  1  0.878324  0.756649  0.121674  1
  Fe  Fe11  1  0.674187  0.348373  0.325813  1
  Fe  Fe12  1  0.674187  0.651627  0.325813  1
  Fe  Fe13  1  0.977440  0.651627  0.325813  1
  Fe  Fe14  1  0.121674  0.243349  0.365023  1
  Fe  Fe15  1  0.878324  0.756649  0.634975  1
  Fe  Fe16  1  0.022560  0.348373  0.674187  1
  Fe  Fe17  1  0.325813  0.348373  0.674187  1
  Fe  Fe18  1  0.325813  0.651627  0.674187  1
  Fe  Fe19  1  0.121674  0.243349  0.878324  1
  Fe  Fe20  1  0.121674  0.756649  0.878324  1
  Fe  Fe21  1  0.634975  0.756649  0.878324  1
  Fe  Fe22  1  0.325813  0.651627  0.977440  1
  Co  Co23  1  0.500000  0.000000  0.000000  1
  Co  Co24  1  0.000000  0.500000  0.000000  1
  Co  Co25  1  0.500000  0.500000  0.000000  1
  Co  Co26  1  0.000000  0.000000  0.500000  1
  Co  Co27  1  0.000000  0.500000  0.500000  1
  Co  Co28  1  0.500000  0.500000  0.500000  1
