# generated using pymatgen
data_YTm19Rh12
_symmetry_space_group_name_H-M   'P 1'
_cell_length_a   10.73011600
_cell_length_b   10.73011600
_cell_length_c   6.25688600
_cell_angle_alpha   90.00000000
_cell_angle_beta   90.00000000
_cell_angle_gamma   90.00000000
_symmetry_Int_Tables_number   1
_chemical_formula_structural   YTm19Rh12
_chemical_formula_sum   'Y1 Tm19 Rh12'
_cell_volume   720.38900588
_cell_formula_units_Z   1
loop_
 _symmetry_equiv_pos_site_id
 _symmetry_equiv_pos_as_xyz
  1  'x, y, z'
loop_
 _atom_site_type_symbol
 _atom_site_label
 _atom_site_symmetry_multiplicity
 _atom_site_fract_x
 _atom_site_fract_y
 _atom_site_fract_z
 _atom_site_occupancy
  Y  Y0  1  0.000000  0.000000  0.500000  1
  Tm  Tm1  1  0.290457  0.087596  0.376854  1
  Tm  Tm2  1  0.291666  0.911597  0.877312  1
  Tm  Tm3  1  0.708334  0.088403  0.877312  1
  Tm  Tm4  1  0.709543  0.912404  0.376854  1
  Tm  Tm5  1  0.588535  0.791027  0.877249  1
  Tm  Tm6  1  0.586813  0.209141  0.377166  1
  Tm  Tm7  1  0.413187  0.790859  0.377166  1
  Tm  Tm8  1  0.411465  0.208973  0.877249  1
  Tm  Tm9  1  0.209141  0.413187  0.622834  1
  Tm  Tm10  1  0.208973  0.588535  0.122751  1
  Tm  Tm11  1  0.791027  0.411465  0.122751  1
  Tm  Tm12  1  0.790859  0.586813  0.622834  1
  Tm  Tm13  1  0.911597  0.708334  0.122688  1
  Tm  Tm14  1  0.912404  0.290457  0.623146  1
  Tm  Tm15  1  0.087596  0.709543  0.623146  1
  Tm  Tm16  1  0.088403  0.291666  0.122688  1
  Tm  Tm17  1  0.000000  0.000000  0.000000  1
  Tm  Tm18  1  0.500000  0.500000  0.000000  1
  Tm  Tm19  1  0.500000  0.500000  0.500000  1
  Rh  Rh20  1  0.844873  0.156245  0.246056  1
  Rh  Rh21  1  0.843755  0.844873  0.753944  1
  Rh  Rh22  1  0.156245  0.155127  0.753944  1
  Rh  Rh23  1  0.155127  0.843755  0.246056  1
  Rh  Rh24  1  0.654396  0.346105  0.748876  1
  Rh  Rh25  1  0.653895  0.654396  0.251124  1
  Rh  Rh26  1  0.346105  0.345604  0.251124  1
  Rh  Rh27  1  0.345604  0.653895  0.748876  1
  Rh  Rh28  1  0.500000  0.000000  0.125994  1
  Rh  Rh29  1  0.500000  0.000000  0.624365  1
  Rh  Rh30  1  0.000000  0.500000  0.874006  1
  Rh  Rh31  1  0.000000  0.500000  0.375635  1
