# generated using pymatgen
data_Sm4Ho3Tm(B6Os)4
_symmetry_space_group_name_H-M   'P 1'
_cell_length_a   3.67587400
_cell_length_b   9.18476406
_cell_length_c   11.59345307
_cell_angle_alpha   90.01279902
_cell_angle_beta   90.00000000
_cell_angle_gamma   90.00000000
_symmetry_Int_Tables_number   1
_chemical_formula_structural   Sm4Ho3Tm(B6Os)4
_chemical_formula_sum   'Sm4 Ho3 Tm1 B24 Os4'
_cell_volume   391.41856320
_cell_formula_units_Z   1
loop_
 _symmetry_equiv_pos_site_id
 _symmetry_equiv_pos_as_xyz
  1  'x, y, z'
loop_
 _atom_site_type_symbol
 _atom_site_label
 _atom_site_symmetry_multiplicity
 _atom_site_fract_x
 _atom_site_fract_y
 _atom_site_fract_z
 _atom_site_occupancy
  Sm  Sm0  1  0.000000  0.322229  0.414166  1
  Sm  Sm1  1  0.000000  0.677787  0.585999  1
  Sm  Sm2  1  0.000000  0.822040  0.085723  1
  Sm  Sm3  1  0.000000  0.177990  0.914067  1
  Ho  Ho4  1  0.000000  0.944132  0.372518  1
  Ho  Ho5  1  0.000000  0.055877  0.627609  1
  Ho  Ho6  1  0.000000  0.444267  0.127145  1
  Tm  Tm7  1  0.000000  0.555865  0.872470  1
  B  B8  1  0.500000  0.555276  0.431575  1
  B  B9  1  0.500000  0.444776  0.568586  1
  B  B10  1  0.500000  0.055226  0.068395  1
  B  B11  1  0.500000  0.944532  0.931520  1
  B  B12  1  0.500000  0.749105  0.418269  1
  B  B13  1  0.500000  0.250999  0.581803  1
  B  B14  1  0.500000  0.249171  0.081700  1
  B  B15  1  0.500000  0.750262  0.918246  1
  B  B16  1  0.500000  0.790819  0.266581  1
  B  B17  1  0.500000  0.209401  0.733485  1
  B  B18  1  0.500000  0.290882  0.233367  1
  B  B19  1  0.500000  0.708557  0.766758  1
  B  B20  1  0.500000  0.630984  0.185164  1
  B  B21  1  0.500000  0.369496  0.815053  1
  B  B22  1  0.500000  0.131038  0.314768  1
  B  B23  1  0.500000  0.868846  0.685321  1
  B  B24  1  0.500000  0.984528  0.213680  1
  B  B25  1  0.500000  0.015336  0.786367  1
  B  B26  1  0.500000  0.484495  0.286273  1
  B  B27  1  0.500000  0.515847  0.714134  1
  B  B28  1  0.500000  0.603907  0.027938  1
  B  B29  1  0.500000  0.396588  0.971003  1
  B  B30  1  0.500000  0.104218  0.471420  1
  B  B31  1  0.500000  0.895771  0.528638  1
  Os  Os32  1  0.000000  0.638429  0.320121  1
  Os  Os33  1  0.000000  0.361956  0.680165  1
  Os  Os34  1  0.000000  0.138510  0.179727  1
  Os  Os35  1  0.000000  0.860855  0.820246  1
