# generated using pymatgen
data_HoTa2(BeFe2)3
_symmetry_space_group_name_H-M   'P 1'
_cell_length_a   7.95292071
_cell_length_b   7.95291949
_cell_length_c   7.95292137
_cell_angle_alpha   35.28773996
_cell_angle_beta   35.28773866
_cell_angle_gamma   35.28774037
_symmetry_Int_Tables_number   1
_chemical_formula_structural   HoTa2(BeFe2)3
_chemical_formula_sum   'Ho1 Ta2 Be3 Fe6'
_cell_volume   149.95701573
_cell_formula_units_Z   1
loop_
 _symmetry_equiv_pos_site_id
 _symmetry_equiv_pos_as_xyz
  1  'x, y, z'
loop_
 _atom_site_type_symbol
 _atom_site_label
 _atom_site_symmetry_multiplicity
 _atom_site_fract_x
 _atom_site_fract_y
 _atom_site_fract_z
 _atom_site_occupancy
  Ho  Ho0  1  0.000000  0.000000  0.000000  1
  Ta  Ta1  1  0.142207  0.142207  0.142207  1
  Ta  Ta2  1  0.857793  0.857793  0.857793  1
  Be  Be3  1  0.500000  0.500000  0.500000  1
  Be  Be4  1  0.333196  0.333196  0.333196  1
  Be  Be5  1  0.666804  0.666804  0.666804  1
  Fe  Fe6  1  0.082450  0.584864  0.584864  1
  Fe  Fe7  1  0.584864  0.584864  0.082450  1
  Fe  Fe8  1  0.584864  0.082450  0.584864  1
  Fe  Fe9  1  0.415136  0.917550  0.415136  1
  Fe  Fe10  1  0.917550  0.415136  0.415136  1
  Fe  Fe11  1  0.415136  0.415136  0.917550  1
