# generated using pymatgen
data_Dy6NbCo17P12
_symmetry_space_group_name_H-M   'P 1'
_cell_length_a   3.70369500
_cell_length_b   10.57176500
_cell_length_c   12.27593700
_cell_angle_alpha   90.00000000
_cell_angle_beta   90.00000000
_cell_angle_gamma   90.00000000
_symmetry_Int_Tables_number   1
_chemical_formula_structural   Dy6NbCo17P12
_chemical_formula_sum   'Dy6 Nb1 Co17 P12'
_cell_volume   480.65931904
_cell_formula_units_Z   1
loop_
 _symmetry_equiv_pos_site_id
 _symmetry_equiv_pos_as_xyz
  1  'x, y, z'
loop_
 _atom_site_type_symbol
 _atom_site_label
 _atom_site_symmetry_multiplicity
 _atom_site_fract_x
 _atom_site_fract_y
 _atom_site_fract_z
 _atom_site_occupancy
  Dy  Dy0  1  0.000000  0.500000  0.526734  1
  Dy  Dy1  1  0.500000  0.000000  0.477877  1
  Dy  Dy2  1  0.500000  0.819606  0.207310  1
  Dy  Dy3  1  0.500000  0.180394  0.207310  1
  Dy  Dy4  1  0.000000  0.682972  0.795691  1
  Dy  Dy5  1  0.000000  0.317028  0.795691  1
  Nb  Nb6  1  0.500000  0.500000  0.154686  1
  Co  Co7  1  0.000000  0.000000  0.838506  1
  Co  Co8  1  0.500000  0.500000  0.702199  1
  Co  Co9  1  0.000000  0.000000  0.296454  1
  Co  Co10  1  0.000000  0.500000  0.984163  1
  Co  Co11  1  0.500000  0.000000  0.014360  1
  Co  Co12  1  0.500000  0.329725  0.989314  1
  Co  Co13  1  0.500000  0.670275  0.989314  1
  Co  Co14  1  0.000000  0.163567  0.003920  1
  Co  Co15  1  0.000000  0.836433  0.003920  1
  Co  Co16  1  0.500000  0.295236  0.433146  1
  Co  Co17  1  0.500000  0.704764  0.433146  1
  Co  Co18  1  0.000000  0.202314  0.569738  1
  Co  Co19  1  0.000000  0.797686  0.569738  1
  Co  Co20  1  0.500000  0.879762  0.708294  1
  Co  Co21  1  0.500000  0.120238  0.708294  1
  Co  Co22  1  0.000000  0.622823  0.294742  1
  Co  Co23  1  0.000000  0.377177  0.294742  1
  P  P24  1  0.500000  0.500000  0.880952  1
  P  P25  1  0.000000  0.000000  0.117028  1
  P  P26  1  0.500000  0.500000  0.355761  1
  P  P27  1  0.000000  0.000000  0.655782  1
  P  P28  1  0.500000  0.309582  0.617126  1
  P  P29  1  0.500000  0.690418  0.617126  1
  P  P30  1  0.000000  0.188381  0.385965  1
  P  P31  1  0.000000  0.811619  0.385965  1
  P  P32  1  0.500000  0.851471  0.890168  1
  P  P33  1  0.500000  0.148529  0.890168  1
  P  P34  1  0.000000  0.660942  0.102335  1
  P  P35  1  0.000000  0.339058  0.102335  1
