# generated using pymatgen
data_Sm2Cu5P4Pd3
_symmetry_space_group_name_H-M   'P 1'
_cell_length_a   7.45715874
_cell_length_b   7.44303951
_cell_length_c   3.85462100
_cell_angle_alpha   90.00000000
_cell_angle_beta   90.00000000
_cell_angle_gamma   89.42396978
_symmetry_Int_Tables_number   1
_chemical_formula_structural   Sm2Cu5P4Pd3
_chemical_formula_sum   'Sm2 Cu5 P4 Pd3'
_cell_volume   213.93579099
_cell_formula_units_Z   1
loop_
 _symmetry_equiv_pos_site_id
 _symmetry_equiv_pos_as_xyz
  1  'x, y, z'
loop_
 _atom_site_type_symbol
 _atom_site_label
 _atom_site_symmetry_multiplicity
 _atom_site_fract_x
 _atom_site_fract_y
 _atom_site_fract_z
 _atom_site_occupancy
  Sm  Sm0  1  0.998793  0.999975  0.000000  1
  Sm  Sm1  1  0.498490  0.504840  0.500000  1
  Cu  Cu2  1  0.915713  0.655201  0.500000  1
  Cu  Cu3  1  0.830269  0.412583  0.000000  1
  Cu  Cu4  1  0.586783  0.170075  0.000000  1
  Cu  Cu5  1  0.084258  0.331683  0.500000  1
  Cu  Cu6  1  0.334532  0.091917  0.500000  1
  P  P7  1  0.287706  0.274839  0.000000  1
  P  P8  1  0.727198  0.710537  0.000000  1
  P  P9  1  0.787561  0.224704  0.500000  1
  P  P10  1  0.214334  0.785904  0.500000  1
  Pd  Pd11  1  0.671727  0.915805  0.500000  1
  Pd  Pd12  1  0.154062  0.577502  0.000000  1
  Pd  Pd13  1  0.408573  0.844435  0.000000  1
