# generated using pymatgen
data_PaMnB4
_symmetry_space_group_name_H-M   'P 1'
_cell_length_a   3.50302400
_cell_length_b   5.89752900
_cell_length_c   11.43246000
_cell_angle_alpha   90.00000000
_cell_angle_beta   90.00000000
_cell_angle_gamma   90.00000000
_symmetry_Int_Tables_number   1
_chemical_formula_structural   PaMnB4
_chemical_formula_sum   'Pa4 Mn4 B16'
_cell_volume   236.18531332
_cell_formula_units_Z   4
loop_
 _symmetry_equiv_pos_site_id
 _symmetry_equiv_pos_as_xyz
  1  'x, y, z'
loop_
 _atom_site_type_symbol
 _atom_site_label
 _atom_site_symmetry_multiplicity
 _atom_site_fract_x
 _atom_site_fract_y
 _atom_site_fract_z
 _atom_site_occupancy
  Pa  Pa0  1  0.500000  0.626523  0.150317  1
  Pa  Pa1  1  0.500000  0.373477  0.849683  1
  Pa  Pa2  1  0.500000  0.126523  0.349683  1
  Pa  Pa3  1  0.500000  0.873477  0.650317  1
  Mn  Mn4  1  0.500000  0.634079  0.408825  1
  Mn  Mn5  1  0.500000  0.365921  0.591175  1
  Mn  Mn6  1  0.500000  0.134079  0.091175  1
  Mn  Mn7  1  0.500000  0.865921  0.908825  1
  B  B8  1  0.000000  0.973967  0.189981  1
  B  B9  1  0.000000  0.026033  0.810019  1
  B  B10  1  0.000000  0.473967  0.310019  1
  B  B11  1  0.000000  0.526033  0.689981  1
  B  B12  1  0.000000  0.782502  0.314283  1
  B  B13  1  0.000000  0.217498  0.685717  1
  B  B14  1  0.000000  0.282502  0.185717  1
  B  B15  1  0.000000  0.717498  0.814283  1
  B  B16  1  0.000000  0.861226  0.466727  1
  B  B17  1  0.000000  0.138774  0.533273  1
  B  B18  1  0.000000  0.361226  0.033273  1
  B  B19  1  0.000000  0.638774  0.966727  1
  B  B20  1  0.000000  0.888428  0.045205  1
  B  B21  1  0.000000  0.111572  0.954795  1
  B  B22  1  0.000000  0.388428  0.454795  1
  B  B23  1  0.000000  0.611572  0.545205  1
