# generated using pymatgen
data_CaYbLuZn11
_symmetry_space_group_name_H-M   'P 1'
_cell_length_a   4.34952510
_cell_length_b   8.20057214
_cell_length_c   8.20057260
_cell_angle_alpha   65.75511328
_cell_angle_beta   74.62137416
_cell_angle_gamma   74.62137518
_symmetry_Int_Tables_number   1
_chemical_formula_structural   CaYbLuZn11
_chemical_formula_sum   'Ca1 Yb1 Lu1 Zn11'
_cell_volume   253.05780110
_cell_formula_units_Z   1
loop_
 _symmetry_equiv_pos_site_id
 _symmetry_equiv_pos_as_xyz
  1  'x, y, z'
loop_
 _atom_site_type_symbol
 _atom_site_label
 _atom_site_symmetry_multiplicity
 _atom_site_fract_x
 _atom_site_fract_y
 _atom_site_fract_z
 _atom_site_occupancy
  Ca  Ca0  1  0.999625  0.000375  0.000375  1
  Yb  Yb1  1  0.296761  0.703239  0.703239  1
  Lu  Lu2  1  0.704285  0.295715  0.295715  1
  Zn  Zn3  1  0.999994  0.500006  0.500006  1
  Zn  Zn4  1  0.500086  0.687141  0.312686  1
  Zn  Zn5  1  0.500086  0.312686  0.687141  1
  Zn  Zn6  1  0.663852  0.692624  0.979672  1
  Zn  Zn7  1  0.334810  0.307891  0.022490  1
  Zn  Zn8  1  0.663852  0.979672  0.692624  1
  Zn  Zn9  1  0.334810  0.022490  0.307891  1
  Zn  Zn10  1  0.864769  0.419860  0.850601  1
  Zn  Zn11  1  0.136151  0.572832  0.154868  1
  Zn  Zn12  1  0.864769  0.850601  0.419860  1
  Zn  Zn13  1  0.136151  0.154868  0.572832  1
