# generated using pymatgen
data_Zr8In4Cu3Pt5
_symmetry_space_group_name_H-M   'P 1'
_cell_length_a   7.44453667
_cell_length_b   7.46452095
_cell_length_c   6.95731288
_cell_angle_alpha   89.98724302
_cell_angle_beta   90.09147562
_cell_angle_gamma   89.62587371
_symmetry_Int_Tables_number   1
_chemical_formula_structural   Zr8In4Cu3Pt5
_chemical_formula_sum   'Zr8 In4 Cu3 Pt5'
_cell_volume   386.60843494
_cell_formula_units_Z   1
loop_
 _symmetry_equiv_pos_site_id
 _symmetry_equiv_pos_as_xyz
  1  'x, y, z'
loop_
 _atom_site_type_symbol
 _atom_site_label
 _atom_site_symmetry_multiplicity
 _atom_site_fract_x
 _atom_site_fract_y
 _atom_site_fract_z
 _atom_site_occupancy
  Zr  Zr0  1  0.146680  0.151591  0.001353  1
  Zr  Zr1  1  0.847080  0.851476  0.996849  1
  Zr  Zr2  1  0.653206  0.347832  0.497572  1
  Zr  Zr3  1  0.350971  0.651135  0.497807  1
  Zr  Zr4  1  0.690795  0.309590  0.002202  1
  Zr  Zr5  1  0.310240  0.690978  0.001466  1
  Zr  Zr6  1  0.809667  0.809229  0.501210  1
  Zr  Zr7  1  0.189513  0.191123  0.499405  1
  In  In8  1  0.494684  0.998943  0.250274  1
  In  In9  1  0.492020  0.003626  0.750664  1
  In  In10  1  0.002573  0.506467  0.250566  1
  In  In11  1  0.006829  0.503796  0.750063  1
  Cu  Cu12  1  0.369861  0.371655  0.796978  1
  Cu  Cu13  1  0.128874  0.871450  0.295874  1
  Cu  Cu14  1  0.130171  0.871547  0.703047  1
  Pt  Pt15  1  0.369033  0.369545  0.211289  1
  Pt  Pt16  1  0.621883  0.623117  0.782063  1
  Pt  Pt17  1  0.630911  0.631537  0.210717  1
  Pt  Pt18  1  0.877292  0.122869  0.713867  1
  Pt  Pt19  1  0.877714  0.122495  0.286737  1
