# generated using pymatgen
data_Tb3Y3(GaCo3)2
_symmetry_space_group_name_H-M   'P 1'
_cell_length_a   5.37912751
_cell_length_b   5.37912711
_cell_length_c   12.87626303
_cell_angle_alpha   89.96556730
_cell_angle_beta   90.03443153
_cell_angle_gamma   134.71607916
_symmetry_Int_Tables_number   1
_chemical_formula_structural   Tb3Y3(GaCo3)2
_chemical_formula_sum   'Tb3 Y3 Ga2 Co6'
_cell_volume   264.75236541
_cell_formula_units_Z   1
loop_
 _symmetry_equiv_pos_site_id
 _symmetry_equiv_pos_as_xyz
  1  'x, y, z'
loop_
 _atom_site_type_symbol
 _atom_site_label
 _atom_site_symmetry_multiplicity
 _atom_site_fract_x
 _atom_site_fract_y
 _atom_site_fract_z
 _atom_site_occupancy
  Tb  Tb0  1  0.000567  0.999433  0.250034  1
  Tb  Tb1  1  0.999458  0.000542  0.750106  1
  Tb  Tb2  1  0.707696  0.292304  0.602528  1
  Y  Y3  1  0.292224  0.707776  0.397375  1
  Y  Y4  1  0.292259  0.707741  0.102598  1
  Y  Y5  1  0.707822  0.292178  0.897423  1
  Ga  Ga6  1  0.000020  0.999980  0.000016  1
  Ga  Ga7  1  0.999803  0.000197  0.499850  1
  Co  Co8  1  0.696540  0.303460  0.250110  1
  Co  Co9  1  0.303264  0.696736  0.749781  1
  Co  Co10  1  0.418424  0.581576  0.595864  1
  Co  Co11  1  0.581863  0.418137  0.404499  1
  Co  Co12  1  0.581776  0.418224  0.095843  1
  Co  Co13  1  0.418284  0.581716  0.903973  1
