# generated using pymatgen
data_Nb4Cr7Si10Ru
_symmetry_space_group_name_H-M   'P 1'
_cell_length_a   4.87770362
_cell_length_b   7.51806811
_cell_length_c   9.08910277
_cell_angle_alpha   114.43940429
_cell_angle_beta   105.56473775
_cell_angle_gamma   90.00000221
_symmetry_Int_Tables_number   1
_chemical_formula_structural   Nb4Cr7Si10Ru
_chemical_formula_sum   'Nb4 Cr7 Si10 Ru1'
_cell_volume   289.96204188
_cell_formula_units_Z   1
loop_
 _symmetry_equiv_pos_site_id
 _symmetry_equiv_pos_as_xyz
  1  'x, y, z'
loop_
 _atom_site_type_symbol
 _atom_site_label
 _atom_site_symmetry_multiplicity
 _atom_site_fract_x
 _atom_site_fract_y
 _atom_site_fract_z
 _atom_site_occupancy
  Nb  Nb0  1  0.641353  0.020862  0.282705  1
  Nb  Nb1  1  0.143543  0.262913  0.287086  1
  Nb  Nb2  1  0.858932  0.736579  0.717862  1
  Nb  Nb3  1  0.357417  0.976057  0.714835  1
  Cr  Cr4  1  0.060105  0.802173  0.120210  1
  Cr  Cr5  1  0.444679  0.695275  0.387212  1
  Cr  Cr6  1  0.942533  0.695275  0.387212  1
  Cr  Cr7  1  0.057277  0.308830  0.614986  1
  Cr  Cr8  1  0.557708  0.308830  0.614986  1
  Cr  Cr9  1  0.938802  0.194021  0.877602  1
  Cr  Cr10  1  0.439543  0.683742  0.879085  1
  Si  Si11  1  0.246856  0.997359  0.999660  1
  Si  Si12  1  0.752803  0.997359  0.999660  1
  Si  Si13  1  0.065539  0.488795  0.131078  1
  Si  Si14  1  0.565431  0.647117  0.130862  1
  Si  Si15  1  0.211490  0.003545  0.422981  1
  Si  Si16  1  0.712531  0.420063  0.425060  1
  Si  Si17  1  0.288555  0.581068  0.577110  1
  Si  Si18  1  0.788407  0.997136  0.576812  1
  Si  Si19  1  0.432917  0.358076  0.865833  1
  Si  Si20  1  0.935045  0.510540  0.870088  1
  Ru  Ru21  1  0.558539  0.314384  0.117076  1
