# generated using pymatgen
data_Hg3Pd2Pt2PbO14
_symmetry_space_group_name_H-M   'P 1'
_cell_length_a   7.34811314
_cell_length_b   7.25899240
_cell_length_c   7.25899269
_cell_angle_alpha   60.08714696
_cell_angle_beta   60.56344814
_cell_angle_gamma   60.56343955
_symmetry_Int_Tables_number   1
_chemical_formula_structural   Hg3Pd2Pt2PbO14
_chemical_formula_sum   'Hg3 Pd2 Pt2 Pb1 O14'
_cell_volume   276.28044311
_cell_formula_units_Z   1
loop_
 _symmetry_equiv_pos_site_id
 _symmetry_equiv_pos_as_xyz
  1  'x, y, z'
loop_
 _atom_site_type_symbol
 _atom_site_label
 _atom_site_symmetry_multiplicity
 _atom_site_fract_x
 _atom_site_fract_y
 _atom_site_fract_z
 _atom_site_occupancy
  Hg  Hg0  1  0.125000  0.125000  0.125000  1
  Hg  Hg1  1  0.125000  0.625000  0.125000  1
  Hg  Hg2  1  0.125000  0.125000  0.625000  1
  Pd  Pd3  1  0.625000  0.625000  0.125000  1
  Pd  Pd4  1  0.625000  0.125000  0.625000  1
  Pt  Pt5  1  0.625000  0.625000  0.625000  1
  Pt  Pt6  1  0.125000  0.625000  0.625000  1
  Pb  Pb7  1  0.625000  0.125000  0.125000  1
  O  O8  1  0.702050  0.291088  0.291088  1
  O  O9  1  0.701591  0.293368  0.714736  1
  O  O10  1  0.998258  0.999548  0.999548  1
  O  O11  1  0.294972  0.703328  0.296337  1
  O  O12  1  0.701591  0.714736  0.293368  1
  O  O13  1  0.951260  0.546765  0.546765  1
  O  O14  1  0.298740  0.703235  0.703235  1
  O  O15  1  0.251742  0.250452  0.250452  1
  O  O16  1  0.955028  0.546672  0.953663  1
  O  O17  1  0.548409  0.956632  0.535264  1
  O  O18  1  0.548409  0.535264  0.956632  1
  O  O19  1  0.955028  0.953663  0.546672  1
  O  O20  1  0.547950  0.958912  0.958912  1
  O  O21  1  0.294972  0.296337  0.703328  1
