# generated using pymatgen
data_Tb5Ho11(CoHg3)2
_symmetry_space_group_name_H-M   'P 1'
_cell_length_a   10.14564800
_cell_length_b   10.14564758
_cell_length_c   7.13311500
_cell_angle_alpha   90.00000000
_cell_angle_beta   90.00000000
_cell_angle_gamma   119.99999484
_symmetry_Int_Tables_number   1
_chemical_formula_structural   Tb5Ho11(CoHg3)2
_chemical_formula_sum   'Tb5 Ho11 Co2 Hg6'
_cell_volume   635.87162154
_cell_formula_units_Z   1
loop_
 _symmetry_equiv_pos_site_id
 _symmetry_equiv_pos_as_xyz
  1  'x, y, z'
loop_
 _atom_site_type_symbol
 _atom_site_label
 _atom_site_symmetry_multiplicity
 _atom_site_fract_x
 _atom_site_fract_y
 _atom_site_fract_z
 _atom_site_occupancy
  Tb  Tb0  1  0.461357  0.922714  0.289705  1
  Tb  Tb1  1  0.077286  0.538643  0.289705  1
  Tb  Tb2  1  0.461357  0.538643  0.289705  1
  Tb  Tb3  1  0.000000  0.000000  0.772785  1
  Tb  Tb4  1  0.000000  0.000000  0.272445  1
  Ho  Ho5  1  0.825715  0.651432  0.483050  1
  Ho  Ho6  1  0.348568  0.174285  0.483050  1
  Ho  Ho7  1  0.825715  0.174285  0.483050  1
  Ho  Ho8  1  0.174290  0.348577  0.982219  1
  Ho  Ho9  1  0.651423  0.825710  0.982219  1
  Ho  Ho10  1  0.174290  0.825710  0.982219  1
  Ho  Ho11  1  0.666667  0.333333  0.185199  1
  Ho  Ho12  1  0.333333  0.666667  0.686552  1
  Ho  Ho13  1  0.539469  0.078938  0.789694  1
  Ho  Ho14  1  0.921062  0.460531  0.789694  1
  Ho  Ho15  1  0.539469  0.460531  0.789694  1
  Co  Co16  1  0.666667  0.333333  0.553893  1
  Co  Co17  1  0.333333  0.666667  0.053180  1
  Hg  Hg18  1  0.832407  0.664815  0.044029  1
  Hg  Hg19  1  0.335185  0.167593  0.044029  1
  Hg  Hg20  1  0.832407  0.167593  0.044029  1
  Hg  Hg21  1  0.167280  0.334560  0.545310  1
  Hg  Hg22  1  0.665440  0.832720  0.545310  1
  Hg  Hg23  1  0.167280  0.832720  0.545310  1
