# generated using pymatgen
data_Ac2Lu(SnPt)3
_symmetry_space_group_name_H-M   'P 1'
_cell_length_a   7.80697952
_cell_length_b   7.75685830
_cell_length_c   4.20198800
_cell_angle_alpha   90.00000000
_cell_angle_beta   90.00000000
_cell_angle_gamma   119.78783993
_symmetry_Int_Tables_number   1
_chemical_formula_structural   Ac2Lu(SnPt)3
_chemical_formula_sum   'Ac2 Lu1 Sn3 Pt3'
_cell_volume   220.84055817
_cell_formula_units_Z   1
loop_
 _symmetry_equiv_pos_site_id
 _symmetry_equiv_pos_as_xyz
  1  'x, y, z'
loop_
 _atom_site_type_symbol
 _atom_site_label
 _atom_site_symmetry_multiplicity
 _atom_site_fract_x
 _atom_site_fract_y
 _atom_site_fract_z
 _atom_site_occupancy
  Ac  Ac0  1  0.412871  0.413668  0.500000  1
  Ac  Ac1  1  0.587129  0.000797  0.500000  1
  Lu  Lu2  1  0.000000  0.595486  0.500000  1
  Sn  Sn3  1  0.759937  0.748543  0.000000  1
  Sn  Sn4  1  0.240063  0.988606  0.000000  1
  Sn  Sn5  1  0.000000  0.253148  0.000000  1
  Pt  Pt6  1  0.695551  0.354912  0.000000  1
  Pt  Pt7  1  0.304449  0.659362  0.000000  1
  Pt  Pt8  1  0.000000  0.985478  0.500000  1
