# generated using pymatgen
data_Dy2Tm6In3Fe
_symmetry_space_group_name_H-M   'P 1'
_cell_length_a   10.23500700
_cell_length_b   10.22702079
_cell_length_c   6.93692604
_cell_angle_alpha   90.05959464
_cell_angle_beta   90.00000000
_cell_angle_gamma   120.02583835
_symmetry_Int_Tables_number   1
_chemical_formula_structural   Dy2Tm6In3Fe
_chemical_formula_sum   'Dy4 Tm12 In6 Fe2'
_cell_volume   628.66825559
_cell_formula_units_Z   2
loop_
 _symmetry_equiv_pos_site_id
 _symmetry_equiv_pos_as_xyz
  1  'x, y, z'
loop_
 _atom_site_type_symbol
 _atom_site_label
 _atom_site_symmetry_multiplicity
 _atom_site_fract_x
 _atom_site_fract_y
 _atom_site_fract_z
 _atom_site_occupancy
  Dy  Dy0  1  0.534061  0.068125  0.513026  1
  Dy  Dy1  1  0.932429  0.466234  0.513514  1
  Dy  Dy2  1  0.533804  0.466234  0.513514  1
  Dy  Dy3  1  0.465568  0.931137  0.012987  1
  Tm  Tm4  1  0.068937  0.534397  0.013846  1
  Tm  Tm5  1  0.465461  0.534397  0.013846  1
  Tm  Tm6  1  0.178850  0.357700  0.721447  1
  Tm  Tm7  1  0.642975  0.821149  0.720979  1
  Tm  Tm8  1  0.178174  0.821149  0.720979  1
  Tm  Tm9  1  0.821372  0.642744  0.219513  1
  Tm  Tm10  1  0.356711  0.178806  0.219901  1
  Tm  Tm11  1  0.822095  0.178806  0.219901  1
  Tm  Tm12  1  0.667025  0.334049  0.903816  1
  Tm  Tm13  1  0.332991  0.665983  0.402837  1
  Tm  Tm14  1  0.000034  0.000070  0.501078  1
  Tm  Tm15  1  0.000029  0.000057  0.001216  1
  In  In16  1  0.837334  0.674669  0.761759  1
  In  In17  1  0.325353  0.162776  0.761613  1
  In  In18  1  0.837423  0.162776  0.761613  1
  In  In19  1  0.163107  0.326216  0.260611  1
  In  In20  1  0.674188  0.836718  0.260988  1
  In  In21  1  0.162530  0.836718  0.260988  1
  Fe  Fe22  1  0.666585  0.333167  0.288525  1
  Fe  Fe23  1  0.332961  0.665924  0.789504  1
