# generated using pymatgen
data_NdDy4Sc3(P3Ir4)4
_symmetry_space_group_name_H-M   'P 1'
_cell_length_a   12.86583900
_cell_length_b   12.86583976
_cell_length_c   3.97103000
_cell_angle_alpha   90.00000000
_cell_angle_beta   90.00000000
_cell_angle_gamma   120.00000063
_symmetry_Int_Tables_number   1
_chemical_formula_structural   NdDy4Sc3(P3Ir4)4
_chemical_formula_sum   'Nd1 Dy4 Sc3 P12 Ir16'
_cell_volume   569.25918597
_cell_formula_units_Z   1
loop_
 _symmetry_equiv_pos_site_id
 _symmetry_equiv_pos_as_xyz
  1  'x, y, z'
loop_
 _atom_site_type_symbol
 _atom_site_label
 _atom_site_symmetry_multiplicity
 _atom_site_fract_x
 _atom_site_fract_y
 _atom_site_fract_z
 _atom_site_occupancy
  Nd  Nd0  1  0.333333  0.666667  0.500000  1
  Dy  Dy1  1  0.666667  0.333333  0.500000  1
  Dy  Dy2  1  0.000084  0.811615  0.000000  1
  Dy  Dy3  1  0.188385  0.188469  0.000000  1
  Dy  Dy4  1  0.811531  0.999916  0.000000  1
  Sc  Sc5  1  0.999504  0.444189  0.500000  1
  Sc  Sc6  1  0.555811  0.555315  0.500000  1
  Sc  Sc7  1  0.444685  0.000496  0.500000  1
  P  P8  1  0.000229  0.645435  0.500000  1
  P  P9  1  0.354565  0.354794  0.500000  1
  P  P10  1  0.645206  0.999771  0.500000  1
  P  P11  1  0.518983  0.686841  0.000000  1
  P  P12  1  0.313159  0.832142  0.000000  1
  P  P13  1  0.167858  0.481017  0.000000  1
  P  P14  1  0.483061  0.169860  0.000000  1
  P  P15  1  0.686799  0.516939  0.000000  1
  P  P16  1  0.830140  0.313201  0.000000  1
  P  P17  1  0.999815  0.176617  0.500000  1
  P  P18  1  0.823383  0.823199  0.500000  1
  P  P19  1  0.176801  0.000185  0.500000  1
  Ir  Ir20  1  0.512857  0.870889  0.000000  1
  Ir  Ir21  1  0.129111  0.641968  0.000000  1
  Ir  Ir22  1  0.358032  0.487143  0.000000  1
  Ir  Ir23  1  0.490591  0.357559  0.000000  1
  Ir  Ir24  1  0.866969  0.509409  0.000000  1
  Ir  Ir25  1  0.642441  0.133031  0.000000  1
  Ir  Ir26  1  0.999560  0.277334  0.000000  1
  Ir  Ir27  1  0.722666  0.722226  0.000000  1
  Ir  Ir28  1  0.277774  0.000440  0.000000  1
  Ir  Ir29  1  0.628731  0.807099  0.500000  1
  Ir  Ir30  1  0.192901  0.821631  0.500000  1
  Ir  Ir31  1  0.178369  0.371269  0.500000  1
  Ir  Ir32  1  0.371972  0.179060  0.500000  1
  Ir  Ir33  1  0.807088  0.628028  0.500000  1
  Ir  Ir34  1  0.820940  0.192912  0.500000  1
  Ir  Ir35  1  0.000000  0.000000  0.500000  1
