# generated using pymatgen
data_Hf16Co4Ir3Os
_symmetry_space_group_name_H-M   'P 1'
_cell_length_a   8.60322806
_cell_length_b   8.60322826
_cell_length_c   8.60322922
_cell_angle_alpha   59.95133782
_cell_angle_beta   59.95133654
_cell_angle_gamma   59.95134126
_symmetry_Int_Tables_number   1
_chemical_formula_structural   Hf16Co4Ir3Os
_chemical_formula_sum   'Hf16 Co4 Ir3 Os1'
_cell_volume   449.76931141
_cell_formula_units_Z   1
loop_
 _symmetry_equiv_pos_site_id
 _symmetry_equiv_pos_as_xyz
  1  'x, y, z'
loop_
 _atom_site_type_symbol
 _atom_site_label
 _atom_site_symmetry_multiplicity
 _atom_site_fract_x
 _atom_site_fract_y
 _atom_site_fract_z
 _atom_site_occupancy
  Hf  Hf0  1  0.062564  0.645500  0.645500  1
  Hf  Hf1  1  0.645500  0.062564  0.645500  1
  Hf  Hf2  1  0.645500  0.645500  0.062564  1
  Hf  Hf3  1  0.644957  0.644957  0.644957  1
  Hf  Hf4  1  0.802662  0.802662  0.197617  1
  Hf  Hf5  1  0.197620  0.197620  0.801079  1
  Hf  Hf6  1  0.802662  0.197617  0.802662  1
  Hf  Hf7  1  0.197620  0.801079  0.197620  1
  Hf  Hf8  1  0.197617  0.802662  0.802662  1
  Hf  Hf9  1  0.801079  0.197620  0.197620  1
  Hf  Hf10  1  0.436646  0.436646  0.066314  1
  Hf  Hf11  1  0.063283  0.063283  0.436743  1
  Hf  Hf12  1  0.436646  0.066314  0.436646  1
  Hf  Hf13  1  0.063283  0.436743  0.063283  1
  Hf  Hf14  1  0.066314  0.436646  0.436646  1
  Hf  Hf15  1  0.436743  0.063283  0.063283  1
  Co  Co16  1  0.426774  0.857388  0.857388  1
  Co  Co17  1  0.857388  0.426774  0.857388  1
  Co  Co18  1  0.857388  0.857388  0.426774  1
  Co  Co19  1  0.858216  0.858216  0.858216  1
  Ir  Ir20  1  0.753191  0.415063  0.415063  1
  Ir  Ir21  1  0.415063  0.753191  0.415063  1
  Ir  Ir22  1  0.415063  0.415063  0.753191  1
  Os  Os23  1  0.416223  0.416223  0.416223  1
