# generated using pymatgen
data_Nd5GeSb2
_symmetry_space_group_name_H-M   'P 1'
_cell_length_a   8.26694100
_cell_length_b   9.35959900
_cell_length_c   12.45054800
_cell_angle_alpha   90.00000000
_cell_angle_beta   90.00000000
_cell_angle_gamma   90.00000000
_symmetry_Int_Tables_number   1
_chemical_formula_structural   Nd5GeSb2
_chemical_formula_sum   'Nd20 Ge4 Sb8'
_cell_volume   963.36429796
_cell_formula_units_Z   4
loop_
 _symmetry_equiv_pos_site_id
 _symmetry_equiv_pos_as_xyz
  1  'x, y, z'
loop_
 _atom_site_type_symbol
 _atom_site_label
 _atom_site_symmetry_multiplicity
 _atom_site_fract_x
 _atom_site_fract_y
 _atom_site_fract_z
 _atom_site_occupancy
  Nd  Nd0  1  0.336285  0.750000  0.715007  1
  Nd  Nd1  1  0.663715  0.250000  0.284993  1
  Nd  Nd2  1  0.836285  0.250000  0.784993  1
  Nd  Nd3  1  0.163715  0.750000  0.215007  1
  Nd  Nd4  1  0.034367  0.750000  0.501390  1
  Nd  Nd5  1  0.965633  0.250000  0.498610  1
  Nd  Nd6  1  0.534367  0.250000  0.998610  1
  Nd  Nd7  1  0.465633  0.750000  0.001390  1
  Nd  Nd8  1  0.859812  0.750000  0.792511  1
  Nd  Nd9  1  0.140188  0.250000  0.207489  1
  Nd  Nd10  1  0.359812  0.250000  0.707489  1
  Nd  Nd11  1  0.640188  0.750000  0.292511  1
  Nd  Nd12  1  0.688628  0.547607  0.563292  1
  Nd  Nd13  1  0.311372  0.452393  0.436708  1
  Nd  Nd14  1  0.188628  0.452393  0.936708  1
  Nd  Nd15  1  0.311372  0.047607  0.436708  1
  Nd  Nd16  1  0.811372  0.547607  0.063292  1
  Nd  Nd17  1  0.688628  0.952393  0.563292  1
  Nd  Nd18  1  0.811372  0.952393  0.063292  1
  Nd  Nd19  1  0.188628  0.047607  0.936708  1
  Ge  Ge20  1  0.083108  0.750000  0.978920  1
  Ge  Ge21  1  0.916892  0.250000  0.021080  1
  Ge  Ge22  1  0.583108  0.250000  0.521080  1
  Ge  Ge23  1  0.416892  0.750000  0.478920  1
  Sb  Sb24  1  0.569924  0.509562  0.825186  1
  Sb  Sb25  1  0.430076  0.490438  0.174814  1
  Sb  Sb26  1  0.069924  0.490438  0.674814  1
  Sb  Sb27  1  0.430076  0.009562  0.174814  1
  Sb  Sb28  1  0.930076  0.509562  0.325186  1
  Sb  Sb29  1  0.569924  0.990438  0.825186  1
  Sb  Sb30  1  0.930076  0.990438  0.325186  1
  Sb  Sb31  1  0.069924  0.009562  0.674814  1
