# generated using pymatgen
data_ErTm4(In2Pd)2
_symmetry_space_group_name_H-M   'P 1'
_cell_length_a   3.57039200
_cell_length_b   8.11896500
_cell_length_c   18.14099700
_cell_angle_alpha   90.00000000
_cell_angle_beta   90.00000000
_cell_angle_gamma   90.00000000
_symmetry_Int_Tables_number   1
_chemical_formula_structural   ErTm4(In2Pd)2
_chemical_formula_sum   'Er2 Tm8 In8 Pd4'
_cell_volume   525.86918352
_cell_formula_units_Z   2
loop_
 _symmetry_equiv_pos_site_id
 _symmetry_equiv_pos_as_xyz
  1  'x, y, z'
loop_
 _atom_site_type_symbol
 _atom_site_label
 _atom_site_symmetry_multiplicity
 _atom_site_fract_x
 _atom_site_fract_y
 _atom_site_fract_z
 _atom_site_occupancy
  Er  Er0  1  0.000000  0.000000  0.000000  1
  Er  Er1  1  0.000000  0.500000  0.500000  1
  Tm  Tm2  1  0.000000  0.117751  0.415700  1
  Tm  Tm3  1  0.000000  0.882249  0.584300  1
  Tm  Tm4  1  0.000000  0.382249  0.915700  1
  Tm  Tm5  1  0.000000  0.617751  0.084300  1
  Tm  Tm6  1  0.000000  0.243307  0.220465  1
  Tm  Tm7  1  0.000000  0.756693  0.779535  1
  Tm  Tm8  1  0.000000  0.256693  0.720465  1
  Tm  Tm9  1  0.000000  0.743307  0.279535  1
  In  In10  1  0.500000  0.423038  0.351214  1
  In  In11  1  0.500000  0.576962  0.648786  1
  In  In12  1  0.500000  0.076962  0.851214  1
  In  In13  1  0.500000  0.923038  0.148786  1
  In  In14  1  0.500000  0.292581  0.067337  1
  In  In15  1  0.500000  0.707419  0.932663  1
  In  In16  1  0.500000  0.207419  0.567337  1
  In  In17  1  0.500000  0.792581  0.432663  1
  Pd  Pd18  1  0.500000  0.024793  0.303674  1
  Pd  Pd19  1  0.500000  0.975207  0.696326  1
  Pd  Pd20  1  0.500000  0.475207  0.803674  1
  Pd  Pd21  1  0.500000  0.524793  0.196326  1
