# generated using pymatgen
data_Dy7Ho5InNi4Ag
_symmetry_space_group_name_H-M   'P 1'
_cell_length_a   8.33634260
_cell_length_b   8.33634171
_cell_length_c   8.34588662
_cell_angle_alpha   112.52809231
_cell_angle_beta   109.29724676
_cell_angle_gamma   106.59338850
_symmetry_Int_Tables_number   1
_chemical_formula_structural   Dy7Ho5InNi4Ag
_chemical_formula_sum   'Dy7 Ho5 In1 Ni4 Ag1'
_cell_volume   445.54921934
_cell_formula_units_Z   1
loop_
 _symmetry_equiv_pos_site_id
 _symmetry_equiv_pos_as_xyz
  1  'x, y, z'
loop_
 _atom_site_type_symbol
 _atom_site_label
 _atom_site_symmetry_multiplicity
 _atom_site_fract_x
 _atom_site_fract_y
 _atom_site_fract_z
 _atom_site_occupancy
  Dy  Dy0  1  0.423054  0.224407  0.198430  1
  Dy  Dy1  1  0.577681  0.775901  0.801734  1
  Dy  Dy2  1  0.025833  0.224053  0.801734  1
  Dy  Dy3  1  0.974023  0.775377  0.198430  1
  Dy  Dy4  1  0.181949  0.293901  0.475850  1
  Dy  Dy5  1  0.818058  0.704890  0.522948  1
  Dy  Dy6  1  0.182368  0.704719  0.887086  1
  Ho  Ho7  1  0.817401  0.294192  0.111593  1
  Ho  Ho8  1  0.323129  0.629974  0.306810  1
  Ho  Ho9  1  0.677574  0.370704  0.694024  1
  Ho  Ho10  1  0.323322  0.016450  0.694024  1
  Ho  Ho11  1  0.676833  0.983681  0.306810  1
  In  In12  1  0.500207  0.500511  0.000718  1
  Ni  Ni13  1  0.359938  0.000828  0.360766  1
  Ni  Ni14  1  0.639365  0.001736  0.641101  1
  Ni  Ni15  1  0.124738  0.624721  0.498848  1
  Ni  Ni16  1  0.874127  0.374110  0.498848  1
  Ag  Ag17  1  0.000401  0.999846  0.000246  1
