# generated using pymatgen
data_LiPr4Zn(FeO6)2
_symmetry_space_group_name_H-M   'P 1'
_cell_length_a   5.47969091
_cell_length_b   5.66426734
_cell_length_c   7.82200889
_cell_angle_alpha   89.49844661
_cell_angle_beta   89.76711051
_cell_angle_gamma   90.08682032
_symmetry_Int_Tables_number   1
_chemical_formula_structural   LiPr4Zn(FeO6)2
_chemical_formula_sum   'Li1 Pr4 Zn1 Fe2 O12'
_cell_volume   242.77130911
_cell_formula_units_Z   1
loop_
 _symmetry_equiv_pos_site_id
 _symmetry_equiv_pos_as_xyz
  1  'x, y, z'
loop_
 _atom_site_type_symbol
 _atom_site_label
 _atom_site_symmetry_multiplicity
 _atom_site_fract_x
 _atom_site_fract_y
 _atom_site_fract_z
 _atom_site_occupancy
  Li  Li0  1  0.000000  0.500000  0.500000  1
  Pr  Pr1  1  0.014210  0.943765  0.745296  1
  Pr  Pr2  1  0.510437  0.552328  0.254589  1
  Pr  Pr3  1  0.489563  0.447672  0.745411  1
  Pr  Pr4  1  0.985790  0.056235  0.254704  1
  Zn  Zn5  1  0.500000  0.000000  0.000000  1
  Fe  Fe6  1  0.500000  0.000000  0.500000  1
  Fe  Fe7  1  0.000000  0.500000  0.000000  1
  O  O8  1  0.697188  0.276351  0.458016  1
  O  O9  1  0.225748  0.196543  0.538629  1
  O  O10  1  0.792887  0.790439  0.049580  1
  O  O11  1  0.279187  0.695519  0.953690  1
  O  O12  1  0.302812  0.723649  0.541984  1
  O  O13  1  0.774252  0.803457  0.461371  1
  O  O14  1  0.207113  0.209561  0.950420  1
  O  O15  1  0.720813  0.304481  0.046310  1
  O  O16  1  0.080132  0.480645  0.236306  1
  O  O17  1  0.584515  0.019739  0.748711  1
  O  O18  1  0.415485  0.980261  0.251289  1
  O  O19  1  0.919868  0.519355  0.763694  1
