# generated using pymatgen
data_Ni3PtW
_symmetry_space_group_name_H-M   'P 1'
_cell_length_a   4.61636383
_cell_length_b   4.61636362
_cell_length_c   4.51808871
_cell_angle_alpha   99.74946418
_cell_angle_beta   98.66839114
_cell_angle_gamma   133.37398593
_symmetry_Int_Tables_number   1
_chemical_formula_structural   Ni3PtW
_chemical_formula_sum   'Ni3 Pt1 W1'
_cell_volume   64.00670459
_cell_formula_units_Z   1
loop_
 _symmetry_equiv_pos_site_id
 _symmetry_equiv_pos_as_xyz
  1  'x, y, z'
loop_
 _atom_site_type_symbol
 _atom_site_label
 _atom_site_symmetry_multiplicity
 _atom_site_fract_x
 _atom_site_fract_y
 _atom_site_fract_z
 _atom_site_occupancy
  Ni  Ni0  1  0.606809  0.791377  0.398185  1
  Ni  Ni1  1  0.392907  0.198244  0.591151  1
  Ni  Ni2  1  0.796564  0.407906  0.204469  1
  Pt  Pt3  1  0.198818  0.600368  0.799187  1
  W  W4  1  0.004902  0.002105  0.007008  1
