# generated using pymatgen
data_CaAl10FeIr
_symmetry_space_group_name_H-M   'P 1'
_cell_length_a   6.82125616
_cell_length_b   6.83590598
_cell_length_c   9.07402400
_cell_angle_alpha   90.00000000
_cell_angle_beta   90.00000000
_cell_angle_gamma   96.60912241
_symmetry_Int_Tables_number   1
_chemical_formula_structural   CaAl10FeIr
_chemical_formula_sum   'Ca2 Al20 Fe2 Ir2'
_cell_volume   420.30504827
_cell_formula_units_Z   2
loop_
 _symmetry_equiv_pos_site_id
 _symmetry_equiv_pos_as_xyz
  1  'x, y, z'
loop_
 _atom_site_type_symbol
 _atom_site_label
 _atom_site_symmetry_multiplicity
 _atom_site_fract_x
 _atom_site_fract_y
 _atom_site_fract_z
 _atom_site_occupancy
  Ca  Ca0  1  0.875633  0.124260  0.250000  1
  Ca  Ca1  1  0.124367  0.875740  0.750000  1
  Al  Al2  1  0.230461  0.218892  0.501695  1
  Al  Al3  1  0.769539  0.781108  0.001695  1
  Al  Al4  1  0.769539  0.781108  0.498305  1
  Al  Al5  1  0.230461  0.218892  0.998305  1
  Al  Al6  1  0.381622  0.628635  0.549729  1
  Al  Al7  1  0.618378  0.371365  0.049729  1
  Al  Al8  1  0.580828  0.864071  0.750000  1
  Al  Al9  1  0.419172  0.135929  0.250000  1
  Al  Al10  1  0.857701  0.588814  0.250000  1
  Al  Al11  1  0.142299  0.411186  0.750000  1
  Al  Al12  1  0.479102  0.219781  0.750000  1
  Al  Al13  1  0.520898  0.780219  0.250000  1
  Al  Al14  1  0.225400  0.478229  0.250000  1
  Al  Al15  1  0.774600  0.521771  0.750000  1
  Al  Al16  1  0.163195  0.845666  0.400862  1
  Al  Al17  1  0.836805  0.154334  0.900862  1
  Al  Al18  1  0.836805  0.154334  0.599138  1
  Al  Al19  1  0.163195  0.845666  0.099138  1
  Al  Al20  1  0.381622  0.628635  0.950271  1
  Al  Al21  1  0.618378  0.371365  0.450271  1
  Fe  Fe22  1  0.500000  0.000000  0.500000  1
  Fe  Fe23  1  0.500000  0.000000  0.000000  1
  Ir  Ir24  1  0.000000  0.500000  0.500000  1
  Ir  Ir25  1  0.000000  0.500000  0.000000  1
