# generated using pymatgen
data_Er5MnSi9(PIr6)3
_symmetry_space_group_name_H-M   'P 1'
_cell_length_a   12.79629738
_cell_length_b   12.79629760
_cell_length_c   3.93102200
_cell_angle_alpha   90.00000000
_cell_angle_beta   90.00000000
_cell_angle_gamma   120.27698838
_symmetry_Int_Tables_number   1
_chemical_formula_structural   Er5MnSi9(PIr6)3
_chemical_formula_sum   'Er5 Mn1 Si9 P3 Ir18'
_cell_volume   555.88610121
_cell_formula_units_Z   1
loop_
 _symmetry_equiv_pos_site_id
 _symmetry_equiv_pos_as_xyz
  1  'x, y, z'
loop_
 _atom_site_type_symbol
 _atom_site_label
 _atom_site_symmetry_multiplicity
 _atom_site_fract_x
 _atom_site_fract_y
 _atom_site_fract_z
 _atom_site_occupancy
  Er  Er0  1  0.662788  0.332192  0.000000  1
  Er  Er1  1  0.332192  0.662788  0.000000  1
  Er  Er2  1  0.814727  0.814727  0.500000  1
  Er  Er3  1  0.187740  0.005053  0.500000  1
  Er  Er4  1  0.005053  0.187740  0.500000  1
  Mn  Mn5  1  0.276570  0.276570  0.500000  1
  Si  Si6  1  0.686099  0.167732  0.500000  1
  Si  Si7  1  0.831514  0.518069  0.500000  1
  Si  Si8  1  0.472757  0.313594  0.500000  1
  Si  Si9  1  0.167732  0.686099  0.500000  1
  Si  Si10  1  0.518069  0.831514  0.500000  1
  Si  Si11  1  0.313594  0.472757  0.500000  1
  Si  Si12  1  0.631515  0.631515  0.000000  1
  Si  Si13  1  0.367664  0.001248  0.000000  1
  Si  Si14  1  0.001248  0.367664  0.000000  1
  P  P15  1  0.183797  0.183797  0.000000  1
  P  P16  1  0.823234  0.002184  0.000000  1
  P  P17  1  0.002184  0.823234  0.000000  1
  Ir  Ir18  1  0.807752  0.180497  0.000000  1
  Ir  Ir19  1  0.820325  0.628047  0.000000  1
  Ir  Ir20  1  0.371670  0.193172  0.000000  1
  Ir  Ir21  1  0.180497  0.807752  0.000000  1
  Ir  Ir22  1  0.628047  0.820325  0.000000  1
  Ir  Ir23  1  0.193172  0.371670  0.000000  1
  Ir  Ir24  1  0.444131  0.444131  0.000000  1
  Ir  Ir25  1  0.553760  0.000015  0.000000  1
  Ir  Ir26  1  0.000015  0.553760  0.000000  1
  Ir  Ir27  1  0.722388  0.000403  0.500000  1
  Ir  Ir28  1  0.000403  0.722388  0.500000  1
  Ir  Ir29  1  0.872470  0.359962  0.500000  1
  Ir  Ir30  1  0.639648  0.512443  0.500000  1
  Ir  Ir31  1  0.487014  0.127735  0.500000  1
  Ir  Ir32  1  0.359962  0.872470  0.500000  1
  Ir  Ir33  1  0.512443  0.639648  0.500000  1
  Ir  Ir34  1  0.127735  0.487014  0.500000  1
  Ir  Ir35  1  0.000091  0.000091  0.000000  1
