# generated using pymatgen
data_Ce5(Hg2Rh)2
_symmetry_space_group_name_H-M   'P 1'
_cell_length_a   3.76957900
_cell_length_b   8.13567800
_cell_length_c   17.98645000
_cell_angle_alpha   90.00000000
_cell_angle_beta   90.00000000
_cell_angle_gamma   90.00000000
_symmetry_Int_Tables_number   1
_chemical_formula_structural   Ce5(Hg2Rh)2
_chemical_formula_sum   'Ce10 Hg8 Rh4'
_cell_volume   551.60990442
_cell_formula_units_Z   2
loop_
 _symmetry_equiv_pos_site_id
 _symmetry_equiv_pos_as_xyz
  1  'x, y, z'
loop_
 _atom_site_type_symbol
 _atom_site_label
 _atom_site_symmetry_multiplicity
 _atom_site_fract_x
 _atom_site_fract_y
 _atom_site_fract_z
 _atom_site_occupancy
  Ce  Ce0  1  0.000000  0.128079  0.416357  1
  Ce  Ce1  1  0.000000  0.871921  0.583643  1
  Ce  Ce2  1  0.000000  0.371921  0.916357  1
  Ce  Ce3  1  0.000000  0.628079  0.083643  1
  Ce  Ce4  1  0.000000  0.249871  0.220058  1
  Ce  Ce5  1  0.000000  0.750129  0.779942  1
  Ce  Ce6  1  0.000000  0.250129  0.720058  1
  Ce  Ce7  1  0.000000  0.749871  0.279942  1
  Ce  Ce8  1  0.000000  0.000000  0.000000  1
  Ce  Ce9  1  0.000000  0.500000  0.500000  1
  Hg  Hg10  1  0.500000  0.432660  0.350001  1
  Hg  Hg11  1  0.500000  0.567340  0.649999  1
  Hg  Hg12  1  0.500000  0.067340  0.850001  1
  Hg  Hg13  1  0.500000  0.932660  0.149999  1
  Hg  Hg14  1  0.500000  0.294447  0.067576  1
  Hg  Hg15  1  0.500000  0.705553  0.932424  1
  Hg  Hg16  1  0.500000  0.205553  0.567576  1
  Hg  Hg17  1  0.500000  0.794447  0.432424  1
  Rh  Rh18  1  0.500000  0.038193  0.305713  1
  Rh  Rh19  1  0.500000  0.961807  0.694287  1
  Rh  Rh20  1  0.500000  0.461807  0.805713  1
  Rh  Rh21  1  0.500000  0.538193  0.194287  1
