# generated using pymatgen
data_PuTa4C5
_symmetry_space_group_name_H-M   'P 1'
_cell_length_a   13.43648368
_cell_length_b   13.43648398
_cell_length_c   13.43648300
_cell_angle_alpha   13.73862407
_cell_angle_beta   13.73861870
_cell_angle_gamma   13.73861994
_symmetry_Int_Tables_number   1
_chemical_formula_structural   PuTa4C5
_chemical_formula_sum   'Pu1 Ta4 C5'
_cell_volume   119.05970943
_cell_formula_units_Z   1
loop_
 _symmetry_equiv_pos_site_id
 _symmetry_equiv_pos_as_xyz
  1  'x, y, z'
loop_
 _atom_site_type_symbol
 _atom_site_label
 _atom_site_symmetry_multiplicity
 _atom_site_fract_x
 _atom_site_fract_y
 _atom_site_fract_z
 _atom_site_occupancy
  Pu  Pu0  1  0.500000  0.500000  0.500000  1
  Ta  Ta1  1  0.096189  0.096189  0.096189  1
  Ta  Ta2  1  0.698919  0.698919  0.698919  1
  Ta  Ta3  1  0.301081  0.301081  0.301081  1
  Ta  Ta4  1  0.903811  0.903811  0.903811  1
  C  C5  1  0.602817  0.602817  0.602817  1
  C  C6  1  0.000000  0.000000  0.000000  1
  C  C7  1  0.397183  0.397183  0.397183  1
  C  C8  1  0.205949  0.205949  0.205949  1
  C  C9  1  0.794051  0.794051  0.794051  1
