# generated using pymatgen
data_Dy3SbP6N13
_symmetry_space_group_name_H-M   'P 1'
_cell_length_a   7.32686616
_cell_length_b   7.32686756
_cell_length_c   7.32686600
_cell_angle_alpha   109.25536178
_cell_angle_beta   109.25535731
_cell_angle_gamma   109.25536465
_symmetry_Int_Tables_number   1
_chemical_formula_structural   Dy3SbP6N13
_chemical_formula_sum   'Dy3 Sb1 P6 N13'
_cell_volume   305.17988209
_cell_formula_units_Z   1
loop_
 _symmetry_equiv_pos_site_id
 _symmetry_equiv_pos_as_xyz
  1  'x, y, z'
loop_
 _atom_site_type_symbol
 _atom_site_label
 _atom_site_symmetry_multiplicity
 _atom_site_fract_x
 _atom_site_fract_y
 _atom_site_fract_z
 _atom_site_occupancy
  Dy  Dy0  1  0.987809  0.666380  0.987809  1
  Dy  Dy1  1  0.666380  0.987809  0.987809  1
  Dy  Dy2  1  0.987809  0.987809  0.666380  1
  Sb  Sb3  1  0.181218  0.181218  0.181218  1
  P  P4  1  0.510027  0.267692  0.757385  1
  P  P5  1  0.510027  0.757385  0.267692  1
  P  P6  1  0.757385  0.267692  0.510027  1
  P  P7  1  0.267692  0.510027  0.757385  1
  P  P8  1  0.757385  0.510027  0.267692  1
  P  P9  1  0.267692  0.757385  0.510027  1
  N  N10  1  0.887016  0.887016  0.887016  1
  N  N11  1  0.015446  0.713653  0.433804  1
  N  N12  1  0.290637  0.716280  0.290637  1
  N  N13  1  0.345807  0.625197  0.625197  1
  N  N14  1  0.625197  0.625197  0.345807  1
  N  N15  1  0.625197  0.345807  0.625197  1
  N  N16  1  0.713653  0.015446  0.433804  1
  N  N17  1  0.433804  0.015446  0.713653  1
  N  N18  1  0.713653  0.433804  0.015446  1
  N  N19  1  0.290637  0.290637  0.716280  1
  N  N20  1  0.716280  0.290637  0.290637  1
  N  N21  1  0.015446  0.433804  0.713653  1
  N  N22  1  0.433804  0.713653  0.015446  1
