# generated using pymatgen
data_Nd12Ga(RuBr4)3
_symmetry_space_group_name_H-M   'P 1'
_cell_length_a   10.58717722
_cell_length_b   10.58717894
_cell_length_c   10.28613800
_cell_angle_alpha   108.89622661
_cell_angle_beta   108.89622979
_cell_angle_gamma   110.04003967
_symmetry_Int_Tables_number   1
_chemical_formula_structural   Nd12Ga(RuBr4)3
_chemical_formula_sum   'Nd12 Ga1 Ru3 Br12'
_cell_volume   893.76561872
_cell_formula_units_Z   1
loop_
 _symmetry_equiv_pos_site_id
 _symmetry_equiv_pos_as_xyz
  1  'x, y, z'
loop_
 _atom_site_type_symbol
 _atom_site_label
 _atom_site_symmetry_multiplicity
 _atom_site_fract_x
 _atom_site_fract_y
 _atom_site_fract_z
 _atom_site_occupancy
  Nd  Nd0  1  0.259188  0.734023  0.229456  1
  Nd  Nd1  1  0.474834  0.734023  0.004566  1
  Nd  Nd2  1  0.235230  0.470460  0.485230  1
  Nd  Nd3  1  0.016860  0.033720  0.266860  1
  Nd  Nd4  1  0.235230  0.264770  0.750000  1
  Nd  Nd5  1  0.016860  0.483140  0.750000  1
  Nd  Nd6  1  0.474834  0.240812  0.470268  1
  Nd  Nd7  1  0.259188  0.025166  0.029732  1
  Nd  Nd8  1  0.765977  0.240812  0.270544  1
  Nd  Nd9  1  0.765977  0.025166  0.495434  1
  Nd  Nd10  1  0.466280  0.483140  0.233140  1
  Nd  Nd11  1  0.029540  0.264770  0.014770  1
  Ga  Ga12  1  0.500000  0.000000  0.250000  1
  Ru  Ru13  1  0.248644  0.497287  0.998644  1
  Ru  Ru14  1  0.002713  0.251356  0.501356  1
  Ru  Ru15  1  0.248644  0.251356  0.250000  1
  Br  Br16  1  0.249723  0.992489  0.500456  1
  Br  Br17  1  0.514542  0.507271  0.757271  1
  Br  Br18  1  0.249723  0.757234  0.749268  1
  Br  Br19  1  0.998498  0.749249  0.999249  1
  Br  Br20  1  0.992729  0.507271  0.250000  1
  Br  Br21  1  0.742766  0.992489  0.992034  1
  Br  Br22  1  0.750751  0.749249  0.250000  1
  Br  Br23  1  0.507511  0.757234  0.507966  1
  Br  Br24  1  0.507511  0.250277  0.999544  1
  Br  Br25  1  0.750751  0.501502  0.500751  1
  Br  Br26  1  0.742766  0.250277  0.750732  1
  Br  Br27  1  0.992729  0.985458  0.742729  1
