# generated using pymatgen
data_Pr4Er11Sc5Bi12
_symmetry_space_group_name_H-M   'P 1'
_cell_length_a   8.09676222
_cell_length_b   9.37556600
_cell_length_c   11.87119800
_cell_angle_alpha   90.00000000
_cell_angle_beta   90.05852876
_cell_angle_gamma   90.00000000
_symmetry_Int_Tables_number   1
_chemical_formula_structural   Pr4Er11Sc5Bi12
_chemical_formula_sum   'Pr4 Er11 Sc5 Bi12'
_cell_volume   901.16269081
_cell_formula_units_Z   1
loop_
 _symmetry_equiv_pos_site_id
 _symmetry_equiv_pos_as_xyz
  1  'x, y, z'
loop_
 _atom_site_type_symbol
 _atom_site_label
 _atom_site_symmetry_multiplicity
 _atom_site_fract_x
 _atom_site_fract_y
 _atom_site_fract_z
 _atom_site_occupancy
  Pr  Pr0  1  0.318337  0.250000  0.221970  1
  Pr  Pr1  1  0.821192  0.250000  0.280715  1
  Pr  Pr2  1  0.682092  0.750000  0.778723  1
  Pr  Pr3  1  0.181144  0.750000  0.720846  1
  Er  Er4  1  0.352610  0.750000  0.218520  1
  Er  Er5  1  0.852264  0.750000  0.280916  1
  Er  Er6  1  0.646899  0.250000  0.781565  1
  Er  Er7  1  0.693558  0.565155  0.059607  1
  Er  Er8  1  0.192799  0.934907  0.439180  1
  Er  Er9  1  0.305873  0.066020  0.936928  1
  Er  Er10  1  0.807060  0.435070  0.561834  1
  Er  Er11  1  0.305873  0.433980  0.936928  1
  Er  Er12  1  0.807060  0.064930  0.561834  1
  Er  Er13  1  0.693558  0.934845  0.059607  1
  Er  Er14  1  0.192799  0.565093  0.439180  1
  Sc  Sc15  1  0.148246  0.250000  0.720856  1
  Sc  Sc16  1  0.478230  0.250000  0.488834  1
  Sc  Sc17  1  0.978003  0.250000  0.010986  1
  Sc  Sc18  1  0.520788  0.750000  0.512559  1
  Sc  Sc19  1  0.021647  0.750000  0.987029  1
  Bi  Bi20  1  0.398079  0.750000  0.963504  1
  Bi  Bi21  1  0.897978  0.750000  0.535743  1
  Bi  Bi22  1  0.600822  0.250000  0.036679  1
  Bi  Bi23  1  0.102601  0.250000  0.471405  1
  Bi  Bi24  1  0.565601  0.990443  0.334000  1
  Bi  Bi25  1  0.065457  0.509492  0.165681  1
  Bi  Bi26  1  0.432119  0.488382  0.666514  1
  Bi  Bi27  1  0.937071  0.013166  0.830832  1
  Bi  Bi28  1  0.432119  0.011618  0.666514  1
  Bi  Bi29  1  0.937071  0.486834  0.830832  1
  Bi  Bi30  1  0.565601  0.509557  0.334000  1
  Bi  Bi31  1  0.065457  0.990508  0.165681  1
