# generated using pymatgen
data_Pr5Nd11(CdPt)4
_symmetry_space_group_name_H-M   'P 1'
_cell_length_a   10.02329740
_cell_length_b   10.05489348
_cell_length_c   10.05489345
_cell_angle_alpha   60.27327528
_cell_angle_beta   60.10389142
_cell_angle_gamma   60.10388984
_symmetry_Int_Tables_number   1
_chemical_formula_structural   Pr5Nd11(CdPt)4
_chemical_formula_sum   'Pr5 Nd11 Cd4 Pt4'
_cell_volume   719.15498916
_cell_formula_units_Z   1
loop_
 _symmetry_equiv_pos_site_id
 _symmetry_equiv_pos_as_xyz
  1  'x, y, z'
loop_
 _atom_site_type_symbol
 _atom_site_label
 _atom_site_symmetry_multiplicity
 _atom_site_fract_x
 _atom_site_fract_y
 _atom_site_fract_z
 _atom_site_occupancy
  Pr  Pr0  1  0.563788  0.936212  0.936212  1
  Pr  Pr1  1  0.564816  0.937410  0.562528  1
  Pr  Pr2  1  0.935246  0.562528  0.937410  1
  Pr  Pr3  1  0.564816  0.562528  0.937410  1
  Pr  Pr4  1  0.935246  0.937410  0.562528  1
  Nd  Nd5  1  0.349626  0.350175  0.350175  1
  Nd  Nd6  1  0.350590  0.351306  0.947514  1
  Nd  Nd7  1  0.350590  0.947514  0.351306  1
  Nd  Nd8  1  0.950023  0.350175  0.350175  1
  Nd  Nd9  1  0.808271  0.191729  0.191729  1
  Nd  Nd10  1  0.191560  0.808440  0.808440  1
  Nd  Nd11  1  0.191813  0.808731  0.191691  1
  Nd  Nd12  1  0.807765  0.191691  0.808731  1
  Nd  Nd13  1  0.191813  0.191691  0.808731  1
  Nd  Nd14  1  0.807765  0.808731  0.191691  1
  Nd  Nd15  1  0.937328  0.562672  0.562672  1
  Cd  Cd16  1  0.580709  0.580232  0.580232  1
  Cd  Cd17  1  0.580225  0.580254  0.259296  1
  Cd  Cd18  1  0.580225  0.259296  0.580254  1
  Cd  Cd19  1  0.258826  0.580232  0.580232  1
  Pt  Pt20  1  0.143130  0.143037  0.143037  1
  Pt  Pt21  1  0.142517  0.143097  0.571869  1
  Pt  Pt22  1  0.142517  0.571869  0.143097  1
  Pt  Pt23  1  0.570797  0.143037  0.143037  1
