# generated using pymatgen
data_Pr8Nd9Dy3Sn16
_symmetry_space_group_name_H-M   'P 1'
_cell_length_a   8.21125800
_cell_length_b   8.42919279
_cell_length_c   16.00350200
_cell_angle_alpha   90.00000000
_cell_angle_beta   90.00000000
_cell_angle_gamma   89.86104939
_symmetry_Int_Tables_number   1
_chemical_formula_structural   Pr8Nd9Dy3Sn16
_chemical_formula_sum   'Pr8 Nd9 Dy3 Sn16'
_cell_volume   1107.66755846
_cell_formula_units_Z   1
loop_
 _symmetry_equiv_pos_site_id
 _symmetry_equiv_pos_as_xyz
  1  'x, y, z'
loop_
 _atom_site_type_symbol
 _atom_site_label
 _atom_site_symmetry_multiplicity
 _atom_site_fract_x
 _atom_site_fract_y
 _atom_site_fract_z
 _atom_site_occupancy
  Pr  Pr0  1  0.507284  0.319323  0.903151  1
  Pr  Pr1  1  0.006132  0.179586  0.596991  1
  Pr  Pr2  1  0.493101  0.679781  0.402325  1
  Pr  Pr3  1  0.993642  0.820041  0.097346  1
  Pr  Pr4  1  0.493101  0.679781  0.097675  1
  Pr  Pr5  1  0.993642  0.820041  0.402654  1
  Pr  Pr6  1  0.507284  0.319323  0.596849  1
  Pr  Pr7  1  0.006132  0.179586  0.903009  1
  Nd  Nd8  1  0.350418  0.835758  0.877575  1
  Nd  Nd9  1  0.849228  0.664907  0.622604  1
  Nd  Nd10  1  0.650434  0.164321  0.376839  1
  Nd  Nd11  1  0.150821  0.335974  0.123989  1
  Nd  Nd12  1  0.650434  0.164321  0.123161  1
  Nd  Nd13  1  0.150821  0.335974  0.376011  1
  Nd  Nd14  1  0.350418  0.835758  0.622425  1
  Nd  Nd15  1  0.849228  0.664907  0.877396  1
  Nd  Nd16  1  0.181069  0.499747  0.750000  1
  Dy  Dy17  1  0.682352  0.999360  0.750000  1
  Dy  Dy18  1  0.816953  0.500126  0.250000  1
  Dy  Dy19  1  0.317003  0.999670  0.250000  1
  Sn  Sn20  1  0.309420  0.036503  0.043832  1
  Sn  Sn21  1  0.810043  0.463425  0.456453  1
  Sn  Sn22  1  0.690224  0.963942  0.543042  1
  Sn  Sn23  1  0.190518  0.538350  0.959286  1
  Sn  Sn24  1  0.690224  0.963942  0.956958  1
  Sn  Sn25  1  0.190518  0.538350  0.540714  1
  Sn  Sn26  1  0.309420  0.036503  0.456168  1
  Sn  Sn27  1  0.810043  0.463425  0.043547  1
  Sn  Sn28  1  0.549899  0.616750  0.750000  1
  Sn  Sn29  1  0.045148  0.885996  0.750000  1
  Sn  Sn30  1  0.454566  0.384658  0.250000  1
  Sn  Sn31  1  0.953872  0.115183  0.250000  1
  Sn  Sn32  1  0.313363  0.142979  0.750000  1
  Sn  Sn33  1  0.808857  0.350974  0.750000  1
  Sn  Sn34  1  0.687426  0.852321  0.250000  1
  Sn  Sn35  1  0.186965  0.648418  0.250000  1
