# generated using pymatgen
data_K2Al5GaTe10
_symmetry_space_group_name_H-M   'P 1'
_cell_length_a   10.86582072
_cell_length_b   10.86855953
_cell_length_c   10.87061975
_cell_angle_alpha   90.69275473
_cell_angle_beta   90.69722808
_cell_angle_gamma   90.64030674
_symmetry_Int_Tables_number   1
_chemical_formula_structural   K2Al5GaTe10
_chemical_formula_sum   'K4 Al10 Ga2 Te20'
_cell_volume   1283.50356535
_cell_formula_units_Z   2
loop_
 _symmetry_equiv_pos_site_id
 _symmetry_equiv_pos_as_xyz
  1  'x, y, z'
loop_
 _atom_site_type_symbol
 _atom_site_label
 _atom_site_symmetry_multiplicity
 _atom_site_fract_x
 _atom_site_fract_y
 _atom_site_fract_z
 _atom_site_occupancy
  K  K0  1  0.253834  0.000065  0.746358  1
  K  K1  1  0.746398  0.253915  0.000066  1
  K  K2  1  0.999977  0.746147  0.253773  1
  K  K3  1  0.499984  0.499709  0.500113  1
  Al  Al4  1  0.886393  0.574544  0.833923  1
  Al  Al5  1  0.166069  0.425495  0.113498  1
  Al  Al6  1  0.113567  0.166245  0.425466  1
  Al  Al7  1  0.425372  0.113634  0.166273  1
  Al  Al8  1  0.741740  0.158582  0.352370  1
  Al  Al9  1  0.352310  0.741705  0.158648  1
  Al  Al10  1  0.158404  0.352177  0.741886  1
  Al  Al11  1  0.257868  0.647519  0.841494  1
  Al  Al12  1  0.841362  0.258160  0.647718  1
  Al  Al13  1  0.647540  0.841283  0.257957  1
  Ga  Ga14  1  0.833934  0.886147  0.574237  1
  Ga  Ga15  1  0.574302  0.833844  0.886261  1
  Te  Te16  1  0.187214  0.813224  0.999929  1
  Te  Te17  1  0.812960  0.999888  0.187014  1
  Te  Te18  1  0.180622  0.180929  0.180752  1
  Te  Te19  1  0.821442  0.819278  0.821112  1
  Te  Te20  1  0.999929  0.186586  0.812966  1
  Te  Te21  1  0.937641  0.499977  0.062375  1
  Te  Te22  1  0.064378  0.937533  0.499483  1
  Te  Te23  1  0.499568  0.064285  0.937555  1
  Te  Te24  1  0.737680  0.707055  0.434715  1
  Te  Te25  1  0.434652  0.737708  0.707073  1
  Te  Te26  1  0.708103  0.436198  0.737866  1
  Te  Te27  1  0.262183  0.563859  0.291889  1
  Te  Te28  1  0.291907  0.262306  0.563945  1
  Te  Te29  1  0.563856  0.291975  0.262275  1
  Te  Te30  1  0.679833  0.078376  0.577861  1
  Te  Te31  1  0.577796  0.679678  0.078421  1
  Te  Te32  1  0.077256  0.577895  0.680565  1
  Te  Te33  1  0.319351  0.421824  0.922825  1
  Te  Te34  1  0.922812  0.319328  0.422030  1
  Te  Te35  1  0.421766  0.922924  0.319308  1
