# generated using pymatgen
data_Tb16Cd4Co3Ru
_symmetry_space_group_name_H-M   'P 1'
_cell_length_a   9.59920076
_cell_length_b   9.59920091
_cell_length_c   9.59920049
_cell_angle_alpha   59.68753558
_cell_angle_beta   59.68753651
_cell_angle_gamma   59.68753713
_symmetry_Int_Tables_number   1
_chemical_formula_structural   Tb16Cd4Co3Ru
_chemical_formula_sum   'Tb16 Cd4 Co3 Ru1'
_cell_volume   621.00708135
_cell_formula_units_Z   1
loop_
 _symmetry_equiv_pos_site_id
 _symmetry_equiv_pos_as_xyz
  1  'x, y, z'
loop_
 _atom_site_type_symbol
 _atom_site_label
 _atom_site_symmetry_multiplicity
 _atom_site_fract_x
 _atom_site_fract_y
 _atom_site_fract_z
 _atom_site_occupancy
  Tb  Tb0  1  0.438077  0.438077  0.057151  1
  Tb  Tb1  1  0.595311  0.595311  0.595311  1
  Tb  Tb2  1  0.188342  0.812492  0.812492  1
  Tb  Tb3  1  0.061362  0.061362  0.436379  1
  Tb  Tb4  1  0.436379  0.061362  0.061362  1
  Tb  Tb5  1  0.812492  0.188342  0.812492  1
  Tb  Tb6  1  0.438077  0.057151  0.438077  1
  Tb  Tb7  1  0.599513  0.210997  0.599513  1
  Tb  Tb8  1  0.812492  0.812492  0.188342  1
  Tb  Tb9  1  0.210997  0.599513  0.599513  1
  Tb  Tb10  1  0.808072  0.189702  0.189702  1
  Tb  Tb11  1  0.057151  0.438077  0.438077  1
  Tb  Tb12  1  0.189702  0.808072  0.189702  1
  Tb  Tb13  1  0.599513  0.599513  0.210997  1
  Tb  Tb14  1  0.189702  0.189702  0.808072  1
  Tb  Tb15  1  0.061362  0.436379  0.061362  1
  Cd  Cd16  1  0.830087  0.830087  0.507400  1
  Cd  Cd17  1  0.829903  0.829903  0.829903  1
  Cd  Cd18  1  0.507400  0.830087  0.830087  1
  Cd  Cd19  1  0.830087  0.507400  0.830087  1
  Co  Co20  1  0.828713  0.392472  0.392472  1
  Co  Co21  1  0.392472  0.828713  0.392472  1
  Co  Co22  1  0.392472  0.392472  0.828713  1
  Ru  Ru23  1  0.390323  0.390323  0.390323  1
