# generated using pymatgen
data_K4Zr6CoI18
_symmetry_space_group_name_H-M   'P 1'
_cell_length_a   11.26128135
_cell_length_b   11.41548563
_cell_length_c   11.58031436
_cell_angle_alpha   118.62876061
_cell_angle_beta   100.26384154
_cell_angle_gamma   103.56239849
_symmetry_Int_Tables_number   1
_chemical_formula_structural   K4Zr6CoI18
_chemical_formula_sum   'K4 Zr6 Co1 I18'
_cell_volume   1194.33931183
_cell_formula_units_Z   1
loop_
 _symmetry_equiv_pos_site_id
 _symmetry_equiv_pos_as_xyz
  1  'x, y, z'
loop_
 _atom_site_type_symbol
 _atom_site_label
 _atom_site_symmetry_multiplicity
 _atom_site_fract_x
 _atom_site_fract_y
 _atom_site_fract_z
 _atom_site_occupancy
  K  K0  1  0.184861  0.724355  0.564096  1
  K  K1  1  0.849058  0.962012  0.773743  1
  K  K2  1  0.150942  0.037988  0.226257  1
  K  K3  1  0.815139  0.275645  0.435904  1
  Zr  Zr4  1  0.353453  0.444909  0.773170  1
  Zr  Zr5  1  0.364646  0.623949  0.131669  1
  Zr  Zr6  1  0.643489  0.735300  0.043771  1
  Zr  Zr7  1  0.646547  0.555091  0.226830  1
  Zr  Zr8  1  0.356511  0.264700  0.956229  1
  Zr  Zr9  1  0.635354  0.376051  0.868331  1
  Co  Co10  1  0.500000  0.500000  0.000000  1
  I  I11  1  0.822004  0.422584  0.109994  1
  I  I12  1  0.514758  0.706672  0.412081  1
  I  I13  1  0.176540  0.975216  0.899427  1
  I  I14  1  0.177996  0.577416  0.890006  1
  I  I15  1  0.830070  0.834562  0.312336  1
  I  I16  1  0.503882  0.294029  0.210626  1
  I  I17  1  0.798590  0.222970  0.710114  1
  I  I18  1  0.169930  0.165438  0.687664  1
  I  I19  1  0.507887  0.912073  0.198307  1
  I  I20  1  0.819699  0.628469  0.902638  1
  I  I21  1  0.201410  0.777030  0.289886  1
  I  I22  1  0.165854  0.378439  0.496137  1
  I  I23  1  0.496118  0.705971  0.789374  1
  I  I24  1  0.823460  0.024784  0.100573  1
  I  I25  1  0.485242  0.293328  0.587919  1
  I  I26  1  0.180301  0.371531  0.097362  1
  I  I27  1  0.834146  0.621561  0.503863  1
  I  I28  1  0.492113  0.087927  0.801693  1
