# generated using pymatgen
data_BaZn12Ni
_symmetry_space_group_name_H-M   'P 1'
_cell_length_a   8.69092068
_cell_length_b   8.69091574
_cell_length_c   8.69097300
_cell_angle_alpha   120.00045905
_cell_angle_beta   120.00054182
_cell_angle_gamma   89.99973161
_symmetry_Int_Tables_number   1
_chemical_formula_structural   BaZn12Ni
_chemical_formula_sum   'Ba2 Zn24 Ni2'
_cell_volume   464.17225283
_cell_formula_units_Z   2
loop_
 _symmetry_equiv_pos_site_id
 _symmetry_equiv_pos_as_xyz
  1  'x, y, z'
loop_
 _atom_site_type_symbol
 _atom_site_label
 _atom_site_symmetry_multiplicity
 _atom_site_fract_x
 _atom_site_fract_y
 _atom_site_fract_z
 _atom_site_occupancy
  Ba  Ba0  1  0.750000  0.250000  0.500000  1
  Ba  Ba1  1  0.250000  0.750000  0.500000  1
  Zn  Zn2  1  0.293347  0.056657  0.000000  1
  Zn  Zn3  1  0.556659  0.206652  0.000001  1
  Zn  Zn4  1  0.056657  0.293348  0.000001  1
  Zn  Zn5  1  0.793348  0.443341  0.999999  1
  Zn  Zn6  1  0.206652  0.556659  0.000001  1
  Zn  Zn7  1  0.943341  0.706652  0.999999  1
  Zn  Zn8  1  0.443341  0.793348  0.999999  1
  Zn  Zn9  1  0.706652  0.943341  0.000000  1
  Zn  Zn10  1  0.943341  0.293346  0.236689  1
  Zn  Zn11  1  0.443341  0.443341  0.236690  1
  Zn  Zn12  1  0.793347  0.793347  0.236690  1
  Zn  Zn13  1  0.293346  0.943341  0.236689  1
  Zn  Zn14  1  0.056655  0.056655  0.350004  1
  Zn  Zn15  1  0.293346  0.293346  0.350003  1
  Zn  Zn16  1  0.793347  0.556656  0.350003  1
  Zn  Zn17  1  0.556656  0.793347  0.350003  1
  Zn  Zn18  1  0.443342  0.206653  0.649994  1
  Zn  Zn19  1  0.206653  0.443342  0.649994  1
  Zn  Zn20  1  0.706653  0.706653  0.649998  1
  Zn  Zn21  1  0.943340  0.943340  0.649992  1
  Zn  Zn22  1  0.706653  0.056657  0.763308  1
  Zn  Zn23  1  0.206653  0.206652  0.763310  1
  Zn  Zn24  1  0.556659  0.556659  0.763310  1
  Zn  Zn25  1  0.056657  0.706653  0.763308  1
  Ni  Ni26  1  0.999999  0.999999  0.999999  1
  Ni  Ni27  1  0.500000  0.500000  0.000000  1
