# generated using pymatgen
data_Lu12Fe2Ni3Bi
_symmetry_space_group_name_H-M   'P 1'
_cell_length_a   8.10561604
_cell_length_b   8.10542530
_cell_length_c   8.10561700
_cell_angle_alpha   110.54908604
_cell_angle_beta   109.85629197
_cell_angle_gamma   108.01967996
_symmetry_Int_Tables_number   1
_chemical_formula_structural   Lu12Fe2Ni3Bi
_chemical_formula_sum   'Lu12 Fe2 Ni3 Bi1'
_cell_volume   409.72844158
_cell_formula_units_Z   1
loop_
 _symmetry_equiv_pos_site_id
 _symmetry_equiv_pos_as_xyz
  1  'x, y, z'
loop_
 _atom_site_type_symbol
 _atom_site_label
 _atom_site_symmetry_multiplicity
 _atom_site_fract_x
 _atom_site_fract_y
 _atom_site_fract_z
 _atom_site_occupancy
  Lu  Lu0  1  0.818398  0.711473  0.529867  1
  Lu  Lu1  1  0.181602  0.288527  0.470133  1
  Lu  Lu2  1  0.181607  0.711473  0.893075  1
  Lu  Lu3  1  0.818393  0.288527  0.106925  1
  Lu  Lu4  1  0.685610  0.379414  0.693804  1
  Lu  Lu5  1  0.314390  0.620586  0.306196  1
  Lu  Lu6  1  0.685584  0.991773  0.306188  1
  Lu  Lu7  1  0.314416  0.008227  0.693812  1
  Lu  Lu8  1  0.588517  0.786717  0.801790  1
  Lu  Lu9  1  0.411483  0.213283  0.198210  1
  Lu  Lu10  1  0.984927  0.786717  0.198200  1
  Lu  Lu11  1  0.015073  0.213283  0.801800  1
  Fe  Fe12  1  0.111694  0.611708  0.500013  1
  Fe  Fe13  1  0.888306  0.388292  0.499987  1
  Ni  Ni14  1  0.632229  0.000000  0.632229  1
  Ni  Ni15  1  0.367771  0.000000  0.367771  1
  Ni  Ni16  1  0.000000  0.000000  0.000000  1
  Bi  Bi17  1  0.500000  0.500000  0.000000  1
