# generated using pymatgen
data_La2AlInIr2
_symmetry_space_group_name_H-M   'P 1'
_cell_length_a   4.24270500
_cell_length_b   7.57293600
_cell_length_c   16.78492400
_cell_angle_alpha   90.00000000
_cell_angle_beta   90.00000000
_cell_angle_gamma   90.00000000
_symmetry_Int_Tables_number   1
_chemical_formula_structural   La2AlInIr2
_chemical_formula_sum   'La8 Al4 In4 Ir8'
_cell_volume   539.29513379
_cell_formula_units_Z   4
loop_
 _symmetry_equiv_pos_site_id
 _symmetry_equiv_pos_as_xyz
  1  'x, y, z'
loop_
 _atom_site_type_symbol
 _atom_site_label
 _atom_site_symmetry_multiplicity
 _atom_site_fract_x
 _atom_site_fract_y
 _atom_site_fract_z
 _atom_site_occupancy
  La  La0  1  0.250000  0.542833  0.784088  1
  La  La1  1  0.750000  0.457167  0.215912  1
  La  La2  1  0.750000  0.957167  0.284088  1
  La  La3  1  0.250000  0.042833  0.715912  1
  La  La4  1  0.250000  0.672036  0.559934  1
  La  La5  1  0.750000  0.327964  0.440066  1
  La  La6  1  0.750000  0.827964  0.059934  1
  La  La7  1  0.250000  0.172036  0.940066  1
  Al  Al8  1  0.250000  0.499418  0.061489  1
  Al  Al9  1  0.750000  0.500582  0.938511  1
  Al  Al10  1  0.750000  0.000582  0.561489  1
  Al  Al11  1  0.250000  0.999418  0.438511  1
  In  In12  1  0.250000  0.628597  0.349791  1
  In  In13  1  0.750000  0.371403  0.650209  1
  In  In14  1  0.750000  0.871403  0.849791  1
  In  In15  1  0.250000  0.128597  0.150209  1
  Ir  Ir16  1  0.250000  0.741461  0.177188  1
  Ir  Ir17  1  0.750000  0.258539  0.822812  1
  Ir  Ir18  1  0.750000  0.758539  0.677188  1
  Ir  Ir19  1  0.250000  0.241461  0.322812  1
  Ir  Ir20  1  0.250000  0.709126  0.937863  1
  Ir  Ir21  1  0.750000  0.290874  0.062137  1
  Ir  Ir22  1  0.750000  0.790874  0.437863  1
  Ir  Ir23  1  0.250000  0.209126  0.562137  1
