# generated using pymatgen
data_La8Cd2TcIr
_symmetry_space_group_name_H-M   'P 1'
_cell_length_a   10.12011823
_cell_length_b   10.12011836
_cell_length_c   10.20020800
_cell_angle_alpha   59.73786306
_cell_angle_beta   59.73786263
_cell_angle_gamma   59.45064974
_symmetry_Int_Tables_number   1
_chemical_formula_structural   La8Cd2TcIr
_chemical_formula_sum   'La16 Cd4 Tc2 Ir2'
_cell_volume   732.67564423
_cell_formula_units_Z   2
loop_
 _symmetry_equiv_pos_site_id
 _symmetry_equiv_pos_as_xyz
  1  'x, y, z'
loop_
 _atom_site_type_symbol
 _atom_site_label
 _atom_site_symmetry_multiplicity
 _atom_site_fract_x
 _atom_site_fract_y
 _atom_site_fract_z
 _atom_site_occupancy
  La  La0  1  0.595864  0.595864  0.597988  1
  La  La1  1  0.595864  0.595864  0.210285  1
  La  La2  1  0.595191  0.211343  0.596733  1
  La  La3  1  0.211343  0.595191  0.596733  1
  La  La4  1  0.065569  0.440024  0.437179  1
  La  La5  1  0.440024  0.065569  0.057229  1
  La  La6  1  0.440024  0.065569  0.437179  1
  La  La7  1  0.065569  0.440024  0.057229  1
  La  La8  1  0.438175  0.438175  0.061825  1
  La  La9  1  0.059886  0.059886  0.440114  1
  La  La10  1  0.190949  0.807414  0.810499  1
  La  La11  1  0.807414  0.190949  0.191138  1
  La  La12  1  0.807414  0.190949  0.810499  1
  La  La13  1  0.190949  0.807414  0.191138  1
  La  La14  1  0.809396  0.809396  0.190604  1
  La  La15  1  0.193161  0.193161  0.806839  1
  Cd  Cd16  1  0.829484  0.829484  0.829409  1
  Cd  Cd17  1  0.829484  0.829484  0.511621  1
  Cd  Cd18  1  0.828971  0.512117  0.829455  1
  Cd  Cd19  1  0.512117  0.828971  0.829455  1
  Tc  Tc20  1  0.385098  0.385098  0.385347  1
  Tc  Tc21  1  0.385098  0.385098  0.844457  1
  Ir  Ir22  1  0.390520  0.832436  0.388522  1
  Ir  Ir23  1  0.832436  0.390520  0.388522  1
