# generated using pymatgen
data_Na7LiPa4Cl24
_symmetry_space_group_name_H-M   'P 1'
_cell_length_a   7.08406100
_cell_length_b   7.08406180
_cell_length_c   26.49342400
_cell_angle_alpha   90.00000000
_cell_angle_beta   90.00000000
_cell_angle_gamma   119.99999160
_symmetry_Int_Tables_number   1
_chemical_formula_structural   Na7LiPa4Cl24
_chemical_formula_sum   'Na7 Li1 Pa4 Cl24'
_cell_volume   1151.41900059
_cell_formula_units_Z   1
loop_
 _symmetry_equiv_pos_site_id
 _symmetry_equiv_pos_as_xyz
  1  'x, y, z'
loop_
 _atom_site_type_symbol
 _atom_site_label
 _atom_site_symmetry_multiplicity
 _atom_site_fract_x
 _atom_site_fract_y
 _atom_site_fract_z
 _atom_site_occupancy
  Na  Na0  1  0.999434  0.000997  0.249956  1
  Na  Na1  1  0.000312  0.000316  0.749985  1
  Na  Na2  1  0.333158  0.666575  0.000832  1
  Na  Na3  1  0.333296  0.666784  0.499394  1
  Na  Na4  1  0.334192  0.666531  0.249981  1
  Na  Na5  1  0.666058  0.333539  0.749752  1
  Na  Na6  1  0.666687  0.333645  0.999111  1
  Li  Li7  1  0.666319  0.333142  0.501111  1
  Pa  Pa8  1  0.000313  0.000138  0.999913  1
  Pa  Pa9  1  0.000198  0.000219  0.500120  1
  Pa  Pa10  1  0.333515  0.666710  0.750085  1
  Pa  Pa11  1  0.666779  0.333460  0.249925  1
  Cl  Cl12  1  0.354305  0.020281  0.305397  1
  Cl  Cl13  1  0.334352  0.979357  0.805647  1
  Cl  Cl14  1  0.998251  0.312189  0.055442  1
  Cl  Cl15  1  0.982954  0.310859  0.553563  1
  Cl  Cl16  1  0.980221  0.334674  0.305682  1
  Cl  Cl17  1  0.020426  0.353539  0.805278  1
  Cl  Cl18  1  0.354262  0.333065  0.194198  1
  Cl  Cl19  1  0.332342  0.353136  0.694473  1
  Cl  Cl20  1  0.328601  0.310141  0.446706  1
  Cl  Cl21  1  0.312365  0.314010  0.944297  1
  Cl  Cl22  1  0.689169  0.016472  0.446654  1
  Cl  Cl23  1  0.314251  0.001246  0.055331  1
  Cl  Cl24  1  0.328086  0.017866  0.553599  1
  Cl  Cl25  1  0.687241  0.686136  0.055377  1
  Cl  Cl26  1  0.689072  0.672124  0.553384  1
  Cl  Cl27  1  0.666978  0.646421  0.305637  1
  Cl  Cl28  1  0.646143  0.666880  0.805623  1
  Cl  Cl29  1  0.978856  0.645289  0.194366  1
  Cl  Cl30  1  0.019682  0.665709  0.694528  1
  Cl  Cl31  1  0.982441  0.672205  0.446721  1
  Cl  Cl32  1  0.002211  0.687765  0.944447  1
  Cl  Cl33  1  0.685604  0.997977  0.944688  1
  Cl  Cl34  1  0.665411  0.020413  0.194159  1
  Cl  Cl35  1  0.646514  0.980191  0.694633  1
