# generated using pymatgen
data_Ti10Si5PO
_symmetry_space_group_name_H-M   'P 1'
_cell_length_a   7.42415114
_cell_length_b   7.41860983
_cell_length_c   5.08234247
_cell_angle_alpha   89.95322184
_cell_angle_beta   90.09349428
_cell_angle_gamma   120.02469853
_symmetry_Int_Tables_number   1
_chemical_formula_structural   Ti10Si5PO
_chemical_formula_sum   'Ti10 Si5 P1 O1'
_cell_volume   242.35678014
_cell_formula_units_Z   1
loop_
 _symmetry_equiv_pos_site_id
 _symmetry_equiv_pos_as_xyz
  1  'x, y, z'
loop_
 _atom_site_type_symbol
 _atom_site_label
 _atom_site_symmetry_multiplicity
 _atom_site_fract_x
 _atom_site_fract_y
 _atom_site_fract_z
 _atom_site_occupancy
  Ti  Ti0  1  0.998962  0.759027  0.254517  1
  Ti  Ti1  1  0.239935  0.240973  0.254517  1
  Ti  Ti2  1  0.755922  0.000000  0.253126  1
  Ti  Ti3  1  0.998290  0.239653  0.745897  1
  Ti  Ti4  1  0.758637  0.760347  0.745897  1
  Ti  Ti5  1  0.244041  0.000000  0.744937  1
  Ti  Ti6  1  0.336960  0.671087  0.500437  1
  Ti  Ti7  1  0.665874  0.328913  0.500437  1
  Ti  Ti8  1  0.665429  0.327941  0.999252  1
  Ti  Ti9  1  0.337487  0.672059  0.999252  1
  Si  Si10  1  0.001956  0.401795  0.242695  1
  Si  Si11  1  0.600161  0.598205  0.242695  1
  Si  Si12  1  0.394696  0.000000  0.244883  1
  Si  Si13  1  0.999446  0.599613  0.757095  1
  Si  Si14  1  0.399832  0.400387  0.757095  1
  P  P15  1  0.604060  0.000000  0.756896  1
  O  O16  1  0.998310  0.000000  0.500372  1
