# generated using pymatgen
data_Tb3Y3Tm14(Cd3Ru)2
_symmetry_space_group_name_H-M   'P 1'
_cell_length_a   9.52778600
_cell_length_b   9.52778488
_cell_length_c   9.74673800
_cell_angle_alpha   90.00000000
_cell_angle_beta   90.00000000
_cell_angle_gamma   119.99999695
_symmetry_Int_Tables_number   1
_chemical_formula_structural   Tb3Y3Tm14(Cd3Ru)2
_chemical_formula_sum   'Tb3 Y3 Tm14 Cd6 Ru2'
_cell_volume   766.25597511
_cell_formula_units_Z   1
loop_
 _symmetry_equiv_pos_site_id
 _symmetry_equiv_pos_as_xyz
  1  'x, y, z'
loop_
 _atom_site_type_symbol
 _atom_site_label
 _atom_site_symmetry_multiplicity
 _atom_site_fract_x
 _atom_site_fract_y
 _atom_site_fract_z
 _atom_site_occupancy
  Tb  Tb0  1  0.540466  0.459534  0.250000  1
  Tb  Tb1  1  0.540466  0.080934  0.250000  1
  Tb  Tb2  1  0.919066  0.459534  0.250000  1
  Y  Y3  1  0.459555  0.540445  0.750000  1
  Y  Y4  1  0.459555  0.919109  0.750000  1
  Y  Y5  1  0.080891  0.540445  0.750000  1
  Tm  Tm6  1  0.000000  0.000000  0.500072  1
  Tm  Tm7  1  0.000000  0.000000  0.999928  1
  Tm  Tm8  1  0.209997  0.790003  0.439997  1
  Tm  Tm9  1  0.209997  0.419995  0.439997  1
  Tm  Tm10  1  0.580005  0.790003  0.439997  1
  Tm  Tm11  1  0.789971  0.210029  0.560033  1
  Tm  Tm12  1  0.789971  0.579941  0.560033  1
  Tm  Tm13  1  0.420059  0.210029  0.560033  1
  Tm  Tm14  1  0.789971  0.210029  0.939967  1
  Tm  Tm15  1  0.789971  0.579941  0.939967  1
  Tm  Tm16  1  0.420059  0.210029  0.939967  1
  Tm  Tm17  1  0.209997  0.790003  0.060003  1
  Tm  Tm18  1  0.209997  0.419995  0.060003  1
  Tm  Tm19  1  0.580005  0.790003  0.060003  1
  Cd  Cd20  1  0.886054  0.113946  0.250000  1
  Cd  Cd21  1  0.886054  0.772110  0.250000  1
  Cd  Cd22  1  0.227890  0.113946  0.250000  1
  Cd  Cd23  1  0.113994  0.886006  0.750000  1
  Cd  Cd24  1  0.113994  0.227987  0.750000  1
  Cd  Cd25  1  0.772013  0.886006  0.750000  1
  Ru  Ru26  1  0.333333  0.666667  0.250000  1
  Ru  Ru27  1  0.666667  0.333333  0.750000  1
