# generated using pymatgen
data_NaCa21(Ga6Hg)2
_symmetry_space_group_name_H-M   'P 1'
_cell_length_a   11.41862889
_cell_length_b   11.41862946
_cell_length_c   11.48294200
_cell_angle_alpha   59.81351122
_cell_angle_beta   59.81350957
_cell_angle_gamma   59.39558915
_symmetry_Int_Tables_number   1
_chemical_formula_structural   NaCa21(Ga6Hg)2
_chemical_formula_sum   'Na1 Ca21 Ga12 Hg2'
_cell_volume   1050.80991977
_cell_formula_units_Z   1
loop_
 _symmetry_equiv_pos_site_id
 _symmetry_equiv_pos_as_xyz
  1  'x, y, z'
loop_
 _atom_site_type_symbol
 _atom_site_label
 _atom_site_symmetry_multiplicity
 _atom_site_fract_x
 _atom_site_fract_y
 _atom_site_fract_z
 _atom_site_occupancy
  Na  Na0  1  0.499651  0.500349  0.500000  1
  Ca  Ca1  1  0.996362  0.003638  0.000000  1
  Ca  Ca2  1  0.127564  0.134775  0.127305  1
  Ca  Ca3  1  0.391024  0.873765  0.867605  1
  Ca  Ca4  1  0.870423  0.387315  0.871131  1
  Ca  Ca5  1  0.865225  0.872436  0.389643  1
  Ca  Ca6  1  0.126235  0.608976  0.132395  1
  Ca  Ca7  1  0.127564  0.134775  0.610357  1
  Ca  Ca8  1  0.612685  0.129577  0.128869  1
  Ca  Ca9  1  0.865225  0.872436  0.872695  1
  Ca  Ca10  1  0.504619  0.832629  0.495426  1
  Ca  Ca11  1  0.832534  0.500165  0.500157  1
  Ca  Ca12  1  0.504619  0.832629  0.167326  1
  Ca  Ca13  1  0.167371  0.495381  0.832674  1
  Ca  Ca14  1  0.832534  0.500165  0.167144  1
  Ca  Ca15  1  0.504670  0.495330  0.833630  1
  Ca  Ca16  1  0.166685  0.833315  0.500000  1
  Ca  Ca17  1  0.499835  0.167466  0.832856  1
  Ca  Ca18  1  0.504670  0.495330  0.166370  1
  Ca  Ca19  1  0.833375  0.166625  0.500000  1
  Ca  Ca20  1  0.167371  0.495381  0.504574  1
  Ca  Ca21  1  0.499835  0.167466  0.499843  1
  Ga  Ga22  1  0.782655  0.217345  0.218887  1
  Ga  Ga23  1  0.783868  0.781409  0.217362  1
  Ga  Ga24  1  0.218591  0.216132  0.782638  1
  Ga  Ga25  1  0.782655  0.217345  0.781113  1
  Ga  Ga26  1  0.308437  0.310589  0.308550  1
  Ga  Ga27  1  0.929000  0.692168  0.689417  1
  Ga  Ga28  1  0.690588  0.927955  0.690729  1
  Ga  Ga29  1  0.689411  0.691564  0.927577  1
  Ga  Ga30  1  0.307832  0.071000  0.310583  1
  Ga  Ga31  1  0.308436  0.310589  0.072423  1
  Ga  Ga32  1  0.072045  0.309412  0.309271  1
  Ga  Ga33  1  0.689411  0.691564  0.691449  1
  Hg  Hg34  1  0.218498  0.781502  0.216546  1
  Hg  Hg35  1  0.218498  0.781502  0.783454  1
