# generated using pymatgen
data_Lu8ReB24MoIr2
_symmetry_space_group_name_H-M   'P 1'
_cell_length_a   3.60667200
_cell_length_b   9.06276501
_cell_length_c   11.44512102
_cell_angle_alpha   90.28514542
_cell_angle_beta   90.00000000
_cell_angle_gamma   90.00000000
_symmetry_Int_Tables_number   1
_chemical_formula_structural   Lu8ReB24MoIr2
_chemical_formula_sum   'Lu8 Re1 B24 Mo1 Ir2'
_cell_volume   374.09540895
_cell_formula_units_Z   1
loop_
 _symmetry_equiv_pos_site_id
 _symmetry_equiv_pos_as_xyz
  1  'x, y, z'
loop_
 _atom_site_type_symbol
 _atom_site_label
 _atom_site_symmetry_multiplicity
 _atom_site_fract_x
 _atom_site_fract_y
 _atom_site_fract_z
 _atom_site_occupancy
  Lu  Lu0  1  0.000000  0.315235  0.410593  1
  Lu  Lu1  1  0.000000  0.684836  0.589690  1
  Lu  Lu2  1  0.000000  0.824912  0.082358  1
  Lu  Lu3  1  0.000000  0.173988  0.917004  1
  Lu  Lu4  1  0.000000  0.945762  0.373151  1
  Lu  Lu5  1  0.000000  0.053956  0.628002  1
  Lu  Lu6  1  0.000000  0.442765  0.125482  1
  Lu  Lu7  1  0.000000  0.558708  0.873951  1
  Re  Re8  1  0.000000  0.861126  0.819166  1
  B  B9  1  0.500000  0.554179  0.435147  1
  B  B10  1  0.500000  0.445964  0.565087  1
  B  B11  1  0.500000  0.050739  0.064755  1
  B  B12  1  0.500000  0.947100  0.932474  1
  B  B13  1  0.500000  0.750489  0.421993  1
  B  B14  1  0.500000  0.249577  0.578425  1
  B  B15  1  0.500000  0.251032  0.078439  1
  B  B16  1  0.500000  0.750956  0.919209  1
  B  B17  1  0.500000  0.791702  0.265995  1
  B  B18  1  0.500000  0.208131  0.734692  1
  B  B19  1  0.500000  0.295827  0.236583  1
  B  B20  1  0.500000  0.706338  0.764548  1
  B  B21  1  0.500000  0.631393  0.183601  1
  B  B22  1  0.500000  0.368938  0.816619  1
  B  B23  1  0.500000  0.131617  0.317811  1
  B  B24  1  0.500000  0.868510  0.684037  1
  B  B25  1  0.500000  0.977875  0.213687  1
  B  B26  1  0.500000  0.018588  0.786515  1
  B  B27  1  0.500000  0.481848  0.287626  1
  B  B28  1  0.500000  0.518576  0.712380  1
  B  B29  1  0.500000  0.605187  0.029160  1
  B  B30  1  0.500000  0.396129  0.970078  1
  B  B31  1  0.500000  0.105660  0.472311  1
  B  B32  1  0.500000  0.894213  0.528907  1
  Mo  Mo33  1  0.000000  0.138037  0.179770  1
  Ir  Ir34  1  0.000000  0.637194  0.322518  1
  Ir  Ir35  1  0.000000  0.362910  0.678236  1
