# generated using pymatgen
data_La4Si10(OsPt)3
_symmetry_space_group_name_H-M   'P 1'
_cell_length_a   8.33085226
_cell_length_b   8.35201482
_cell_length_c   8.35201454
_cell_angle_alpha   137.56949764
_cell_angle_beta   105.73290912
_cell_angle_gamma   89.50815193
_symmetry_Int_Tables_number   1
_chemical_formula_structural   La4Si10(OsPt)3
_chemical_formula_sum   'La4 Si10 Os3 Pt3'
_cell_volume   360.60496769
_cell_formula_units_Z   1
loop_
 _symmetry_equiv_pos_site_id
 _symmetry_equiv_pos_as_xyz
  1  'x, y, z'
loop_
 _atom_site_type_symbol
 _atom_site_label
 _atom_site_symmetry_multiplicity
 _atom_site_fract_x
 _atom_site_fract_y
 _atom_site_fract_z
 _atom_site_occupancy
  La  La0  1  0.863777  0.628685  0.235092  1
  La  La1  1  0.138002  0.371481  0.766521  1
  La  La2  1  0.396407  0.131388  0.265019  1
  La  La3  1  0.604949  0.870456  0.734493  1
  Si  Si4  1  0.493808  0.754263  0.254300  1
  Si  Si5  1  0.493808  0.239508  0.739545  1
  Si  Si6  1  0.222660  0.972782  0.743838  1
  Si  Si7  1  0.776327  0.523952  0.747237  1
  Si  Si8  1  0.776327  0.029090  0.252375  1
  Si  Si9  1  0.222660  0.478823  0.249878  1
  Si  Si10  1  0.050757  0.897721  0.153036  1
  Si  Si11  1  0.960298  0.104955  0.855343  1
  Si  Si12  1  0.749178  0.394525  0.354654  1
  Si  Si13  1  0.250824  0.604042  0.646782  1
  Os  Os14  1  0.999722  0.750625  0.751729  1
  Os  Os15  1  0.999722  0.247993  0.249098  1
  Os  Os16  1  0.245964  0.859588  0.386378  1
  Pt  Pt17  1  0.749949  0.138603  0.611345  1
  Pt  Pt18  1  0.473669  0.361708  0.111962  1
  Pt  Pt19  1  0.531192  0.639816  0.891377  1
