# generated using pymatgen
data_CaThB4(OsRu)2
_symmetry_space_group_name_H-M   'P 1'
_cell_length_a   6.77928220
_cell_length_b   5.99697323
_cell_length_c   5.61771391
_cell_angle_alpha   71.33474799
_cell_angle_beta   56.93759159
_cell_angle_gamma   51.72764953
_symmetry_Int_Tables_number   1
_chemical_formula_structural   CaThB4(OsRu)2
_chemical_formula_sum   'Ca1 Th1 B4 Os2 Ru2'
_cell_volume   150.21395042
_cell_formula_units_Z   1
loop_
 _symmetry_equiv_pos_site_id
 _symmetry_equiv_pos_as_xyz
  1  'x, y, z'
loop_
 _atom_site_type_symbol
 _atom_site_label
 _atom_site_symmetry_multiplicity
 _atom_site_fract_x
 _atom_site_fract_y
 _atom_site_fract_z
 _atom_site_occupancy
  Ca  Ca0  1  0.000000  0.000000  0.000000  1
  Th  Th1  1  0.250000  0.250000  0.250000  1
  B  B2  1  0.315046  0.684954  0.315046  1
  B  B3  1  0.684954  0.315046  0.684954  1
  B  B4  1  0.566444  0.933556  0.566444  1
  B  B5  1  0.933556  0.566444  0.933556  1
  Os  Os6  1  0.636707  0.636707  0.363293  1
  Os  Os7  1  0.363293  0.363293  0.636707  1
  Ru  Ru8  1  0.612822  0.612822  0.887178  1
  Ru  Ru9  1  0.887178  0.887178  0.612822  1
