# generated using pymatgen
data_Tb3Nd6Ho7Cd4PdPt3
_symmetry_space_group_name_H-M   'P 1'
_cell_length_a   9.79719501
_cell_length_b   9.78657717
_cell_length_c   9.78657600
_cell_angle_alpha   60.00000394
_cell_angle_beta   60.03584809
_cell_angle_gamma   60.03585510
_symmetry_Int_Tables_number   1
_chemical_formula_structural   Tb3Nd6Ho7Cd4PdPt3
_chemical_formula_sum   'Tb3 Nd6 Ho7 Cd4 Pd1 Pt3'
_cell_volume   663.87069185
_cell_formula_units_Z   1
loop_
 _symmetry_equiv_pos_site_id
 _symmetry_equiv_pos_as_xyz
  1  'x, y, z'
loop_
 _atom_site_type_symbol
 _atom_site_label
 _atom_site_symmetry_multiplicity
 _atom_site_fract_x
 _atom_site_fract_y
 _atom_site_fract_z
 _atom_site_occupancy
  Tb  Tb0  1  0.350811  0.351036  0.351036  1
  Tb  Tb1  1  0.351408  0.351666  0.946802  1
  Tb  Tb2  1  0.351408  0.946802  0.351666  1
  Nd  Nd3  1  0.937232  0.562600  0.562600  1
  Nd  Nd4  1  0.563417  0.937075  0.937075  1
  Nd  Nd5  1  0.562491  0.937478  0.562435  1
  Nd  Nd6  1  0.936914  0.563461  0.936941  1
  Nd  Nd7  1  0.562491  0.562435  0.937478  1
  Nd  Nd8  1  0.936914  0.936941  0.563461  1
  Ho  Ho9  1  0.948097  0.351226  0.351226  1
  Ho  Ho10  1  0.811721  0.187280  0.187280  1
  Ho  Ho11  1  0.186875  0.813193  0.813193  1
  Ho  Ho12  1  0.186945  0.811877  0.186939  1
  Ho  Ho13  1  0.812880  0.187410  0.812595  1
  Ho  Ho14  1  0.186945  0.186939  0.811877  1
  Ho  Ho15  1  0.812880  0.812595  0.187410  1
  Cd  Cd16  1  0.580701  0.579771  0.579771  1
  Cd  Cd17  1  0.580654  0.579779  0.259993  1
  Cd  Cd18  1  0.580654  0.259993  0.579779  1
  Cd  Cd19  1  0.260416  0.579885  0.579885  1
  Pd  Pd20  1  0.141641  0.142920  0.142920  1
  Pt  Pt21  1  0.141479  0.142826  0.572704  1
  Pt  Pt22  1  0.141479  0.572704  0.142826  1
  Pt  Pt23  1  0.573550  0.142110  0.142110  1
