# generated using pymatgen
data_Tm2LuAl3GeAu2
_symmetry_space_group_name_H-M   'P 1'
_cell_length_a   6.96618004
_cell_length_b   6.98168830
_cell_length_c   4.27582200
_cell_angle_alpha   90.00000000
_cell_angle_beta   90.00000000
_cell_angle_gamma   119.98910209
_symmetry_Int_Tables_number   1
_chemical_formula_structural   Tm2LuAl3GeAu2
_chemical_formula_sum   'Tm2 Lu1 Al3 Ge1 Au2'
_cell_volume   180.11632648
_cell_formula_units_Z   1
loop_
 _symmetry_equiv_pos_site_id
 _symmetry_equiv_pos_as_xyz
  1  'x, y, z'
loop_
 _atom_site_type_symbol
 _atom_site_label
 _atom_site_symmetry_multiplicity
 _atom_site_fract_x
 _atom_site_fract_y
 _atom_site_fract_z
 _atom_site_occupancy
  Tm  Tm0  1  0.421837  0.422514  0.500000  1
  Tm  Tm1  1  0.577645  0.999803  0.500000  1
  Lu  Lu2  1  0.001266  0.578876  0.500000  1
  Al  Al3  1  0.751468  0.761919  0.000000  1
  Al  Al4  1  0.237867  0.989154  0.000000  1
  Al  Al5  1  0.010369  0.248898  0.000000  1
  Ge  Ge6  1  0.667767  0.333925  0.000000  1
  Au  Au7  1  0.331754  0.666156  0.000000  1
  Au  Au8  1  0.000027  0.998755  0.500000  1
