# generated using pymatgen
data_Ce8Ti12Si15Tc
_symmetry_space_group_name_H-M   'P 1'
_cell_length_a   7.12156129
_cell_length_b   7.07678470
_cell_length_c   13.17823769
_cell_angle_alpha   89.86743814
_cell_angle_beta   90.24013694
_cell_angle_gamma   90.20929661
_symmetry_Int_Tables_number   1
_chemical_formula_structural   Ce8Ti12Si15Tc
_chemical_formula_sum   'Ce8 Ti12 Si15 Tc1'
_cell_volume   664.14158928
_cell_formula_units_Z   1
loop_
 _symmetry_equiv_pos_site_id
 _symmetry_equiv_pos_as_xyz
  1  'x, y, z'
loop_
 _atom_site_type_symbol
 _atom_site_label
 _atom_site_symmetry_multiplicity
 _atom_site_fract_x
 _atom_site_fract_y
 _atom_site_fract_z
 _atom_site_occupancy
  Ce  Ce0  1  0.991443  0.670298  0.031384  1
  Ce  Ce1  1  0.004920  0.340955  0.529426  1
  Ce  Ce2  1  0.670333  0.991190  0.968391  1
  Ce  Ce3  1  0.167529  0.509024  0.782232  1
  Ce  Ce4  1  0.839753  0.499338  0.287814  1
  Ce  Ce5  1  0.510721  0.169781  0.217409  1
  Ce  Ce6  1  0.492384  0.833310  0.719735  1
  Ce  Ce7  1  0.325533  0.997666  0.467887  1
  Ti  Ti8  1  0.350600  0.506852  0.371964  1
  Ti  Ti9  1  0.848713  0.989448  0.376967  1
  Ti  Ti10  1  0.008686  0.157920  0.121593  1
  Ti  Ti11  1  0.992276  0.841858  0.620283  1
  Ti  Ti12  1  0.507594  0.337155  0.627928  1
  Ti  Ti13  1  0.158195  0.008150  0.877315  1
  Ti  Ti14  1  0.665852  0.674688  0.500620  1
  Ti  Ti15  1  0.827865  0.172009  0.750368  1
  Ti  Ti16  1  0.172833  0.832056  0.247181  1
  Ti  Ti17  1  0.329212  0.330534  0.999851  1
  Ti  Ti18  1  0.495131  0.658328  0.126313  1
  Ti  Ti19  1  0.658386  0.495235  0.873728  1
  Si  Si20  1  0.958024  0.293665  0.933535  1
  Si  Si21  1  0.703464  0.041967  0.566128  1
  Si  Si22  1  0.209418  0.459617  0.182516  1
  Si  Si23  1  0.789160  0.541639  0.685568  1
  Si  Si24  1  0.458178  0.208787  0.817201  1
  Si  Si25  1  0.539514  0.795822  0.314196  1
  Si  Si26  1  0.294335  0.959813  0.065503  1
  Si  Si27  1  0.799614  0.874538  0.186646  1
  Si  Si28  1  0.304094  0.621849  0.562990  1
  Si  Si29  1  0.701761  0.373876  0.061462  1
  Si  Si30  1  0.622122  0.291905  0.439416  1
  Si  Si31  1  0.372740  0.700578  0.938895  1
  Si  Si32  1  0.131636  0.201083  0.309826  1
  Si  Si33  1  0.198755  0.128021  0.688088  1
  Si  Si34  1  0.872878  0.800308  0.811100  1
  Tc  Tc35  1  0.026348  0.690735  0.438542  1
