# generated using pymatgen
data_Er2PaSn3PtRh2
_symmetry_space_group_name_H-M   'P 1'
_cell_length_a   7.49559918
_cell_length_b   7.45360189
_cell_length_c   3.96801500
_cell_angle_alpha   90.00000000
_cell_angle_beta   90.00000000
_cell_angle_gamma   119.61151745
_symmetry_Int_Tables_number   1
_chemical_formula_structural   Er2PaSn3PtRh2
_chemical_formula_sum   'Er2 Pa1 Sn3 Pt1 Rh2'
_cell_volume   192.73620403
_cell_formula_units_Z   1
loop_
 _symmetry_equiv_pos_site_id
 _symmetry_equiv_pos_as_xyz
  1  'x, y, z'
loop_
 _atom_site_type_symbol
 _atom_site_label
 _atom_site_symmetry_multiplicity
 _atom_site_fract_x
 _atom_site_fract_y
 _atom_site_fract_z
 _atom_site_occupancy
  Er  Er0  1  0.000174  0.594897  0.000000  1
  Er  Er1  1  0.594870  0.998922  0.000000  1
  Pa  Pa2  1  0.406945  0.415159  0.000000  1
  Sn  Sn3  1  0.754178  0.758250  0.500000  1
  Sn  Sn4  1  0.988736  0.256466  0.500000  1
  Sn  Sn5  1  0.254395  0.983773  0.500000  1
  Pt  Pt6  1  0.649010  0.334570  0.500000  1
  Rh  Rh7  1  0.015776  0.014614  0.000000  1
  Rh  Rh8  1  0.335915  0.643348  0.500000  1
