# generated using pymatgen
data_Eu4Sb3AsO14
_symmetry_space_group_name_H-M   'P 1'
_cell_length_a   7.57736646
_cell_length_b   7.57736664
_cell_length_c   7.55422900
_cell_angle_alpha   59.89864026
_cell_angle_beta   59.89863171
_cell_angle_gamma   60.00000031
_symmetry_Int_Tables_number   1
_chemical_formula_structural   Eu4Sb3AsO14
_chemical_formula_sum   'Eu4 Sb3 As1 O14'
_cell_volume   306.22782577
_cell_formula_units_Z   1
loop_
 _symmetry_equiv_pos_site_id
 _symmetry_equiv_pos_as_xyz
  1  'x, y, z'
loop_
 _atom_site_type_symbol
 _atom_site_label
 _atom_site_symmetry_multiplicity
 _atom_site_fract_x
 _atom_site_fract_y
 _atom_site_fract_z
 _atom_site_occupancy
  Eu  Eu0  1  0.125000  0.625000  0.125000  1
  Eu  Eu1  1  0.125000  0.125000  0.625000  1
  Eu  Eu2  1  0.625000  0.125000  0.125000  1
  Eu  Eu3  1  0.125000  0.125000  0.125000  1
  Sb  Sb4  1  0.625000  0.125000  0.625000  1
  Sb  Sb5  1  0.125000  0.625000  0.625000  1
  Sb  Sb6  1  0.625000  0.625000  0.625000  1
  As  As7  1  0.625000  0.625000  0.125000  1
  O  O8  1  0.705061  0.705061  0.305906  1
  O  O9  1  0.947483  0.545015  0.560018  1
  O  O10  1  0.544939  0.966030  0.944094  1
  O  O11  1  0.947483  0.947483  0.560018  1
  O  O12  1  0.966030  0.544939  0.944094  1
  O  O13  1  0.545015  0.947483  0.560018  1
  O  O14  1  0.283970  0.705061  0.305906  1
  O  O15  1  0.302517  0.704985  0.689982  1
  O  O16  1  0.705061  0.283970  0.305906  1
  O  O17  1  0.704985  0.302517  0.689982  1
  O  O18  1  0.544939  0.544939  0.944094  1
  O  O19  1  0.302517  0.302517  0.689982  1
  O  O20  1  0.249106  0.249106  0.252680  1
  O  O21  1  0.000894  0.000894  0.997320  1
