# generated using pymatgen
data_Yb3Zn3(IrO6)2
_symmetry_space_group_name_H-M   'P 1'
_cell_length_a   10.66930890
_cell_length_b   10.66930839
_cell_length_c   10.66930900
_cell_angle_alpha   109.47121989
_cell_angle_beta   109.47121893
_cell_angle_gamma   109.47122060
_symmetry_Int_Tables_number   1
_chemical_formula_structural   Yb3Zn3(IrO6)2
_chemical_formula_sum   'Yb12 Zn12 Ir8 O48'
_cell_volume   934.94695850
_cell_formula_units_Z   4
loop_
 _symmetry_equiv_pos_site_id
 _symmetry_equiv_pos_as_xyz
  1  'x, y, z'
loop_
 _atom_site_type_symbol
 _atom_site_label
 _atom_site_symmetry_multiplicity
 _atom_site_fract_x
 _atom_site_fract_y
 _atom_site_fract_z
 _atom_site_occupancy
  Yb  Yb0  1  0.875000  0.750000  0.125000  1
  Yb  Yb1  1  0.750001  0.375001  0.125001  1
  Yb  Yb2  1  0.875001  0.125000  0.249999  1
  Yb  Yb3  1  0.375000  0.625000  0.250001  1
  Yb  Yb4  1  0.250001  0.125000  0.375000  1
  Yb  Yb5  1  0.625002  0.250001  0.375000  1
  Yb  Yb6  1  0.375000  0.750000  0.625000  1
  Yb  Yb7  1  0.750001  0.875002  0.625002  1
  Yb  Yb8  1  0.125001  0.875000  0.750001  1
  Yb  Yb9  1  0.624999  0.375000  0.750001  1
  Yb  Yb10  1  0.125000  0.249999  0.875000  1
  Yb  Yb11  1  0.250001  0.625000  0.875000  1
  Zn  Zn12  1  0.375000  0.250001  0.124999  1
  Zn  Zn13  1  0.250000  0.875002  0.125000  1
  Zn  Zn14  1  0.625001  0.875001  0.250001  1
  Zn  Zn15  1  0.124999  0.375000  0.250002  1
  Zn  Zn16  1  0.750000  0.624999  0.375000  1
  Zn  Zn17  1  0.125001  0.750001  0.375001  1
  Zn  Zn18  1  0.875001  0.250001  0.625001  1
  Zn  Zn19  1  0.250001  0.375000  0.625001  1
  Zn  Zn20  1  0.375000  0.125001  0.750001  1
  Zn  Zn21  1  0.875001  0.625001  0.750002  1
  Zn  Zn22  1  0.750001  0.124999  0.874999  1
  Zn  Zn23  1  0.625000  0.750001  0.875000  1
  Ir  Ir24  1  0.000000  0.000000  0.000000  1
  Ir  Ir25  1  0.500001  0.000000  0.000000  1
  Ir  Ir26  1  0.500000  0.500000  0.000000  1
  Ir  Ir27  1  0.000000  0.500001  0.000000  1
  Ir  Ir28  1  0.000000  0.500001  0.500000  1
  Ir  Ir29  1  0.500002  0.000000  0.500000  1
  Ir  Ir30  1  0.000000  0.000000  0.500001  1
  Ir  Ir31  1  0.500001  0.500001  0.500001  1
  O  O32  1  0.828129  0.913873  0.030414  1
  O  O33  1  0.702285  0.116542  0.030414  1
  O  O34  1  0.116542  0.414258  0.086127  1
  O  O35  1  0.469587  0.671872  0.086127  1
  O  O36  1  0.202285  0.671870  0.085743  1
  O  O37  1  0.383459  0.413873  0.085743  1
  O  O38  1  0.086128  0.914257  0.116541  1
  O  O39  1  0.530413  0.202283  0.116541  1
  O  O40  1  0.702284  0.585744  0.171870  1
  O  O41  1  0.969586  0.586127  0.171870  1
  O  O42  1  0.085742  0.171870  0.202284  1
  O  O43  1  0.616541  0.030414  0.202284  1
  O  O44  1  0.969587  0.383459  0.297716  1
  O  O45  1  0.828130  0.914258  0.297717  1
  O  O46  1  0.413874  0.030414  0.328130  1
  O  O47  1  0.414257  0.297716  0.328130  1
  O  O48  1  0.085743  0.913873  0.383459  1
  O  O49  1  0.797717  0.469587  0.383459  1
  O  O50  1  0.328129  0.797716  0.414257  1
  O  O51  1  0.586127  0.616542  0.414258  1
  O  O52  1  0.328130  0.530414  0.413873  1
  O  O53  1  0.585743  0.883459  0.413874  1
  O  O54  1  0.086127  0.171869  0.469586  1
  O  O55  1  0.883460  0.297716  0.469586  1
  O  O56  1  0.116541  0.702284  0.530414  1
  O  O57  1  0.913875  0.828130  0.530414  1
  O  O58  1  0.671870  0.469588  0.586127  1
  O  O59  1  0.414258  0.116542  0.586129  1
  O  O60  1  0.413873  0.383459  0.585742  1
  O  O61  1  0.671872  0.202285  0.585743  1
  O  O62  1  0.202285  0.530413  0.616541  1
  O  O63  1  0.914258  0.086127  0.616541  1
  O  O64  1  0.585742  0.702284  0.671870  1
  O  O65  1  0.586127  0.969588  0.671870  1
  O  O66  1  0.171871  0.085742  0.702284  1
  O  O67  1  0.030414  0.616541  0.702284  1
  O  O68  1  0.383459  0.969586  0.797716  1
  O  O69  1  0.914256  0.828129  0.797716  1
  O  O70  1  0.297716  0.414257  0.828128  1
  O  O71  1  0.030413  0.413873  0.828130  1
  O  O72  1  0.913874  0.085743  0.883458  1
  O  O73  1  0.469587  0.797717  0.883459  1
  O  O74  1  0.616541  0.586128  0.914257  1
  O  O75  1  0.797716  0.328130  0.914257  1
  O  O76  1  0.530412  0.328129  0.913871  1
  O  O77  1  0.883460  0.585743  0.913874  1
  O  O78  1  0.171871  0.086127  0.969586  1
  O  O79  1  0.297717  0.883459  0.969588  1
