# generated using pymatgen
data_Li2Dy7Y(SiB4)4
_symmetry_space_group_name_H-M   'P 1'
_cell_length_a   7.15341301
_cell_length_b   7.15341301
_cell_length_c   7.84698602
_cell_angle_alpha   89.99447669
_cell_angle_beta   90.00552331
_cell_angle_gamma   89.99964771
_symmetry_Int_Tables_number   1
_chemical_formula_structural   Li2Dy7Y(SiB4)4
_chemical_formula_sum   'Li2 Dy7 Y1 Si4 B16'
_cell_volume   401.54061054
_cell_formula_units_Z   1
loop_
 _symmetry_equiv_pos_site_id
 _symmetry_equiv_pos_as_xyz
  1  'x, y, z'
loop_
 _atom_site_type_symbol
 _atom_site_label
 _atom_site_symmetry_multiplicity
 _atom_site_fract_x
 _atom_site_fract_y
 _atom_site_fract_z
 _atom_site_occupancy
  Li  Li0  1  0.000002  0.999997  0.500004  1
  Li  Li1  1  0.500003  0.499998  0.500004  1
  Dy  Dy2  1  0.683430  0.183365  0.235766  1
  Dy  Dy3  1  0.316621  0.816631  0.764287  1
  Dy  Dy4  1  0.316635  0.816570  0.235766  1
  Dy  Dy5  1  0.816560  0.683440  0.235766  1
  Dy  Dy6  1  0.816622  0.683378  0.764277  1
  Dy  Dy7  1  0.683369  0.183379  0.764287  1
  Dy  Dy8  1  0.183366  0.316634  0.764286  1
  Y  Y9  1  0.183337  0.316663  0.236162  1
  Si  Si10  1  0.114761  0.614926  0.500097  1
  Si  Si11  1  0.885074  0.385239  0.500097  1
  Si  Si12  1  0.385270  0.114730  0.500132  1
  Si  Si13  1  0.614820  0.885180  0.499966  1
  B  B14  1  0.174042  0.039781  0.999949  1
  B  B15  1  0.825937  0.960093  0.000018  1
  B  B16  1  0.959984  0.173980  0.999908  1
  B  B17  1  0.326020  0.540016  0.999908  1
  B  B18  1  0.039884  0.825942  0.000011  1
  B  B19  1  0.674058  0.460116  0.000011  1
  B  B20  1  0.539907  0.674063  0.000018  1
  B  B21  1  0.460219  0.325958  0.999949  1
  B  B22  1  0.088996  0.589066  0.999804  1
  B  B23  1  0.910934  0.411004  0.999804  1
  B  B24  1  0.411074  0.088926  0.999841  1
  B  B25  1  0.589007  0.910993  0.999980  1
  B  B26  1  0.999895  0.999823  0.161198  1
  B  B27  1  0.000012  0.000016  0.838751  1
  B  B28  1  0.499984  0.499988  0.838751  1
  B  B29  1  0.500177  0.500105  0.161198  1
