# generated using pymatgen
data_YEr15CdIn3IrPt3
_symmetry_space_group_name_H-M   'P 1'
_cell_length_a   9.62524571
_cell_length_b   9.63534518
_cell_length_c   9.61667000
_cell_angle_alpha   60.06410117
_cell_angle_beta   60.02947521
_cell_angle_gamma   60.11601886
_symmetry_Int_Tables_number   1
_chemical_formula_structural   YEr15CdIn3IrPt3
_chemical_formula_sum   'Y1 Er15 Cd1 In3 Ir1 Pt3'
_cell_volume   631.64839771
_cell_formula_units_Z   1
loop_
 _symmetry_equiv_pos_site_id
 _symmetry_equiv_pos_as_xyz
  1  'x, y, z'
loop_
 _atom_site_type_symbol
 _atom_site_label
 _atom_site_symmetry_multiplicity
 _atom_site_fract_x
 _atom_site_fract_y
 _atom_site_fract_z
 _atom_site_occupancy
  Y  Y0  1  0.061752  0.062032  0.438108  1
  Er  Er1  1  0.646895  0.057511  0.647797  1
  Er  Er2  1  0.191377  0.806801  0.191406  1
  Er  Er3  1  0.438314  0.062089  0.437699  1
  Er  Er4  1  0.186922  0.193412  0.809833  1
  Er  Er5  1  0.651493  0.647276  0.652090  1
  Er  Er6  1  0.052240  0.645472  0.651144  1
  Er  Er7  1  0.438314  0.062089  0.061898  1
  Er  Er8  1  0.651493  0.647276  0.049141  1
  Er  Er9  1  0.191377  0.806801  0.810415  1
  Er  Er10  1  0.808921  0.193078  0.811065  1
  Er  Er11  1  0.808921  0.193078  0.186936  1
  Er  Er12  1  0.809849  0.808623  0.190764  1
  Er  Er13  1  0.061185  0.436537  0.439913  1
  Er  Er14  1  0.438179  0.435164  0.063329  1
  Er  Er15  1  0.061185  0.436537  0.062366  1
  Cd  Cd16  1  0.749002  0.418616  0.416191  1
  In  In17  1  0.417147  0.417025  0.749552  1
  In  In18  1  0.418794  0.748343  0.416431  1
  In  In19  1  0.417147  0.417025  0.416276  1
  Ir  Ir20  1  0.858920  0.426444  0.857319  1
  Pt  Pt21  1  0.856842  0.859258  0.856238  1
  Pt  Pt22  1  0.426891  0.860254  0.856429  1
  Pt  Pt23  1  0.856842  0.859258  0.427664  1
