# generated using pymatgen
data_Cs3Mo(ClF)3
_symmetry_space_group_name_H-M   'P 1'
_cell_length_a   7.45359704
_cell_length_b   7.45357907
_cell_length_c   7.45358016
_cell_angle_alpha   61.31481491
_cell_angle_beta   61.31508189
_cell_angle_gamma   61.31508955
_symmetry_Int_Tables_number   1
_chemical_formula_structural   Cs3Mo(ClF)3
_chemical_formula_sum   'Cs3 Mo1 Cl3 F3'
_cell_volume   301.46077585
_cell_formula_units_Z   1
loop_
 _symmetry_equiv_pos_site_id
 _symmetry_equiv_pos_as_xyz
  1  'x, y, z'
loop_
 _atom_site_type_symbol
 _atom_site_label
 _atom_site_symmetry_multiplicity
 _atom_site_fract_x
 _atom_site_fract_y
 _atom_site_fract_z
 _atom_site_occupancy
  Cs  Cs0  1  0.238468  0.238467  0.238467  1
  Cs  Cs1  1  0.525857  0.525856  0.525856  1
  Cs  Cs2  1  0.763776  0.763775  0.763776  1
  Mo  Mo3  1  0.973861  0.973863  0.973863  1
  Cl  Cl4  1  0.266705  0.745384  0.147047  1
  Cl  Cl5  1  0.745387  0.147050  0.266703  1
  Cl  Cl6  1  0.147053  0.266700  0.745387  1
  F  F7  1  0.844993  0.719158  0.148949  1
  F  F8  1  0.148951  0.844996  0.719156  1
  F  F9  1  0.719153  0.148953  0.844998  1
