# generated using pymatgen
data_Tb5Pd13Au2
_symmetry_space_group_name_H-M   'P 1'
_cell_length_a   4.18021800
_cell_length_b   4.14973400
_cell_length_c   20.66017400
_cell_angle_alpha   90.00000000
_cell_angle_beta   90.00000000
_cell_angle_gamma   90.00000000
_symmetry_Int_Tables_number   1
_chemical_formula_structural   Tb5Pd13Au2
_chemical_formula_sum   'Tb5 Pd13 Au2'
_cell_volume   358.38775681
_cell_formula_units_Z   1
loop_
 _symmetry_equiv_pos_site_id
 _symmetry_equiv_pos_as_xyz
  1  'x, y, z'
loop_
 _atom_site_type_symbol
 _atom_site_label
 _atom_site_symmetry_multiplicity
 _atom_site_fract_x
 _atom_site_fract_y
 _atom_site_fract_z
 _atom_site_occupancy
  Tb  Tb0  1  0.000000  0.000000  0.198208  1
  Tb  Tb1  1  0.000000  0.000000  0.396719  1
  Tb  Tb2  1  0.000000  0.000000  0.605033  1
  Tb  Tb3  1  0.000000  0.000000  0.801345  1
  Tb  Tb4  1  0.000000  0.000000  0.998759  1
  Pd  Pd5  1  0.500000  0.500000  0.000687  1
  Pd  Pd6  1  0.500000  0.500000  0.398115  1
  Pd  Pd7  1  0.500000  0.500000  0.600985  1
  Pd  Pd8  1  0.500000  0.500000  0.800725  1
  Pd  Pd9  1  0.500000  0.000000  0.099852  1
  Pd  Pd10  1  0.500000  0.000000  0.298749  1
  Pd  Pd11  1  0.500000  0.000000  0.700932  1
  Pd  Pd12  1  0.500000  0.000000  0.900633  1
  Pd  Pd13  1  0.000000  0.500000  0.099798  1
  Pd  Pd14  1  0.000000  0.500000  0.298692  1
  Pd  Pd15  1  0.000000  0.500000  0.499705  1
  Pd  Pd16  1  0.000000  0.500000  0.701170  1
  Pd  Pd17  1  0.000000  0.500000  0.900562  1
  Au  Au18  1  0.500000  0.500000  0.199110  1
  Au  Au19  1  0.500000  0.000000  0.500220  1
