# generated using pymatgen
data_Sc7TiAl14GaRh7
_symmetry_space_group_name_H-M   'P 1'
_cell_length_a   8.86384619
_cell_length_b   8.86225224
_cell_length_c   8.86384513
_cell_angle_alpha   120.07410124
_cell_angle_beta   119.93411406
_cell_angle_gamma   89.99809213
_symmetry_Int_Tables_number   1
_chemical_formula_structural   Sc7TiAl14GaRh7
_chemical_formula_sum   'Sc7 Ti1 Al14 Ga1 Rh7'
_cell_volume   492.29579752
_cell_formula_units_Z   1
loop_
 _symmetry_equiv_pos_site_id
 _symmetry_equiv_pos_as_xyz
  1  'x, y, z'
loop_
 _atom_site_type_symbol
 _atom_site_label
 _atom_site_symmetry_multiplicity
 _atom_site_fract_x
 _atom_site_fract_y
 _atom_site_fract_z
 _atom_site_occupancy
  Sc  Sc0  1  0.795572  0.288207  0.073167  1
  Sc  Sc1  1  0.215040  0.288207  0.492636  1
  Sc  Sc2  1  0.207127  0.704294  0.497167  1
  Sc  Sc3  1  0.216911  0.721777  0.931499  1
  Sc  Sc4  1  0.790277  0.721777  0.504866  1
  Sc  Sc5  1  0.776812  0.276428  0.499616  1
  Sc  Sc6  1  0.379832  0.121355  0.741524  1
  Ti  Ti7  1  0.379625  0.635549  0.255924  1
  Al  Al8  1  0.163775  0.336559  0.172784  1
  Al  Al9  1  0.160020  0.983567  0.823547  1
  Al  Al10  1  0.155123  0.343529  0.814906  1
  Al  Al11  1  0.528621  0.343529  0.188405  1
  Al  Al12  1  0.838179  0.659103  0.820924  1
  Al  Al13  1  0.838433  0.017332  0.178899  1
  Al  Al14  1  0.835547  0.661885  0.173744  1
  Al  Al15  1  0.488142  0.661885  0.826339  1
  Al  Al16  1  0.379795  0.122776  0.257639  1
  Al  Al17  1  0.865139  0.122776  0.742981  1
  Al  Al18  1  0.620281  0.874051  0.253770  1
  Al  Al19  1  0.621176  0.366830  0.745655  1
  Al  Al20  1  0.620257  0.876255  0.741986  1
  Al  Al21  1  0.134269  0.876255  0.255998  1
  Ga  Ga22  1  0.991228  0.492860  0.501631  1
  Rh  Rh23  1  0.995518  0.000299  0.500248  1
  Rh  Rh24  1  0.500052  0.000299  0.004782  1
  Rh  Rh25  1  0.498870  0.504160  0.005291  1
  Rh  Rh26  1  0.499051  0.500992  0.498787  1
  Rh  Rh27  1  0.002205  0.500992  0.001941  1
  Rh  Rh28  1  0.000940  0.001211  0.000272  1
  Rh  Rh29  1  0.502182  0.995255  0.493073  1
