# generated using pymatgen
data_NaNd3Hg4
_symmetry_space_group_name_H-M   'P 1'
_cell_length_a   6.64686546
_cell_length_b   6.64686534
_cell_length_c   5.32171500
_cell_angle_alpha   90.00000000
_cell_angle_beta   90.00000000
_cell_angle_gamma   110.26207593
_symmetry_Int_Tables_number   1
_chemical_formula_structural   NaNd3Hg4
_chemical_formula_sum   'Na1 Nd3 Hg4'
_cell_volume   220.56826125
_cell_formula_units_Z   1
loop_
 _symmetry_equiv_pos_site_id
 _symmetry_equiv_pos_as_xyz
  1  'x, y, z'
loop_
 _atom_site_type_symbol
 _atom_site_label
 _atom_site_symmetry_multiplicity
 _atom_site_fract_x
 _atom_site_fract_y
 _atom_site_fract_z
 _atom_site_occupancy
  Na  Na0  1  0.624183  0.375817  0.250000  1
  Nd  Nd1  1  0.849312  0.150688  0.750000  1
  Nd  Nd2  1  0.138850  0.861150  0.250000  1
  Nd  Nd3  1  0.383850  0.616150  0.750000  1
  Hg  Hg4  1  0.648846  0.872616  0.250000  1
  Hg  Hg5  1  0.347421  0.119846  0.750000  1
  Hg  Hg6  1  0.880154  0.652579  0.750000  1
  Hg  Hg7  1  0.127384  0.351154  0.250000  1
