# generated using pymatgen
data_Dy3TmCSe3
_symmetry_space_group_name_H-M   'P 1'
_cell_length_a   6.88102215
_cell_length_b   6.88102307
_cell_length_c   6.88456400
_cell_angle_alpha   79.89079356
_cell_angle_beta   79.89078374
_cell_angle_gamma   32.72722696
_symmetry_Int_Tables_number   1
_chemical_formula_structural   Dy3TmCSe3
_chemical_formula_sum   'Dy3 Tm1 C1 Se3'
_cell_volume   173.26044920
_cell_formula_units_Z   1
loop_
 _symmetry_equiv_pos_site_id
 _symmetry_equiv_pos_as_xyz
  1  'x, y, z'
loop_
 _atom_site_type_symbol
 _atom_site_label
 _atom_site_symmetry_multiplicity
 _atom_site_fract_x
 _atom_site_fract_y
 _atom_site_fract_z
 _atom_site_occupancy
  Dy  Dy0  1  0.230026  0.230026  0.225442  1
  Dy  Dy1  1  0.511874  0.511874  0.454574  1
  Dy  Dy2  1  0.738167  0.738167  0.794831  1
  Tm  Tm3  1  0.020546  0.020546  0.025786  1
  C  C4  1  0.623426  0.623426  0.123199  1
  Se  Se5  1  0.866025  0.866025  0.376156  1
  Se  Se6  1  0.123981  0.123981  0.627472  1
  Se  Se7  1  0.385954  0.385954  0.872541  1
