# generated using pymatgen
data_YbPr7(ErRu2)2
_symmetry_space_group_name_H-M   'P 1'
_cell_length_a   6.57807126
_cell_length_b   7.36735727
_cell_length_c   8.85931059
_cell_angle_alpha   95.96635655
_cell_angle_beta   112.39858804
_cell_angle_gamma   89.98453485
_symmetry_Int_Tables_number   1
_chemical_formula_structural   YbPr7(ErRu2)2
_chemical_formula_sum   'Yb1 Pr7 Er2 Ru4'
_cell_volume   394.44503601
_cell_formula_units_Z   1
loop_
 _symmetry_equiv_pos_site_id
 _symmetry_equiv_pos_as_xyz
  1  'x, y, z'
loop_
 _atom_site_type_symbol
 _atom_site_label
 _atom_site_symmetry_multiplicity
 _atom_site_fract_x
 _atom_site_fract_y
 _atom_site_fract_z
 _atom_site_occupancy
  Yb  Yb0  1  0.798025  0.582958  0.816916  1
  Pr  Pr1  1  0.977127  0.916831  0.179936  1
  Pr  Pr2  1  0.203937  0.416748  0.182910  1
  Pr  Pr3  1  0.020616  0.084117  0.815728  1
  Pr  Pr4  1  0.212011  0.685098  0.572904  1
  Pr  Pr5  1  0.635262  0.808480  0.429306  1
  Pr  Pr6  1  0.790147  0.311952  0.428812  1
  Pr  Pr7  1  0.365187  0.187820  0.572201  1
  Er  Er8  1  0.432543  0.747756  0.999047  1
  Er  Er9  1  0.569297  0.253553  0.999445  1
  Ru  Ru10  1  0.599324  0.934599  0.789656  1
  Ru  Ru11  1  0.814033  0.572707  0.220586  1
  Ru  Ru12  1  0.395371  0.068740  0.205534  1
  Ru  Ru13  1  0.187122  0.428641  0.787021  1
