# generated using pymatgen
data_Ca2Cu9Rh
_symmetry_space_group_name_H-M   'P 1'
_cell_length_a   5.14817257
_cell_length_b   5.14817236
_cell_length_c   8.17036900
_cell_angle_alpha   90.00000000
_cell_angle_beta   90.00000000
_cell_angle_gamma   122.16715456
_symmetry_Int_Tables_number   1
_chemical_formula_structural   Ca2Cu9Rh
_chemical_formula_sum   'Ca2 Cu9 Rh1'
_cell_volume   183.30488590
_cell_formula_units_Z   1
loop_
 _symmetry_equiv_pos_site_id
 _symmetry_equiv_pos_as_xyz
  1  'x, y, z'
loop_
 _atom_site_type_symbol
 _atom_site_label
 _atom_site_symmetry_multiplicity
 _atom_site_fract_x
 _atom_site_fract_y
 _atom_site_fract_z
 _atom_site_occupancy
  Ca  Ca0  1  0.000000  0.000000  0.734643  1
  Ca  Ca1  1  0.000000  0.000000  0.265357  1
  Cu  Cu2  1  0.671024  0.328976  0.752549  1
  Cu  Cu3  1  0.671024  0.328976  0.247451  1
  Cu  Cu4  1  0.500000  0.500000  0.000000  1
  Cu  Cu5  1  0.328976  0.671024  0.752549  1
  Cu  Cu6  1  0.500000  0.000000  0.500000  1
  Cu  Cu7  1  0.000000  0.500000  0.000000  1
  Cu  Cu8  1  0.500000  0.000000  0.000000  1
  Cu  Cu9  1  0.328976  0.671024  0.247451  1
  Cu  Cu10  1  0.000000  0.500000  0.500000  1
  Rh  Rh11  1  0.500000  0.500000  0.500000  1
