# generated using pymatgen
data_La3Nd13Cd4TcPd3
_symmetry_space_group_name_H-M   'P 1'
_cell_length_a   10.07917243
_cell_length_b   10.11362599
_cell_length_c   10.11362661
_cell_angle_alpha   59.10755436
_cell_angle_beta   59.28099622
_cell_angle_gamma   59.28100511
_symmetry_Int_Tables_number   1
_chemical_formula_structural   La3Nd13Cd4TcPd3
_chemical_formula_sum   'La3 Nd13 Cd4 Tc1 Pd3'
_cell_volume   716.08862810
_cell_formula_units_Z   1
loop_
 _symmetry_equiv_pos_site_id
 _symmetry_equiv_pos_as_xyz
  1  'x, y, z'
loop_
 _atom_site_type_symbol
 _atom_site_label
 _atom_site_symmetry_multiplicity
 _atom_site_fract_x
 _atom_site_fract_y
 _atom_site_fract_z
 _atom_site_occupancy
  La  La0  1  0.352476  0.353300  0.353300  1
  La  La1  1  0.345551  0.345901  0.953046  1
  La  La2  1  0.345551  0.953046  0.345901  1
  Nd  Nd3  1  0.948067  0.349289  0.349289  1
  Nd  Nd4  1  0.819100  0.188075  0.188075  1
  Nd  Nd5  1  0.189234  0.808108  0.808108  1
  Nd  Nd6  1  0.187979  0.817544  0.187661  1
  Nd  Nd7  1  0.807981  0.189247  0.807764  1
  Nd  Nd8  1  0.187979  0.187661  0.817544  1
  Nd  Nd9  1  0.807981  0.807764  0.189247  1
  Nd  Nd10  1  0.934188  0.565399  0.565399  1
  Nd  Nd11  1  0.557636  0.936493  0.936493  1
  Nd  Nd12  1  0.565949  0.933531  0.565336  1
  Nd  Nd13  1  0.936972  0.557317  0.937518  1
  Nd  Nd14  1  0.565949  0.565336  0.933531  1
  Nd  Nd15  1  0.936972  0.937518  0.557317  1
  Cd  Cd16  1  0.580816  0.579434  0.579434  1
  Cd  Cd17  1  0.582003  0.579849  0.256267  1
  Cd  Cd18  1  0.582003  0.256267  0.579849  1
  Cd  Cd19  1  0.255966  0.580557  0.580557  1
  Tc  Tc20  1  0.146439  0.142719  0.142719  1
  Pd  Pd21  1  0.144629  0.147089  0.572479  1
  Pd  Pd22  1  0.144629  0.572479  0.147089  1
  Pd  Pd23  1  0.573952  0.146079  0.146079  1
