# generated using pymatgen
data_Tb4Sc(GaHg)2
_symmetry_space_group_name_H-M   'P 1'
_cell_length_a   9.05526900
_cell_length_b   9.05526822
_cell_length_c   7.61786600
_cell_angle_alpha   90.00000000
_cell_angle_beta   90.00000000
_cell_angle_gamma   130.38372918
_symmetry_Int_Tables_number   1
_chemical_formula_structural   Tb4Sc(GaHg)2
_chemical_formula_sum   'Tb8 Sc2 Ga4 Hg4'
_cell_volume   475.80904189
_cell_formula_units_Z   2
loop_
 _symmetry_equiv_pos_site_id
 _symmetry_equiv_pos_as_xyz
  1  'x, y, z'
loop_
 _atom_site_type_symbol
 _atom_site_label
 _atom_site_symmetry_multiplicity
 _atom_site_fract_x
 _atom_site_fract_y
 _atom_site_fract_z
 _atom_site_occupancy
  Tb  Tb0  1  0.053139  0.312713  0.323741  1
  Tb  Tb1  1  0.946861  0.687287  0.676259  1
  Tb  Tb2  1  0.446861  0.187287  0.823741  1
  Tb  Tb3  1  0.812713  0.553139  0.176259  1
  Tb  Tb4  1  0.553139  0.812713  0.176259  1
  Tb  Tb5  1  0.187287  0.446861  0.823741  1
  Tb  Tb6  1  0.687287  0.946861  0.676259  1
  Tb  Tb7  1  0.312713  0.053139  0.323741  1
  Sc  Sc8  1  0.000000  0.000000  0.000000  1
  Sc  Sc9  1  0.500000  0.500000  0.500000  1
  Ga  Ga10  1  0.378356  0.378356  0.122879  1
  Ga  Ga11  1  0.621644  0.621644  0.877121  1
  Ga  Ga12  1  0.121644  0.121644  0.622879  1
  Ga  Ga13  1  0.878356  0.878356  0.377121  1
  Hg  Hg14  1  0.781675  0.218325  0.000000  1
  Hg  Hg15  1  0.218325  0.781675  0.000000  1
  Hg  Hg16  1  0.718325  0.281675  0.500000  1
  Hg  Hg17  1  0.281675  0.718325  0.500000  1
