# generated using pymatgen
data_Tb3GaHg2Pd3
_symmetry_space_group_name_H-M   'P 1'
_cell_length_a   7.69612100
_cell_length_b   7.74221978
_cell_length_c   3.72808800
_cell_angle_alpha   90.00000000
_cell_angle_beta   90.00000000
_cell_angle_gamma   119.80324391
_symmetry_Int_Tables_number   1
_chemical_formula_structural   Tb3GaHg2Pd3
_chemical_formula_sum   'Tb3 Ga1 Hg2 Pd3'
_cell_volume   192.75773357
_cell_formula_units_Z   1
loop_
 _symmetry_equiv_pos_site_id
 _symmetry_equiv_pos_as_xyz
  1  'x, y, z'
loop_
 _atom_site_type_symbol
 _atom_site_label
 _atom_site_symmetry_multiplicity
 _atom_site_fract_x
 _atom_site_fract_y
 _atom_site_fract_z
 _atom_site_occupancy
  Tb  Tb0  1  0.395457  0.394960  0.500000  1
  Tb  Tb1  1  0.593409  0.000000  0.500000  1
  Tb  Tb2  1  0.000498  0.605040  0.500000  1
  Ga  Ga3  1  0.267776  0.000000  0.000000  1
  Hg  Hg4  1  0.995946  0.263763  0.000000  1
  Hg  Hg5  1  0.732183  0.736237  0.000000  1
  Pd  Pd6  1  0.650144  0.322528  0.000000  1
  Pd  Pd7  1  0.036974  0.000000  0.500000  1
  Pd  Pd8  1  0.327615  0.677472  0.000000  1
