# generated using pymatgen
data_NdHoCo9P6Ru
_symmetry_space_group_name_H-M   'P 1'
_cell_length_a   3.69860600
_cell_length_b   10.40679700
_cell_length_c   11.83202600
_cell_angle_alpha   90.00000000
_cell_angle_beta   90.00000000
_cell_angle_gamma   90.00000000
_symmetry_Int_Tables_number   1
_chemical_formula_structural   NdHoCo9P6Ru
_chemical_formula_sum   'Nd2 Ho2 Co18 P12 Ru2'
_cell_volume   455.42227483
_cell_formula_units_Z   2
loop_
 _symmetry_equiv_pos_site_id
 _symmetry_equiv_pos_as_xyz
  1  'x, y, z'
loop_
 _atom_site_type_symbol
 _atom_site_label
 _atom_site_symmetry_multiplicity
 _atom_site_fract_x
 _atom_site_fract_y
 _atom_site_fract_z
 _atom_site_occupancy
  Nd  Nd0  1  0.250000  0.582569  0.702398  1
  Nd  Nd1  1  0.250000  0.917431  0.202398  1
  Ho  Ho2  1  0.750000  0.413672  0.296072  1
  Ho  Ho3  1  0.750000  0.086328  0.796072  1
  Co  Co4  1  0.750000  0.284498  0.007840  1
  Co  Co5  1  0.750000  0.215502  0.507840  1
  Co  Co6  1  0.250000  0.404558  0.486350  1
  Co  Co7  1  0.250000  0.095442  0.986350  1
  Co  Co8  1  0.750000  0.590241  0.506752  1
  Co  Co9  1  0.750000  0.909759  0.006752  1
  Co  Co10  1  0.250000  0.221761  0.176129  1
  Co  Co11  1  0.250000  0.278239  0.676129  1
  Co  Co12  1  0.750000  0.779857  0.823581  1
  Co  Co13  1  0.750000  0.720143  0.323581  1
  Co  Co14  1  0.250000  0.888645  0.701920  1
  Co  Co15  1  0.250000  0.611355  0.201920  1
  Co  Co16  1  0.750000  0.119048  0.302355  1
  Co  Co17  1  0.750000  0.380952  0.802355  1
  Co  Co18  1  0.250000  0.462725  0.934502  1
  Co  Co19  1  0.250000  0.037275  0.434502  1
  Co  Co20  1  0.750000  0.530525  0.070013  1
  Co  Co21  1  0.750000  0.969475  0.570013  1
  P  P22  1  0.250000  0.416901  0.113180  1
  P  P23  1  0.250000  0.083099  0.613180  1
  P  P24  1  0.750000  0.578167  0.890315  1
  P  P25  1  0.750000  0.921833  0.390315  1
  P  P26  1  0.250000  0.270626  0.868251  1
  P  P27  1  0.250000  0.229374  0.368251  1
  P  P28  1  0.750000  0.724269  0.132122  1
  P  P29  1  0.750000  0.775731  0.632122  1
  P  P30  1  0.250000  0.594713  0.390481  1
  P  P31  1  0.250000  0.905287  0.890481  1
  P  P32  1  0.750000  0.393597  0.606989  1
  P  P33  1  0.750000  0.106403  0.106989  1
  Ru  Ru34  1  0.250000  0.714511  0.990749  1
  Ru  Ru35  1  0.250000  0.785489  0.490749  1
