# generated using pymatgen
data_Tb8Si13Ir3
_symmetry_space_group_name_H-M   'P 1'
_cell_length_a   8.17089700
_cell_length_b   8.17089606
_cell_length_c   8.01801800
_cell_angle_alpha   90.00000000
_cell_angle_beta   90.00000000
_cell_angle_gamma   120.00000785
_symmetry_Int_Tables_number   1
_chemical_formula_structural   Tb8Si13Ir3
_chemical_formula_sum   'Tb8 Si13 Ir3'
_cell_volume   463.59318832
_cell_formula_units_Z   1
loop_
 _symmetry_equiv_pos_site_id
 _symmetry_equiv_pos_as_xyz
  1  'x, y, z'
loop_
 _atom_site_type_symbol
 _atom_site_label
 _atom_site_symmetry_multiplicity
 _atom_site_fract_x
 _atom_site_fract_y
 _atom_site_fract_z
 _atom_site_occupancy
  Tb  Tb0  1  0.506283  0.012564  0.247662  1
  Tb  Tb1  1  0.492229  0.984460  0.750879  1
  Tb  Tb2  1  0.987436  0.493717  0.247662  1
  Tb  Tb3  1  0.015540  0.507771  0.750879  1
  Tb  Tb4  1  0.506283  0.493717  0.247662  1
  Tb  Tb5  1  0.492229  0.507771  0.750879  1
  Tb  Tb6  1  0.000000  0.000000  0.252170  1
  Tb  Tb7  1  0.000000  0.000000  0.750509  1
  Si  Si8  1  0.166164  0.332329  0.005502  1
  Si  Si9  1  0.832968  0.665936  0.995619  1
  Si  Si10  1  0.667671  0.833836  0.005502  1
  Si  Si11  1  0.830425  0.660849  0.496207  1
  Si  Si12  1  0.334064  0.167032  0.995619  1
  Si  Si13  1  0.163720  0.327440  0.501494  1
  Si  Si14  1  0.166164  0.833836  0.005502  1
  Si  Si15  1  0.339151  0.169575  0.496207  1
  Si  Si16  1  0.832968  0.167032  0.995619  1
  Si  Si17  1  0.672560  0.836280  0.501494  1
  Si  Si18  1  0.830425  0.169575  0.496207  1
  Si  Si19  1  0.163720  0.836280  0.501494  1
  Si  Si20  1  0.333333  0.666667  0.485243  1
  Ir  Ir21  1  0.333333  0.666667  0.008056  1
  Ir  Ir22  1  0.666667  0.333333  0.971338  1
  Ir  Ir23  1  0.666667  0.333333  0.540594  1
