# generated using pymatgen
data_Li8Tm8InPb7
_symmetry_space_group_name_H-M   'P 1'
_cell_length_a   9.42502624
_cell_length_b   9.42602687
_cell_length_c   7.24505300
_cell_angle_alpha   90.00283256
_cell_angle_beta   89.98710013
_cell_angle_gamma   120.00398362
_symmetry_Int_Tables_number   1
_chemical_formula_structural   Li8Tm8InPb7
_chemical_formula_sum   'Li8 Tm8 In1 Pb7'
_cell_volume   557.39875324
_cell_formula_units_Z   1
loop_
 _symmetry_equiv_pos_site_id
 _symmetry_equiv_pos_as_xyz
  1  'x, y, z'
loop_
 _atom_site_type_symbol
 _atom_site_label
 _atom_site_symmetry_multiplicity
 _atom_site_fract_x
 _atom_site_fract_y
 _atom_site_fract_z
 _atom_site_occupancy
  Li  Li0  1  0.166832  0.333690  0.211285  1
  Li  Li1  1  0.166723  0.833022  0.211254  1
  Li  Li2  1  0.666331  0.833145  0.210085  1
  Li  Li3  1  0.666651  0.333308  0.325481  1
  Li  Li4  1  0.832492  0.667100  0.711454  1
  Li  Li5  1  0.333529  0.166786  0.710724  1
  Li  Li6  1  0.832504  0.165446  0.711353  1
  Li  Li7  1  0.334886  0.667394  0.825193  1
  Tm  Tm8  1  0.998790  0.999414  0.997753  1
  Tm  Tm9  1  0.512791  0.023814  0.005090  1
  Tm  Tm10  1  0.513002  0.489013  0.004941  1
  Tm  Tm11  1  0.975405  0.487669  0.005811  1
  Tm  Tm12  1  0.998820  0.999318  0.500279  1
  Tm  Tm13  1  0.488305  0.975012  0.507909  1
  Tm  Tm14  1  0.024672  0.512362  0.505528  1
  Tm  Tm15  1  0.488441  0.513527  0.507913  1
  In  In16  1  0.666419  0.833325  0.770302  1
  Pb  Pb17  1  0.333993  0.666971  0.240144  1
  Pb  Pb18  1  0.832929  0.666834  0.271054  1
  Pb  Pb19  1  0.333397  0.166696  0.270699  1
  Pb  Pb20  1  0.832923  0.166039  0.271135  1
  Pb  Pb21  1  0.667033  0.333512  0.740381  1
  Pb  Pb22  1  0.166576  0.333706  0.771110  1
  Pb  Pb23  1  0.166556  0.832894  0.771133  1
