# generated using pymatgen
data_Zr8Al14GeRu4Rh3
_symmetry_space_group_name_H-M   'P 1'
_cell_length_a   8.90931733
_cell_length_b   8.91679709
_cell_length_c   8.91005593
_cell_angle_alpha   120.16658481
_cell_angle_beta   119.92737428
_cell_angle_gamma   89.84871444
_symmetry_Int_Tables_number   1
_chemical_formula_structural   Zr8Al14GeRu4Rh3
_chemical_formula_sum   'Zr8 Al14 Ge1 Ru4 Rh3'
_cell_volume   500.46272067
_cell_formula_units_Z   1
loop_
 _symmetry_equiv_pos_site_id
 _symmetry_equiv_pos_as_xyz
  1  'x, y, z'
loop_
 _atom_site_type_symbol
 _atom_site_label
 _atom_site_symmetry_multiplicity
 _atom_site_fract_x
 _atom_site_fract_y
 _atom_site_fract_z
 _atom_site_occupancy
  Zr  Zr0  1  0.797155  0.293567  0.082679  1
  Zr  Zr1  1  0.214791  0.297933  0.497793  1
  Zr  Zr2  1  0.201785  0.701398  0.504492  1
  Zr  Zr3  1  0.215751  0.719659  0.918431  1
  Zr  Zr4  1  0.800835  0.717678  0.504272  1
  Zr  Zr5  1  0.778589  0.278799  0.494059  1
  Zr  Zr6  1  0.377739  0.119236  0.740491  1
  Zr  Zr7  1  0.380222  0.637764  0.260414  1
  Al  Al8  1  0.159785  0.332545  0.172190  1
  Al  Al9  1  0.161187  0.990878  0.829123  1
  Al  Al10  1  0.152772  0.339885  0.812648  1
  Al  Al11  1  0.524173  0.339894  0.184922  1
  Al  Al12  1  0.838389  0.659188  0.819764  1
  Al  Al13  1  0.839389  0.015228  0.177780  1
  Al  Al14  1  0.836343  0.661747  0.173807  1
  Al  Al15  1  0.491414  0.663497  0.828145  1
  Al  Al16  1  0.379299  0.122177  0.257953  1
  Al  Al17  1  0.863330  0.121812  0.741201  1
  Al  Al18  1  0.622177  0.874256  0.252664  1
  Al  Al19  1  0.621641  0.368781  0.746421  1
  Al  Al20  1  0.621281  0.877208  0.744080  1
  Al  Al21  1  0.133735  0.879027  0.256629  1
  Ge  Ge22  1  0.990613  0.490124  0.501013  1
  Ru  Ru23  1  0.997056  0.998504  0.499912  1
  Ru  Ru24  1  0.499605  0.999703  0.003051  1
  Ru  Ru25  1  0.498672  0.498768  0.999885  1
  Ru  Ru26  1  0.498387  0.497075  0.499514  1
  Rh  Rh27  1  0.996810  0.497134  0.997563  1
  Rh  Rh28  1  0.998850  0.998792  0.999238  1
  Rh  Rh29  1  0.508222  0.007741  0.499868  1
