# generated using pymatgen
data_Gd3Dy(Al3Ir)2
_symmetry_space_group_name_H-M   'P 1'
_cell_length_a   5.52651500
_cell_length_b   5.52651902
_cell_length_c   8.73290600
_cell_angle_alpha   90.00000000
_cell_angle_beta   90.00002073
_cell_angle_gamma   120.00001787
_symmetry_Int_Tables_number   1
_chemical_formula_structural   Gd3Dy(Al3Ir)2
_chemical_formula_sum   'Gd3 Dy1 Al6 Ir2'
_cell_volume   230.98956487
_cell_formula_units_Z   1
loop_
 _symmetry_equiv_pos_site_id
 _symmetry_equiv_pos_as_xyz
  1  'x, y, z'
loop_
 _atom_site_type_symbol
 _atom_site_label
 _atom_site_symmetry_multiplicity
 _atom_site_fract_x
 _atom_site_fract_y
 _atom_site_fract_z
 _atom_site_occupancy
  Gd  Gd0  1  0.666665  0.333333  0.446543  1
  Gd  Gd1  1  0.333333  0.666666  0.553792  1
  Gd  Gd2  1  0.333333  0.666666  0.945425  1
  Dy  Dy3  1  0.666667  0.333334  0.054417  1
  Al  Al4  1  0.162713  0.325426  0.249469  1
  Al  Al5  1  0.162713  0.837287  0.249469  1
  Al  Al6  1  0.674574  0.837287  0.249469  1
  Al  Al7  1  0.325944  0.162971  0.750533  1
  Al  Al8  1  0.837027  0.162971  0.750533  1
  Al  Al9  1  0.837027  0.674055  0.750532  1
  Ir  Ir10  1  0.000000  0.000001  0.999958  1
  Ir  Ir11  1  0.000000  0.000000  0.499857  1
