# generated using pymatgen
data_TbTm4(FeB3)2
_symmetry_space_group_name_H-M   'P 1'
_cell_length_a   8.20074684
_cell_length_b   8.20074666
_cell_length_c   8.20074631
_cell_angle_alpha   38.38380854
_cell_angle_beta   38.38380910
_cell_angle_gamma   38.38379932
_symmetry_Int_Tables_number   1
_chemical_formula_structural   TbTm4(FeB3)2
_chemical_formula_sum   'Tb1 Tm4 Fe2 B6'
_cell_volume   191.00846470
_cell_formula_units_Z   1
loop_
 _symmetry_equiv_pos_site_id
 _symmetry_equiv_pos_as_xyz
  1  'x, y, z'
loop_
 _atom_site_type_symbol
 _atom_site_label
 _atom_site_symmetry_multiplicity
 _atom_site_fract_x
 _atom_site_fract_y
 _atom_site_fract_z
 _atom_site_occupancy
  Tb  Tb0  1  0.000000  0.000000  0.000000  1
  Tm  Tm1  1  0.582925  0.582925  0.582925  1
  Tm  Tm2  1  0.417075  0.417075  0.417075  1
  Tm  Tm3  1  0.749433  0.749433  0.749433  1
  Tm  Tm4  1  0.250567  0.250567  0.250567  1
  Fe  Fe5  1  0.882835  0.882835  0.882835  1
  Fe  Fe6  1  0.117165  0.117165  0.117165  1
  B  B7  1  0.500000  0.831832  0.168168  1
  B  B8  1  0.168168  0.500000  0.831832  1
  B  B9  1  0.831832  0.168168  0.500000  1
  B  B10  1  0.500000  0.168168  0.831832  1
  B  B11  1  0.831832  0.500000  0.168168  1
  B  B12  1  0.168168  0.831832  0.500000  1
