# generated using pymatgen
data_Ca12Np7Mo(WN4)12
_symmetry_space_group_name_H-M   'P 1'
_cell_length_a   11.40111308
_cell_length_b   11.38645063
_cell_length_c   11.40111318
_cell_angle_alpha   109.44517300
_cell_angle_beta   109.49725579
_cell_angle_gamma   109.44517071
_symmetry_Int_Tables_number   1
_chemical_formula_structural   Ca12Np7Mo(WN4)12
_chemical_formula_sum   'Ca12 Np7 Mo1 W12 N48'
_cell_volume   1139.72613528
_cell_formula_units_Z   1
loop_
 _symmetry_equiv_pos_site_id
 _symmetry_equiv_pos_as_xyz
  1  'x, y, z'
loop_
 _atom_site_type_symbol
 _atom_site_label
 _atom_site_symmetry_multiplicity
 _atom_site_fract_x
 _atom_site_fract_y
 _atom_site_fract_z
 _atom_site_occupancy
  Ca  Ca0  1  0.249514  0.375192  0.124800  1
  Ca  Ca1  1  0.375200  0.750392  0.124715  1
  Ca  Ca2  1  0.375286  0.125678  0.250486  1
  Ca  Ca3  1  0.878356  0.622619  0.253470  1
  Ca  Ca4  1  0.753470  0.130851  0.375114  1
  Ca  Ca5  1  0.124886  0.255736  0.378355  1
  Ca  Ca6  1  0.875114  0.744264  0.621645  1
  Ca  Ca7  1  0.246530  0.869151  0.624886  1
  Ca  Ca8  1  0.121646  0.377381  0.746530  1
  Ca  Ca9  1  0.624714  0.874322  0.749514  1
  Ca  Ca10  1  0.624800  0.249608  0.875287  1
  Ca  Ca11  1  0.750486  0.624808  0.875200  1
  Np  Np12  1  0.000000  0.000000  0.000000  1
  Np  Np13  1  0.500001  0.000000  0.000000  1
  Np  Np14  1  0.000000  0.500001  0.000000  1
  Np  Np15  1  0.500000  0.500000  0.000000  1
  Np  Np16  1  0.000000  0.000000  0.500001  1
  Np  Np17  1  0.500000  0.000000  0.500000  1
  Np  Np18  1  0.500001  0.500001  0.500001  1
  Mo  Mo19  1  0.000000  0.500000  0.500000  1
  W  W20  1  0.874774  0.250452  0.127828  1
  W  W21  1  0.750350  0.875712  0.125302  1
  W  W22  1  0.627828  0.377375  0.253054  1
  W  W23  1  0.125047  0.874637  0.250349  1
  W  W24  1  0.246946  0.624321  0.374774  1
  W  W25  1  0.625301  0.749590  0.374953  1
  W  W26  1  0.374698  0.250410  0.625047  1
  W  W27  1  0.753054  0.375679  0.625225  1
  W  W28  1  0.874953  0.125363  0.749650  1
  W  W29  1  0.372172  0.622624  0.746946  1
  W  W30  1  0.249649  0.124288  0.874698  1
  W  W31  1  0.125226  0.749547  0.872172  1
  N  N32  1  0.202998  0.118494  0.017232  1
  N  N33  1  0.315256  0.899374  0.014968  1
  N  N34  1  0.882607  0.398214  0.086923  1
  N  N35  1  0.702147  0.686571  0.084731  1
  N  N36  1  0.620277  0.417606  0.104137  1
  N  N37  1  0.982828  0.686082  0.101544  1
  N  N38  1  0.601544  0.915462  0.118716  1
  N  N39  1  0.016140  0.202670  0.120277  1
  N  N40  1  0.199713  0.584119  0.184745  1
  N  N41  1  0.482768  0.601262  0.185767  1
  N  N42  1  0.117415  0.015576  0.202146  1
  N  N43  1  0.586923  0.188710  0.204317  1
  N  N44  1  0.485033  0.384406  0.300287  1
  N  N45  1  0.314234  0.915496  0.297001  1
  N  N46  1  0.920436  0.310772  0.319725  1
  N  N47  1  0.898919  0.018248  0.314433  1
  N  N48  1  0.295683  0.484393  0.382606  1
  N  N49  1  0.584731  0.898159  0.382585  1
  N  N50  1  0.819725  0.508952  0.399289  1
  N  N51  1  0.084486  0.880672  0.398919  1
  N  N52  1  0.100711  0.609663  0.420436  1
  N  N53  1  0.814433  0.796186  0.415514  1
  N  N54  1  0.604137  0.186531  0.483860  1
  N  N55  1  0.381284  0.296747  0.482828  1
  N  N56  1  0.618715  0.703253  0.517172  1
  N  N57  1  0.395863  0.813470  0.516140  1
  N  N58  1  0.185568  0.203815  0.584486  1
  N  N59  1  0.899288  0.390337  0.579564  1
  N  N60  1  0.915514  0.119329  0.601082  1
  N  N61  1  0.180276  0.491048  0.600711  1
  N  N62  1  0.415269  0.101840  0.617415  1
  N  N63  1  0.704317  0.515607  0.617393  1
  N  N64  1  0.079564  0.689228  0.680276  1
  N  N65  1  0.101082  0.981753  0.685568  1
  N  N66  1  0.685767  0.084504  0.702999  1
  N  N67  1  0.514967  0.615593  0.699713  1
  N  N68  1  0.413077  0.811291  0.795684  1
  N  N69  1  0.882585  0.984424  0.797853  1
  N  N70  1  0.517232  0.398738  0.814234  1
  N  N71  1  0.800288  0.415881  0.815256  1
  N  N72  1  0.398457  0.084538  0.881285  1
  N  N73  1  0.983860  0.797329  0.879723  1
  N  N74  1  0.017173  0.313919  0.898457  1
  N  N75  1  0.379723  0.582394  0.895862  1
  N  N76  1  0.297853  0.313430  0.915269  1
  N  N77  1  0.117394  0.601787  0.913077  1
  N  N78  1  0.684745  0.100627  0.985033  1
  N  N79  1  0.797001  0.881506  0.982768  1
