# generated using pymatgen
data_Tb5Ho3Re(B8Os)3
_symmetry_space_group_name_H-M   'P 1'
_cell_length_a   3.67044200
_cell_length_b   9.16942508
_cell_length_c   11.55853008
_cell_angle_alpha   90.09959914
_cell_angle_beta   90.00000000
_cell_angle_gamma   90.00000000
_symmetry_Int_Tables_number   1
_chemical_formula_structural   Tb5Ho3Re(B8Os)3
_chemical_formula_sum   'Tb5 Ho3 Re1 B24 Os3'
_cell_volume   389.01148512
_cell_formula_units_Z   1
loop_
 _symmetry_equiv_pos_site_id
 _symmetry_equiv_pos_as_xyz
  1  'x, y, z'
loop_
 _atom_site_type_symbol
 _atom_site_label
 _atom_site_symmetry_multiplicity
 _atom_site_fract_x
 _atom_site_fract_y
 _atom_site_fract_z
 _atom_site_occupancy
  Tb  Tb0  1  0.000000  0.322852  0.414840  1
  Tb  Tb1  1  0.000000  0.679634  0.588243  1
  Tb  Tb2  1  0.000000  0.822614  0.083635  1
  Tb  Tb3  1  0.000000  0.176530  0.913077  1
  Tb  Tb4  1  0.000000  0.943241  0.371922  1
  Ho  Ho5  1  0.000000  0.056087  0.628115  1
  Ho  Ho6  1  0.000000  0.442934  0.127614  1
  Ho  Ho7  1  0.000000  0.556588  0.872756  1
  Re  Re8  1  0.000000  0.862320  0.821419  1
  B  B9  1  0.500000  0.553713  0.432862  1
  B  B10  1  0.500000  0.446049  0.567605  1
  B  B11  1  0.500000  0.053914  0.067499  1
  B  B12  1  0.500000  0.946920  0.932701  1
  B  B13  1  0.500000  0.747610  0.419101  1
  B  B14  1  0.500000  0.251800  0.580853  1
  B  B15  1  0.500000  0.248314  0.080980  1
  B  B16  1  0.500000  0.751523  0.918932  1
  B  B17  1  0.500000  0.789496  0.266256  1
  B  B18  1  0.500000  0.209384  0.732900  1
  B  B19  1  0.500000  0.291026  0.233504  1
  B  B20  1  0.500000  0.708679  0.766449  1
  B  B21  1  0.500000  0.630593  0.185495  1
  B  B22  1  0.500000  0.368729  0.814018  1
  B  B23  1  0.500000  0.132085  0.314250  1
  B  B24  1  0.500000  0.868799  0.685900  1
  B  B25  1  0.500000  0.984190  0.212425  1
  B  B26  1  0.500000  0.017302  0.786990  1
  B  B27  1  0.500000  0.483176  0.287433  1
  B  B28  1  0.500000  0.516611  0.713093  1
  B  B29  1  0.500000  0.605111  0.029831  1
  B  B30  1  0.500000  0.393315  0.970724  1
  B  B31  1  0.500000  0.107680  0.470460  1
  B  B32  1  0.500000  0.893453  0.529673  1
  Os  Os33  1  0.000000  0.636525  0.321183  1
  Os  Os34  1  0.000000  0.362639  0.678441  1
  Os  Os35  1  0.000000  0.138567  0.178821  1
