# generated using pymatgen
data_Ho2Er6Cd2OsPt
_symmetry_space_group_name_H-M   'P 1'
_cell_length_a   9.59059454
_cell_length_b   9.59027193
_cell_length_c   9.65544701
_cell_angle_alpha   59.77716169
_cell_angle_beta   59.77383955
_cell_angle_gamma   59.57362768
_symmetry_Int_Tables_number   1
_chemical_formula_structural   Ho2Er6Cd2OsPt
_chemical_formula_sum   'Ho4 Er12 Cd4 Os2 Pt2'
_cell_volume   623.79556632
_cell_formula_units_Z   2
loop_
 _symmetry_equiv_pos_site_id
 _symmetry_equiv_pos_as_xyz
  1  'x, y, z'
loop_
 _atom_site_type_symbol
 _atom_site_label
 _atom_site_symmetry_multiplicity
 _atom_site_fract_x
 _atom_site_fract_y
 _atom_site_fract_z
 _atom_site_occupancy
  Ho  Ho0  1  0.806612  0.188208  0.816981  1
  Ho  Ho1  1  0.188208  0.806612  0.188199  1
  Ho  Ho2  1  0.814347  0.814347  0.185653  1
  Ho  Ho3  1  0.190026  0.190026  0.809974  1
  Er  Er4  1  0.600134  0.600220  0.601463  1
  Er  Er5  1  0.600220  0.600134  0.198183  1
  Er  Er6  1  0.596785  0.203949  0.599557  1
  Er  Er7  1  0.203949  0.596785  0.599710  1
  Er  Er8  1  0.064740  0.437631  0.440553  1
  Er  Er9  1  0.437631  0.064740  0.057074  1
  Er  Er10  1  0.437639  0.064752  0.440597  1
  Er  Er11  1  0.064752  0.437639  0.057011  1
  Er  Er12  1  0.438225  0.438225  0.061775  1
  Er  Er13  1  0.058326  0.058326  0.441674  1
  Er  Er14  1  0.188395  0.806427  0.816832  1
  Er  Er15  1  0.806427  0.188395  0.188347  1
  Cd  Cd16  1  0.830060  0.829915  0.831608  1
  Cd  Cd17  1  0.829915  0.830060  0.508417  1
  Cd  Cd18  1  0.830770  0.505378  0.831990  1
  Cd  Cd19  1  0.505378  0.830770  0.831862  1
  Os  Os20  1  0.394620  0.394433  0.387707  1
  Os  Os21  1  0.394433  0.394620  0.823241  1
  Pt  Pt22  1  0.393969  0.824436  0.390846  1
  Pt  Pt23  1  0.824436  0.393969  0.390748  1
