# generated using pymatgen
data_Ho2Lu2B12MoRh
_symmetry_space_group_name_H-M   'P 1'
_cell_length_a   3.62897400
_cell_length_b   9.11818013
_cell_length_c   11.52825910
_cell_angle_alpha   90.36715841
_cell_angle_beta   90.00000000
_cell_angle_gamma   90.00000000
_symmetry_Int_Tables_number   1
_chemical_formula_structural   Ho2Lu2B12MoRh
_chemical_formula_sum   'Ho4 Lu4 B24 Mo2 Rh2'
_cell_volume   381.45809526
_cell_formula_units_Z   2
loop_
 _symmetry_equiv_pos_site_id
 _symmetry_equiv_pos_as_xyz
  1  'x, y, z'
loop_
 _atom_site_type_symbol
 _atom_site_label
 _atom_site_symmetry_multiplicity
 _atom_site_fract_x
 _atom_site_fract_y
 _atom_site_fract_z
 _atom_site_occupancy
  Ho  Ho0  1  0.500000  0.318538  0.412174  1
  Ho  Ho1  1  0.500000  0.681462  0.587826  1
  Ho  Ho2  1  0.500000  0.175746  0.916653  1
  Ho  Ho3  1  0.500000  0.824254  0.083347  1
  Lu  Lu4  1  0.500000  0.443200  0.126750  1
  Lu  Lu5  1  0.500000  0.556800  0.873250  1
  Lu  Lu6  1  0.500000  0.054836  0.628034  1
  Lu  Lu7  1  0.500000  0.945164  0.371966  1
  B  B8  1  0.000000  0.103910  0.472734  1
  B  B9  1  0.000000  0.896090  0.527266  1
  B  B10  1  0.000000  0.397623  0.970979  1
  B  B11  1  0.000000  0.602377  0.029021  1
  B  B12  1  0.000000  0.131349  0.318103  1
  B  B13  1  0.000000  0.868651  0.681897  1
  B  B14  1  0.000000  0.369531  0.816229  1
  B  B15  1  0.000000  0.630469  0.183771  1
  B  B16  1  0.000000  0.052001  0.066201  1
  B  B17  1  0.000000  0.947999  0.933799  1
  B  B18  1  0.000000  0.445736  0.565640  1
  B  B19  1  0.000000  0.554264  0.434360  1
  B  B20  1  0.000000  0.483004  0.287856  1
  B  B21  1  0.000000  0.516996  0.712144  1
  B  B22  1  0.000000  0.021098  0.785646  1
  B  B23  1  0.000000  0.978902  0.214354  1
  B  B24  1  0.000000  0.251611  0.079744  1
  B  B25  1  0.000000  0.748389  0.920256  1
  B  B26  1  0.000000  0.249405  0.579525  1
  B  B27  1  0.000000  0.750595  0.420475  1
  B  B28  1  0.000000  0.296101  0.236614  1
  B  B29  1  0.000000  0.703899  0.763386  1
  B  B30  1  0.000000  0.208727  0.734268  1
  B  B31  1  0.000000  0.791273  0.265732  1
  Mo  Mo32  1  0.500000  0.139663  0.181720  1
  Mo  Mo33  1  0.500000  0.860337  0.818280  1
  Rh  Rh34  1  0.500000  0.361505  0.678798  1
  Rh  Rh35  1  0.500000  0.638495  0.321202  1
