# generated using pymatgen
data_Pr(Hf5Bi6)3
_symmetry_space_group_name_H-M   'P 1'
_cell_length_a   10.86441000
_cell_length_b   10.86441000
_cell_length_c   7.65322100
_cell_angle_alpha   90.00000000
_cell_angle_beta   90.00000000
_cell_angle_gamma   90.00000000
_symmetry_Int_Tables_number   1
_chemical_formula_structural   Pr(Hf5Bi6)3
_chemical_formula_sum   'Pr1 Hf15 Bi18'
_cell_volume   903.35103760
_cell_formula_units_Z   1
loop_
 _symmetry_equiv_pos_site_id
 _symmetry_equiv_pos_as_xyz
  1  'x, y, z'
loop_
 _atom_site_type_symbol
 _atom_site_label
 _atom_site_symmetry_multiplicity
 _atom_site_fract_x
 _atom_site_fract_y
 _atom_site_fract_z
 _atom_site_occupancy
  Pr  Pr0  1  0.750000  0.750000  0.078522  1
  Hf  Hf1  1  0.001233  0.001233  0.000758  1
  Hf  Hf2  1  0.498767  0.001233  0.000758  1
  Hf  Hf3  1  0.001233  0.498767  0.000758  1
  Hf  Hf4  1  0.498767  0.498767  0.000758  1
  Hf  Hf5  1  0.750000  0.104955  0.152227  1
  Hf  Hf6  1  0.750000  0.395044  0.152227  1
  Hf  Hf7  1  0.104955  0.750000  0.152227  1
  Hf  Hf8  1  0.395044  0.750000  0.152227  1
  Hf  Hf9  1  0.250000  0.250000  0.432693  1
  Hf  Hf10  1  0.750000  0.750000  0.567170  1
  Hf  Hf11  1  0.604616  0.249999  0.846191  1
  Hf  Hf12  1  0.895385  0.250000  0.846191  1
  Hf  Hf13  1  0.249999  0.604616  0.846191  1
  Hf  Hf14  1  0.250000  0.895385  0.846191  1
  Hf  Hf15  1  0.250000  0.250000  0.922585  1
  Bi  Bi16  1  0.250000  0.016277  0.196934  1
  Bi  Bi17  1  0.016277  0.250000  0.196934  1
  Bi  Bi18  1  0.483722  0.249999  0.196934  1
  Bi  Bi19  1  0.249999  0.483722  0.196934  1
  Bi  Bi20  1  0.579252  0.579252  0.357536  1
  Bi  Bi21  1  0.920748  0.579252  0.357536  1
  Bi  Bi22  1  0.920748  0.920748  0.357536  1
  Bi  Bi23  1  0.579252  0.920748  0.357536  1
  Bi  Bi24  1  0.750000  0.250000  0.496945  1
  Bi  Bi25  1  0.250000  0.750000  0.496945  1
  Bi  Bi26  1  0.415700  0.084300  0.649301  1
  Bi  Bi27  1  0.084300  0.084300  0.649301  1
  Bi  Bi28  1  0.084300  0.415700  0.649301  1
  Bi  Bi29  1  0.415700  0.415700  0.649301  1
  Bi  Bi30  1  0.750000  0.509953  0.798339  1
  Bi  Bi31  1  0.509953  0.750000  0.798339  1
  Bi  Bi32  1  0.990047  0.750000  0.798339  1
  Bi  Bi33  1  0.750000  0.990047  0.798339  1
