# generated using pymatgen
data_NdEr7Co3Si12Pd
_symmetry_space_group_name_H-M   'P 1'
_cell_length_a   8.03523000
_cell_length_b   8.03523147
_cell_length_c   7.92955100
_cell_angle_alpha   90.00000000
_cell_angle_beta   90.00000000
_cell_angle_gamma   119.99999396
_symmetry_Int_Tables_number   1
_chemical_formula_structural   NdEr7Co3Si12Pd
_chemical_formula_sum   'Nd1 Er7 Co3 Si12 Pd1'
_cell_volume   443.37985717
_cell_formula_units_Z   1
loop_
 _symmetry_equiv_pos_site_id
 _symmetry_equiv_pos_as_xyz
  1  'x, y, z'
loop_
 _atom_site_type_symbol
 _atom_site_label
 _atom_site_symmetry_multiplicity
 _atom_site_fract_x
 _atom_site_fract_y
 _atom_site_fract_z
 _atom_site_occupancy
  Nd  Nd0  1  0.000000  0.000000  0.247790  1
  Er  Er1  1  0.492041  0.507959  0.753793  1
  Er  Er2  1  0.502742  0.497258  0.247876  1
  Er  Er3  1  0.015917  0.507959  0.753793  1
  Er  Er4  1  0.994515  0.497258  0.247876  1
  Er  Er5  1  0.492041  0.984083  0.753793  1
  Er  Er6  1  0.502742  0.005485  0.247876  1
  Er  Er7  1  0.000000  0.000000  0.750973  1
  Co  Co8  1  0.666667  0.333333  0.971444  1
  Co  Co9  1  0.333333  0.666667  0.031728  1
  Co  Co10  1  0.333333  0.666667  0.467463  1
  Si  Si11  1  0.826945  0.173055  0.997180  1
  Si  Si12  1  0.171794  0.828206  0.997302  1
  Si  Si13  1  0.346111  0.173055  0.997180  1
  Si  Si14  1  0.173408  0.826592  0.504184  1
  Si  Si15  1  0.656413  0.828206  0.997302  1
  Si  Si16  1  0.835573  0.164427  0.501159  1
  Si  Si17  1  0.826945  0.653889  0.997180  1
  Si  Si18  1  0.653183  0.826592  0.504184  1
  Si  Si19  1  0.171794  0.343587  0.997302  1
  Si  Si20  1  0.328854  0.164427  0.501159  1
  Si  Si21  1  0.173408  0.346817  0.504184  1
  Si  Si22  1  0.835573  0.671146  0.501159  1
  Pd  Pd23  1  0.666667  0.333333  0.526118  1
