# generated using pymatgen
data_ScCo2(NiP)3
_symmetry_space_group_name_H-M   'P 1'
_cell_length_a   3.61447200
_cell_length_b   10.15608900
_cell_length_c   11.73973800
_cell_angle_alpha   90.00000000
_cell_angle_beta   90.00000000
_cell_angle_gamma   90.00000000
_symmetry_Int_Tables_number   1
_chemical_formula_structural   ScCo2(NiP)3
_chemical_formula_sum   'Sc4 Co8 Ni12 P12'
_cell_volume   430.95286029
_cell_formula_units_Z   4
loop_
 _symmetry_equiv_pos_site_id
 _symmetry_equiv_pos_as_xyz
  1  'x, y, z'
loop_
 _atom_site_type_symbol
 _atom_site_label
 _atom_site_symmetry_multiplicity
 _atom_site_fract_x
 _atom_site_fract_y
 _atom_site_fract_z
 _atom_site_occupancy
  Sc  Sc0  1  0.250000  0.579394  0.705674  1
  Sc  Sc1  1  0.250000  0.920606  0.205674  1
  Sc  Sc2  1  0.750000  0.420606  0.294326  1
  Sc  Sc3  1  0.750000  0.079394  0.794326  1
  Co  Co4  1  0.250000  0.877506  0.699506  1
  Co  Co5  1  0.250000  0.622494  0.199506  1
  Co  Co6  1  0.750000  0.122494  0.300494  1
  Co  Co7  1  0.750000  0.377506  0.800494  1
  Co  Co8  1  0.250000  0.464521  0.932310  1
  Co  Co9  1  0.250000  0.035479  0.432310  1
  Co  Co10  1  0.750000  0.535479  0.067690  1
  Co  Co11  1  0.750000  0.964521  0.567690  1
  Ni  Ni12  1  0.250000  0.714871  0.989372  1
  Ni  Ni13  1  0.250000  0.785129  0.489372  1
  Ni  Ni14  1  0.750000  0.285129  0.010628  1
  Ni  Ni15  1  0.750000  0.214871  0.510628  1
  Ni  Ni16  1  0.250000  0.408649  0.483684  1
  Ni  Ni17  1  0.250000  0.091351  0.983684  1
  Ni  Ni18  1  0.750000  0.591351  0.516316  1
  Ni  Ni19  1  0.750000  0.908649  0.016316  1
  Ni  Ni20  1  0.250000  0.225034  0.176040  1
  Ni  Ni21  1  0.250000  0.274967  0.676040  1
  Ni  Ni22  1  0.750000  0.774967  0.823960  1
  Ni  Ni23  1  0.750000  0.725033  0.323960  1
  P  P24  1  0.250000  0.426103  0.116817  1
  P  P25  1  0.250000  0.073897  0.616817  1
  P  P26  1  0.750000  0.573897  0.883183  1
  P  P27  1  0.750000  0.926103  0.383183  1
  P  P28  1  0.250000  0.265411  0.866122  1
  P  P29  1  0.250000  0.234589  0.366122  1
  P  P30  1  0.750000  0.734589  0.133878  1
  P  P31  1  0.750000  0.765411  0.633878  1
  P  P32  1  0.250000  0.599428  0.387528  1
  P  P33  1  0.250000  0.900572  0.887528  1
  P  P34  1  0.750000  0.400572  0.612472  1
  P  P35  1  0.750000  0.099428  0.112472  1
