# generated using pymatgen
data_SrSiPdRh
_symmetry_space_group_name_H-M   'P 1'
_cell_length_a   9.08735075
_cell_length_b   9.08735126
_cell_length_c   4.20574500
_cell_angle_alpha   90.00000000
_cell_angle_beta   90.00000000
_cell_angle_gamma   152.97279443
_symmetry_Int_Tables_number   1
_chemical_formula_structural   SrSiPdRh
_chemical_formula_sum   'Sr2 Si2 Pd2 Rh2'
_cell_volume   157.82245351
_cell_formula_units_Z   2
loop_
 _symmetry_equiv_pos_site_id
 _symmetry_equiv_pos_as_xyz
  1  'x, y, z'
loop_
 _atom_site_type_symbol
 _atom_site_label
 _atom_site_symmetry_multiplicity
 _atom_site_fract_x
 _atom_site_fract_y
 _atom_site_fract_z
 _atom_site_occupancy
  Sr  Sr0  1  0.100282  0.899718  0.750000  1
  Sr  Sr1  1  0.899718  0.100282  0.250000  1
  Si  Si2  1  0.315678  0.684322  0.750000  1
  Si  Si3  1  0.684322  0.315678  0.250000  1
  Pd  Pd4  1  0.549600  0.450400  0.250000  1
  Pd  Pd5  1  0.450400  0.549600  0.750000  1
  Rh  Rh6  1  0.248928  0.751072  0.250000  1
  Rh  Rh7  1  0.751072  0.248928  0.750000  1
