# generated using pymatgen
data_Ba2ZnCo3(Si2O7)2
_symmetry_space_group_name_H-M   'P 1'
_cell_length_a   7.67407239
_cell_length_b   7.67406801
_cell_length_c   6.71567000
_cell_angle_alpha   89.99872733
_cell_angle_beta   89.99879228
_cell_angle_gamma   117.19601901
_symmetry_Int_Tables_number   1
_chemical_formula_structural   Ba2ZnCo3(Si2O7)2
_chemical_formula_sum   'Ba2 Zn1 Co3 Si4 O14'
_cell_volume   351.77219566
_cell_formula_units_Z   1
loop_
 _symmetry_equiv_pos_site_id
 _symmetry_equiv_pos_as_xyz
  1  'x, y, z'
loop_
 _atom_site_type_symbol
 _atom_site_label
 _atom_site_symmetry_multiplicity
 _atom_site_fract_x
 _atom_site_fract_y
 _atom_site_fract_z
 _atom_site_occupancy
  Ba  Ba0  1  0.228500  0.228327  0.249889  1
  Ba  Ba1  1  0.771674  0.771499  0.750112  1
  Zn  Zn2  1  0.724435  0.275565  0.000000  1
  Co  Co3  1  0.275356  0.724643  0.500001  1
  Co  Co4  1  0.724625  0.275375  0.500000  1
  Co  Co5  1  0.275419  0.724580  0.000000  1
  Si  Si6  1  0.086464  0.323481  0.750359  1
  Si  Si7  1  0.323657  0.086505  0.750073  1
  Si  Si8  1  0.676518  0.913535  0.249641  1
  Si  Si9  1  0.913496  0.676343  0.249926  1
  O  O10  1  0.769986  0.156171  0.249096  1
  O  O11  1  0.820588  0.558721  0.455105  1
  O  O12  1  0.843829  0.230014  0.750903  1
  O  O13  1  0.820737  0.558791  0.044748  1
  O  O14  1  0.229889  0.844143  0.749962  1
  O  O15  1  0.119535  0.119521  0.750055  1
  O  O16  1  0.179061  0.441084  0.545010  1
  O  O17  1  0.558917  0.820940  0.454990  1
  O  O18  1  0.180036  0.441546  0.955025  1
  O  O19  1  0.441208  0.179262  0.955252  1
  O  O20  1  0.880480  0.880466  0.249946  1
  O  O21  1  0.558454  0.819964  0.044975  1
  O  O22  1  0.441278  0.179412  0.544894  1
  O  O23  1  0.155858  0.770111  0.250036  1
