# generated using pymatgen
data_Er2Al2NiRu
_symmetry_space_group_name_H-M   'P 1'
_cell_length_a   4.09560400
_cell_length_b   6.79388100
_cell_length_c   7.88664200
_cell_angle_alpha   90.00000000
_cell_angle_beta   90.00000000
_cell_angle_gamma   90.00000000
_symmetry_Int_Tables_number   1
_chemical_formula_structural   Er2Al2NiRu
_chemical_formula_sum   'Er4 Al4 Ni2 Ru2'
_cell_volume   219.44617801
_cell_formula_units_Z   2
loop_
 _symmetry_equiv_pos_site_id
 _symmetry_equiv_pos_as_xyz
  1  'x, y, z'
loop_
 _atom_site_type_symbol
 _atom_site_label
 _atom_site_symmetry_multiplicity
 _atom_site_fract_x
 _atom_site_fract_y
 _atom_site_fract_z
 _atom_site_occupancy
  Er  Er0  1  0.250000  0.967992  0.321432  1
  Er  Er1  1  0.250000  0.467992  0.178568  1
  Er  Er2  1  0.750000  0.030949  0.679118  1
  Er  Er3  1  0.750000  0.530949  0.820882  1
  Al  Al4  1  0.250000  0.361741  0.563070  1
  Al  Al5  1  0.250000  0.861741  0.936930  1
  Al  Al6  1  0.750000  0.641709  0.445588  1
  Al  Al7  1  0.750000  0.141709  0.054412  1
  Ni  Ni8  1  0.250000  0.229675  0.872824  1
  Ni  Ni9  1  0.250000  0.729675  0.627176  1
  Ru  Ru10  1  0.750000  0.767934  0.121599  1
  Ru  Ru11  1  0.750000  0.267934  0.378401  1
