# generated using pymatgen
data_LaHoThSi6(Pd3Pt)5
_symmetry_space_group_name_H-M   'P 1'
_cell_length_a   8.76116435
_cell_length_b   8.76116550
_cell_length_c   8.76116500
_cell_angle_alpha   60.00000565
_cell_angle_beta   60.00000134
_cell_angle_gamma   60.00000084
_symmetry_Int_Tables_number   1
_chemical_formula_structural   LaHoThSi6(Pd3Pt)5
_chemical_formula_sum   'La1 Ho1 Th1 Si6 Pd15 Pt5'
_cell_volume   475.52198328
_cell_formula_units_Z   1
loop_
 _symmetry_equiv_pos_site_id
 _symmetry_equiv_pos_as_xyz
  1  'x, y, z'
loop_
 _atom_site_type_symbol
 _atom_site_label
 _atom_site_symmetry_multiplicity
 _atom_site_fract_x
 _atom_site_fract_y
 _atom_site_fract_z
 _atom_site_occupancy
  La  La0  1  0.749739  0.750340  0.749961  1
  Ho  Ho1  1  0.999934  0.000101  0.999983  1
  Th  Th2  1  0.250433  0.250090  0.249739  1
  Si  Si3  1  0.732978  0.266845  0.265669  1
  Si  Si4  1  0.267453  0.733037  0.733567  1
  Si  Si5  1  0.267453  0.733037  0.265943  1
  Si  Si6  1  0.732978  0.266845  0.734508  1
  Si  Si7  1  0.266534  0.266054  0.733706  1
  Si  Si8  1  0.732935  0.733718  0.266673  1
  Pd  Pd9  1  0.617033  0.155711  0.613627  1
  Pd  Pd10  1  0.851176  0.381017  0.383904  1
  Pd  Pd11  1  0.153971  0.615612  0.615207  1
  Pd  Pd12  1  0.343522  0.002006  0.001464  1
  Pd  Pd13  1  0.652925  0.002160  0.001433  1
  Pd  Pd14  1  0.001161  0.344145  0.653321  1
  Pd  Pd15  1  0.001206  0.653769  0.343829  1
  Pd  Pd16  1  0.001161  0.344145  0.001374  1
  Pd  Pd17  1  0.652925  0.002160  0.343483  1
  Pd  Pd18  1  0.001206  0.653769  0.001197  1
  Pd  Pd19  1  0.343522  0.002006  0.653008  1
  Pd  Pd20  1  0.001338  0.002349  0.343366  1
  Pd  Pd21  1  0.001338  0.002349  0.652948  1
  Pd  Pd22  1  0.652924  0.344429  0.001324  1
  Pd  Pd23  1  0.343942  0.653681  0.001189  1
  Pt  Pt24  1  0.383400  0.383800  0.386831  1
  Pt  Pt25  1  0.615784  0.612650  0.611971  1
  Pt  Pt26  1  0.383400  0.383800  0.845970  1
  Pt  Pt27  1  0.381845  0.847728  0.385214  1
  Pt  Pt28  1  0.615784  0.612650  0.159594  1
