# generated using pymatgen
data_Er15Tm5(IrRh3)3
_symmetry_space_group_name_H-M   'P 1'
_cell_length_a   10.79275345
_cell_length_b   10.79219813
_cell_length_c   6.31449616
_cell_angle_alpha   90.00422981
_cell_angle_beta   89.99685285
_cell_angle_gamma   89.85684031
_symmetry_Int_Tables_number   1
_chemical_formula_structural   Er15Tm5(IrRh3)3
_chemical_formula_sum   'Er15 Tm5 Ir3 Rh9'
_cell_volume   735.49463990
_cell_formula_units_Z   1
loop_
 _symmetry_equiv_pos_site_id
 _symmetry_equiv_pos_as_xyz
  1  'x, y, z'
loop_
 _atom_site_type_symbol
 _atom_site_label
 _atom_site_symmetry_multiplicity
 _atom_site_fract_x
 _atom_site_fract_y
 _atom_site_fract_z
 _atom_site_occupancy
  Er  Er0  1  0.290516  0.089255  0.377412  1
  Er  Er1  1  0.290957  0.910739  0.877276  1
  Er  Er2  1  0.709209  0.087754  0.877119  1
  Er  Er3  1  0.709118  0.910700  0.377103  1
  Er  Er4  1  0.586980  0.789667  0.878145  1
  Er  Er5  1  0.586537  0.209426  0.376987  1
  Er  Er6  1  0.413239  0.790083  0.377384  1
  Er  Er7  1  0.411080  0.209518  0.878090  1
  Er  Er8  1  0.210262  0.412922  0.621855  1
  Er  Er9  1  0.209846  0.586573  0.122550  1
  Er  Er10  1  0.790712  0.413452  0.123079  1
  Er  Er11  1  0.790497  0.588871  0.621832  1
  Er  Er12  1  0.910863  0.709376  0.122459  1
  Er  Er13  1  0.912360  0.290790  0.622846  1
  Er  Er14  1  0.089242  0.709033  0.622703  1
  Tm  Tm15  1  0.089410  0.291197  0.122830  1
  Tm  Tm16  1  0.999818  0.000017  0.499808  1
  Tm  Tm17  1  0.000074  0.000330  0.000225  1
  Tm  Tm18  1  0.499879  0.499837  0.999878  1
  Tm  Tm19  1  0.500131  0.500098  0.500146  1
  Ir  Ir20  1  0.654212  0.653367  0.249940  1
  Ir  Ir21  1  0.346274  0.345659  0.249880  1
  Ir  Ir22  1  0.345736  0.654217  0.749977  1
  Rh  Rh23  1  0.846380  0.154045  0.249842  1
  Rh  Rh24  1  0.846833  0.847471  0.750138  1
  Rh  Rh25  1  0.152368  0.153441  0.750408  1
  Rh  Rh26  1  0.153069  0.846927  0.250014  1
  Rh  Rh27  1  0.654828  0.345177  0.749960  1
  Rh  Rh28  1  0.500154  0.000530  0.122987  1
  Rh  Rh29  1  0.500283  0.000662  0.623704  1
  Rh  Rh30  1  0.999466  0.499357  0.876632  1
  Rh  Rh31  1  0.999666  0.499510  0.376791  1
