# generated using pymatgen
data_LaCrCo(Sb6Os)2
_symmetry_space_group_name_H-M   'P 1'
_cell_length_a   8.10073797
_cell_length_b   8.16181344
_cell_length_c   8.11104426
_cell_angle_alpha   109.63671143
_cell_angle_beta   109.40701613
_cell_angle_gamma   109.65021084
_symmetry_Int_Tables_number   1
_chemical_formula_structural   LaCrCo(Sb6Os)2
_chemical_formula_sum   'La1 Cr1 Co1 Sb12 Os2'
_cell_volume   411.38922716
_cell_formula_units_Z   1
loop_
 _symmetry_equiv_pos_site_id
 _symmetry_equiv_pos_as_xyz
  1  'x, y, z'
loop_
 _atom_site_type_symbol
 _atom_site_label
 _atom_site_symmetry_multiplicity
 _atom_site_fract_x
 _atom_site_fract_y
 _atom_site_fract_z
 _atom_site_occupancy
  La  La0  1  0.000000  0.000000  0.000000  1
  Cr  Cr1  1  0.500000  0.500000  0.500000  1
  Co  Co2  1  0.000000  0.500000  0.000000  1
  Sb  Sb3  1  0.341386  0.183791  0.844013  1
  Sb  Sb4  1  0.658614  0.816209  0.155987  1
  Sb  Sb5  1  0.670575  0.505359  0.847114  1
  Sb  Sb6  1  0.329425  0.494641  0.152886  1
  Sb  Sb7  1  0.178038  0.836857  0.332586  1
  Sb  Sb8  1  0.821962  0.163143  0.667414  1
  Sb  Sb9  1  0.503560  0.842479  0.661086  1
  Sb  Sb10  1  0.496440  0.157521  0.338914  1
  Sb  Sb11  1  0.846070  0.342243  0.178337  1
  Sb  Sb12  1  0.153930  0.657757  0.821663  1
  Sb  Sb13  1  0.843337  0.662085  0.504074  1
  Sb  Sb14  1  0.156663  0.337915  0.495926  1
  Os  Os15  1  0.000000  0.000000  0.500000  1
  Os  Os16  1  0.500000  0.000000  0.000000  1
