# generated using pymatgen
data_Tm9Lu(InBi)3
_symmetry_space_group_name_H-M   'P 1'
_cell_length_a   6.47639300
_cell_length_b   8.93833594
_cell_length_c   8.93937900
_cell_angle_alpha   119.99792932
_cell_angle_beta   89.99812096
_cell_angle_gamma   90.00138398
_symmetry_Int_Tables_number   1
_chemical_formula_structural   Tm9Lu(InBi)3
_chemical_formula_sum   'Tm9 Lu1 In3 Bi3'
_cell_volume   448.16394195
_cell_formula_units_Z   1
loop_
 _symmetry_equiv_pos_site_id
 _symmetry_equiv_pos_as_xyz
  1  'x, y, z'
loop_
 _atom_site_type_symbol
 _atom_site_label
 _atom_site_symmetry_multiplicity
 _atom_site_fract_x
 _atom_site_fract_y
 _atom_site_fract_z
 _atom_site_occupancy
  Tm  Tm0  1  0.492283  0.666674  0.333337  1
  Tm  Tm1  1  0.007787  0.666672  0.333342  1
  Tm  Tm2  1  0.007759  0.333321  0.666656  1
  Tm  Tm3  1  0.749910  0.236031  0.999980  1
  Tm  Tm4  1  0.749917  0.763713  0.763819  1
  Tm  Tm5  1  0.749902  0.999922  0.236192  1
  Tm  Tm6  1  0.250071  0.762367  0.999930  1
  Tm  Tm7  1  0.250075  0.237768  0.237767  1
  Tm  Tm8  1  0.250054  0.000161  0.762317  1
  Lu  Lu9  1  0.491982  0.333340  0.666678  1
  In  In10  1  0.250237  0.393501  0.999765  1
  In  In11  1  0.250270  0.606481  0.606667  1
  In  In12  1  0.250267  0.000244  0.393544  1
  Bi  Bi13  1  0.749830  0.603532  0.999714  1
  Bi  Bi14  1  0.749826  0.396010  0.396324  1
  Bi  Bi15  1  0.749826  0.000263  0.603968  1
