# generated using pymatgen
data_Tb2YGa3Ge2Ir
_symmetry_space_group_name_H-M   'P 1'
_cell_length_a   7.04327092
_cell_length_b   7.04327045
_cell_length_c   4.20611800
_cell_angle_alpha   90.00000000
_cell_angle_beta   90.00000000
_cell_angle_gamma   119.94128020
_symmetry_Int_Tables_number   1
_chemical_formula_structural   Tb2YGa3Ge2Ir
_chemical_formula_sum   'Tb2 Y1 Ga3 Ge2 Ir1'
_cell_volume   180.80794549
_cell_formula_units_Z   1
loop_
 _symmetry_equiv_pos_site_id
 _symmetry_equiv_pos_as_xyz
  1  'x, y, z'
loop_
 _atom_site_type_symbol
 _atom_site_label
 _atom_site_symmetry_multiplicity
 _atom_site_fract_x
 _atom_site_fract_y
 _atom_site_fract_z
 _atom_site_occupancy
  Tb  Tb0  1  0.410237  0.000113  0.000000  1
  Tb  Tb1  1  0.000113  0.410237  0.000000  1
  Y  Y2  1  0.589746  0.589746  0.000000  1
  Ga  Ga3  1  0.768222  0.000015  0.500000  1
  Ga  Ga4  1  0.231854  0.231854  0.500000  1
  Ga  Ga5  1  0.000015  0.768222  0.500000  1
  Ge  Ge6  1  0.666549  0.333365  0.500000  1
  Ge  Ge7  1  0.333365  0.666550  0.500000  1
  Ir  Ir8  1  0.999899  0.999899  0.000000  1
