# generated using pymatgen
data_Pr19YSi15Ag
_symmetry_space_group_name_H-M   'P 1'
_cell_length_a   7.92185921
_cell_length_b   7.92210164
_cell_length_c   15.30686000
_cell_angle_alpha   89.97883078
_cell_angle_beta   89.68832327
_cell_angle_gamma   90.00896860
_symmetry_Int_Tables_number   1
_chemical_formula_structural   Pr19YSi15Ag
_chemical_formula_sum   'Pr19 Y1 Si15 Ag1'
_cell_volume   960.61016729
_cell_formula_units_Z   1
loop_
 _symmetry_equiv_pos_site_id
 _symmetry_equiv_pos_as_xyz
  1  'x, y, z'
loop_
 _atom_site_type_symbol
 _atom_site_label
 _atom_site_symmetry_multiplicity
 _atom_site_fract_x
 _atom_site_fract_y
 _atom_site_fract_z
 _atom_site_occupancy
  Pr  Pr0  1  0.191726  0.807522  0.249102  1
  Pr  Pr1  1  0.800648  0.186037  0.751880  1
  Pr  Pr2  1  0.693415  0.689150  0.498040  1
  Pr  Pr3  1  0.373940  0.011036  0.447157  1
  Pr  Pr4  1  0.491961  0.868475  0.699883  1
  Pr  Pr5  1  0.509802  0.123819  0.196485  1
  Pr  Pr6  1  0.877399  0.487902  0.300263  1
  Pr  Pr7  1  0.120688  0.519052  0.803957  1
  Pr  Pr8  1  0.627746  0.987416  0.950699  1
  Pr  Pr9  1  0.000073  0.381979  0.547767  1
  Pr  Pr10  1  0.988181  0.625920  0.051909  1
  Pr  Pr11  1  0.132501  0.982565  0.879399  1
  Pr  Pr12  1  0.519276  0.631047  0.125783  1
  Pr  Pr13  1  0.482377  0.374317  0.627564  1
  Pr  Pr14  1  0.629989  0.520136  0.875773  1
  Pr  Pr15  1  0.372577  0.481413  0.371703  1
  Pr  Pr16  1  0.872470  0.020470  0.375939  1
  Pr  Pr17  1  0.981557  0.126483  0.123338  1
  Pr  Pr18  1  0.013973  0.865130  0.621990  1
  Y  Y19  1  0.309944  0.310075  0.999780  1
  Si  Si20  1  0.330999  0.691982  0.953453  1
  Si  Si21  1  0.661659  0.302745  0.451728  1
  Si  Si22  1  0.694787  0.332795  0.048099  1
  Si  Si23  1  0.305723  0.668793  0.546627  1
  Si  Si24  1  0.806018  0.831853  0.203085  1
  Si  Si25  1  0.168117  0.196058  0.296330  1
  Si  Si26  1  0.835306  0.804255  0.798346  1
  Si  Si27  1  0.288860  0.925705  0.059523  1
  Si  Si28  1  0.579067  0.787180  0.309551  1
  Si  Si29  1  0.429755  0.211953  0.819481  1
  Si  Si30  1  0.786496  0.577984  0.691187  1
  Si  Si31  1  0.213927  0.419929  0.186600  1
  Si  Si32  1  0.707095  0.077228  0.559532  1
  Si  Si33  1  0.927201  0.290385  0.941507  1
  Si  Si34  1  0.079919  0.713604  0.439291  1
  Ag  Ag35  1  0.194826  0.167607  0.697251  1
