# generated using pymatgen
data_CaLa3(PaSe5)2
_symmetry_space_group_name_H-M   'P 1'
_cell_length_a   7.91960700
_cell_length_b   8.52241143
_cell_length_c   12.46754600
_cell_angle_alpha   90.00000000
_cell_angle_beta   90.00000000
_cell_angle_gamma   89.95673779
_symmetry_Int_Tables_number   1
_chemical_formula_structural   CaLa3(PaSe5)2
_chemical_formula_sum   'Ca2 La6 Pa4 Se20'
_cell_volume   841.48617017
_cell_formula_units_Z   2
loop_
 _symmetry_equiv_pos_site_id
 _symmetry_equiv_pos_as_xyz
  1  'x, y, z'
loop_
 _atom_site_type_symbol
 _atom_site_label
 _atom_site_symmetry_multiplicity
 _atom_site_fract_x
 _atom_site_fract_y
 _atom_site_fract_z
 _atom_site_occupancy
  Ca  Ca0  1  0.527604  0.498764  0.321548  1
  Ca  Ca1  1  0.972396  0.001236  0.821548  1
  La  La2  1  0.471079  0.001256  0.677360  1
  La  La3  1  0.028921  0.498744  0.177360  1
  La  La4  1  0.467746  0.499145  0.674801  1
  La  La5  1  0.032254  0.000855  0.174801  1
  La  La6  1  0.531339  0.998176  0.324266  1
  La  La7  1  0.968661  0.501824  0.824266  1
  Pa  Pa8  1  0.072470  0.752173  0.491635  1
  Pa  Pa9  1  0.427530  0.747827  0.991635  1
  Pa  Pa10  1  0.928248  0.249267  0.508710  1
  Pa  Pa11  1  0.571752  0.250733  0.008710  1
  Se  Se12  1  0.832862  0.956936  0.589855  1
  Se  Se13  1  0.667138  0.543064  0.089855  1
  Se  Se14  1  0.165888  0.457273  0.410053  1
  Se  Se15  1  0.334112  0.042727  0.910053  1
  Se  Se16  1  0.168515  0.044360  0.408998  1
  Se  Se17  1  0.331485  0.455640  0.908998  1
  Se  Se18  1  0.834164  0.543884  0.592581  1
  Se  Se19  1  0.665836  0.956116  0.092581  1
  Se  Se20  1  0.840895  0.750701  0.313134  1
  Se  Se21  1  0.659105  0.749299  0.813134  1
  Se  Se22  1  0.163283  0.252683  0.686136  1
  Se  Se23  1  0.336717  0.247317  0.186136  1
  Se  Se24  1  0.452424  0.750320  0.497610  1
  Se  Se25  1  0.047576  0.749680  0.997610  1
  Se  Se26  1  0.549409  0.250893  0.502485  1
  Se  Se27  1  0.950591  0.249107  0.002485  1
  Se  Se28  1  0.187496  0.751041  0.713769  1
  Se  Se29  1  0.312504  0.748959  0.213769  1
  Se  Se30  1  0.811589  0.248361  0.287058  1
  Se  Se31  1  0.688411  0.251639  0.787058  1
