# generated using pymatgen
data_Pa2SnF12
_symmetry_space_group_name_H-M   'P 1'
_cell_length_a   8.47438351
_cell_length_b   8.47438360
_cell_length_c   8.61890130
_cell_angle_alpha   63.27432145
_cell_angle_beta   63.27432002
_cell_angle_gamma   80.58073101
_symmetry_Int_Tables_number   1
_chemical_formula_structural   Pa2SnF12
_chemical_formula_sum   'Pa4 Sn2 F24'
_cell_volume   493.20515455
_cell_formula_units_Z   2
loop_
 _symmetry_equiv_pos_site_id
 _symmetry_equiv_pos_as_xyz
  1  'x, y, z'
loop_
 _atom_site_type_symbol
 _atom_site_label
 _atom_site_symmetry_multiplicity
 _atom_site_fract_x
 _atom_site_fract_y
 _atom_site_fract_z
 _atom_site_occupancy
  Pa  Pa0  1  0.636750  0.777863  0.167969  1
  Pa  Pa1  1  0.777863  0.636750  0.667969  1
  Pa  Pa2  1  0.363250  0.222137  0.832031  1
  Pa  Pa3  1  0.222137  0.363250  0.332031  1
  Sn  Sn4  1  0.785593  0.214407  0.250000  1
  Sn  Sn5  1  0.214407  0.785593  0.750000  1
  F  F6  1  0.741210  0.682818  0.395194  1
  F  F7  1  0.580695  0.198668  0.591921  1
  F  F8  1  0.722675  0.512932  0.222498  1
  F  F9  1  0.317182  0.258790  0.104806  1
  F  F10  1  0.088667  0.171366  0.029006  1
  F  F11  1  0.198668  0.580695  0.091921  1
  F  F12  1  0.419305  0.801332  0.408079  1
  F  F13  1  0.395508  0.604492  0.250000  1
  F  F14  1  0.604492  0.395508  0.750000  1
  F  F15  1  0.512932  0.722675  0.722498  1
  F  F16  1  0.828634  0.911333  0.470994  1
  F  F17  1  0.171366  0.088667  0.529006  1
  F  F18  1  0.277325  0.487068  0.777502  1
  F  F19  1  0.258790  0.317182  0.604806  1
  F  F20  1  0.713253  0.020039  0.144652  1
  F  F21  1  0.000000  0.500000  0.500000  1
  F  F22  1  0.979961  0.286747  0.355348  1
  F  F23  1  0.801332  0.419305  0.908079  1
  F  F24  1  0.487068  0.277325  0.277502  1
  F  F25  1  0.911333  0.828634  0.970994  1
  F  F26  1  0.286747  0.979961  0.855348  1
  F  F27  1  0.682818  0.741210  0.895194  1
  F  F28  1  0.020039  0.713253  0.644652  1
  F  F29  1  0.500000  0.000000  0.000000  1
