# generated using pymatgen
data_Nd3YErP12Ru19
_symmetry_space_group_name_H-M   'P 1'
_cell_length_a   12.59113100
_cell_length_b   12.59113085
_cell_length_c   4.00362700
_cell_angle_alpha   90.00000000
_cell_angle_beta   90.00000000
_cell_angle_gamma   119.99999252
_symmetry_Int_Tables_number   1
_chemical_formula_structural   Nd3YErP12Ru19
_chemical_formula_sum   'Nd3 Y1 Er1 P12 Ru19'
_cell_volume   549.68483236
_cell_formula_units_Z   1
loop_
 _symmetry_equiv_pos_site_id
 _symmetry_equiv_pos_as_xyz
  1  'x, y, z'
loop_
 _atom_site_type_symbol
 _atom_site_label
 _atom_site_symmetry_multiplicity
 _atom_site_fract_x
 _atom_site_fract_y
 _atom_site_fract_z
 _atom_site_occupancy
  Nd  Nd0  1  0.000009  0.183905  0.500000  1
  Nd  Nd1  1  0.816095  0.816104  0.500000  1
  Nd  Nd2  1  0.183896  0.999991  0.500000  1
  Y  Y3  1  0.333333  0.666667  0.000000  1
  Er  Er4  1  0.666667  0.333333  0.000000  1
  P  P5  1  0.999985  0.812261  0.000000  1
  P  P6  1  0.187739  0.187724  0.000000  1
  P  P7  1  0.812276  0.000015  0.000000  1
  P  P8  1  0.694525  0.173322  0.500000  1
  P  P9  1  0.826678  0.521203  0.500000  1
  P  P10  1  0.478797  0.305475  0.500000  1
  P  P11  1  0.172981  0.694621  0.500000  1
  P  P12  1  0.521640  0.827019  0.500000  1
  P  P13  1  0.305379  0.478360  0.500000  1
  P  P14  1  0.000041  0.374101  0.000000  1
  P  P15  1  0.625899  0.625940  0.000000  1
  P  P16  1  0.374060  0.999959  0.000000  1
  Ru  Ru17  1  0.999984  0.554110  0.000000  1
  Ru  Ru18  1  0.445890  0.445874  0.000000  1
  Ru  Ru19  1  0.554126  0.000016  0.000000  1
  Ru  Ru20  1  0.999954  0.713609  0.500000  1
  Ru  Ru21  1  0.286391  0.286346  0.500000  1
  Ru  Ru22  1  0.713654  0.000046  0.500000  1
  Ru  Ru23  1  0.804560  0.185343  0.000000  1
  Ru  Ru24  1  0.814657  0.619218  0.000000  1
  Ru  Ru25  1  0.380782  0.195440  0.000000  1
  Ru  Ru26  1  0.185115  0.804744  0.000000  1
  Ru  Ru27  1  0.619630  0.814885  0.000000  1
  Ru  Ru28  1  0.195256  0.380370  0.000000  1
  Ru  Ru29  1  0.873807  0.367272  0.500000  1
  Ru  Ru30  1  0.632728  0.506534  0.500000  1
  Ru  Ru31  1  0.493466  0.126193  0.500000  1
  Ru  Ru32  1  0.367326  0.874421  0.500000  1
  Ru  Ru33  1  0.507095  0.632674  0.500000  1
  Ru  Ru34  1  0.125579  0.492905  0.500000  1
  Ru  Ru35  1  0.000000  0.000000  0.000000  1
