# generated using pymatgen
data_CaEuTa8O22
_symmetry_space_group_name_H-M   'P 1'
_cell_length_a   6.30594200
_cell_length_b   6.30594116
_cell_length_c   12.43351200
_cell_angle_alpha   90.00000000
_cell_angle_beta   90.00000000
_cell_angle_gamma   120.00000439
_symmetry_Int_Tables_number   1
_chemical_formula_structural   CaEuTa8O22
_chemical_formula_sum   'Ca1 Eu1 Ta8 O22'
_cell_volume   428.17796772
_cell_formula_units_Z   1
loop_
 _symmetry_equiv_pos_site_id
 _symmetry_equiv_pos_as_xyz
  1  'x, y, z'
loop_
 _atom_site_type_symbol
 _atom_site_label
 _atom_site_symmetry_multiplicity
 _atom_site_fract_x
 _atom_site_fract_y
 _atom_site_fract_z
 _atom_site_occupancy
  Ca  Ca0  1  0.666667  0.333333  0.250000  1
  Eu  Eu1  1  0.333333  0.666667  0.750000  1
  Ta  Ta2  1  0.666667  0.333333  0.750000  1
  Ta  Ta3  1  0.333333  0.666667  0.250000  1
  Ta  Ta4  1  0.644076  0.000654  0.498749  1
  Ta  Ta5  1  0.644076  0.643423  0.001251  1
  Ta  Ta6  1  0.999346  0.355924  0.001251  1
  Ta  Ta7  1  0.999346  0.643423  0.498749  1
  Ta  Ta8  1  0.356577  0.355924  0.498749  1
  Ta  Ta9  1  0.356577  0.000654  0.001251  1
  O  O10  1  0.333333  0.666667  0.532507  1
  O  O11  1  0.666667  0.333333  0.034548  1
  O  O12  1  0.666667  0.333333  0.465452  1
  O  O13  1  0.333333  0.666667  0.967493  1
  O  O14  1  0.242773  0.999932  0.498905  1
  O  O15  1  0.242773  0.242841  0.001095  1
  O  O16  1  0.000068  0.757227  0.001095  1
  O  O17  1  0.000068  0.242841  0.498905  1
  O  O18  1  0.757159  0.757227  0.498905  1
  O  O19  1  0.757159  0.999932  0.001095  1
  O  O20  1  0.380798  0.944963  0.155949  1
  O  O21  1  0.436406  0.378015  0.654225  1
  O  O22  1  0.941608  0.563594  0.654225  1
  O  O23  1  0.055037  0.435834  0.155949  1
  O  O24  1  0.564166  0.619202  0.155949  1
  O  O25  1  0.436406  0.058392  0.845775  1
  O  O26  1  0.621985  0.563594  0.845775  1
  O  O27  1  0.621985  0.058392  0.654225  1
  O  O28  1  0.941608  0.378015  0.845775  1
  O  O29  1  0.055037  0.619202  0.344051  1
  O  O30  1  0.564166  0.944963  0.344051  1
  O  O31  1  0.380798  0.435834  0.344051  1
