# generated using pymatgen
data_MnV9(B2P)2
_symmetry_space_group_name_H-M   'P 1'
_cell_length_a   6.67379824
_cell_length_b   6.67379939
_cell_length_c   6.67379810
_cell_angle_alpha   129.52263130
_cell_angle_beta   129.52263861
_cell_angle_gamma   74.17106900
_symmetry_Int_Tables_number   1
_chemical_formula_structural   MnV9(B2P)2
_chemical_formula_sum   'Mn1 V9 B4 P2'
_cell_volume   172.44585230
_cell_formula_units_Z   1
loop_
 _symmetry_equiv_pos_site_id
 _symmetry_equiv_pos_as_xyz
  1  'x, y, z'
loop_
 _atom_site_type_symbol
 _atom_site_label
 _atom_site_symmetry_multiplicity
 _atom_site_fract_x
 _atom_site_fract_y
 _atom_site_fract_z
 _atom_site_occupancy
  Mn  Mn0  1  0.000000  0.000000  0.000000  1
  V  V1  1  0.189996  0.691751  0.161799  1
  V  V2  1  0.470048  0.971804  0.161799  1
  V  V3  1  0.500000  0.500000  0.000000  1
  V  V4  1  0.529952  0.028196  0.838201  1
  V  V5  1  0.028196  0.189996  0.498245  1
  V  V6  1  0.691751  0.529952  0.501755  1
  V  V7  1  0.971804  0.810004  0.501755  1
  V  V8  1  0.308249  0.470048  0.498245  1
  V  V9  1  0.810004  0.308249  0.838201  1
  B  B10  1  0.886095  0.381396  0.267490  1
  B  B11  1  0.381396  0.113905  0.495302  1
  B  B12  1  0.618604  0.886095  0.504698  1
  B  B13  1  0.113905  0.618604  0.732510  1
  P  P14  1  0.747922  0.747922  0.000000  1
  P  P15  1  0.252078  0.252078  0.000000  1
