# generated using pymatgen
data_Ho3In3Co2Hg
_symmetry_space_group_name_H-M   'P 1'
_cell_length_a   7.79772000
_cell_length_b   7.79771947
_cell_length_c   3.67048300
_cell_angle_alpha   90.00000000
_cell_angle_beta   90.00000000
_cell_angle_gamma   120.00000225
_symmetry_Int_Tables_number   1
_chemical_formula_structural   Ho3In3Co2Hg
_chemical_formula_sum   'Ho3 In3 Co2 Hg1'
_cell_volume   193.28096370
_cell_formula_units_Z   1
loop_
 _symmetry_equiv_pos_site_id
 _symmetry_equiv_pos_as_xyz
  1  'x, y, z'
loop_
 _atom_site_type_symbol
 _atom_site_label
 _atom_site_symmetry_multiplicity
 _atom_site_fract_x
 _atom_site_fract_y
 _atom_site_fract_z
 _atom_site_occupancy
  Ho  Ho0  1  0.964516  0.576634  0.500000  1
  Ho  Ho1  1  0.423366  0.387881  0.500000  1
  Ho  Ho2  1  0.612119  0.035484  0.500000  1
  In  In3  1  0.253980  0.003617  0.000000  1
  In  In4  1  0.749636  0.746020  0.000000  1
  In  In5  1  0.996383  0.250364  0.000000  1
  Co  Co6  1  0.000000  0.000000  0.500000  1
  Co  Co7  1  0.666667  0.333333  0.000000  1
  Hg  Hg8  1  0.333333  0.666667  0.000000  1
