# generated using pymatgen
data_Pr3Nd3Co16(P6W)2
_symmetry_space_group_name_H-M   'P 1'
_cell_length_a   3.78726100
_cell_length_b   10.71298701
_cell_length_c   12.45450401
_cell_angle_alpha   89.99520717
_cell_angle_beta   90.00000000
_cell_angle_gamma   90.00000000
_symmetry_Int_Tables_number   1
_chemical_formula_structural   Pr3Nd3Co16(P6W)2
_chemical_formula_sum   'Pr3 Nd3 Co16 P12 W2'
_cell_volume   505.31506870
_cell_formula_units_Z   1
loop_
 _symmetry_equiv_pos_site_id
 _symmetry_equiv_pos_as_xyz
  1  'x, y, z'
loop_
 _atom_site_type_symbol
 _atom_site_label
 _atom_site_symmetry_multiplicity
 _atom_site_fract_x
 _atom_site_fract_y
 _atom_site_fract_z
 _atom_site_occupancy
  Pr  Pr0  1  0.000000  0.500032  0.523454  1
  Pr  Pr1  1  0.500000  0.999992  0.476522  1
  Pr  Pr2  1  0.000000  0.319126  0.794749  1
  Nd  Nd3  1  0.500000  0.818941  0.205142  1
  Nd  Nd4  1  0.500000  0.181046  0.205118  1
  Nd  Nd5  1  0.000000  0.681087  0.794856  1
  Co  Co6  1  0.500000  0.500334  0.703208  1
  Co  Co7  1  0.000000  0.999990  0.296620  1
  Co  Co8  1  0.000000  0.500132  0.988207  1
  Co  Co9  1  0.500000  0.999965  0.011956  1
  Co  Co10  1  0.500000  0.332571  0.992379  1
  Co  Co11  1  0.500000  0.667479  0.992152  1
  Co  Co12  1  0.000000  0.167344  0.007989  1
  Co  Co13  1  0.000000  0.832550  0.007881  1
  Co  Co14  1  0.500000  0.295741  0.430565  1
  Co  Co15  1  0.500000  0.704261  0.430588  1
  Co  Co16  1  0.000000  0.204206  0.569217  1
  Co  Co17  1  0.000000  0.795728  0.569397  1
  Co  Co18  1  0.500000  0.880892  0.710010  1
  Co  Co19  1  0.500000  0.118807  0.709871  1
  Co  Co20  1  0.000000  0.619085  0.290004  1
  Co  Co21  1  0.000000  0.380912  0.289987  1
  P  P22  1  0.500000  0.500451  0.885666  1
  P  P23  1  0.000000  0.999989  0.114655  1
  P  P24  1  0.500000  0.499999  0.344112  1
  P  P25  1  0.000000  0.000015  0.655870  1
  P  P26  1  0.500000  0.305715  0.613809  1
  P  P27  1  0.500000  0.694185  0.614325  1
  P  P28  1  0.000000  0.194174  0.385647  1
  P  P29  1  0.000000  0.805819  0.385674  1
  P  P30  1  0.500000  0.846144  0.895314  1
  P  P31  1  0.500000  0.153396  0.895610  1
  P  P32  1  0.000000  0.653869  0.104718  1
  P  P33  1  0.000000  0.346148  0.104676  1
  W  W34  1  0.500000  0.500011  0.153589  1
  W  W35  1  0.000000  0.999865  0.846465  1
