# generated using pymatgen
data_Li2Dy7Ho(SiB4)4
_symmetry_space_group_name_H-M   'P 1'
_cell_length_a   7.15110400
_cell_length_b   7.15109500
_cell_length_c   7.83824200
_cell_angle_alpha   89.99858588
_cell_angle_beta   89.99871577
_cell_angle_gamma   90.00009614
_symmetry_Int_Tables_number   1
_chemical_formula_structural   Li2Dy7Ho(SiB4)4
_chemical_formula_sum   'Li2 Dy7 Ho1 Si4 B16'
_cell_volume   400.83377551
_cell_formula_units_Z   1
loop_
 _symmetry_equiv_pos_site_id
 _symmetry_equiv_pos_as_xyz
  1  'x, y, z'
loop_
 _atom_site_type_symbol
 _atom_site_label
 _atom_site_symmetry_multiplicity
 _atom_site_fract_x
 _atom_site_fract_y
 _atom_site_fract_z
 _atom_site_occupancy
  Li  Li0  1  0.999927  0.000041  0.499933  1
  Li  Li1  1  0.500041  0.499926  0.499933  1
  Dy  Dy2  1  0.316667  0.816666  0.764236  1
  Dy  Dy3  1  0.316701  0.816700  0.235768  1
  Dy  Dy4  1  0.816605  0.683354  0.235782  1
  Dy  Dy5  1  0.816631  0.683338  0.764220  1
  Dy  Dy6  1  0.683362  0.183363  0.764240  1
  Dy  Dy7  1  0.183338  0.316631  0.764220  1
  Dy  Dy8  1  0.183354  0.316605  0.235781  1
  Ho  Ho9  1  0.683337  0.183338  0.235127  1
  Si  Si10  1  0.114742  0.614742  0.499943  1
  Si  Si11  1  0.884919  0.384919  0.499658  1
  Si  Si12  1  0.385437  0.114986  0.499740  1
  Si  Si13  1  0.614986  0.885437  0.499740  1
  B  B14  1  0.173917  0.039970  0.000096  1
  B  B15  1  0.825949  0.960199  0.000140  1
  B  B16  1  0.959949  0.174023  0.000114  1
  B  B17  1  0.326086  0.539878  0.000078  1
  B  B18  1  0.039878  0.826085  0.000078  1
  B  B19  1  0.674023  0.459949  0.000114  1
  B  B20  1  0.539970  0.673917  0.000095  1
  B  B21  1  0.460198  0.325949  0.000140  1
  B  B22  1  0.089021  0.589021  0.000025  1
  B  B23  1  0.910949  0.410949  0.000029  1
  B  B24  1  0.411044  0.089055  0.000158  1
  B  B25  1  0.589054  0.911044  0.000158  1
  B  B26  1  0.999769  0.000127  0.161702  1
  B  B27  1  0.999983  0.000037  0.838524  1
  B  B28  1  0.500038  0.499983  0.838525  1
  B  B29  1  0.500126  0.499769  0.161702  1
