# generated using pymatgen
data_Sc2Ga9IrRh2
_symmetry_space_group_name_H-M   'P 1'
_cell_length_a   7.47894372
_cell_length_b   7.47903439
_cell_length_c   9.39696354
_cell_angle_alpha   90.01857218
_cell_angle_beta   90.01828245
_cell_angle_gamma   119.94439807
_symmetry_Int_Tables_number   1
_chemical_formula_structural   Sc2Ga9IrRh2
_chemical_formula_sum   'Sc4 Ga18 Ir2 Rh4'
_cell_volume   455.45653050
_cell_formula_units_Z   2
loop_
 _symmetry_equiv_pos_site_id
 _symmetry_equiv_pos_as_xyz
  1  'x, y, z'
loop_
 _atom_site_type_symbol
 _atom_site_label
 _atom_site_symmetry_multiplicity
 _atom_site_fract_x
 _atom_site_fract_y
 _atom_site_fract_z
 _atom_site_occupancy
  Sc  Sc0  1  0.997505  0.667581  0.247971  1
  Sc  Sc1  1  0.002495  0.332419  0.752029  1
  Sc  Sc2  1  0.667574  0.997501  0.247972  1
  Sc  Sc3  1  0.332426  0.002499  0.752028  1
  Ga  Ga4  1  0.120287  0.120288  0.250221  1
  Ga  Ga5  1  0.879713  0.879712  0.749779  1
  Ga  Ga6  1  0.997650  0.333306  0.083735  1
  Ga  Ga7  1  0.002350  0.666694  0.916265  1
  Ga  Ga8  1  0.003348  0.666038  0.582691  1
  Ga  Ga9  1  0.333963  0.996654  0.417311  1
  Ga  Ga10  1  0.996652  0.333962  0.417309  1
  Ga  Ga11  1  0.666037  0.003346  0.582689  1
  Ga  Ga12  1  0.666694  0.002351  0.916265  1
  Ga  Ga13  1  0.333306  0.997649  0.083735  1
  Ga  Ga14  1  0.329316  0.329317  0.569289  1
  Ga  Ga15  1  0.670684  0.670683  0.430711  1
  Ga  Ga16  1  0.670688  0.670689  0.069139  1
  Ga  Ga17  1  0.329312  0.329311  0.930861  1
  Ga  Ga18  1  0.339715  0.551530  0.250752  1
  Ga  Ga19  1  0.660285  0.448470  0.749248  1
  Ga  Ga20  1  0.551529  0.339713  0.250751  1
  Ga  Ga21  1  0.448471  0.660287  0.749249  1
  Ir  Ir22  1  0.672004  0.327998  0.000001  1
  Ir  Ir23  1  0.327996  0.672002  0.999999  1
  Rh  Rh24  1  0.328617  0.671395  0.500001  1
  Rh  Rh25  1  0.671383  0.328605  0.499999  1
  Rh  Rh26  1  0.000000  0.000000  0.000000  1
  Rh  Rh27  1  0.000000  0.000000  0.500000  1
