# generated using pymatgen
data_Dy8Ho12Si15Au
_symmetry_space_group_name_H-M   'P 1'
_cell_length_a   7.39140247
_cell_length_b   7.67202083
_cell_length_c   14.61327005
_cell_angle_alpha   89.81174600
_cell_angle_beta   89.47830164
_cell_angle_gamma   90.14170976
_symmetry_Int_Tables_number   1
_chemical_formula_structural   Dy8Ho12Si15Au
_chemical_formula_sum   'Dy8 Ho12 Si15 Au1'
_cell_volume   828.63319202
_cell_formula_units_Z   1
loop_
 _symmetry_equiv_pos_site_id
 _symmetry_equiv_pos_as_xyz
  1  'x, y, z'
loop_
 _atom_site_type_symbol
 _atom_site_label
 _atom_site_symmetry_multiplicity
 _atom_site_fract_x
 _atom_site_fract_y
 _atom_site_fract_z
 _atom_site_occupancy
  Dy  Dy0  1  0.020322  0.180735  0.098882  1
  Dy  Dy1  1  0.980125  0.819979  0.903014  1
  Dy  Dy2  1  0.480142  0.681325  0.903193  1
  Dy  Dy3  1  0.982679  0.825155  0.598711  1
  Dy  Dy4  1  0.518513  0.317923  0.097414  1
  Dy  Dy5  1  0.015290  0.177236  0.398855  1
  Dy  Dy6  1  0.515793  0.317901  0.399615  1
  Dy  Dy7  1  0.485928  0.682339  0.599727  1
  Ho  Ho8  1  0.162875  0.511626  0.749803  1
  Ho  Ho9  1  0.838885  0.489818  0.251389  1
  Ho  Ho10  1  0.338700  0.007630  0.249915  1
  Ho  Ho11  1  0.663092  0.988035  0.749941  1
  Ho  Ho12  1  0.334335  0.178048  0.622534  1
  Ho  Ho13  1  0.667044  0.821726  0.376105  1
  Ho  Ho14  1  0.171101  0.672935  0.375718  1
  Ho  Ho15  1  0.673219  0.821694  0.123351  1
  Ho  Ho16  1  0.829307  0.325086  0.622696  1
  Ho  Ho17  1  0.327336  0.179383  0.877727  1
  Ho  Ho18  1  0.827046  0.319462  0.878267  1
  Ho  Ho19  1  0.171783  0.679153  0.123154  1
  Si  Si20  1  0.035855  0.109340  0.751472  1
  Si  Si21  1  0.966146  0.893344  0.249685  1
  Si  Si22  1  0.466643  0.604261  0.247992  1
  Si  Si23  1  0.535947  0.394763  0.752079  1
  Si  Si24  1  0.278014  0.875761  0.751309  1
  Si  Si25  1  0.720716  0.127634  0.248528  1
  Si  Si26  1  0.222129  0.369215  0.247547  1
  Si  Si27  1  0.779209  0.626733  0.753590  1
  Si  Si28  1  0.834652  0.530887  0.458745  1
  Si  Si29  1  0.338774  0.968197  0.459621  1
  Si  Si30  1  0.845426  0.531589  0.038643  1
  Si  Si31  1  0.659202  0.032966  0.537663  1
  Si  Si32  1  0.152730  0.468240  0.962408  1
  Si  Si33  1  0.653572  0.029437  0.961015  1
  Si  Si34  1  0.346014  0.968796  0.039381  1
  Au  Au35  1  0.161454  0.471651  0.540309  1
