# generated using pymatgen
data_TbEr5Al24ZnOs7
_symmetry_space_group_name_H-M   'P 1'
_cell_length_a   8.84964290
_cell_length_b   8.85246617
_cell_length_c   9.52379681
_cell_angle_alpha   90.08262565
_cell_angle_beta   89.95487307
_cell_angle_gamma   119.96411259
_symmetry_Int_Tables_number   1
_chemical_formula_structural   TbEr5Al24ZnOs7
_chemical_formula_sum   'Tb1 Er5 Al24 Zn1 Os7'
_cell_volume   646.37903326
_cell_formula_units_Z   1
loop_
 _symmetry_equiv_pos_site_id
 _symmetry_equiv_pos_as_xyz
  1  'x, y, z'
loop_
 _atom_site_type_symbol
 _atom_site_label
 _atom_site_symmetry_multiplicity
 _atom_site_fract_x
 _atom_site_fract_y
 _atom_site_fract_z
 _atom_site_occupancy
  Tb  Tb0  1  0.808497  0.194036  0.752429  1
  Er  Er1  1  0.194804  0.389840  0.253981  1
  Er  Er2  1  0.805087  0.610402  0.746053  1
  Er  Er3  1  0.612943  0.804639  0.248193  1
  Er  Er4  1  0.387024  0.195455  0.751805  1
  Er  Er5  1  0.191763  0.804686  0.248091  1
  Al  Al6  1  0.329867  0.659786  0.022258  1
  Al  Al7  1  0.670102  0.340821  0.978343  1
  Al  Al8  1  0.665772  0.332155  0.517994  1
  Al  Al9  1  0.333939  0.668115  0.481519  1
  Al  Al10  1  0.163198  0.325958  0.575472  1
  Al  Al11  1  0.837230  0.674393  0.424188  1
  Al  Al12  1  0.673878  0.836310  0.573346  1
  Al  Al13  1  0.836758  0.673723  0.076348  1
  Al  Al14  1  0.325775  0.163095  0.426202  1
  Al  Al15  1  0.163821  0.326738  0.924065  1
  Al  Al16  1  0.162554  0.836713  0.573385  1
  Al  Al17  1  0.322611  0.171562  0.081435  1
  Al  Al18  1  0.837290  0.163209  0.425822  1
  Al  Al19  1  0.677061  0.827905  0.918948  1
  Al  Al20  1  0.848767  0.171636  0.081934  1
  Al  Al21  1  0.151206  0.828490  0.918796  1
  Al  Al22  1  0.563245  0.126609  0.254166  1
  Al  Al23  1  0.435700  0.872703  0.745489  1
  Al  Al24  1  0.879226  0.440845  0.249435  1
  Al  Al25  1  0.121345  0.560138  0.750635  1
  Al  Al26  1  0.561469  0.440819  0.249300  1
  Al  Al27  1  0.438516  0.559172  0.750648  1
  Al  Al28  1  0.999080  0.998062  0.250494  1
  Al  Al29  1  0.001765  0.001304  0.749468  1
  Zn  Zn30  1  0.499902  0.000000  0.000075  1
  Os  Os31  1  0.000269  0.500446  0.000357  1
  Os  Os32  1  0.499599  0.999765  0.499711  1
  Os  Os33  1  0.499883  0.500041  0.000076  1
  Os  Os34  1  0.000193  0.500329  0.499685  1
  Os  Os35  1  0.499890  0.500111  0.499893  1
  Os  Os36  1  0.999962  0.000006  0.000046  1
  Os  Os37  1  0.000010  0.999982  0.499916  1
