# generated using pymatgen
data_Lu20IrOs3Pt8
_symmetry_space_group_name_H-M   'P 1'
_cell_length_a   10.79134200
_cell_length_b   10.79134200
_cell_length_c   6.25844900
_cell_angle_alpha   90.00000000
_cell_angle_beta   90.00000000
_cell_angle_gamma   90.00000000
_symmetry_Int_Tables_number   1
_chemical_formula_structural   Lu20IrOs3Pt8
_chemical_formula_sum   'Lu20 Ir1 Os3 Pt8'
_cell_volume   728.81555043
_cell_formula_units_Z   1
loop_
 _symmetry_equiv_pos_site_id
 _symmetry_equiv_pos_as_xyz
  1  'x, y, z'
loop_
 _atom_site_type_symbol
 _atom_site_label
 _atom_site_symmetry_multiplicity
 _atom_site_fract_x
 _atom_site_fract_y
 _atom_site_fract_z
 _atom_site_occupancy
  Lu  Lu0  1  0.297308  0.085446  0.372202  1
  Lu  Lu1  1  0.297474  0.914999  0.872388  1
  Lu  Lu2  1  0.702526  0.085001  0.872388  1
  Lu  Lu3  1  0.702692  0.914554  0.372202  1
  Lu  Lu4  1  0.585001  0.797474  0.872388  1
  Lu  Lu5  1  0.585446  0.202692  0.372202  1
  Lu  Lu6  1  0.414554  0.797308  0.372202  1
  Lu  Lu7  1  0.414999  0.202526  0.872388  1
  Lu  Lu8  1  0.204509  0.413795  0.629596  1
  Lu  Lu9  1  0.203592  0.585961  0.125687  1
  Lu  Lu10  1  0.796408  0.414039  0.125687  1
  Lu  Lu11  1  0.795491  0.586205  0.629596  1
  Lu  Lu12  1  0.914039  0.703592  0.125687  1
  Lu  Lu13  1  0.913795  0.295491  0.629596  1
  Lu  Lu14  1  0.086205  0.704509  0.629596  1
  Lu  Lu15  1  0.085961  0.296408  0.125687  1
  Lu  Lu16  1  0.000000  0.000000  0.498953  1
  Lu  Lu17  1  0.000000  0.000000  0.999188  1
  Lu  Lu18  1  0.500000  0.500000  0.999188  1
  Lu  Lu19  1  0.500000  0.500000  0.498953  1
  Ir  Ir20  1  0.000000  0.500000  0.380544  1
  Os  Os21  1  0.500000  0.000000  0.124461  1
  Os  Os22  1  0.500000  0.000000  0.623946  1
  Os  Os23  1  0.000000  0.500000  0.876691  1
  Pt  Pt24  1  0.847654  0.154066  0.249941  1
  Pt  Pt25  1  0.847373  0.846251  0.749706  1
  Pt  Pt26  1  0.152627  0.153749  0.749706  1
  Pt  Pt27  1  0.152346  0.845934  0.249941  1
  Pt  Pt28  1  0.653749  0.347373  0.749706  1
  Pt  Pt29  1  0.654066  0.652346  0.249941  1
  Pt  Pt30  1  0.345934  0.347654  0.249941  1
  Pt  Pt31  1  0.346251  0.652627  0.749706  1
