# generated using pymatgen
data_Tb5Y3Sc12Si15As
_symmetry_space_group_name_H-M   'P 1'
_cell_length_a   7.13859486
_cell_length_b   7.38046093
_cell_length_c   13.98412167
_cell_angle_alpha   90.07125284
_cell_angle_beta   88.91818046
_cell_angle_gamma   90.17312519
_symmetry_Int_Tables_number   1
_chemical_formula_structural   Tb5Y3Sc12Si15As
_chemical_formula_sum   'Tb5 Y3 Sc12 Si15 As1'
_cell_volume   736.63391098
_cell_formula_units_Z   1
loop_
 _symmetry_equiv_pos_site_id
 _symmetry_equiv_pos_as_xyz
  1  'x, y, z'
loop_
 _atom_site_type_symbol
 _atom_site_label
 _atom_site_symmetry_multiplicity
 _atom_site_fract_x
 _atom_site_fract_y
 _atom_site_fract_z
 _atom_site_occupancy
  Tb  Tb0  1  0.992110  0.822004  0.595976  1
  Tb  Tb1  1  0.512583  0.325182  0.097520  1
  Tb  Tb2  1  0.006656  0.178031  0.403733  1
  Tb  Tb3  1  0.505144  0.322160  0.401887  1
  Tb  Tb4  1  0.499156  0.676571  0.597748  1
  Y  Y5  1  0.012683  0.175859  0.097359  1
  Y  Y6  1  0.987951  0.824696  0.902341  1
  Y  Y7  1  0.488002  0.675305  0.902564  1
  Sc  Sc8  1  0.164172  0.500900  0.749964  1
  Sc  Sc9  1  0.835734  0.499005  0.252789  1
  Sc  Sc10  1  0.336127  0.000736  0.251062  1
  Sc  Sc11  1  0.664014  0.999281  0.749354  1
  Sc  Sc12  1  0.339065  0.171237  0.626961  1
  Sc  Sc13  1  0.661907  0.827454  0.373469  1
  Sc  Sc14  1  0.159327  0.672370  0.377121  1
  Sc  Sc15  1  0.669038  0.823750  0.125486  1
  Sc  Sc16  1  0.837742  0.328501  0.622676  1
  Sc  Sc17  1  0.330516  0.175836  0.874062  1
  Sc  Sc18  1  0.831823  0.323064  0.874575  1
  Sc  Sc19  1  0.168429  0.677050  0.124950  1
  Si  Si20  1  0.035074  0.117628  0.749187  1
  Si  Si21  1  0.964597  0.882642  0.249793  1
  Si  Si22  1  0.460559  0.618411  0.248843  1
  Si  Si23  1  0.538391  0.382179  0.750919  1
  Si  Si24  1  0.287962  0.871984  0.750248  1
  Si  Si25  1  0.712898  0.126465  0.249227  1
  Si  Si26  1  0.210908  0.375137  0.249834  1
  Si  Si27  1  0.790428  0.625560  0.750310  1
  Si  Si28  1  0.814324  0.540381  0.456883  1
  Si  Si29  1  0.335334  0.962358  0.460867  1
  Si  Si30  1  0.844246  0.535602  0.039451  1
  Si  Si31  1  0.664642  0.037396  0.539861  1
  Si  Si32  1  0.155526  0.465057  0.960135  1
  Si  Si33  1  0.655123  0.034797  0.959753  1
  Si  Si34  1  0.344846  0.965645  0.040077  1
  As  As35  1  0.182965  0.459764  0.543013  1
