# generated using pymatgen
data_HoHfTiFe9
_symmetry_space_group_name_H-M   'P 1'
_cell_length_a   8.38484910
_cell_length_b   8.38484885
_cell_length_c   8.38484913
_cell_angle_alpha   34.14026833
_cell_angle_beta   34.14027158
_cell_angle_gamma   34.14026773
_symmetry_Int_Tables_number   1
_chemical_formula_structural   HoHfTiFe9
_chemical_formula_sum   'Ho1 Hf1 Ti1 Fe9'
_cell_volume   165.54493542
_cell_formula_units_Z   1
loop_
 _symmetry_equiv_pos_site_id
 _symmetry_equiv_pos_as_xyz
  1  'x, y, z'
loop_
 _atom_site_type_symbol
 _atom_site_label
 _atom_site_symmetry_multiplicity
 _atom_site_fract_x
 _atom_site_fract_y
 _atom_site_fract_z
 _atom_site_occupancy
  Ho  Ho0  1  0.000859  0.000859  0.000859  1
  Hf  Hf1  1  0.855703  0.855703  0.855703  1
  Ti  Ti2  1  0.143349  0.143349  0.143349  1
  Fe  Fe3  1  0.499881  0.499881  0.499881  1
  Fe  Fe4  1  0.333170  0.333170  0.333170  1
  Fe  Fe5  1  0.666957  0.666957  0.666957  1
  Fe  Fe6  1  0.082764  0.586892  0.586892  1
  Fe  Fe7  1  0.586892  0.586892  0.082764  1
  Fe  Fe8  1  0.586892  0.082764  0.586892  1
  Fe  Fe9  1  0.412801  0.917933  0.412801  1
  Fe  Fe10  1  0.917933  0.412801  0.412801  1
  Fe  Fe11  1  0.412801  0.412801  0.917933  1
