# generated using pymatgen
data_Tm2MgGa5Pt
_symmetry_space_group_name_H-M   'P 1'
_cell_length_a   7.05698200
_cell_length_b   6.76403156
_cell_length_c   4.18739000
_cell_angle_alpha   90.00000000
_cell_angle_beta   90.00000000
_cell_angle_gamma   121.44334231
_symmetry_Int_Tables_number   1
_chemical_formula_structural   Tm2MgGa5Pt
_chemical_formula_sum   'Tm2 Mg1 Ga5 Pt1'
_cell_volume   170.52839851
_cell_formula_units_Z   1
loop_
 _symmetry_equiv_pos_site_id
 _symmetry_equiv_pos_as_xyz
  1  'x, y, z'
loop_
 _atom_site_type_symbol
 _atom_site_label
 _atom_site_symmetry_multiplicity
 _atom_site_fract_x
 _atom_site_fract_y
 _atom_site_fract_z
 _atom_site_occupancy
  Tm  Tm0  1  0.003968  0.579156  0.000000  1
  Tm  Tm1  1  0.424812  0.420844  0.000000  1
  Mg  Mg2  1  0.593586  0.000000  0.000000  1
  Ga  Ga3  1  0.235565  0.000000  0.500000  1
  Ga  Ga4  1  0.001021  0.245958  0.500000  1
  Ga  Ga5  1  0.755063  0.754042  0.500000  1
  Ga  Ga6  1  0.338648  0.677975  0.500000  1
  Ga  Ga7  1  0.660674  0.322025  0.500000  1
  Pt  Pt8  1  0.986662  0.000000  0.000000  1
