# generated using pymatgen
data_Pr3NdGd4(SiO5)4
_symmetry_space_group_name_H-M   'P 1'
_cell_length_a   7.16349303
_cell_length_b   6.92051476
_cell_length_c   9.39727952
_cell_angle_alpha   71.36203956
_cell_angle_beta   89.99032762
_cell_angle_gamma   89.99281535
_symmetry_Int_Tables_number   1
_chemical_formula_structural   Pr3NdGd4(SiO5)4
_chemical_formula_sum   'Pr3 Nd1 Gd4 Si4 O20'
_cell_volume   441.43896897
_cell_formula_units_Z   1
loop_
 _symmetry_equiv_pos_site_id
 _symmetry_equiv_pos_as_xyz
  1  'x, y, z'
loop_
 _atom_site_type_symbol
 _atom_site_label
 _atom_site_symmetry_multiplicity
 _atom_site_fract_x
 _atom_site_fract_y
 _atom_site_fract_z
 _atom_site_occupancy
  Pr  Pr0  1  0.854366  0.411061  0.886358  1
  Pr  Pr1  1  0.354877  0.088748  0.113530  1
  Pr  Pr2  1  0.145445  0.588984  0.113671  1
  Nd  Nd3  1  0.646156  0.911722  0.885421  1
  Gd  Gd4  1  0.375277  0.230075  0.474882  1
  Gd  Gd5  1  0.875043  0.269764  0.525475  1
  Gd  Gd6  1  0.624865  0.769928  0.525705  1
  Gd  Gd7  1  0.124891  0.730135  0.474718  1
  Si  Si8  1  0.412946  0.460245  0.794153  1
  Si  Si9  1  0.912160  0.039555  0.205847  1
  Si  Si10  1  0.587715  0.540173  0.205767  1
  Si  Si11  1  0.087241  0.960218  0.793988  1
  O  O12  1  0.567544  0.642273  0.790317  1
  O  O13  1  0.067688  0.858199  0.210780  1
  O  O14  1  0.432452  0.358412  0.210694  1
  O  O15  1  0.931425  0.141163  0.789593  1
  O  O16  1  0.540853  0.253722  0.862738  1
  O  O17  1  0.040279  0.245555  0.136811  1
  O  O18  1  0.459918  0.746187  0.135933  1
  O  O19  1  0.958184  0.754993  0.863214  1
  O  O20  1  0.361775  0.509860  0.614368  1
  O  O21  1  0.860912  0.990495  0.385590  1
  O  O22  1  0.638658  0.490396  0.385679  1
  O  O23  1  0.138502  0.009696  0.614261  1
  O  O24  1  0.235588  0.443745  0.904198  1
  O  O25  1  0.735538  0.055276  0.095063  1
  O  O26  1  0.764679  0.556577  0.095457  1
  O  O27  1  0.264732  0.943728  0.903938  1
  O  O28  1  0.621385  0.052775  0.611476  1
  O  O29  1  0.121506  0.446386  0.390209  1
  O  O30  1  0.378817  0.946497  0.390179  1
  O  O31  1  0.878582  0.553458  0.609987  1
