# generated using pymatgen
data_Nd10Sn20Ir3Pd5
_symmetry_space_group_name_H-M   'P 1'
_cell_length_a   14.26532104
_cell_length_b   14.26472954
_cell_length_c   4.66767500
_cell_angle_alpha   90.00000000
_cell_angle_beta   90.00000000
_cell_angle_gamma   89.94140961
_symmetry_Int_Tables_number   1
_chemical_formula_structural   Nd10Sn20Ir3Pd5
_chemical_formula_sum   'Nd10 Sn20 Ir3 Pd5'
_cell_volume   949.82910641
_cell_formula_units_Z   1
loop_
 _symmetry_equiv_pos_site_id
 _symmetry_equiv_pos_as_xyz
  1  'x, y, z'
loop_
 _atom_site_type_symbol
 _atom_site_label
 _atom_site_symmetry_multiplicity
 _atom_site_fract_x
 _atom_site_fract_y
 _atom_site_fract_z
 _atom_site_occupancy
  Nd  Nd0  1  0.500813  0.496463  0.000000  1
  Nd  Nd1  1  0.001028  0.999523  0.000000  1
  Nd  Nd2  1  0.676383  0.181610  0.500000  1
  Nd  Nd3  1  0.320119  0.820869  0.500000  1
  Nd  Nd4  1  0.175815  0.318460  0.500000  1
  Nd  Nd5  1  0.823368  0.680749  0.500000  1
  Nd  Nd6  1  0.892804  0.389470  0.500000  1
  Nd  Nd7  1  0.106764  0.610389  0.500000  1
  Nd  Nd8  1  0.393704  0.110800  0.500000  1
  Nd  Nd9  1  0.608851  0.891678  0.500000  1
  Sn  Sn10  1  0.568503  0.071425  0.000000  1
  Sn  Sn11  1  0.431375  0.932641  0.000000  1
  Sn  Sn12  1  0.068703  0.429845  0.000000  1
  Sn  Sn13  1  0.932074  0.570413  0.000000  1
  Sn  Sn14  1  0.652981  0.700584  0.000000  1
  Sn  Sn15  1  0.347159  0.296437  0.000000  1
  Sn  Sn16  1  0.151070  0.796510  0.000000  1
  Sn  Sn17  1  0.848092  0.202413  0.000000  1
  Sn  Sn18  1  0.298956  0.652595  0.000000  1
  Sn  Sn19  1  0.699974  0.346868  0.000000  1
  Sn  Sn20  1  0.198652  0.152642  0.000000  1
  Sn  Sn21  1  0.800706  0.848065  0.000000  1
  Sn  Sn22  1  0.663308  0.500813  0.500000  1
  Sn  Sn23  1  0.337381  0.495728  0.500000  1
  Sn  Sn24  1  0.162793  0.997854  0.500000  1
  Sn  Sn25  1  0.837778  0.004138  0.500000  1
  Sn  Sn26  1  0.498629  0.662128  0.500000  1
  Sn  Sn27  1  0.503257  0.337140  0.500000  1
  Sn  Sn28  1  0.004547  0.161892  0.500000  1
  Sn  Sn29  1  0.995150  0.837751  0.500000  1
  Ir  Ir30  1  0.531972  0.256772  0.000000  1
  Ir  Ir31  1  0.031472  0.244794  0.000000  1
  Ir  Ir32  1  0.967157  0.755714  0.000000  1
  Pd  Pd33  1  0.745771  0.530716  0.000000  1
  Pd  Pd34  1  0.255144  0.468450  0.000000  1
  Pd  Pd35  1  0.244279  0.968050  0.000000  1
  Pd  Pd36  1  0.755021  0.031617  0.000000  1
  Pd  Pd37  1  0.468447  0.745992  0.000000  1
