# generated using pymatgen
data_LiDy2As2(PPd5)4
_symmetry_space_group_name_H-M   'P 1'
_cell_length_a   8.65625644
_cell_length_b   8.74396304
_cell_length_c   8.74396303
_cell_angle_alpha   59.33749497
_cell_angle_beta   60.33124859
_cell_angle_gamma   60.33124952
_symmetry_Int_Tables_number   1
_chemical_formula_structural   LiDy2As2(PPd5)4
_chemical_formula_sum   'Li1 Dy2 As2 P4 Pd20'
_cell_volume   467.89153560
_cell_formula_units_Z   1
loop_
 _symmetry_equiv_pos_site_id
 _symmetry_equiv_pos_as_xyz
  1  'x, y, z'
loop_
 _atom_site_type_symbol
 _atom_site_label
 _atom_site_symmetry_multiplicity
 _atom_site_fract_x
 _atom_site_fract_y
 _atom_site_fract_z
 _atom_site_occupancy
  Li  Li0  1  0.000000  0.000000  0.000000  1
  Dy  Dy1  1  0.250000  0.250000  0.250000  1
  Dy  Dy2  1  0.750000  0.750000  0.750000  1
  As  As3  1  0.740772  0.259228  0.259228  1
  As  As4  1  0.259228  0.740772  0.740772  1
  P  P5  1  0.260718  0.739282  0.260718  1
  P  P6  1  0.739282  0.260718  0.739282  1
  P  P7  1  0.260718  0.260718  0.739282  1
  P  P8  1  0.739282  0.739282  0.260718  1
  Pd  Pd9  1  0.378912  0.387809  0.387809  1
  Pd  Pd10  1  0.621088  0.612191  0.612191  1
  Pd  Pd11  1  0.387809  0.378912  0.845469  1
  Pd  Pd12  1  0.387809  0.845469  0.378912  1
  Pd  Pd13  1  0.612191  0.621088  0.154531  1
  Pd  Pd14  1  0.612191  0.154531  0.621088  1
  Pd  Pd15  1  0.845469  0.387809  0.387809  1
  Pd  Pd16  1  0.154531  0.612191  0.612191  1
  Pd  Pd17  1  0.345062  0.000000  0.000000  1
  Pd  Pd18  1  0.654938  0.000000  0.000000  1
  Pd  Pd19  1  0.000000  0.345062  0.654938  1
  Pd  Pd20  1  0.000000  0.654938  0.345062  1
  Pd  Pd21  1  0.009920  0.347823  0.990080  1
  Pd  Pd22  1  0.652177  0.990080  0.347823  1
  Pd  Pd23  1  0.990080  0.652177  0.009920  1
  Pd  Pd24  1  0.347823  0.009920  0.652177  1
  Pd  Pd25  1  0.009920  0.990080  0.347823  1
  Pd  Pd26  1  0.990080  0.009920  0.652177  1
  Pd  Pd27  1  0.652177  0.347823  0.990080  1
  Pd  Pd28  1  0.347823  0.652177  0.009920  1
