# generated using pymatgen
data_TbEr2Al7Pd2
_symmetry_space_group_name_H-M   'P 1'
_cell_length_a   9.18402660
_cell_length_b   9.18402695
_cell_length_c   9.18402632
_cell_angle_alpha   34.93428884
_cell_angle_beta   34.93428356
_cell_angle_gamma   34.93428847
_symmetry_Int_Tables_number   1
_chemical_formula_structural   TbEr2Al7Pd2
_chemical_formula_sum   'Tb1 Er2 Al7 Pd2'
_cell_volume   226.77870053
_cell_formula_units_Z   1
loop_
 _symmetry_equiv_pos_site_id
 _symmetry_equiv_pos_as_xyz
  1  'x, y, z'
loop_
 _atom_site_type_symbol
 _atom_site_label
 _atom_site_symmetry_multiplicity
 _atom_site_fract_x
 _atom_site_fract_y
 _atom_site_fract_z
 _atom_site_occupancy
  Tb  Tb0  1  0.000000  0.000000  0.000000  1
  Er  Er1  1  0.142911  0.142911  0.142911  1
  Er  Er2  1  0.857089  0.857089  0.857089  1
  Al  Al3  1  0.583137  0.583137  0.073699  1
  Al  Al4  1  0.926302  0.416862  0.416864  1
  Al  Al5  1  0.416862  0.926302  0.416864  1
  Al  Al6  1  0.500000  0.500000  0.500000  1
  Al  Al7  1  0.583138  0.073698  0.583136  1
  Al  Al8  1  0.073698  0.583138  0.583136  1
  Al  Al9  1  0.416863  0.416863  0.926301  1
  Pd  Pd10  1  0.335225  0.335225  0.335225  1
  Pd  Pd11  1  0.664776  0.664776  0.664776  1
