# generated using pymatgen
data_Ce5Tc2P12Ru16Pt
_symmetry_space_group_name_H-M   'P 1'
_cell_length_a   12.69953986
_cell_length_b   12.55938298
_cell_length_c   3.99319900
_cell_angle_alpha   90.00000000
_cell_angle_beta   90.00000000
_cell_angle_gamma   119.63558511
_symmetry_Int_Tables_number   1
_chemical_formula_structural   Ce5Tc2P12Ru16Pt
_chemical_formula_sum   'Ce5 Tc2 P12 Ru16 Pt1'
_cell_volume   553.59346881
_cell_formula_units_Z   1
loop_
 _symmetry_equiv_pos_site_id
 _symmetry_equiv_pos_as_xyz
  1  'x, y, z'
loop_
 _atom_site_type_symbol
 _atom_site_label
 _atom_site_symmetry_multiplicity
 _atom_site_fract_x
 _atom_site_fract_y
 _atom_site_fract_z
 _atom_site_occupancy
  Ce  Ce0  1  0.186274  0.187734  0.500000  1
  Ce  Ce1  1  0.813726  0.001460  0.500000  1
  Ce  Ce2  1  0.000000  0.815959  0.500000  1
  Ce  Ce3  1  0.340228  0.671393  0.000000  1
  Ce  Ce4  1  0.659772  0.331163  0.000000  1
  Tc  Tc5  1  0.559673  0.556579  0.000000  1
  Tc  Tc6  1  0.440327  0.996905  0.000000  1
  P  P7  1  0.817807  0.816047  0.000000  1
  P  P8  1  0.182193  0.998240  0.000000  1
  P  P9  1  0.000000  0.190081  0.000000  1
  P  P10  1  0.182024  0.479902  0.500000  1
  P  P11  1  0.528353  0.690885  0.500000  1
  P  P12  1  0.307977  0.830326  0.500000  1
  P  P13  1  0.692023  0.522350  0.500000  1
  P  P14  1  0.817976  0.297879  0.500000  1
  P  P15  1  0.471647  0.162533  0.500000  1
  P  P16  1  0.376393  0.375801  0.000000  1
  P  P17  1  0.623607  0.999408  0.000000  1
  P  P18  1  0.000000  0.633826  0.000000  1
  Ru  Ru19  1  0.721435  0.718531  0.500000  1
  Ru  Ru20  1  0.278565  0.997096  0.500000  1
  Ru  Ru21  1  0.000000  0.291433  0.500000  1
  Ru  Ru22  1  0.183835  0.379543  0.000000  1
  Ru  Ru23  1  0.628297  0.809813  0.000000  1
  Ru  Ru24  1  0.192066  0.813704  0.000000  1
  Ru  Ru25  1  0.807934  0.621638  0.000000  1
  Ru  Ru26  1  0.816165  0.195708  0.000000  1
  Ru  Ru27  1  0.371703  0.181515  0.000000  1
  Ru  Ru28  1  0.369503  0.490447  0.500000  1
  Ru  Ru29  1  0.507163  0.869203  0.500000  1
  Ru  Ru30  1  0.127953  0.632156  0.500000  1
  Ru  Ru31  1  0.872047  0.504203  0.500000  1
  Ru  Ru32  1  0.630497  0.120943  0.500000  1
  Ru  Ru33  1  0.492837  0.362039  0.500000  1
  Ru  Ru34  1  0.000000  0.004202  0.000000  1
  Pt  Pt35  1  0.000000  0.449352  0.000000  1
