# generated using pymatgen
data_Tb9NdTeAs9
_symmetry_space_group_name_H-M   'P 1'
_cell_length_a   7.24527659
_cell_length_b   8.43089989
_cell_length_c   9.36953000
_cell_angle_alpha   103.03017559
_cell_angle_beta   97.34081195
_cell_angle_gamma   106.92942562
_symmetry_Int_Tables_number   1
_chemical_formula_structural   Tb9NdTeAs9
_chemical_formula_sum   'Tb9 Nd1 Te1 As9'
_cell_volume   521.81627684
_cell_formula_units_Z   1
loop_
 _symmetry_equiv_pos_site_id
 _symmetry_equiv_pos_as_xyz
  1  'x, y, z'
loop_
 _atom_site_type_symbol
 _atom_site_label
 _atom_site_symmetry_multiplicity
 _atom_site_fract_x
 _atom_site_fract_y
 _atom_site_fract_z
 _atom_site_occupancy
  Tb  Tb0  1  0.901785  0.548929  0.800276  1
  Tb  Tb1  1  0.685995  0.156289  0.398026  1
  Tb  Tb2  1  0.502609  0.749855  0.002760  1
  Tb  Tb3  1  0.687909  0.635114  0.394095  1
  Tb  Tb4  1  0.308502  0.363418  0.604623  1
  Tb  Tb5  1  0.104004  0.944852  0.185531  1
  Tb  Tb6  1  0.500017  0.251397  0.999122  1
  Tb  Tb7  1  0.312691  0.843505  0.602922  1
  Tb  Tb8  1  0.098638  0.451822  0.200321  1
  Nd  Nd9  1  0.897495  0.054682  0.812537  1
  Te  Te10  1  0.000700  0.998344  0.495120  1
  As  As11  1  0.800320  0.599825  0.100253  1
  As  As12  1  0.595157  0.201865  0.699248  1
  As  As13  1  0.400571  0.800138  0.300229  1
  As  As14  1  0.798501  0.101821  0.108007  1
  As  As15  1  0.204190  0.404639  0.901321  1
  As  As16  1  0.603384  0.698045  0.700514  1
  As  As17  1  0.392767  0.297588  0.297787  1
  As  As18  1  0.205554  0.897649  0.897331  1
  As  As19  1  0.999212  0.500225  0.499977  1
