# generated using pymatgen
data_Ti13Al10Os7
_symmetry_space_group_name_H-M   'P 1'
_cell_length_a   8.74580451
_cell_length_b   8.74580352
_cell_length_c   8.74580468
_cell_angle_alpha   59.99779581
_cell_angle_beta   59.99779150
_cell_angle_gamma   59.99781006
_symmetry_Int_Tables_number   1
_chemical_formula_structural   Ti13Al10Os7
_chemical_formula_sum   'Ti13 Al10 Os7'
_cell_volume   473.00157465
_cell_formula_units_Z   1
loop_
 _symmetry_equiv_pos_site_id
 _symmetry_equiv_pos_as_xyz
  1  'x, y, z'
loop_
 _atom_site_type_symbol
 _atom_site_label
 _atom_site_symmetry_multiplicity
 _atom_site_fract_x
 _atom_site_fract_y
 _atom_site_fract_z
 _atom_site_occupancy
  Ti  Ti0  1  0.219701  0.219701  0.779591  1
  Ti  Ti1  1  0.779591  0.219701  0.219701  1
  Ti  Ti2  1  0.219701  0.779591  0.219701  1
  Ti  Ti3  1  0.785590  0.785590  0.201427  1
  Ti  Ti4  1  0.201427  0.785590  0.785590  1
  Ti  Ti5  1  0.785590  0.201427  0.785590  1
  Ti  Ti6  1  0.379059  0.379059  0.379059  1
  Ti  Ti7  1  0.379177  0.864622  0.379177  1
  Ti  Ti8  1  0.864622  0.379177  0.379177  1
  Ti  Ti9  1  0.379177  0.379177  0.864622  1
  Ti  Ti10  1  0.843024  0.472306  0.843024  1
  Ti  Ti11  1  0.472306  0.843024  0.843024  1
  Ti  Ti12  1  0.843024  0.843024  0.472306  1
  Al  Al13  1  0.155800  0.155800  0.155800  1
  Al  Al14  1  0.156962  0.532447  0.156962  1
  Al  Al15  1  0.532447  0.156962  0.156962  1
  Al  Al16  1  0.156962  0.156962  0.532447  1
  Al  Al17  1  0.619139  0.619139  0.619139  1
  Al  Al18  1  0.619601  0.142784  0.619601  1
  Al  Al19  1  0.142784  0.619601  0.619601  1
  Al  Al20  1  0.619601  0.619601  0.142784  1
  Al  Al21  1  0.833748  0.833748  0.833748  1
  Al  Al22  1  0.002805  0.002805  0.002805  1
  Os  Os23  1  0.001672  0.001672  0.500795  1
  Os  Os24  1  0.500795  0.001672  0.001672  1
  Os  Os25  1  0.001672  0.500795  0.001672  1
  Os  Os26  1  0.500623  0.500623  0.002470  1
  Os  Os27  1  0.002470  0.500623  0.500623  1
  Os  Os28  1  0.500623  0.002470  0.500623  1
  Os  Os29  1  0.500306  0.500306  0.500306  1
