# generated using pymatgen
data_HoEr2Co2P6Ru7
_symmetry_space_group_name_H-M   'P 1'
_cell_length_a   3.86377600
_cell_length_b   10.87122500
_cell_length_c   12.66308400
_cell_angle_alpha   90.00000000
_cell_angle_beta   90.00000000
_cell_angle_gamma   90.00000000
_symmetry_Int_Tables_number   1
_chemical_formula_structural   HoEr2Co2P6Ru7
_chemical_formula_sum   'Ho2 Er4 Co4 P12 Ru14'
_cell_volume   531.89990486
_cell_formula_units_Z   2
loop_
 _symmetry_equiv_pos_site_id
 _symmetry_equiv_pos_as_xyz
  1  'x, y, z'
loop_
 _atom_site_type_symbol
 _atom_site_label
 _atom_site_symmetry_multiplicity
 _atom_site_fract_x
 _atom_site_fract_y
 _atom_site_fract_z
 _atom_site_occupancy
  Ho  Ho0  1  0.000000  0.500000  0.526240  1
  Ho  Ho1  1  0.500000  0.000000  0.473137  1
  Er  Er2  1  0.500000  0.821846  0.202938  1
  Er  Er3  1  0.500000  0.178154  0.202938  1
  Er  Er4  1  0.000000  0.680973  0.797564  1
  Er  Er5  1  0.000000  0.319027  0.797564  1
  Co  Co6  1  0.000000  0.500000  0.988379  1
  Co  Co7  1  0.500000  0.000000  0.012874  1
  Co  Co8  1  0.000000  0.162382  0.010117  1
  Co  Co9  1  0.000000  0.837618  0.010117  1
  P  P10  1  0.500000  0.306740  0.616857  1
  P  P11  1  0.500000  0.693260  0.616857  1
  P  P12  1  0.000000  0.193049  0.383749  1
  P  P13  1  0.000000  0.806951  0.383749  1
  P  P14  1  0.500000  0.500000  0.886024  1
  P  P15  1  0.000000  0.000000  0.112960  1
  P  P16  1  0.500000  0.851712  0.895703  1
  P  P17  1  0.500000  0.148288  0.895703  1
  P  P18  1  0.000000  0.656057  0.101771  1
  P  P19  1  0.000000  0.343943  0.101771  1
  P  P20  1  0.500000  0.500000  0.337040  1
  P  P21  1  0.000000  0.000000  0.662089  1
  Ru  Ru22  1  0.500000  0.300156  0.429316  1
  Ru  Ru23  1  0.500000  0.699844  0.429316  1
  Ru  Ru24  1  0.000000  0.199621  0.571007  1
  Ru  Ru25  1  0.000000  0.800379  0.571007  1
  Ru  Ru26  1  0.500000  0.877339  0.715636  1
  Ru  Ru27  1  0.500000  0.122661  0.715636  1
  Ru  Ru28  1  0.000000  0.624266  0.282546  1
  Ru  Ru29  1  0.000000  0.375734  0.282546  1
  Ru  Ru30  1  0.500000  0.326823  0.992423  1
  Ru  Ru31  1  0.500000  0.673177  0.992423  1
  Ru  Ru32  1  0.500000  0.500000  0.152253  1
  Ru  Ru33  1  0.000000  0.000000  0.851021  1
  Ru  Ru34  1  0.500000  0.500000  0.700421  1
  Ru  Ru35  1  0.000000  0.000000  0.298308  1
