# generated using pymatgen
data_TbYbIrRu3
_symmetry_space_group_name_H-M   'P 1'
_cell_length_a   5.23420745
_cell_length_b   5.23420598
_cell_length_c   8.99088901
_cell_angle_alpha   89.99498628
_cell_angle_beta   90.00501534
_cell_angle_gamma   120.08269652
_symmetry_Int_Tables_number   1
_chemical_formula_structural   TbYbIrRu3
_chemical_formula_sum   'Tb2 Yb2 Ir2 Ru6'
_cell_volume   213.14370156
_cell_formula_units_Z   2
loop_
 _symmetry_equiv_pos_site_id
 _symmetry_equiv_pos_as_xyz
  1  'x, y, z'
loop_
 _atom_site_type_symbol
 _atom_site_label
 _atom_site_symmetry_multiplicity
 _atom_site_fract_x
 _atom_site_fract_y
 _atom_site_fract_z
 _atom_site_occupancy
  Tb  Tb0  1  0.666614  0.333386  0.574304  1
  Tb  Tb1  1  0.333386  0.666614  0.425696  1
  Yb  Yb2  1  0.333413  0.666587  0.061081  1
  Yb  Yb3  1  0.666587  0.333413  0.938919  1
  Ir  Ir4  1  0.000000  0.000000  0.500000  1
  Ir  Ir5  1  0.000000  0.000000  0.000000  1
  Ru  Ru6  1  0.170420  0.341109  0.750052  1
  Ru  Ru7  1  0.170642  0.829358  0.750061  1
  Ru  Ru8  1  0.658891  0.829580  0.750052  1
  Ru  Ru9  1  0.829580  0.658891  0.249948  1
  Ru  Ru10  1  0.829358  0.170642  0.249939  1
  Ru  Ru11  1  0.341109  0.170420  0.249948  1
