# generated using pymatgen
data_Cs6CdSe4
_symmetry_space_group_name_H-M   'P 1'
_cell_length_a   11.30044800
_cell_length_b   11.30044796
_cell_length_c   8.84914600
_cell_angle_alpha   90.00000000
_cell_angle_beta   90.00000000
_cell_angle_gamma   120.00000011
_symmetry_Int_Tables_number   1
_chemical_formula_structural   Cs6CdSe4
_chemical_formula_sum   'Cs12 Cd2 Se8'
_cell_volume   978.64078861
_cell_formula_units_Z   2
loop_
 _symmetry_equiv_pos_site_id
 _symmetry_equiv_pos_as_xyz
  1  'x, y, z'
loop_
 _atom_site_type_symbol
 _atom_site_label
 _atom_site_symmetry_multiplicity
 _atom_site_fract_x
 _atom_site_fract_y
 _atom_site_fract_z
 _atom_site_occupancy
  Cs  Cs0  1  0.146860  0.853140  0.543150  1
  Cs  Cs1  1  0.293721  0.146860  0.043150  1
  Cs  Cs2  1  0.853140  0.706279  0.043150  1
  Cs  Cs3  1  0.146860  0.293721  0.543150  1
  Cs  Cs4  1  0.706279  0.853140  0.543150  1
  Cs  Cs5  1  0.853140  0.146860  0.043150  1
  Cs  Cs6  1  0.528393  0.471607  0.366286  1
  Cs  Cs7  1  0.056787  0.528393  0.866286  1
  Cs  Cs8  1  0.471607  0.943213  0.866286  1
  Cs  Cs9  1  0.528393  0.056787  0.366286  1
  Cs  Cs10  1  0.943213  0.471607  0.366286  1
  Cs  Cs11  1  0.471607  0.528393  0.866286  1
  Cd  Cd12  1  0.333333  0.666667  0.251524  1
  Cd  Cd13  1  0.666667  0.333333  0.751524  1
  Se  Se14  1  0.333333  0.666667  0.565107  1
  Se  Se15  1  0.666667  0.333333  0.065107  1
  Se  Se16  1  0.198442  0.801558  0.154921  1
  Se  Se17  1  0.396884  0.198442  0.654921  1
  Se  Se18  1  0.801558  0.603116  0.654921  1
  Se  Se19  1  0.198442  0.396884  0.154921  1
  Se  Se20  1  0.603116  0.801558  0.154921  1
  Se  Se21  1  0.801558  0.198442  0.654921  1
