# generated using pymatgen
data_PrGd3Np4N12
_symmetry_space_group_name_H-M   'P 1'
_cell_length_a   5.72864700
_cell_length_b   5.88570900
_cell_length_c   8.25063100
_cell_angle_alpha   90.00000000
_cell_angle_beta   90.00000000
_cell_angle_gamma   90.22651799
_symmetry_Int_Tables_number   1
_chemical_formula_structural   PrGd3Np4N12
_chemical_formula_sum   'Pr1 Gd3 Np4 N12'
_cell_volume   278.18558228
_cell_formula_units_Z   1
loop_
 _symmetry_equiv_pos_site_id
 _symmetry_equiv_pos_as_xyz
  1  'x, y, z'
loop_
 _atom_site_type_symbol
 _atom_site_label
 _atom_site_symmetry_multiplicity
 _atom_site_fract_x
 _atom_site_fract_y
 _atom_site_fract_z
 _atom_site_occupancy
  Pr  Pr0  1  0.511014  0.547284  0.250000  1
  Gd  Gd1  1  0.987242  0.051733  0.250000  1
  Gd  Gd2  1  0.487118  0.446515  0.750000  1
  Gd  Gd3  1  0.011969  0.949103  0.750000  1
  Np  Np4  1  0.999721  0.499977  0.997701  1
  Np  Np5  1  0.500463  0.999236  0.501550  1
  Np  Np6  1  0.999721  0.499977  0.502299  1
  Np  Np7  1  0.500463  0.999236  0.998450  1
  N  N8  1  0.388694  0.967953  0.250000  1
  N  N9  1  0.097103  0.457102  0.250000  1
  N  N10  1  0.611843  0.040722  0.750000  1
  N  N11  1  0.887183  0.544131  0.750000  1
  N  N12  1  0.791733  0.809149  0.056468  1
  N  N13  1  0.714169  0.302630  0.447613  1
  N  N14  1  0.213771  0.194514  0.560804  1
  N  N15  1  0.289060  0.692222  0.939651  1
  N  N16  1  0.213771  0.194514  0.939196  1
  N  N17  1  0.289060  0.692222  0.560349  1
  N  N18  1  0.791733  0.809149  0.443532  1
  N  N19  1  0.714169  0.302630  0.052387  1
