# generated using pymatgen
data_Nd8Zn8AgIr2Rh5
_symmetry_space_group_name_H-M   'P 1'
_cell_length_a   4.01214300
_cell_length_b   7.38994318
_cell_length_c   16.74964962
_cell_angle_alpha   90.22652635
_cell_angle_beta   90.00000000
_cell_angle_gamma   90.00000000
_symmetry_Int_Tables_number   1
_chemical_formula_structural   Nd8Zn8AgIr2Rh5
_chemical_formula_sum   'Nd8 Zn8 Ag1 Ir2 Rh5'
_cell_volume   496.61500228
_cell_formula_units_Z   1
loop_
 _symmetry_equiv_pos_site_id
 _symmetry_equiv_pos_as_xyz
  1  'x, y, z'
loop_
 _atom_site_type_symbol
 _atom_site_label
 _atom_site_symmetry_multiplicity
 _atom_site_fract_x
 _atom_site_fract_y
 _atom_site_fract_z
 _atom_site_occupancy
  Nd  Nd0  1  0.250000  0.169278  0.938864  1
  Nd  Nd1  1  0.250000  0.665253  0.571831  1
  Nd  Nd2  1  0.750000  0.324656  0.439748  1
  Nd  Nd3  1  0.750000  0.960901  0.275999  1
  Nd  Nd4  1  0.750000  0.828631  0.059510  1
  Nd  Nd5  1  0.750000  0.446745  0.212821  1
  Nd  Nd6  1  0.250000  0.053536  0.717740  1
  Nd  Nd7  1  0.250000  0.547226  0.788093  1
  Zn  Zn8  1  0.750000  0.008663  0.566913  1
  Zn  Zn9  1  0.250000  0.612463  0.339534  1
  Zn  Zn10  1  0.750000  0.377480  0.654164  1
  Zn  Zn11  1  0.250000  0.498561  0.059321  1
  Zn  Zn12  1  0.750000  0.500298  0.940645  1
  Zn  Zn13  1  0.250000  0.007404  0.439575  1
  Zn  Zn14  1  0.250000  0.123351  0.147509  1
  Zn  Zn15  1  0.750000  0.879979  0.849520  1
  Ag  Ag16  1  0.750000  0.753992  0.432723  1
  Ir  Ir17  1  0.250000  0.243618  0.314653  1
  Ir  Ir18  1  0.750000  0.252317  0.814221  1
  Rh  Rh19  1  0.750000  0.755801  0.686262  1
  Rh  Rh20  1  0.250000  0.245412  0.565400  1
  Rh  Rh21  1  0.250000  0.746098  0.186146  1
  Rh  Rh22  1  0.750000  0.254413  0.064132  1
  Rh  Rh23  1  0.250000  0.743923  0.934677  1
