# generated using pymatgen
data_SrMg2Mn(PO4)3
_symmetry_space_group_name_H-M   'P 1'
_cell_length_a   9.19392136
_cell_length_b   9.19392225
_cell_length_c   9.19392139
_cell_angle_alpha   138.20705089
_cell_angle_beta   111.35350206
_cell_angle_gamma   83.70318293
_symmetry_Int_Tables_number   1
_chemical_formula_structural   SrMg2Mn(PO4)3
_chemical_formula_sum   'Sr2 Mg4 Mn2 P6 O24'
_cell_volume   465.69084270
_cell_formula_units_Z   2
loop_
 _symmetry_equiv_pos_site_id
 _symmetry_equiv_pos_as_xyz
  1  'x, y, z'
loop_
 _atom_site_type_symbol
 _atom_site_label
 _atom_site_symmetry_multiplicity
 _atom_site_fract_x
 _atom_site_fract_y
 _atom_site_fract_z
 _atom_site_occupancy
  Sr  Sr0  1  0.250000  0.349299  0.099299  1
  Sr  Sr1  1  0.750000  0.650701  0.900701  1
  Mg  Mg2  1  0.115616  0.115616  0.500000  1
  Mg  Mg3  1  0.384384  0.884384  0.000000  1
  Mg  Mg4  1  0.615616  0.115616  0.000000  1
  Mg  Mg5  1  0.884384  0.884384  0.500000  1
  Mn  Mn6  1  0.000000  0.500000  0.500000  1
  Mn  Mn7  1  0.500000  0.000000  0.500000  1
  P  P8  1  0.250000  0.836922  0.586922  1
  P  P9  1  0.750000  0.163078  0.413078  1
  P  P10  1  0.321220  0.321220  0.500000  1
  P  P11  1  0.178780  0.678780  0.000000  1
  P  P12  1  0.821220  0.321220  0.000000  1
  P  P13  1  0.678780  0.678780  0.500000  1
  O  O14  1  0.341019  0.791331  0.450313  1
  O  O15  1  0.658981  0.208669  0.549687  1
  O  O16  1  0.841019  0.390705  0.549687  1
  O  O17  1  0.158981  0.609295  0.450313  1
  O  O18  1  0.130935  0.984080  0.615013  1
  O  O19  1  0.630935  0.015920  0.146855  1
  O  O20  1  0.869065  0.015920  0.384987  1
  O  O21  1  0.369065  0.984080  0.853145  1
  O  O22  1  0.342038  0.199176  0.275417  1
  O  O23  1  0.076242  0.800824  0.142863  1
  O  O24  1  0.842038  0.566621  0.142863  1
  O  O25  1  0.576242  0.433379  0.275417  1
  O  O26  1  0.657962  0.800824  0.724583  1
  O  O27  1  0.923758  0.199176  0.857137  1
  O  O28  1  0.157962  0.433379  0.857137  1
  O  O29  1  0.423758  0.566621  0.724583  1
  O  O30  1  0.132658  0.291261  0.434877  1
  O  O31  1  0.143617  0.708739  0.841398  1
  O  O32  1  0.632658  0.197781  0.841398  1
  O  O33  1  0.643617  0.802219  0.434877  1
  O  O34  1  0.867342  0.708739  0.565123  1
  O  O35  1  0.856383  0.291261  0.158602  1
  O  O36  1  0.367342  0.802219  0.158602  1
  O  O37  1  0.356383  0.197781  0.565123  1
