# generated using pymatgen
data_YHo15(HfIr3)4
_symmetry_space_group_name_H-M   'P 1'
_cell_length_a   10.80792029
_cell_length_b   10.80520800
_cell_length_c   6.24049917
_cell_angle_alpha   89.99997998
_cell_angle_beta   90.02637390
_cell_angle_gamma   90.00200414
_symmetry_Int_Tables_number   1
_chemical_formula_structural   YHo15(HfIr3)4
_chemical_formula_sum   'Y1 Ho15 Hf4 Ir12'
_cell_volume   728.77681486
_cell_formula_units_Z   1
loop_
 _symmetry_equiv_pos_site_id
 _symmetry_equiv_pos_as_xyz
  1  'x, y, z'
loop_
 _atom_site_type_symbol
 _atom_site_label
 _atom_site_symmetry_multiplicity
 _atom_site_fract_x
 _atom_site_fract_y
 _atom_site_fract_z
 _atom_site_occupancy
  Y  Y0  1  0.288848  0.086237  0.374062  1
  Ho  Ho1  1  0.289595  0.914065  0.874840  1
  Ho  Ho2  1  0.710554  0.085883  0.874758  1
  Ho  Ho3  1  0.710429  0.914222  0.374759  1
  Ho  Ho4  1  0.585820  0.789428  0.874749  1
  Ho  Ho5  1  0.585928  0.210461  0.374735  1
  Ho  Ho6  1  0.414315  0.789421  0.374713  1
  Ho  Ho7  1  0.414355  0.210556  0.874897  1
  Ho  Ho8  1  0.210495  0.414273  0.625246  1
  Ho  Ho9  1  0.210468  0.585780  0.125122  1
  Ho  Ho10  1  0.789531  0.414195  0.125195  1
  Ho  Ho11  1  0.789533  0.585754  0.625236  1
  Ho  Ho12  1  0.914181  0.710450  0.125149  1
  Ho  Ho13  1  0.914239  0.289528  0.625136  1
  Ho  Ho14  1  0.085794  0.710478  0.625321  1
  Ho  Ho15  1  0.085579  0.289813  0.125121  1
  Hf  Hf16  1  0.999762  0.999887  0.500159  1
  Hf  Hf17  1  0.999975  0.999893  0.000166  1
  Hf  Hf18  1  0.500086  0.500088  0.999930  1
  Hf  Hf19  1  0.499977  0.500002  0.500025  1
  Ir  Ir20  1  0.856666  0.143352  0.249981  1
  Ir  Ir21  1  0.856585  0.856665  0.749945  1
  Ir  Ir22  1  0.142857  0.143517  0.751350  1
  Ir  Ir23  1  0.142930  0.856056  0.249735  1
  Ir  Ir24  1  0.643384  0.356658  0.750012  1
  Ir  Ir25  1  0.643378  0.643323  0.250039  1
  Ir  Ir26  1  0.356721  0.357202  0.249691  1
  Ir  Ir27  1  0.356663  0.643346  0.749940  1
  Ir  Ir28  1  0.500673  0.999729  0.121163  1
  Ir  Ir29  1  0.500718  0.999705  0.622576  1
  Ir  Ir30  1  0.999976  0.499991  0.878098  1
  Ir  Ir31  1  0.999982  0.500040  0.378151  1
