# generated using pymatgen
data_Ho5Er5(CoRu)2
_symmetry_space_group_name_H-M   'P 1'
_cell_length_a   6.27256999
_cell_length_b   7.10028050
_cell_length_c   8.44567962
_cell_angle_alpha   96.56515092
_cell_angle_beta   111.74064710
_cell_angle_gamma   90.02594784
_symmetry_Int_Tables_number   1
_chemical_formula_structural   Ho5Er5(CoRu)2
_chemical_formula_sum   'Ho5 Er5 Co2 Ru2'
_cell_volume   346.72536164
_cell_formula_units_Z   1
loop_
 _symmetry_equiv_pos_site_id
 _symmetry_equiv_pos_as_xyz
  1  'x, y, z'
loop_
 _atom_site_type_symbol
 _atom_site_label
 _atom_site_symmetry_multiplicity
 _atom_site_fract_x
 _atom_site_fract_y
 _atom_site_fract_z
 _atom_site_occupancy
  Ho  Ho0  1  0.787788  0.588438  0.810615  1
  Ho  Ho1  1  0.976924  0.911643  0.189492  1
  Ho  Ho2  1  0.199573  0.417243  0.185461  1
  Ho  Ho3  1  0.013725  0.082459  0.814429  1
  Ho  Ho4  1  0.214330  0.688371  0.566758  1
  Er  Er5  1  0.647501  0.812443  0.432896  1
  Er  Er6  1  0.792457  0.318276  0.434329  1
  Er  Er7  1  0.358180  0.181325  0.565642  1
  Er  Er8  1  0.427617  0.750085  0.000145  1
  Er  Er9  1  0.578025  0.249850  0.999910  1
  Co  Co10  1  0.603166  0.923431  0.777817  1
  Co  Co11  1  0.825141  0.576498  0.222536  1
  Ru  Ru12  1  0.398302  0.072862  0.220943  1
  Ru  Ru13  1  0.177270  0.427077  0.779028  1
