# generated using pymatgen
data_Ho3In4RhAu
_symmetry_space_group_name_H-M   'P 1'
_cell_length_a   7.88121500
_cell_length_b   7.88121440
_cell_length_c   3.88650800
_cell_angle_alpha   90.00000000
_cell_angle_beta   90.00000000
_cell_angle_gamma   119.99999832
_symmetry_Int_Tables_number   1
_chemical_formula_structural   Ho3In4RhAu
_chemical_formula_sum   'Ho3 In4 Rh1 Au1'
_cell_volume   209.06268442
_cell_formula_units_Z   1
loop_
 _symmetry_equiv_pos_site_id
 _symmetry_equiv_pos_as_xyz
  1  'x, y, z'
loop_
 _atom_site_type_symbol
 _atom_site_label
 _atom_site_symmetry_multiplicity
 _atom_site_fract_x
 _atom_site_fract_y
 _atom_site_fract_z
 _atom_site_occupancy
  Ho  Ho0  1  0.383169  0.418407  0.000000  1
  Ho  Ho1  1  0.035238  0.616830  0.000000  1
  Ho  Ho2  1  0.581593  0.964763  0.000000  1
  In  In3  1  0.001634  0.265102  0.500000  1
  In  In4  1  0.666666  0.333334  0.500000  1
  In  In5  1  0.734899  0.736532  0.500000  1
  In  In6  1  0.263468  0.998367  0.500000  1
  Rh  Rh7  1  0.333333  0.666666  0.500000  1
  Au  Au8  1  0.000000  0.000000  0.000000  1
