# generated using pymatgen
data_Pr4P7Ir8
_symmetry_space_group_name_H-M   'P 1'
_cell_length_a   4.00369800
_cell_length_b   12.88368605
_cell_length_c   13.29582753
_cell_angle_alpha   80.80111823
_cell_angle_beta   90.00000000
_cell_angle_gamma   90.00000000
_symmetry_Int_Tables_number   1
_chemical_formula_structural   Pr4P7Ir8
_chemical_formula_sum   'Pr8 P14 Ir16'
_cell_volume   677.01033302
_cell_formula_units_Z   2
loop_
 _symmetry_equiv_pos_site_id
 _symmetry_equiv_pos_as_xyz
  1  'x, y, z'
loop_
 _atom_site_type_symbol
 _atom_site_label
 _atom_site_symmetry_multiplicity
 _atom_site_fract_x
 _atom_site_fract_y
 _atom_site_fract_z
 _atom_site_occupancy
  Pr  Pr0  1  0.750000  0.790192  0.561597  1
  Pr  Pr1  1  0.250000  0.209808  0.438403  1
  Pr  Pr2  1  0.750000  0.481426  0.706562  1
  Pr  Pr3  1  0.250000  0.518574  0.293438  1
  Pr  Pr4  1  0.750000  0.719382  0.896771  1
  Pr  Pr5  1  0.250000  0.103100  0.790192  1
  Pr  Pr6  1  0.750000  0.896900  0.209808  1
  Pr  Pr7  1  0.250000  0.280618  0.103229  1
  P  P8  1  0.250000  0.909211  0.409914  1
  P  P9  1  0.750000  0.473801  0.127579  1
  P  P10  1  0.250000  0.526199  0.872421  1
  P  P11  1  0.750000  0.090789  0.590086  1
  P  P12  1  0.250000  0.741593  0.081198  1
  P  P13  1  0.750000  0.258407  0.918802  1
  P  P14  1  0.750000  0.155398  0.281560  1
  P  P15  1  0.250000  0.844602  0.718440  1
  P  P16  1  0.250000  0.052590  0.098242  1
  P  P17  1  0.750000  0.947410  0.901758  1
  P  P18  1  0.250000  0.312994  0.688629  1
  P  P19  1  0.750000  0.687006  0.311371  1
  P  P20  1  0.250000  0.606992  0.562356  1
  P  P21  1  0.750000  0.393008  0.437644  1
  Ir  Ir22  1  0.250000  0.989050  0.576683  1
  Ir  Ir23  1  0.750000  0.010950  0.423317  1
  Ir  Ir24  1  0.250000  0.663133  0.731216  1
  Ir  Ir25  1  0.750000  0.336867  0.268784  1
  Ir  Ir26  1  0.250000  0.552662  0.046429  1
  Ir  Ir27  1  0.750000  0.447338  0.953571  1
  Ir  Ir28  1  0.250000  0.061402  0.271904  1
  Ir  Ir29  1  0.750000  0.938598  0.728096  1
  Ir  Ir30  1  0.250000  0.423139  0.527713  1
  Ir  Ir31  1  0.750000  0.576861  0.472287  1
  Ir  Ir32  1  0.250000  0.915189  0.998210  1
  Ir  Ir33  1  0.750000  0.084811  0.001790  1
  Ir  Ir34  1  0.250000  0.729310  0.393830  1
  Ir  Ir35  1  0.750000  0.270690  0.606170  1
  Ir  Ir36  1  0.250000  0.341546  0.859163  1
  Ir  Ir37  1  0.750000  0.658454  0.140837  1
