# generated using pymatgen
data_MgZnPtO4
_symmetry_space_group_name_H-M   'P 1'
_cell_length_a   6.10931004
_cell_length_b   6.10931079
_cell_length_c   6.10931008
_cell_angle_alpha   121.39324345
_cell_angle_beta   118.98020444
_cell_angle_gamma   89.68965665
_symmetry_Int_Tables_number   1
_chemical_formula_structural   MgZnPtO4
_chemical_formula_sum   'Mg2 Zn2 Pt2 O8'
_cell_volume   160.68849502
_cell_formula_units_Z   2
loop_
 _symmetry_equiv_pos_site_id
 _symmetry_equiv_pos_as_xyz
  1  'x, y, z'
loop_
 _atom_site_type_symbol
 _atom_site_label
 _atom_site_symmetry_multiplicity
 _atom_site_fract_x
 _atom_site_fract_y
 _atom_site_fract_z
 _atom_site_occupancy
  Mg  Mg0  1  0.000000  0.000000  0.500000  1
  Mg  Mg1  1  0.000000  0.500000  0.000000  1
  Zn  Zn2  1  0.598743  0.848743  0.750000  1
  Zn  Zn3  1  0.401257  0.151257  0.250000  1
  Pt  Pt4  1  0.000000  0.500000  0.500000  1
  Pt  Pt5  1  0.500000  0.500000  0.000000  1
  O  O6  1  0.785497  0.263321  0.522177  1
  O  O7  1  0.241144  0.263321  0.977823  1
  O  O8  1  0.246825  0.269459  0.522634  1
  O  O9  1  0.246825  0.724190  0.977366  1
  O  O10  1  0.753175  0.275810  0.022634  1
  O  O11  1  0.758856  0.736679  0.022177  1
  O  O12  1  0.753175  0.730541  0.477366  1
  O  O13  1  0.214503  0.736679  0.477823  1
