# generated using pymatgen
data_Dy4HfZr3Pt4
_symmetry_space_group_name_H-M   'P 1'
_cell_length_a   4.68305500
_cell_length_b   7.13937208
_cell_length_c   8.24229257
_cell_angle_alpha   90.25674501
_cell_angle_beta   90.00000000
_cell_angle_gamma   90.00000000
_symmetry_Int_Tables_number   1
_chemical_formula_structural   Dy4HfZr3Pt4
_chemical_formula_sum   'Dy4 Hf1 Zr3 Pt4'
_cell_volume   275.57063753
_cell_formula_units_Z   1
loop_
 _symmetry_equiv_pos_site_id
 _symmetry_equiv_pos_as_xyz
  1  'x, y, z'
loop_
 _atom_site_type_symbol
 _atom_site_label
 _atom_site_symmetry_multiplicity
 _atom_site_fract_x
 _atom_site_fract_y
 _atom_site_fract_z
 _atom_site_occupancy
  Dy  Dy0  1  0.250000  0.016642  0.321920  1
  Dy  Dy1  1  0.250000  0.514683  0.177525  1
  Dy  Dy2  1  0.750000  0.985275  0.678302  1
  Dy  Dy3  1  0.750000  0.484801  0.820639  1
  Hf  Hf4  1  0.750000  0.353118  0.420508  1
  Zr  Zr5  1  0.250000  0.148042  0.920512  1
  Zr  Zr6  1  0.250000  0.647132  0.579227  1
  Zr  Zr7  1  0.750000  0.852054  0.080988  1
  Pt  Pt8  1  0.250000  0.271265  0.589544  1
  Pt  Pt9  1  0.250000  0.771573  0.906735  1
  Pt  Pt10  1  0.750000  0.725338  0.406987  1
  Pt  Pt11  1  0.750000  0.230076  0.097113  1
