# generated using pymatgen
data_La3PrIn2Ir3
_symmetry_space_group_name_H-M   'P 1'
_cell_length_a   7.80380466
_cell_length_b   7.80380503
_cell_length_c   4.30479400
_cell_angle_alpha   90.00000000
_cell_angle_beta   90.00000000
_cell_angle_gamma   121.34386295
_symmetry_Int_Tables_number   1
_chemical_formula_structural   La3PrIn2Ir3
_chemical_formula_sum   'La3 Pr1 In2 Ir3'
_cell_volume   223.89994843
_cell_formula_units_Z   1
loop_
 _symmetry_equiv_pos_site_id
 _symmetry_equiv_pos_as_xyz
  1  'x, y, z'
loop_
 _atom_site_type_symbol
 _atom_site_label
 _atom_site_symmetry_multiplicity
 _atom_site_fract_x
 _atom_site_fract_y
 _atom_site_fract_z
 _atom_site_occupancy
  La  La0  1  0.583631  0.025067  0.000000  1
  La  La1  1  0.025067  0.583631  0.000000  1
  La  La2  1  0.385819  0.385819  0.000000  1
  Pr  Pr3  1  0.754694  0.754694  0.500000  1
  In  In4  1  0.247837  0.996163  0.500000  1
  In  In5  1  0.996163  0.247837  0.500000  1
  Ir  Ir6  1  0.325264  0.665790  0.500000  1
  Ir  Ir7  1  0.665790  0.325264  0.500000  1
  Ir  Ir8  1  0.015735  0.015735  0.000000  1
