# generated using pymatgen
data_TaNbSi2RuPt
_symmetry_space_group_name_H-M   'P 1'
_cell_length_a   3.80552800
_cell_length_b   6.47003500
_cell_length_c   7.37778500
_cell_angle_alpha   90.00000000
_cell_angle_beta   90.00000000
_cell_angle_gamma   90.00000000
_symmetry_Int_Tables_number   1
_chemical_formula_structural   TaNbSi2RuPt
_chemical_formula_sum   'Ta2 Nb2 Si4 Ru2 Pt2'
_cell_volume   181.65507972
_cell_formula_units_Z   2
loop_
 _symmetry_equiv_pos_site_id
 _symmetry_equiv_pos_as_xyz
  1  'x, y, z'
loop_
 _atom_site_type_symbol
 _atom_site_label
 _atom_site_symmetry_multiplicity
 _atom_site_fract_x
 _atom_site_fract_y
 _atom_site_fract_z
 _atom_site_occupancy
  Ta  Ta0  1  0.750000  0.477009  0.327841  1
  Ta  Ta1  1  0.750000  0.977009  0.172159  1
  Nb  Nb2  1  0.250000  0.026806  0.828523  1
  Nb  Nb3  1  0.250000  0.526806  0.671477  1
  Si  Si4  1  0.250000  0.269846  0.132866  1
  Si  Si5  1  0.250000  0.769846  0.367134  1
  Si  Si6  1  0.750000  0.734471  0.881037  1
  Si  Si7  1  0.750000  0.234471  0.618963  1
  Ru  Ru8  1  0.250000  0.641316  0.061778  1
  Ru  Ru9  1  0.250000  0.141316  0.438222  1
  Pt  Pt10  1  0.750000  0.850551  0.564549  1
  Pt  Pt11  1  0.750000  0.350551  0.935451  1
