# generated using pymatgen
data_Lu2Ti(Ge2Mo)2
_symmetry_space_group_name_H-M   'P 1'
_cell_length_a   6.82950300
_cell_length_b   7.02197200
_cell_length_c   13.21764400
_cell_angle_alpha   90.00000000
_cell_angle_beta   90.00000000
_cell_angle_gamma   90.00000000
_symmetry_Int_Tables_number   1
_chemical_formula_structural   Lu2Ti(Ge2Mo)2
_chemical_formula_sum   'Lu8 Ti4 Ge16 Mo8'
_cell_volume   633.87298656
_cell_formula_units_Z   4
loop_
 _symmetry_equiv_pos_site_id
 _symmetry_equiv_pos_as_xyz
  1  'x, y, z'
loop_
 _atom_site_type_symbol
 _atom_site_label
 _atom_site_symmetry_multiplicity
 _atom_site_fract_x
 _atom_site_fract_y
 _atom_site_fract_z
 _atom_site_occupancy
  Lu  Lu0  1  0.004821  0.175272  0.405898  1
  Lu  Lu1  1  0.504821  0.324728  0.094102  1
  Lu  Lu2  1  0.495179  0.675272  0.594102  1
  Lu  Lu3  1  0.995179  0.824728  0.905898  1
  Lu  Lu4  1  0.992957  0.829560  0.593621  1
  Lu  Lu5  1  0.492957  0.670440  0.906379  1
  Lu  Lu6  1  0.507043  0.329560  0.406379  1
  Lu  Lu7  1  0.007043  0.170440  0.093621  1
  Ti  Ti8  1  0.160003  0.334323  0.627097  1
  Ti  Ti9  1  0.660003  0.165677  0.872903  1
  Ti  Ti10  1  0.839997  0.665677  0.127097  1
  Ti  Ti11  1  0.339997  0.834323  0.372903  1
  Ge  Ge12  1  0.326492  0.042589  0.544136  1
  Ge  Ge13  1  0.826492  0.457411  0.955864  1
  Ge  Ge14  1  0.673508  0.957411  0.044136  1
  Ge  Ge15  1  0.173508  0.542589  0.455864  1
  Ge  Ge16  1  0.174727  0.542456  0.043413  1
  Ge  Ge17  1  0.674727  0.957544  0.456587  1
  Ge  Ge18  1  0.825273  0.457544  0.543413  1
  Ge  Ge19  1  0.325273  0.042456  0.956587  1
  Ge  Ge20  1  0.808140  0.360199  0.248640  1
  Ge  Ge21  1  0.308140  0.139801  0.251360  1
  Ge  Ge22  1  0.691860  0.860199  0.751360  1
  Ge  Ge23  1  0.191860  0.639801  0.748640  1
  Ge  Ge24  1  0.035793  0.873451  0.251588  1
  Ge  Ge25  1  0.535793  0.626549  0.248412  1
  Ge  Ge26  1  0.464207  0.373451  0.748412  1
  Ge  Ge27  1  0.964207  0.126549  0.751588  1
  Mo  Mo28  1  0.333411  0.836426  0.124248  1
  Mo  Mo29  1  0.833411  0.663574  0.375752  1
  Mo  Mo30  1  0.666589  0.163574  0.624248  1
  Mo  Mo31  1  0.166589  0.336426  0.875752  1
  Mo  Mo32  1  0.333108  0.009057  0.750230  1
  Mo  Mo33  1  0.666892  0.990943  0.250230  1
  Mo  Mo34  1  0.166892  0.509057  0.249770  1
  Mo  Mo35  1  0.833108  0.490943  0.749770  1
