# generated using pymatgen
data_HoEr3(B4Ir)4
_symmetry_space_group_name_H-M   'P 1'
_cell_length_a   3.56185800
_cell_length_b   5.95101626
_cell_length_c   11.54748100
_cell_angle_alpha   89.98354966
_cell_angle_beta   90.00000000
_cell_angle_gamma   90.00000000
_symmetry_Int_Tables_number   1
_chemical_formula_structural   HoEr3(B4Ir)4
_chemical_formula_sum   'Ho1 Er3 B16 Ir4'
_cell_volume   244.76819045
_cell_formula_units_Z   1
loop_
 _symmetry_equiv_pos_site_id
 _symmetry_equiv_pos_as_xyz
  1  'x, y, z'
loop_
 _atom_site_type_symbol
 _atom_site_label
 _atom_site_symmetry_multiplicity
 _atom_site_fract_x
 _atom_site_fract_y
 _atom_site_fract_z
 _atom_site_occupancy
  Ho  Ho0  1  0.000000  0.868549  0.148679  1
  Er  Er1  1  0.000000  0.631279  0.648563  1
  Er  Er2  1  0.000000  0.368957  0.351531  1
  Er  Er3  1  0.000000  0.131253  0.851185  1
  B  B4  1  0.500000  0.974945  0.692637  1
  B  B5  1  0.500000  0.025195  0.307571  1
  B  B6  1  0.500000  0.475093  0.807086  1
  B  B7  1  0.500000  0.524545  0.192884  1
  B  B8  1  0.500000  0.791678  0.811856  1
  B  B9  1  0.500000  0.208744  0.188162  1
  B  B10  1  0.500000  0.291820  0.687932  1
  B  B11  1  0.500000  0.708072  0.312342  1
  B  B12  1  0.500000  0.863969  0.969741  1
  B  B13  1  0.500000  0.136037  0.029834  1
  B  B14  1  0.500000  0.364281  0.530162  1
  B  B15  1  0.500000  0.635734  0.469971  1
  B  B16  1  0.500000  0.887137  0.546700  1
  B  B17  1  0.500000  0.113077  0.453383  1
  B  B18  1  0.500000  0.387088  0.953137  1
  B  B19  1  0.500000  0.612453  0.046557  1
  Ir  Ir20  1  0.000000  0.643848  0.902625  1
  Ir  Ir21  1  0.000000  0.355978  0.097089  1
  Ir  Ir22  1  0.000000  0.144365  0.597189  1
  Ir  Ir23  1  0.000000  0.855904  0.403185  1
