# generated using pymatgen
data_TbYb3(OsC2)2
_symmetry_space_group_name_H-M   'P 1'
_cell_length_a   5.14071600
_cell_length_b   6.44212311
_cell_length_c   10.17953990
_cell_angle_alpha   90.45014292
_cell_angle_beta   90.00000000
_cell_angle_gamma   90.00000000
_symmetry_Int_Tables_number   1
_chemical_formula_structural   TbYb3(OsC2)2
_chemical_formula_sum   'Tb2 Yb6 Os4 C8'
_cell_volume   337.10669480
_cell_formula_units_Z   2
loop_
 _symmetry_equiv_pos_site_id
 _symmetry_equiv_pos_as_xyz
  1  'x, y, z'
loop_
 _atom_site_type_symbol
 _atom_site_label
 _atom_site_symmetry_multiplicity
 _atom_site_fract_x
 _atom_site_fract_y
 _atom_site_fract_z
 _atom_site_occupancy
  Tb  Tb0  1  0.250000  0.688509  0.552759  1
  Tb  Tb1  1  0.750000  0.311491  0.447241  1
  Yb  Yb2  1  0.750000  0.805289  0.051283  1
  Yb  Yb3  1  0.250000  0.194711  0.948717  1
  Yb  Yb4  1  0.250000  0.533454  0.220709  1
  Yb  Yb5  1  0.750000  0.466546  0.779291  1
  Yb  Yb6  1  0.750000  0.969165  0.729490  1
  Yb  Yb7  1  0.250000  0.030835  0.270510  1
  Os  Os8  1  0.250000  0.729848  0.855124  1
  Os  Os9  1  0.750000  0.270152  0.144876  1
  Os  Os10  1  0.750000  0.772465  0.354457  1
  Os  Os11  1  0.250000  0.227535  0.645543  1
  C  C12  1  0.250000  0.467432  0.756645  1
  C  C13  1  0.750000  0.532568  0.243355  1
  C  C14  1  0.750000  0.035363  0.261252  1
  C  C15  1  0.250000  0.964637  0.738748  1
  C  C16  1  0.250000  0.798228  0.031921  1
  C  C17  1  0.750000  0.201772  0.968079  1
  C  C18  1  0.750000  0.689037  0.533529  1
  C  C19  1  0.250000  0.310963  0.466471  1
