# generated using pymatgen
data_CaDyTm(GaNi2)3
_symmetry_space_group_name_H-M   'P 1'
_cell_length_a   5.19641700
_cell_length_b   5.19641664
_cell_length_c   15.83562900
_cell_angle_alpha   90.00000000
_cell_angle_beta   90.00000000
_cell_angle_gamma   119.99999595
_symmetry_Int_Tables_number   1
_chemical_formula_structural   CaDyTm(GaNi2)3
_chemical_formula_sum   'Ca2 Dy2 Tm2 Ga6 Ni12'
_cell_volume   370.31723691
_cell_formula_units_Z   2
loop_
 _symmetry_equiv_pos_site_id
 _symmetry_equiv_pos_as_xyz
  1  'x, y, z'
loop_
 _atom_site_type_symbol
 _atom_site_label
 _atom_site_symmetry_multiplicity
 _atom_site_fract_x
 _atom_site_fract_y
 _atom_site_fract_z
 _atom_site_occupancy
  Ca  Ca0  1  0.333333  0.666667  0.753045  1
  Ca  Ca1  1  0.666667  0.333333  0.246955  1
  Dy  Dy2  1  0.333333  0.666667  0.545865  1
  Dy  Dy3  1  0.666667  0.333333  0.454135  1
  Tm  Tm4  1  0.666667  0.333333  0.042402  1
  Tm  Tm5  1  0.333333  0.666667  0.957598  1
  Ga  Ga6  1  0.000000  0.000000  0.248559  1
  Ga  Ga7  1  0.000000  0.000000  0.751441  1
  Ga  Ga8  1  0.333333  0.666667  0.248693  1
  Ga  Ga9  1  0.666667  0.333333  0.751307  1
  Ga  Ga10  1  0.000000  0.000000  0.000000  1
  Ga  Ga11  1  0.000000  0.000000  0.500000  1
  Ni  Ni12  1  0.169015  0.338027  0.123271  1
  Ni  Ni13  1  0.830985  0.661973  0.876729  1
  Ni  Ni14  1  0.661973  0.830985  0.123271  1
  Ni  Ni15  1  0.831376  0.662756  0.625853  1
  Ni  Ni16  1  0.338027  0.169015  0.876729  1
  Ni  Ni17  1  0.168624  0.337244  0.374147  1
  Ni  Ni18  1  0.169015  0.830985  0.123271  1
  Ni  Ni19  1  0.337244  0.168624  0.625853  1
  Ni  Ni20  1  0.830985  0.169015  0.876729  1
  Ni  Ni21  1  0.662756  0.831376  0.374147  1
  Ni  Ni22  1  0.831376  0.168624  0.625853  1
  Ni  Ni23  1  0.168624  0.831376  0.374147  1
