# generated using pymatgen
data_Tm3Sc7Cd3Ru
_symmetry_space_group_name_H-M   'P 1'
_cell_length_a   9.13394700
_cell_length_b   9.13394663
_cell_length_c   9.27699500
_cell_angle_alpha   90.00000000
_cell_angle_beta   90.00000000
_cell_angle_gamma   119.99999772
_symmetry_Int_Tables_number   1
_chemical_formula_structural   Tm3Sc7Cd3Ru
_chemical_formula_sum   'Tm6 Sc14 Cd6 Ru2'
_cell_volume   670.27793212
_cell_formula_units_Z   2
loop_
 _symmetry_equiv_pos_site_id
 _symmetry_equiv_pos_as_xyz
  1  'x, y, z'
loop_
 _atom_site_type_symbol
 _atom_site_label
 _atom_site_symmetry_multiplicity
 _atom_site_fract_x
 _atom_site_fract_y
 _atom_site_fract_z
 _atom_site_occupancy
  Tm  Tm0  1  0.538918  0.461082  0.250000  1
  Tm  Tm1  1  0.538918  0.077836  0.250000  1
  Tm  Tm2  1  0.922164  0.461082  0.250000  1
  Tm  Tm3  1  0.461082  0.538918  0.750000  1
  Tm  Tm4  1  0.461082  0.922164  0.750000  1
  Tm  Tm5  1  0.077836  0.538918  0.750000  1
  Sc  Sc6  1  0.000000  0.000000  0.500000  1
  Sc  Sc7  1  0.000000  0.000000  0.000000  1
  Sc  Sc8  1  0.210416  0.789584  0.441294  1
  Sc  Sc9  1  0.210416  0.420834  0.441294  1
  Sc  Sc10  1  0.579166  0.789584  0.441294  1
  Sc  Sc11  1  0.789584  0.210416  0.558706  1
  Sc  Sc12  1  0.789584  0.579166  0.558706  1
  Sc  Sc13  1  0.420834  0.210416  0.558706  1
  Sc  Sc14  1  0.789584  0.210416  0.941294  1
  Sc  Sc15  1  0.789584  0.579166  0.941294  1
  Sc  Sc16  1  0.420834  0.210416  0.941294  1
  Sc  Sc17  1  0.210416  0.789584  0.058706  1
  Sc  Sc18  1  0.210416  0.420834  0.058706  1
  Sc  Sc19  1  0.579166  0.789584  0.058706  1
  Cd  Cd20  1  0.887025  0.112975  0.250000  1
  Cd  Cd21  1  0.887025  0.774050  0.250000  1
  Cd  Cd22  1  0.225950  0.112975  0.250000  1
  Cd  Cd23  1  0.112975  0.887025  0.750000  1
  Cd  Cd24  1  0.112975  0.225950  0.750000  1
  Cd  Cd25  1  0.774050  0.887025  0.750000  1
  Ru  Ru26  1  0.333333  0.666667  0.250000  1
  Ru  Ru27  1  0.666667  0.333333  0.750000  1
