# generated using pymatgen
data_Pa4Ni4SnOs
_symmetry_space_group_name_H-M   'P 1'
_cell_length_a   7.33896400
_cell_length_b   7.33896400
_cell_length_c   3.50797800
_cell_angle_alpha   90.00000000
_cell_angle_beta   90.00000000
_cell_angle_gamma   90.00000000
_symmetry_Int_Tables_number   1
_chemical_formula_structural   Pa4Ni4SnOs
_chemical_formula_sum   'Pa4 Ni4 Sn1 Os1'
_cell_volume   188.94107229
_cell_formula_units_Z   1
loop_
 _symmetry_equiv_pos_site_id
 _symmetry_equiv_pos_as_xyz
  1  'x, y, z'
loop_
 _atom_site_type_symbol
 _atom_site_label
 _atom_site_symmetry_multiplicity
 _atom_site_fract_x
 _atom_site_fract_y
 _atom_site_fract_z
 _atom_site_occupancy
  Pa  Pa0  1  0.663551  0.192899  0.500000  1
  Pa  Pa1  1  0.336449  0.807101  0.500000  1
  Pa  Pa2  1  0.807101  0.663551  0.500000  1
  Pa  Pa3  1  0.192899  0.336449  0.500000  1
  Ni  Ni4  1  0.624267  0.877354  0.000000  1
  Ni  Ni5  1  0.122646  0.624267  0.000000  1
  Ni  Ni6  1  0.877354  0.375733  0.000000  1
  Ni  Ni7  1  0.375733  0.122646  0.000000  1
  Sn  Sn8  1  0.000000  0.000000  0.000000  1
  Os  Os9  1  0.500000  0.500000  0.000000  1
