# generated using pymatgen
data_K2NpF6
_symmetry_space_group_name_H-M   'P 1'
_cell_length_a   7.26459472
_cell_length_b   7.26459500
_cell_length_c   7.26459417
_cell_angle_alpha   146.98380827
_cell_angle_beta   129.72957411
_cell_angle_gamma   61.46591233
_symmetry_Int_Tables_number   1
_chemical_formula_structural   K2NpF6
_chemical_formula_sum   'K2 Np1 F6'
_cell_volume   159.09550054
_cell_formula_units_Z   1
loop_
 _symmetry_equiv_pos_site_id
 _symmetry_equiv_pos_as_xyz
  1  'x, y, z'
loop_
 _atom_site_type_symbol
 _atom_site_label
 _atom_site_symmetry_multiplicity
 _atom_site_fract_x
 _atom_site_fract_y
 _atom_site_fract_z
 _atom_site_occupancy
  K  K0  1  0.667414  0.667414  0.000000  1
  K  K1  1  0.332586  0.332586  0.000000  1
  Np  Np2  1  0.000000  0.000000  0.000000  1
  F  F3  1  0.639224  0.860954  0.778271  1
  F  F4  1  0.199086  0.500000  0.699086  1
  F  F5  1  0.917317  0.139046  0.778271  1
  F  F6  1  0.082683  0.860954  0.221729  1
  F  F7  1  0.800914  0.500000  0.300914  1
  F  F8  1  0.360776  0.139046  0.221729  1
