# generated using pymatgen
data_Tb4Fe12P12Ir5Ru3
_symmetry_space_group_name_H-M   'P 1'
_cell_length_a   3.79852600
_cell_length_b   10.30254326
_cell_length_c   12.16085831
_cell_angle_alpha   90.11627179
_cell_angle_beta   90.00000000
_cell_angle_gamma   90.00000000
_symmetry_Int_Tables_number   1
_chemical_formula_structural   Tb4Fe12P12Ir5Ru3
_chemical_formula_sum   'Tb4 Fe12 P12 Ir5 Ru3'
_cell_volume   475.90786746
_cell_formula_units_Z   1
loop_
 _symmetry_equiv_pos_site_id
 _symmetry_equiv_pos_as_xyz
  1  'x, y, z'
loop_
 _atom_site_type_symbol
 _atom_site_label
 _atom_site_symmetry_multiplicity
 _atom_site_fract_x
 _atom_site_fract_y
 _atom_site_fract_z
 _atom_site_occupancy
  Tb  Tb0  1  0.250000  0.582077  0.712908  1
  Tb  Tb1  1  0.250000  0.918555  0.212452  1
  Tb  Tb2  1  0.750000  0.419338  0.286897  1
  Tb  Tb3  1  0.750000  0.081433  0.788544  1
  Fe  Fe4  1  0.250000  0.222631  0.170988  1
  Fe  Fe5  1  0.250000  0.276109  0.671324  1
  Fe  Fe6  1  0.750000  0.777210  0.828104  1
  Fe  Fe7  1  0.750000  0.722790  0.327910  1
  Fe  Fe8  1  0.250000  0.878011  0.696205  1
  Fe  Fe9  1  0.250000  0.621113  0.195896  1
  Fe  Fe10  1  0.750000  0.120886  0.304515  1
  Fe  Fe11  1  0.750000  0.378604  0.804067  1
  Fe  Fe12  1  0.250000  0.460651  0.935980  1
  Fe  Fe13  1  0.250000  0.041918  0.437023  1
  Fe  Fe14  1  0.750000  0.539120  0.063798  1
  Fe  Fe15  1  0.750000  0.961002  0.563867  1
  P  P16  1  0.250000  0.426247  0.111358  1
  P  P17  1  0.250000  0.070886  0.613610  1
  P  P18  1  0.750000  0.574005  0.888522  1
  P  P19  1  0.750000  0.925212  0.388468  1
  P  P20  1  0.250000  0.274091  0.855287  1
  P  P21  1  0.250000  0.226003  0.352132  1
  P  P22  1  0.750000  0.725693  0.144589  1
  P  P23  1  0.750000  0.774201  0.644530  1
  P  P24  1  0.250000  0.607137  0.377541  1
  P  P25  1  0.250000  0.892335  0.878021  1
  P  P26  1  0.750000  0.395379  0.623893  1
  P  P27  1  0.750000  0.107430  0.122017  1
  Ir  Ir28  1  0.750000  0.207644  0.516263  1
  Ir  Ir29  1  0.250000  0.404446  0.477052  1
  Ir  Ir30  1  0.250000  0.095054  0.977952  1
  Ir  Ir31  1  0.750000  0.594216  0.521767  1
  Ir  Ir32  1  0.750000  0.904955  0.022187  1
  Ru  Ru33  1  0.250000  0.706222  0.984719  1
  Ru  Ru34  1  0.250000  0.793690  0.484251  1
  Ru  Ru35  1  0.750000  0.293707  0.015362  1
