# generated using pymatgen
data_Cs2OsO4
_symmetry_space_group_name_H-M   'P 1'
_cell_length_a   6.70761600
_cell_length_b   8.66465800
_cell_length_c   11.72321200
_cell_angle_alpha   90.00000000
_cell_angle_beta   90.00000000
_cell_angle_gamma   90.00000000
_symmetry_Int_Tables_number   1
_chemical_formula_structural   Cs2OsO4
_chemical_formula_sum   'Cs8 Os4 O16'
_cell_volume   681.34368687
_cell_formula_units_Z   4
loop_
 _symmetry_equiv_pos_site_id
 _symmetry_equiv_pos_as_xyz
  1  'x, y, z'
loop_
 _atom_site_type_symbol
 _atom_site_label
 _atom_site_symmetry_multiplicity
 _atom_site_fract_x
 _atom_site_fract_y
 _atom_site_fract_z
 _atom_site_occupancy
  Cs  Cs0  1  0.250000  0.999838  0.293563  1
  Cs  Cs1  1  0.750000  0.000162  0.706437  1
  Cs  Cs2  1  0.250000  0.499838  0.206437  1
  Cs  Cs3  1  0.750000  0.500162  0.793563  1
  Cs  Cs4  1  0.250000  0.167937  0.924321  1
  Cs  Cs5  1  0.750000  0.832063  0.075679  1
  Cs  Cs6  1  0.250000  0.667937  0.575679  1
  Cs  Cs7  1  0.750000  0.332063  0.424321  1
  Os  Os8  1  0.250000  0.219381  0.582114  1
  Os  Os9  1  0.750000  0.780619  0.417886  1
  Os  Os10  1  0.250000  0.719381  0.917886  1
  Os  Os11  1  0.750000  0.280619  0.082114  1
  O  O12  1  0.750000  0.690260  0.558900  1
  O  O13  1  0.250000  0.309740  0.441100  1
  O  O14  1  0.250000  0.809740  0.058900  1
  O  O15  1  0.750000  0.190260  0.941100  1
  O  O16  1  0.527007  0.711289  0.346142  1
  O  O17  1  0.027007  0.288711  0.653858  1
  O  O18  1  0.972993  0.211289  0.153858  1
  O  O19  1  0.472993  0.788711  0.846142  1
  O  O20  1  0.472993  0.288711  0.653858  1
  O  O21  1  0.972993  0.711289  0.346142  1
  O  O22  1  0.027007  0.788711  0.846142  1
  O  O23  1  0.527007  0.211289  0.153858  1
  O  O24  1  0.750000  0.488394  0.071661  1
  O  O25  1  0.250000  0.511606  0.928339  1
  O  O26  1  0.250000  0.011606  0.571661  1
  O  O27  1  0.750000  0.988394  0.428339  1
