# generated using pymatgen
data_Tb3Tm(CoOs)4
_symmetry_space_group_name_H-M   'P 1'
_cell_length_a   5.23908400
_cell_length_b   5.22715643
_cell_length_c   9.02867880
_cell_angle_alpha   71.83339886
_cell_angle_beta   90.00000000
_cell_angle_gamma   120.07551166
_symmetry_Int_Tables_number   1
_chemical_formula_structural   Tb3Tm(CoOs)4
_chemical_formula_sum   'Tb3 Tm1 Co4 Os4'
_cell_volume   199.59624496
_cell_formula_units_Z   1
loop_
 _symmetry_equiv_pos_site_id
 _symmetry_equiv_pos_as_xyz
  1  'x, y, z'
loop_
 _atom_site_type_symbol
 _atom_site_label
 _atom_site_symmetry_multiplicity
 _atom_site_fract_x
 _atom_site_fract_y
 _atom_site_fract_z
 _atom_site_occupancy
  Tb  Tb0  1  0.811475  0.122949  0.561134  1
  Tb  Tb1  1  0.189000  0.877999  0.438018  1
  Tb  Tb2  1  0.688321  0.876643  0.938871  1
  Tm  Tm3  1  0.310837  0.121675  0.061413  1
  Co  Co4  1  0.750419  0.501373  0.248145  1
  Co  Co5  1  0.250472  0.498840  0.752003  1
  Co  Co6  1  0.250953  0.501373  0.248145  1
  Co  Co7  1  0.748367  0.498840  0.752003  1
  Os  Os8  1  0.999970  0.499939  0.000356  1
  Os  Os9  1  0.500171  0.500342  0.499801  1
  Os  Os10  1  0.749209  0.998420  0.248697  1
  Os  Os11  1  0.250804  0.001609  0.751417  1
