# generated using pymatgen
data_Ho3Er5In3Au
_symmetry_space_group_name_H-M   'P 1'
_cell_length_a   10.55458000
_cell_length_b   10.55457915
_cell_length_c   6.83813100
_cell_angle_alpha   90.00000000
_cell_angle_beta   90.00000000
_cell_angle_gamma   119.99999640
_symmetry_Int_Tables_number   1
_chemical_formula_structural   Ho3Er5In3Au
_chemical_formula_sum   'Ho6 Er10 In6 Au2'
_cell_volume   659.70525101
_cell_formula_units_Z   2
loop_
 _symmetry_equiv_pos_site_id
 _symmetry_equiv_pos_as_xyz
  1  'x, y, z'
loop_
 _atom_site_type_symbol
 _atom_site_label
 _atom_site_symmetry_multiplicity
 _atom_site_fract_x
 _atom_site_fract_y
 _atom_site_fract_z
 _atom_site_occupancy
  Ho  Ho0  1  0.523564  0.047129  0.796343  1
  Ho  Ho1  1  0.952871  0.476436  0.796343  1
  Ho  Ho2  1  0.523564  0.476436  0.796343  1
  Ho  Ho3  1  0.476436  0.952871  0.296343  1
  Ho  Ho4  1  0.047129  0.523564  0.296343  1
  Ho  Ho5  1  0.476436  0.523564  0.296343  1
  Er  Er6  1  0.827282  0.654565  0.511975  1
  Er  Er7  1  0.345435  0.172718  0.511975  1
  Er  Er8  1  0.827282  0.172718  0.511975  1
  Er  Er9  1  0.172718  0.345435  0.011975  1
  Er  Er10  1  0.654565  0.827282  0.011975  1
  Er  Er11  1  0.172718  0.827282  0.011975  1
  Er  Er12  1  0.666667  0.333333  0.153278  1
  Er  Er13  1  0.333333  0.666667  0.653278  1
  Er  Er14  1  0.000000  0.000000  0.777156  1
  Er  Er15  1  0.000000  0.000000  0.277156  1
  In  In16  1  0.836106  0.672215  0.032169  1
  In  In17  1  0.327785  0.163894  0.032169  1
  In  In18  1  0.836106  0.163894  0.032169  1
  In  In19  1  0.163894  0.327785  0.532169  1
  In  In20  1  0.672215  0.836106  0.532169  1
  In  In21  1  0.163894  0.836106  0.532169  1
  Au  Au22  1  0.666667  0.333333  0.566059  1
  Au  Au23  1  0.333333  0.666667  0.066059  1
