# generated using pymatgen
data_Na2Li2Ni9As7Rh
_symmetry_space_group_name_H-M   'P 1'
_cell_length_a   9.49219855
_cell_length_b   9.47518148
_cell_length_c   3.83730500
_cell_angle_alpha   90.00000000
_cell_angle_beta   90.00000000
_cell_angle_gamma   119.91476715
_symmetry_Int_Tables_number   1
_chemical_formula_structural   Na2Li2Ni9As7Rh
_chemical_formula_sum   'Na2 Li2 Ni9 As7 Rh1'
_cell_volume   299.14631751
_cell_formula_units_Z   1
loop_
 _symmetry_equiv_pos_site_id
 _symmetry_equiv_pos_as_xyz
  1  'x, y, z'
loop_
 _atom_site_type_symbol
 _atom_site_label
 _atom_site_symmetry_multiplicity
 _atom_site_fract_x
 _atom_site_fract_y
 _atom_site_fract_z
 _atom_site_occupancy
  Na  Na0  1  0.330770  0.664113  0.000000  1
  Na  Na1  1  0.667553  0.334018  0.500000  1
  Li  Li2  1  0.219728  0.111093  0.500000  1
  Li  Li3  1  0.884185  0.102513  0.500000  1
  Ni  Ni4  1  0.119768  0.279178  0.000000  1
  Ni  Ni5  1  0.713120  0.837736  0.000000  1
  Ni  Ni6  1  0.165466  0.879859  0.000000  1
  Ni  Ni7  1  0.428121  0.378826  0.000000  1
  Ni  Ni8  1  0.624419  0.050526  0.000000  1
  Ni  Ni9  1  0.946175  0.573196  0.000000  1
  Ni  Ni10  1  0.044467  0.429291  0.500000  1
  Ni  Ni11  1  0.564681  0.613592  0.500000  1
  Ni  Ni12  1  0.386088  0.956739  0.500000  1
  As  As13  1  0.289892  0.409445  0.500000  1
  As  As14  1  0.585913  0.878081  0.500000  1
  As  As15  1  0.119724  0.709461  0.500000  1
  As  As16  1  0.419941  0.121292  0.000000  1
  As  As17  1  0.881562  0.299000  0.000000  1
  As  As18  1  0.703920  0.585218  0.000000  1
  As  As19  1  0.997574  0.993351  0.000000  1
  Rh  Rh20  1  0.906932  0.793474  0.500000  1
