# generated using pymatgen
data_K13RbTa2(In3As5)2
_symmetry_space_group_name_H-M   'P 1'
_cell_length_a   8.45815475
_cell_length_b   9.38876772
_cell_length_c   14.10135161
_cell_angle_alpha   85.83830335
_cell_angle_beta   83.40760235
_cell_angle_gamma   87.78618658
_symmetry_Int_Tables_number   1
_chemical_formula_structural   K13RbTa2(In3As5)2
_chemical_formula_sum   'K13 Rb1 Ta2 In6 As10'
_cell_volume   1108.95538211
_cell_formula_units_Z   1
loop_
 _symmetry_equiv_pos_site_id
 _symmetry_equiv_pos_as_xyz
  1  'x, y, z'
loop_
 _atom_site_type_symbol
 _atom_site_label
 _atom_site_symmetry_multiplicity
 _atom_site_fract_x
 _atom_site_fract_y
 _atom_site_fract_z
 _atom_site_occupancy
  K  K0  1  0.839759  0.357624  0.650406  1
  K  K1  1  0.817002  0.808217  0.131025  1
  K  K2  1  0.243231  0.008733  0.467406  1
  K  K3  1  0.272098  0.259066  0.250232  1
  K  K4  1  0.737900  0.498879  0.973071  1
  K  K5  1  0.259165  0.500042  0.026389  1
  K  K6  1  0.681543  0.082354  0.882587  1
  K  K7  1  0.755077  0.995812  0.533519  1
  K  K8  1  0.725000  0.740950  0.749160  1
  K  K9  1  0.335323  0.338013  0.605835  1
  K  K10  1  0.169037  0.640205  0.350225  1
  K  K11  1  0.180866  0.191941  0.868408  1
  K  K12  1  0.318000  0.917621  0.117014  1
  Rb  Rb13  1  0.688677  0.662930  0.399156  1
  Ta  Ta14  1  0.350017  0.604227  0.775536  1
  Ta  Ta15  1  0.647205  0.395190  0.223900  1
  In  In16  1  0.043048  0.820083  0.876388  1
  In  In17  1  0.955187  0.179670  0.123582  1
  In  In18  1  0.365200  0.961109  0.700070  1
  In  In19  1  0.083785  0.718762  0.618021  1
  In  In20  1  0.913395  0.280701  0.381769  1
  In  In21  1  0.632424  0.039023  0.299413  1
  As  As22  1  0.934894  0.458320  0.205244  1
  As  As23  1  0.619113  0.191864  0.117904  1
  As  As24  1  0.062693  0.541076  0.794588  1
  As  As25  1  0.574544  0.297608  0.394839  1
  As  As26  1  0.420037  0.702205  0.604694  1
  As  As27  1  0.015846  0.004556  0.700527  1
  As  As28  1  0.516675  0.396224  0.812051  1
  As  As29  1  0.482476  0.603234  0.185697  1
  As  As30  1  0.378960  0.807815  0.881402  1
  As  As31  1  0.981824  0.995947  0.299943  1
