# generated using pymatgen
data_Pr4GdYNb2O14
_symmetry_space_group_name_H-M   'P 1'
_cell_length_a   6.65949432
_cell_length_b   6.66830109
_cell_length_c   7.73435600
_cell_angle_alpha   90.00000000
_cell_angle_beta   90.00000000
_cell_angle_gamma   108.81466991
_symmetry_Int_Tables_number   1
_chemical_formula_structural   Pr4GdYNb2O14
_chemical_formula_sum   'Pr4 Gd1 Y1 Nb2 O14'
_cell_volume   325.11113291
_cell_formula_units_Z   1
loop_
 _symmetry_equiv_pos_site_id
 _symmetry_equiv_pos_as_xyz
  1  'x, y, z'
loop_
 _atom_site_type_symbol
 _atom_site_label
 _atom_site_symmetry_multiplicity
 _atom_site_fract_x
 _atom_site_fract_y
 _atom_site_fract_z
 _atom_site_occupancy
  Pr  Pr0  1  0.470738  0.469854  0.499321  1
  Pr  Pr1  1  0.470738  0.469854  0.000679  1
  Pr  Pr2  1  0.535545  0.995297  0.750000  1
  Pr  Pr3  1  0.995451  0.537020  0.250000  1
  Gd  Gd4  1  0.997355  0.465611  0.750000  1
  Y  Y5  1  0.465196  0.997467  0.250000  1
  Nb  Nb6  1  0.996395  0.997046  0.499373  1
  Nb  Nb7  1  0.996395  0.997046  0.000627  1
  O  O8  1  0.695803  0.948705  0.457333  1
  O  O9  1  0.943990  0.694235  0.539415  1
  O  O10  1  0.695803  0.948705  0.042667  1
  O  O11  1  0.943990  0.694235  0.960585  1
  O  O12  1  0.324449  0.075811  0.520661  1
  O  O13  1  0.077601  0.323353  0.476783  1
  O  O14  1  0.324449  0.075811  0.979339  1
  O  O15  1  0.077601  0.323353  0.023217  1
  O  O16  1  0.359317  0.624335  0.750000  1
  O  O17  1  0.622770  0.355797  0.250000  1
  O  O18  1  0.640976  0.363629  0.750000  1
  O  O19  1  0.364554  0.644858  0.250000  1
  O  O20  1  0.938099  0.060117  0.750000  1
  O  O21  1  0.062786  0.937865  0.250000  1
