# generated using pymatgen
data_Er4Zn4Ir3Rh
_symmetry_space_group_name_H-M   'P 1'
_cell_length_a   4.03321800
_cell_length_b   6.95112141
_cell_length_c   8.08474474
_cell_angle_alpha   89.79775230
_cell_angle_beta   90.00000000
_cell_angle_gamma   90.00000000
_symmetry_Int_Tables_number   1
_chemical_formula_structural   Er4Zn4Ir3Rh
_chemical_formula_sum   'Er4 Zn4 Ir3 Rh1'
_cell_volume   226.65754324
_cell_formula_units_Z   1
loop_
 _symmetry_equiv_pos_site_id
 _symmetry_equiv_pos_as_xyz
  1  'x, y, z'
loop_
 _atom_site_type_symbol
 _atom_site_label
 _atom_site_symmetry_multiplicity
 _atom_site_fract_x
 _atom_site_fract_y
 _atom_site_fract_z
 _atom_site_occupancy
  Er  Er0  1  0.250000  0.535234  0.181166  1
  Er  Er1  1  0.750000  0.467441  0.819952  1
  Er  Er2  1  0.750000  0.962953  0.681557  1
  Er  Er3  1  0.250000  0.033611  0.316981  1
  Zn  Zn4  1  0.250000  0.639025  0.565131  1
  Zn  Zn5  1  0.750000  0.359874  0.435395  1
  Zn  Zn6  1  0.750000  0.860133  0.065389  1
  Zn  Zn7  1  0.250000  0.140523  0.935012  1
  Ir  Ir8  1  0.250000  0.758484  0.874510  1
  Ir  Ir9  1  0.750000  0.243193  0.124280  1
  Ir  Ir10  1  0.750000  0.742312  0.376659  1
  Rh  Rh11  1  0.250000  0.257219  0.623967  1
