# generated using pymatgen
data_Ho5ErTaBiO14
_symmetry_space_group_name_H-M   'P 1'
_cell_length_a   6.43986912
_cell_length_b   6.47383434
_cell_length_c   7.62961069
_cell_angle_alpha   106.66277339
_cell_angle_beta   89.88828339
_cell_angle_gamma   98.04331689
_symmetry_Int_Tables_number   1
_chemical_formula_structural   Ho5ErTaBiO14
_chemical_formula_sum   'Ho5 Er1 Ta1 Bi1 O14'
_cell_volume   301.48464002
_cell_formula_units_Z   1
loop_
 _symmetry_equiv_pos_site_id
 _symmetry_equiv_pos_as_xyz
  1  'x, y, z'
loop_
 _atom_site_type_symbol
 _atom_site_label
 _atom_site_symmetry_multiplicity
 _atom_site_fract_x
 _atom_site_fract_y
 _atom_site_fract_z
 _atom_site_occupancy
  Ho  Ho0  1  0.732587  0.460898  0.113957  1
  Ho  Ho1  1  0.732154  0.469774  0.606109  1
  Ho  Ho2  1  0.542175  0.995179  0.754779  1
  Ho  Ho3  1  0.457601  0.004754  0.245251  1
  Ho  Ho4  1  0.267823  0.530866  0.395029  1
  Er  Er5  1  0.267249  0.539524  0.885806  1
  Ta  Ta6  1  0.000234  0.999924  0.999937  1
  Bi  Bi7  1  0.000151  0.000388  0.500488  1
  O  O8  1  0.696546  0.073593  0.488857  1
  O  O9  1  0.927388  0.690137  0.984621  1
  O  O10  1  0.710059  0.073941  0.053174  1
  O  O11  1  0.930874  0.644255  0.382428  1
  O  O12  1  0.886358  0.904480  0.735330  1
  O  O13  1  0.557281  0.352650  0.834192  1
  O  O14  1  0.544283  0.360924  0.343571  1
  O  O15  1  0.455165  0.639257  0.657433  1
  O  O16  1  0.440938  0.647167  0.165179  1
  O  O17  1  0.113108  0.095387  0.264617  1
  O  O18  1  0.069575  0.356524  0.618251  1
  O  O19  1  0.290505  0.925394  0.947308  1
  O  O20  1  0.073989  0.308438  0.012424  1
  O  O21  1  0.303956  0.926547  0.511259  1
