# generated using pymatgen
data_Tb15Ho(CdRh)4
_symmetry_space_group_name_H-M   'P 1'
_cell_length_a   9.66625684
_cell_length_b   9.66625623
_cell_length_c   9.63273200
_cell_angle_alpha   60.11466685
_cell_angle_beta   60.11466894
_cell_angle_gamma   59.95124762
_symmetry_Int_Tables_number   1
_chemical_formula_structural   Tb15Ho(CdRh)4
_chemical_formula_sum   'Tb15 Ho1 Cd4 Rh4'
_cell_volume   637.29548738
_cell_formula_units_Z   1
loop_
 _symmetry_equiv_pos_site_id
 _symmetry_equiv_pos_as_xyz
  1  'x, y, z'
loop_
 _atom_site_type_symbol
 _atom_site_label
 _atom_site_symmetry_multiplicity
 _atom_site_fract_x
 _atom_site_fract_y
 _atom_site_fract_z
 _atom_site_occupancy
  Tb  Tb0  1  0.936575  0.936575  0.563425  1
  Tb  Tb1  1  0.563812  0.563812  0.936188  1
  Tb  Tb2  1  0.689307  0.689307  0.310693  1
  Tb  Tb3  1  0.150373  0.549572  0.150027  1
  Tb  Tb4  1  0.688634  0.311321  0.688325  1
  Tb  Tb5  1  0.150148  0.150148  0.149321  1
  Tb  Tb6  1  0.549572  0.150373  0.150027  1
  Tb  Tb7  1  0.688634  0.311321  0.311720  1
  Tb  Tb8  1  0.150148  0.150148  0.550382  1
  Tb  Tb9  1  0.311321  0.688634  0.311720  1
  Tb  Tb10  1  0.311321  0.688634  0.688325  1
  Tb  Tb11  1  0.937104  0.562755  0.564161  1
  Tb  Tb12  1  0.937104  0.562755  0.935980  1
  Tb  Tb13  1  0.562755  0.937104  0.564161  1
  Tb  Tb14  1  0.562755  0.937104  0.935980  1
  Ho  Ho15  1  0.310956  0.310956  0.689044  1
  Cd  Cd16  1  0.918407  0.918407  0.244497  1
  Cd  Cd17  1  0.244669  0.918494  0.918418  1
  Cd  Cd18  1  0.918407  0.918407  0.918689  1
  Cd  Cd19  1  0.918494  0.244669  0.918418  1
  Rh  Rh20  1  0.356716  0.356716  0.926618  1
  Rh  Rh21  1  0.357678  0.928392  0.356964  1
  Rh  Rh22  1  0.928392  0.357678  0.356964  1
  Rh  Rh23  1  0.356716  0.356716  0.359949  1
