# generated using pymatgen
data_Li4DyEr3Sn3Bi
_symmetry_space_group_name_H-M   'P 1'
_cell_length_a   9.41515747
_cell_length_b   9.41393326
_cell_length_c   7.21972200
_cell_angle_alpha   89.99996843
_cell_angle_beta   90.10285638
_cell_angle_gamma   119.99578835
_symmetry_Int_Tables_number   1
_chemical_formula_structural   Li4DyEr3Sn3Bi
_chemical_formula_sum   'Li8 Dy2 Er6 Sn6 Bi2'
_cell_volume   554.20100256
_cell_formula_units_Z   2
loop_
 _symmetry_equiv_pos_site_id
 _symmetry_equiv_pos_as_xyz
  1  'x, y, z'
loop_
 _atom_site_type_symbol
 _atom_site_label
 _atom_site_symmetry_multiplicity
 _atom_site_fract_x
 _atom_site_fract_y
 _atom_site_fract_z
 _atom_site_occupancy
  Li  Li0  1  0.168039  0.334447  0.283571  1
  Li  Li1  1  0.168038  0.833592  0.283571  1
  Li  Li2  1  0.664538  0.832269  0.286782  1
  Li  Li3  1  0.828846  0.664073  0.787740  1
  Li  Li4  1  0.828846  0.164774  0.787741  1
  Li  Li5  1  0.338198  0.169099  0.791560  1
  Li  Li6  1  0.337938  0.668968  0.668171  1
  Li  Li7  1  0.665534  0.332766  0.172390  1
  Dy  Dy8  1  0.994792  0.997396  0.494717  1
  Dy  Dy9  1  0.995470  0.997734  0.005151  1
  Er  Er10  1  0.517271  0.027135  0.490679  1
  Er  Er11  1  0.517272  0.490136  0.490679  1
  Er  Er12  1  0.971347  0.485674  0.488441  1
  Er  Er13  1  0.492989  0.978026  0.997311  1
  Er  Er14  1  0.492989  0.514964  0.997310  1
  Er  Er15  1  0.017785  0.508893  0.000114  1
  Sn  Sn16  1  0.666262  0.833131  0.732151  1
  Sn  Sn17  1  0.833587  0.666044  0.232346  1
  Sn  Sn18  1  0.833587  0.167543  0.232347  1
  Sn  Sn19  1  0.333884  0.166942  0.231780  1
  Sn  Sn20  1  0.332152  0.666077  0.259674  1
  Sn  Sn21  1  0.667621  0.333810  0.760621  1
  Bi  Bi22  1  0.166507  0.334136  0.733574  1
  Bi  Bi23  1  0.166507  0.832371  0.733574  1
