# generated using pymatgen
data_Dy9HoCuRhPb6
_symmetry_space_group_name_H-M   'P 1'
_cell_length_a   9.19093248
_cell_length_b   9.18528347
_cell_length_c   6.75140436
_cell_angle_alpha   90.01870510
_cell_angle_beta   89.96261278
_cell_angle_gamma   120.02033917
_symmetry_Int_Tables_number   1
_chemical_formula_structural   Dy9HoCuRhPb6
_chemical_formula_sum   'Dy9 Ho1 Cu1 Rh1 Pb6'
_cell_volume   493.50067735
_cell_formula_units_Z   1
loop_
 _symmetry_equiv_pos_site_id
 _symmetry_equiv_pos_as_xyz
  1  'x, y, z'
loop_
 _atom_site_type_symbol
 _atom_site_label
 _atom_site_symmetry_multiplicity
 _atom_site_fract_x
 _atom_site_fract_y
 _atom_site_fract_z
 _atom_site_occupancy
  Dy  Dy0  1  0.755695  0.000000  0.761277  1
  Dy  Dy1  1  0.999412  0.244439  0.238510  1
  Dy  Dy2  1  0.999816  0.755065  0.761780  1
  Dy  Dy3  1  0.754973  0.755561  0.238510  1
  Dy  Dy4  1  0.244751  0.244935  0.761780  1
  Dy  Dy5  1  0.332958  0.666456  0.000108  1
  Dy  Dy6  1  0.666503  0.333544  0.000108  1
  Dy  Dy7  1  0.666446  0.333337  0.500051  1
  Dy  Dy8  1  0.333108  0.666663  0.500051  1
  Ho  Ho9  1  0.245056  0.000000  0.238055  1
  Cu  Cu10  1  0.002253  0.000000  0.498403  1
  Rh  Rh11  1  0.000800  0.000000  0.000773  1
  Pb  Pb12  1  0.602553  0.000000  0.252154  1
  Pb  Pb13  1  0.396595  0.000000  0.747711  1
  Pb  Pb14  1  0.000029  0.603823  0.252723  1
  Pb  Pb15  1  0.999683  0.396520  0.747641  1
  Pb  Pb16  1  0.396206  0.396177  0.252723  1
  Pb  Pb17  1  0.603163  0.603480  0.747641  1
