# generated using pymatgen
data_Si2Pd4Pt7
_symmetry_space_group_name_H-M   'P 1'
_cell_length_a   3.91166600
_cell_length_b   6.25582600
_cell_length_c   16.32065100
_cell_angle_alpha   90.00000000
_cell_angle_beta   90.00000000
_cell_angle_gamma   90.00000000
_symmetry_Int_Tables_number   1
_chemical_formula_structural   Si2Pd4Pt7
_chemical_formula_sum   'Si4 Pd8 Pt14'
_cell_volume   399.37778488
_cell_formula_units_Z   2
loop_
 _symmetry_equiv_pos_site_id
 _symmetry_equiv_pos_as_xyz
  1  'x, y, z'
loop_
 _atom_site_type_symbol
 _atom_site_label
 _atom_site_symmetry_multiplicity
 _atom_site_fract_x
 _atom_site_fract_y
 _atom_site_fract_z
 _atom_site_occupancy
  Si  Si0  1  0.500000  0.826689  0.299711  1
  Si  Si1  1  0.500000  0.173311  0.700289  1
  Si  Si2  1  0.500000  0.326689  0.200289  1
  Si  Si3  1  0.500000  0.673311  0.799711  1
  Pd  Pd4  1  0.000000  0.306471  0.457382  1
  Pd  Pd5  1  0.000000  0.693529  0.542618  1
  Pd  Pd6  1  0.000000  0.806471  0.042618  1
  Pd  Pd7  1  0.000000  0.193529  0.957382  1
  Pd  Pd8  1  0.000000  0.523339  0.285972  1
  Pd  Pd9  1  0.000000  0.476661  0.714028  1
  Pd  Pd10  1  0.000000  0.023339  0.214028  1
  Pd  Pd11  1  0.000000  0.976661  0.785972  1
  Pt  Pt12  1  0.000000  0.904148  0.383406  1
  Pt  Pt13  1  0.000000  0.095852  0.616594  1
  Pt  Pt14  1  0.000000  0.404148  0.116594  1
  Pt  Pt15  1  0.000000  0.595852  0.883406  1
  Pt  Pt16  1  0.500000  0.599138  0.419190  1
  Pt  Pt17  1  0.500000  0.400862  0.580810  1
  Pt  Pt18  1  0.500000  0.099138  0.080810  1
  Pt  Pt19  1  0.500000  0.900862  0.919190  1
  Pt  Pt20  1  0.500000  0.500000  0.000000  1
  Pt  Pt21  1  0.500000  0.000000  0.500000  1
  Pt  Pt22  1  0.500000  0.208803  0.335145  1
  Pt  Pt23  1  0.500000  0.791197  0.664855  1
  Pt  Pt24  1  0.500000  0.708803  0.164855  1
  Pt  Pt25  1  0.500000  0.291197  0.835145  1
