# generated using pymatgen
data_TmFe2Co2P3Ru
_symmetry_space_group_name_H-M   'P 1'
_cell_length_a   3.70195500
_cell_length_b   10.21922700
_cell_length_c   11.83465500
_cell_angle_alpha   90.00000000
_cell_angle_beta   90.00000000
_cell_angle_gamma   90.00000000
_symmetry_Int_Tables_number   1
_chemical_formula_structural   TmFe2Co2P3Ru
_chemical_formula_sum   'Tm4 Fe8 Co8 P12 Ru4'
_cell_volume   447.71823558
_cell_formula_units_Z   4
loop_
 _symmetry_equiv_pos_site_id
 _symmetry_equiv_pos_as_xyz
  1  'x, y, z'
loop_
 _atom_site_type_symbol
 _atom_site_label
 _atom_site_symmetry_multiplicity
 _atom_site_fract_x
 _atom_site_fract_y
 _atom_site_fract_z
 _atom_site_occupancy
  Tm  Tm0  1  0.250000  0.580933  0.705027  1
  Tm  Tm1  1  0.250000  0.919067  0.205027  1
  Tm  Tm2  1  0.750000  0.419067  0.294973  1
  Tm  Tm3  1  0.750000  0.080933  0.794973  1
  Fe  Fe4  1  0.250000  0.880139  0.702990  1
  Fe  Fe5  1  0.250000  0.619861  0.202990  1
  Fe  Fe6  1  0.750000  0.119861  0.297010  1
  Fe  Fe7  1  0.750000  0.380139  0.797010  1
  Fe  Fe8  1  0.250000  0.462404  0.934039  1
  Fe  Fe9  1  0.250000  0.037596  0.434039  1
  Fe  Fe10  1  0.750000  0.537596  0.065961  1
  Fe  Fe11  1  0.750000  0.962404  0.565961  1
  Co  Co12  1  0.250000  0.406789  0.486650  1
  Co  Co13  1  0.250000  0.093211  0.986650  1
  Co  Co14  1  0.750000  0.593211  0.513350  1
  Co  Co15  1  0.750000  0.906789  0.013350  1
  Co  Co16  1  0.250000  0.225254  0.172054  1
  Co  Co17  1  0.250000  0.274746  0.672054  1
  Co  Co18  1  0.750000  0.774746  0.827946  1
  Co  Co19  1  0.750000  0.725254  0.327946  1
  P  P20  1  0.250000  0.427703  0.114946  1
  P  P21  1  0.250000  0.072297  0.614946  1
  P  P22  1  0.750000  0.572297  0.885054  1
  P  P23  1  0.750000  0.927703  0.385054  1
  P  P24  1  0.250000  0.269545  0.860554  1
  P  P25  1  0.250000  0.230455  0.360554  1
  P  P26  1  0.750000  0.730455  0.139446  1
  P  P27  1  0.750000  0.769545  0.639446  1
  P  P28  1  0.250000  0.597283  0.389567  1
  P  P29  1  0.250000  0.902717  0.889567  1
  P  P30  1  0.750000  0.402717  0.610433  1
  P  P31  1  0.750000  0.097283  0.110433  1
  Ru  Ru32  1  0.250000  0.709920  0.989361  1
  Ru  Ru33  1  0.250000  0.790080  0.489361  1
  Ru  Ru34  1  0.750000  0.290080  0.010639  1
  Ru  Ru35  1  0.750000  0.209920  0.510639  1
