# generated using pymatgen
data_TbHo15In4Ir3Rh
_symmetry_space_group_name_H-M   'P 1'
_cell_length_a   9.63085492
_cell_length_b   9.64326268
_cell_length_c   9.64267300
_cell_angle_alpha   60.00201936
_cell_angle_beta   59.95939592
_cell_angle_gamma   59.93126925
_symmetry_Int_Tables_number   1
_chemical_formula_structural   TbHo15In4Ir3Rh
_chemical_formula_sum   'Tb1 Ho15 In4 Ir3 Rh1'
_cell_volume   632.73009596
_cell_formula_units_Z   1
loop_
 _symmetry_equiv_pos_site_id
 _symmetry_equiv_pos_as_xyz
  1  'x, y, z'
loop_
 _atom_site_type_symbol
 _atom_site_label
 _atom_site_symmetry_multiplicity
 _atom_site_fract_x
 _atom_site_fract_y
 _atom_site_fract_z
 _atom_site_occupancy
  Tb  Tb0  1  0.438481  0.437181  0.062169  1
  Ho  Ho1  1  0.651426  0.650598  0.046169  1
  Ho  Ho2  1  0.189758  0.810935  0.190069  1
  Ho  Ho3  1  0.059806  0.439213  0.060510  1
  Ho  Ho4  1  0.189758  0.810935  0.809238  1
  Ho  Ho5  1  0.059806  0.439213  0.440472  1
  Ho  Ho6  1  0.810941  0.190359  0.189798  1
  Ho  Ho7  1  0.651426  0.650598  0.651807  1
  Ho  Ho8  1  0.810941  0.190359  0.808901  1
  Ho  Ho9  1  0.189878  0.190621  0.809751  1
  Ho  Ho10  1  0.047727  0.650173  0.651051  1
  Ho  Ho11  1  0.439287  0.060446  0.061290  1
  Ho  Ho12  1  0.060200  0.060090  0.439855  1
  Ho  Ho13  1  0.650600  0.047759  0.650821  1
  Ho  Ho14  1  0.810174  0.809855  0.189986  1
  Ho  Ho15  1  0.439287  0.060446  0.438977  1
  In  In16  1  0.416843  0.416865  0.417051  1
  In  In17  1  0.416843  0.416865  0.749243  1
  In  In18  1  0.416936  0.749778  0.416644  1
  In  In19  1  0.749918  0.416846  0.416618  1
  Ir  Ir20  1  0.858488  0.858513  0.858034  1
  Ir  Ir21  1  0.859246  0.424466  0.858144  1
  Ir  Ir22  1  0.858488  0.858513  0.424964  1
  Rh  Rh23  1  0.423741  0.859373  0.858443  1
