# generated using pymatgen
data_Ca7YBi6
_symmetry_space_group_name_H-M   'P 1'
_cell_length_a   8.32056728
_cell_length_b   8.39715570
_cell_length_c   8.39715741
_cell_angle_alpha   109.65525094
_cell_angle_beta   109.28656193
_cell_angle_gamma   109.28655468
_symmetry_Int_Tables_number   1
_chemical_formula_structural   Ca7YBi6
_chemical_formula_sum   'Ca7 Y1 Bi6'
_cell_volume   452.66844236
_cell_formula_units_Z   1
loop_
 _symmetry_equiv_pos_site_id
 _symmetry_equiv_pos_as_xyz
  1  'x, y, z'
loop_
 _atom_site_type_symbol
 _atom_site_label
 _atom_site_symmetry_multiplicity
 _atom_site_fract_x
 _atom_site_fract_y
 _atom_site_fract_z
 _atom_site_occupancy
  Ca  Ca0  1  0.501939  0.005516  0.361793  1
  Ca  Ca1  1  0.502416  0.001048  0.852517  1
  Ca  Ca2  1  0.649899  0.647483  0.648531  1
  Ca  Ca3  1  0.996424  0.356278  0.494484  1
  Ca  Ca4  1  0.140146  0.138207  0.143722  1
  Ca  Ca5  1  0.852767  0.500000  0.000000  1
  Ca  Ca6  1  0.001368  0.851469  0.498952  1
  Y  Y7  1  0.353025  0.500000  0.000000  1
  Bi  Bi8  1  0.131272  0.745229  0.877337  1
  Bi  Bi9  1  0.886044  0.132108  0.754771  1
  Bi  Bi10  1  0.616159  0.373577  0.244135  1
  Bi  Bi11  1  0.372024  0.255865  0.629442  1
  Bi  Bi12  1  0.742582  0.870558  0.126423  1
  Bi  Bi13  1  0.253936  0.622663  0.367892  1
