# generated using pymatgen
data_Y5Be4P8Ir19
_symmetry_space_group_name_H-M   'P 1'
_cell_length_a   12.65235569
_cell_length_b   12.55612147
_cell_length_c   3.95508600
_cell_angle_alpha   90.00000000
_cell_angle_beta   90.00000000
_cell_angle_gamma   120.04558724
_symmetry_Int_Tables_number   1
_chemical_formula_structural   Y5Be4P8Ir19
_chemical_formula_sum   'Y5 Be4 P8 Ir19'
_cell_volume   543.89338869
_cell_formula_units_Z   1
loop_
 _symmetry_equiv_pos_site_id
 _symmetry_equiv_pos_as_xyz
  1  'x, y, z'
loop_
 _atom_site_type_symbol
 _atom_site_label
 _atom_site_symmetry_multiplicity
 _atom_site_fract_x
 _atom_site_fract_y
 _atom_site_fract_z
 _atom_site_occupancy
  Y  Y0  1  0.333998  0.666853  0.500000  1
  Y  Y1  1  0.676706  0.331727  0.500000  1
  Y  Y2  1  0.183650  0.191281  0.000000  1
  Y  Y3  1  0.808843  0.999832  0.000000  1
  Y  Y4  1  0.004708  0.815003  0.000000  1
  Be  Be5  1  0.314371  0.835942  0.000000  1
  Be  Be6  1  0.163941  0.477485  0.000000  1
  Be  Be7  1  0.521563  0.684701  0.000000  1
  Be  Be8  1  0.831136  0.307789  0.000000  1
  P  P9  1  0.485002  0.176297  0.000000  1
  P  P10  1  0.697635  0.517969  0.000000  1
  P  P11  1  0.361824  0.374600  0.500000  1
  P  P12  1  0.625964  0.993341  0.500000  1
  P  P13  1  0.007677  0.631188  0.500000  1
  P  P14  1  0.817701  0.819746  0.500000  1
  P  P15  1  0.182105  0.002293  0.500000  1
  P  P16  1  0.995680  0.181321  0.500000  1
  Ir  Ir17  1  0.194931  0.820453  0.500000  1
  Ir  Ir18  1  0.177413  0.376188  0.500000  1
  Ir  Ir19  1  0.624350  0.804610  0.500000  1
  Ir  Ir20  1  0.811024  0.187415  0.500000  1
  Ir  Ir21  1  0.377982  0.190678  0.500000  1
  Ir  Ir22  1  0.808031  0.622578  0.500000  1
  Ir  Ir23  1  0.127077  0.641125  0.000000  1
  Ir  Ir24  1  0.357090  0.483294  0.000000  1
  Ir  Ir25  1  0.512941  0.869268  0.000000  1
  Ir  Ir26  1  0.633292  0.127002  0.000000  1
  Ir  Ir27  1  0.500393  0.368567  0.000000  1
  Ir  Ir28  1  0.875954  0.510817  0.000000  1
  Ir  Ir29  1  0.546885  0.554167  0.500000  1
  Ir  Ir30  1  0.443181  0.991104  0.500000  1
  Ir  Ir31  1  0.995603  0.443160  0.500000  1
  Ir  Ir32  1  0.718443  0.714227  0.000000  1
  Ir  Ir33  1  0.287143  0.006957  0.000000  1
  Ir  Ir34  1  0.995918  0.280948  0.000000  1
  Ir  Ir35  1  0.999844  0.000071  0.500000  1
