# generated using pymatgen
data_Ta8VNiTe8
_symmetry_space_group_name_H-M   'P 1'
_cell_length_a   4.87659200
_cell_length_b   11.34614900
_cell_length_c   20.05284000
_cell_angle_alpha   90.00000000
_cell_angle_beta   90.00000000
_cell_angle_gamma   90.00000000
_symmetry_Int_Tables_number   1
_chemical_formula_structural   Ta8VNiTe8
_chemical_formula_sum   'Ta16 V2 Ni2 Te16'
_cell_volume   1109.53445459
_cell_formula_units_Z   2
loop_
 _symmetry_equiv_pos_site_id
 _symmetry_equiv_pos_as_xyz
  1  'x, y, z'
loop_
 _atom_site_type_symbol
 _atom_site_label
 _atom_site_symmetry_multiplicity
 _atom_site_fract_x
 _atom_site_fract_y
 _atom_site_fract_z
 _atom_site_occupancy
  Ta  Ta0  1  0.498965  0.562850  0.387721  1
  Ta  Ta1  1  0.498965  0.437150  0.612279  1
  Ta  Ta2  1  0.501035  0.062850  0.112279  1
  Ta  Ta3  1  0.501035  0.937150  0.887721  1
  Ta  Ta4  1  0.499107  0.698762  0.535456  1
  Ta  Ta5  1  0.499107  0.301238  0.464544  1
  Ta  Ta6  1  0.500893  0.198762  0.964544  1
  Ta  Ta7  1  0.500893  0.801238  0.035456  1
  Ta  Ta8  1  0.001823  0.684961  0.445601  1
  Ta  Ta9  1  0.001823  0.315039  0.554399  1
  Ta  Ta10  1  0.998177  0.184961  0.054399  1
  Ta  Ta11  1  0.998177  0.815039  0.945601  1
  Ta  Ta12  1  0.001376  0.404001  0.395504  1
  Ta  Ta13  1  0.001376  0.595999  0.604496  1
  Ta  Ta14  1  0.998624  0.904001  0.104496  1
  Ta  Ta15  1  0.998624  0.095999  0.895504  1
  V  V16  1  0.750499  0.500000  0.500000  1
  V  V17  1  0.249501  0.000000  0.000000  1
  Ni  Ni18  1  0.250466  0.500000  0.500000  1
  Ni  Ni19  1  0.749534  0.000000  0.000000  1
  Te  Te20  1  0.003227  0.836643  0.560096  1
  Te  Te21  1  0.003227  0.163357  0.439904  1
  Te  Te22  1  0.996773  0.336643  0.939904  1
  Te  Te23  1  0.996773  0.663357  0.060096  1
  Te  Te24  1  0.497018  0.337333  0.322987  1
  Te  Te25  1  0.497018  0.662667  0.677013  1
  Te  Te26  1  0.502982  0.837333  0.177013  1
  Te  Te27  1  0.502982  0.162667  0.822987  1
  Te  Te28  1  0.497541  0.813390  0.407903  1
  Te  Te29  1  0.497541  0.186610  0.592097  1
  Te  Te30  1  0.502459  0.313390  0.092097  1
  Te  Te31  1  0.502459  0.686610  0.907903  1
  Te  Te32  1  0.003408  0.606483  0.309683  1
  Te  Te33  1  0.003408  0.393517  0.690317  1
  Te  Te34  1  0.996592  0.106483  0.190317  1
  Te  Te35  1  0.996592  0.893517  0.809683  1
