# generated using pymatgen
data_CsRb3(InI4)4
_symmetry_space_group_name_H-M   'P 1'
_cell_length_a   8.53787590
_cell_length_b   9.09191640
_cell_length_c   17.24002458
_cell_angle_alpha   85.43165222
_cell_angle_beta   89.96429354
_cell_angle_gamma   89.87803934
_symmetry_Int_Tables_number   1
_chemical_formula_structural   CsRb3(InI4)4
_chemical_formula_sum   'Cs1 Rb3 In4 I16'
_cell_volume   1334.01338517
_cell_formula_units_Z   1
loop_
 _symmetry_equiv_pos_site_id
 _symmetry_equiv_pos_as_xyz
  1  'x, y, z'
loop_
 _atom_site_type_symbol
 _atom_site_label
 _atom_site_symmetry_multiplicity
 _atom_site_fract_x
 _atom_site_fract_y
 _atom_site_fract_z
 _atom_site_occupancy
  Cs  Cs0  1  0.997352  0.257665  0.140222  1
  Rb  Rb1  1  0.502188  0.256671  0.639325  1
  Rb  Rb2  1  0.002060  0.743156  0.860847  1
  Rb  Rb3  1  0.497841  0.743213  0.360550  1
  In  In4  1  0.356542  0.244192  0.361365  1
  In  In5  1  0.856567  0.755731  0.138728  1
  In  In6  1  0.643111  0.755716  0.638679  1
  In  In7  1  0.143272  0.244128  0.861114  1
  I  I8  1  0.855999  0.133443  0.910294  1
  I  I9  1  0.355779  0.866376  0.588886  1
  I  I10  1  0.145155  0.860989  0.088490  1
  I  I11  1  0.643997  0.133612  0.410997  1
  I  I12  1  0.393524  0.418480  0.223341  1
  I  I13  1  0.887927  0.586798  0.278914  1
  I  I14  1  0.611279  0.583480  0.777666  1
  I  I15  1  0.111214  0.416985  0.722455  1
  I  I16  1  0.647531  0.980326  0.162021  1
  I  I17  1  0.154934  0.013437  0.339570  1
  I  I18  1  0.346659  0.014370  0.838342  1
  I  I19  1  0.846029  0.984871  0.661675  1
  I  I20  1  0.244641  0.426454  0.470074  1
  I  I21  1  0.742319  0.577931  0.028755  1
  I  I22  1  0.755393  0.573540  0.529905  1
  I  I23  1  0.258689  0.428435  0.967785  1
