# generated using pymatgen
data_Ho4TcB12Os
_symmetry_space_group_name_H-M   'P 1'
_cell_length_a   3.65967600
_cell_length_b   9.13909040
_cell_length_c   11.52115701
_cell_angle_alpha   89.91702742
_cell_angle_beta   90.00000000
_cell_angle_gamma   90.00000000
_symmetry_Int_Tables_number   1
_chemical_formula_structural   Ho4TcB12Os
_chemical_formula_sum   'Ho8 Tc2 B24 Os2'
_cell_volume   385.33747847
_cell_formula_units_Z   2
loop_
 _symmetry_equiv_pos_site_id
 _symmetry_equiv_pos_as_xyz
  1  'x, y, z'
loop_
 _atom_site_type_symbol
 _atom_site_label
 _atom_site_symmetry_multiplicity
 _atom_site_fract_x
 _atom_site_fract_y
 _atom_site_fract_z
 _atom_site_occupancy
  Ho  Ho0  1  0.000000  0.324779  0.415390  1
  Ho  Ho1  1  0.000000  0.675221  0.584610  1
  Ho  Ho2  1  0.000000  0.820866  0.087303  1
  Ho  Ho3  1  0.000000  0.179134  0.912697  1
  Ho  Ho4  1  0.000000  0.941608  0.370920  1
  Ho  Ho5  1  0.000000  0.058392  0.629080  1
  Ho  Ho6  1  0.000000  0.443549  0.129963  1
  Ho  Ho7  1  0.000000  0.556451  0.870037  1
  Tc  Tc8  1  0.000000  0.638257  0.320172  1
  Tc  Tc9  1  0.000000  0.361743  0.679828  1
  B  B10  1  0.500000  0.553106  0.433102  1
  B  B11  1  0.500000  0.446894  0.566898  1
  B  B12  1  0.500000  0.053601  0.066795  1
  B  B13  1  0.500000  0.946399  0.933205  1
  B  B14  1  0.500000  0.748365  0.419022  1
  B  B15  1  0.500000  0.251635  0.580978  1
  B  B16  1  0.500000  0.248762  0.081188  1
  B  B17  1  0.500000  0.751238  0.918812  1
  B  B18  1  0.500000  0.791417  0.265228  1
  B  B19  1  0.500000  0.208583  0.734772  1
  B  B20  1  0.500000  0.290640  0.234380  1
  B  B21  1  0.500000  0.709360  0.765620  1
  B  B22  1  0.500000  0.631185  0.185102  1
  B  B23  1  0.500000  0.368815  0.814898  1
  B  B24  1  0.500000  0.130631  0.314083  1
  B  B25  1  0.500000  0.869369  0.685917  1
  B  B26  1  0.500000  0.982544  0.211895  1
  B  B27  1  0.500000  0.017456  0.788105  1
  B  B28  1  0.500000  0.482482  0.287716  1
  B  B29  1  0.500000  0.517518  0.712284  1
  B  B30  1  0.500000  0.603178  0.028385  1
  B  B31  1  0.500000  0.396822  0.971615  1
  B  B32  1  0.500000  0.103148  0.471083  1
  B  B33  1  0.500000  0.896852  0.528917  1
  Os  Os34  1  0.000000  0.137126  0.178121  1
  Os  Os35  1  0.000000  0.862874  0.821879  1
