# generated using pymatgen
data_Tb2Th6TiSe17
_symmetry_space_group_name_H-M   'P 1'
_cell_length_a   8.41419997
_cell_length_b   8.41419888
_cell_length_c   11.16924922
_cell_angle_alpha   80.66562933
_cell_angle_beta   80.66563143
_cell_angle_gamma   65.23524792
_symmetry_Int_Tables_number   1
_chemical_formula_structural   Tb2Th6TiSe17
_chemical_formula_sum   'Tb2 Th6 Ti1 Se17'
_cell_volume   704.60718642
_cell_formula_units_Z   1
loop_
 _symmetry_equiv_pos_site_id
 _symmetry_equiv_pos_as_xyz
  1  'x, y, z'
loop_
 _atom_site_type_symbol
 _atom_site_label
 _atom_site_symmetry_multiplicity
 _atom_site_fract_x
 _atom_site_fract_y
 _atom_site_fract_z
 _atom_site_occupancy
  Tb  Tb0  1  0.813655  0.305432  0.297059  1
  Tb  Tb1  1  0.305432  0.813655  0.297059  1
  Th  Th2  1  0.184695  0.698735  0.700284  1
  Th  Th3  1  0.698735  0.184695  0.700284  1
  Th  Th4  1  0.204918  0.204918  0.537668  1
  Th  Th5  1  0.795481  0.795481  0.455943  1
  Th  Th6  1  0.679098  0.679098  0.985233  1
  Th  Th7  1  0.319718  0.319718  0.022060  1
  Ti  Ti8  1  0.003423  0.003423  0.006381  1
  Se  Se9  1  0.822356  0.430982  0.532960  1
  Se  Se10  1  0.430982  0.822356  0.532960  1
  Se  Se11  1  0.178302  0.570073  0.464784  1
  Se  Se12  1  0.570073  0.178302  0.464784  1
  Se  Se13  1  0.942457  0.320929  0.025995  1
  Se  Se14  1  0.320929  0.942457  0.025995  1
  Se  Se15  1  0.056930  0.680171  0.973057  1
  Se  Se16  1  0.680171  0.056930  0.973057  1
  Se  Se17  1  0.206454  0.206454  0.275145  1
  Se  Se18  1  0.788471  0.788471  0.725501  1
  Se  Se19  1  0.059529  0.059529  0.776274  1
  Se  Se20  1  0.942285  0.942285  0.226646  1
  Se  Se21  1  0.302699  0.302699  0.754383  1
  Se  Se22  1  0.695584  0.695584  0.245290  1
  Se  Se23  1  0.519929  0.519929  0.831908  1
  Se  Se24  1  0.480084  0.480084  0.163701  1
  Se  Se25  1  0.997608  0.997608  0.505585  1
