# generated using pymatgen
data_HoTmCo8(P3Ru)2
_symmetry_space_group_name_H-M   'P 1'
_cell_length_a   3.68671200
_cell_length_b   10.36245300
_cell_length_c   11.76897300
_cell_angle_alpha   90.00000000
_cell_angle_beta   90.00000000
_cell_angle_gamma   90.00000000
_symmetry_Int_Tables_number   1
_chemical_formula_structural   HoTmCo8(P3Ru)2
_chemical_formula_sum   'Ho2 Tm2 Co16 P12 Ru4'
_cell_volume   449.61454566
_cell_formula_units_Z   2
loop_
 _symmetry_equiv_pos_site_id
 _symmetry_equiv_pos_as_xyz
  1  'x, y, z'
loop_
 _atom_site_type_symbol
 _atom_site_label
 _atom_site_symmetry_multiplicity
 _atom_site_fract_x
 _atom_site_fract_y
 _atom_site_fract_z
 _atom_site_occupancy
  Ho  Ho0  1  0.250000  0.586004  0.704113  1
  Ho  Ho1  1  0.250000  0.913996  0.204113  1
  Tm  Tm2  1  0.750000  0.414074  0.296135  1
  Tm  Tm3  1  0.750000  0.085926  0.796135  1
  Co  Co4  1  0.250000  0.408753  0.488399  1
  Co  Co5  1  0.250000  0.091247  0.988399  1
  Co  Co6  1  0.750000  0.590786  0.510434  1
  Co  Co7  1  0.750000  0.909214  0.010434  1
  Co  Co8  1  0.250000  0.221465  0.177007  1
  Co  Co9  1  0.250000  0.278535  0.677007  1
  Co  Co10  1  0.750000  0.778988  0.822991  1
  Co  Co11  1  0.750000  0.721012  0.322991  1
  Co  Co12  1  0.250000  0.888006  0.702995  1
  Co  Co13  1  0.250000  0.611994  0.202995  1
  Co  Co14  1  0.750000  0.113075  0.297282  1
  Co  Co15  1  0.750000  0.386925  0.797282  1
  Co  Co16  1  0.250000  0.464617  0.930708  1
  Co  Co17  1  0.250000  0.035383  0.430708  1
  Co  Co18  1  0.750000  0.534348  0.070120  1
  Co  Co19  1  0.750000  0.965652  0.570120  1
  P  P20  1  0.250000  0.419480  0.112784  1
  P  P21  1  0.250000  0.080520  0.612784  1
  P  P22  1  0.750000  0.580170  0.888214  1
  P  P23  1  0.750000  0.919830  0.388214  1
  P  P24  1  0.250000  0.270223  0.866776  1
  P  P25  1  0.250000  0.229777  0.366776  1
  P  P26  1  0.750000  0.728902  0.132788  1
  P  P27  1  0.750000  0.771098  0.632788  1
  P  P28  1  0.250000  0.594881  0.389718  1
  P  P29  1  0.250000  0.905119  0.889718  1
  P  P30  1  0.750000  0.404574  0.609982  1
  P  P31  1  0.750000  0.095426  0.109982  1
  Ru  Ru32  1  0.250000  0.717411  0.992403  1
  Ru  Ru33  1  0.250000  0.782589  0.492403  1
  Ru  Ru34  1  0.750000  0.282442  0.007151  1
  Ru  Ru35  1  0.750000  0.217558  0.507151  1
