# generated using pymatgen
data_LiYb19Ru4
_symmetry_space_group_name_H-M   'P 1'
_cell_length_a   6.53474632
_cell_length_b   7.47125064
_cell_length_c   15.58313900
_cell_angle_alpha   89.90970711
_cell_angle_beta   90.77598862
_cell_angle_gamma   89.88888467
_symmetry_Int_Tables_number   1
_chemical_formula_structural   LiYb19Ru4
_chemical_formula_sum   'Li1 Yb19 Ru4'
_cell_volume   760.73916771
_cell_formula_units_Z   1
loop_
 _symmetry_equiv_pos_site_id
 _symmetry_equiv_pos_as_xyz
  1  'x, y, z'
loop_
 _atom_site_type_symbol
 _atom_site_label
 _atom_site_symmetry_multiplicity
 _atom_site_fract_x
 _atom_site_fract_y
 _atom_site_fract_z
 _atom_site_occupancy
  Li  Li0  1  0.848920  0.190452  0.938757  1
  Yb  Yb1  1  0.142417  0.099292  0.250706  1
  Yb  Yb2  1  0.860017  0.194268  0.566246  1
  Yb  Yb3  1  0.855063  0.909588  0.754513  1
  Yb  Yb4  1  0.822613  0.465988  0.144841  1
  Yb  Yb5  1  0.181014  0.538645  0.644191  1
  Yb  Yb6  1  0.355785  0.306585  0.069151  1
  Yb  Yb7  1  0.356992  0.599523  0.250733  1
  Yb  Yb8  1  0.824906  0.466495  0.353246  1
  Yb  Yb9  1  0.311779  0.038206  0.855025  1
  Yb  Yb10  1  0.140774  0.808131  0.068269  1
  Yb  Yb11  1  0.646576  0.692441  0.569953  1
  Yb  Yb12  1  0.676336  0.966240  0.353591  1
  Yb  Yb13  1  0.637200  0.696009  0.931114  1
  Yb  Yb14  1  0.329346  0.031331  0.644956  1
  Yb  Yb15  1  0.144605  0.805547  0.431779  1
  Yb  Yb16  1  0.650248  0.393455  0.753862  1
  Yb  Yb17  1  0.166303  0.522144  0.852973  1
  Yb  Yb18  1  0.359187  0.305680  0.432767  1
  Yb  Yb19  1  0.675987  0.967262  0.145106  1
  Ru  Ru20  1  0.050758  0.245362  0.736300  1
  Ru  Ru21  1  0.462822  0.740971  0.752835  1
  Ru  Ru22  1  0.536896  0.258232  0.249203  1
  Ru  Ru23  1  0.963456  0.758154  0.249886  1
