# generated using pymatgen
data_Hf16Ta4Si15Ge
_symmetry_space_group_name_H-M   'P 1'
_cell_length_a   6.77415704
_cell_length_b   6.94553949
_cell_length_c   13.35188116
_cell_angle_alpha   90.01262404
_cell_angle_beta   89.82320405
_cell_angle_gamma   90.00500301
_symmetry_Int_Tables_number   1
_chemical_formula_structural   Hf16Ta4Si15Ge
_chemical_formula_sum   'Hf16 Ta4 Si15 Ge1'
_cell_volume   628.20534022
_cell_formula_units_Z   1
loop_
 _symmetry_equiv_pos_site_id
 _symmetry_equiv_pos_as_xyz
  1  'x, y, z'
loop_
 _atom_site_type_symbol
 _atom_site_label
 _atom_site_symmetry_multiplicity
 _atom_site_fract_x
 _atom_site_fract_y
 _atom_site_fract_z
 _atom_site_occupancy
  Hf  Hf0  1  0.337887  0.675870  0.875985  1
  Hf  Hf1  1  0.837521  0.824662  0.875814  1
  Hf  Hf2  1  0.660163  0.328347  0.374439  1
  Hf  Hf3  1  0.998459  0.675807  0.094696  1
  Hf  Hf4  1  0.492043  0.820163  0.402896  1
  Hf  Hf5  1  0.501734  0.176220  0.904307  1
  Hf  Hf6  1  0.501150  0.179257  0.597432  1
  Hf  Hf7  1  0.001976  0.324231  0.904984  1
  Hf  Hf8  1  0.163181  0.175529  0.124049  1
  Hf  Hf9  1  0.162277  0.174392  0.375469  1
  Hf  Hf10  1  0.997930  0.673211  0.404423  1
  Hf  Hf11  1  0.662936  0.324882  0.124044  1
  Hf  Hf12  1  0.498391  0.824377  0.095335  1
  Hf  Hf13  1  0.004716  0.325671  0.596541  1
  Hf  Hf14  1  0.338137  0.674179  0.624698  1
  Hf  Hf15  1  0.840944  0.823279  0.625506  1
  Ta  Ta16  1  0.665416  0.501390  0.750255  1
  Ta  Ta17  1  0.165748  0.998898  0.750261  1
  Ta  Ta18  1  0.334755  0.498571  0.249732  1
  Ta  Ta19  1  0.834668  0.001809  0.247987  1
  Si  Si20  1  0.675117  0.530967  0.538849  1
  Si  Si21  1  0.172683  0.970400  0.960576  1
  Si  Si22  1  0.298412  0.360027  0.751022  1
  Si  Si23  1  0.827810  0.030042  0.039115  1
  Si  Si24  1  0.327631  0.470033  0.039012  1
  Si  Si25  1  0.460608  0.104870  0.249767  1
  Si  Si26  1  0.702060  0.641405  0.249159  1
  Si  Si27  1  0.960902  0.394381  0.249864  1
  Si  Si28  1  0.799268  0.140795  0.750329  1
  Si  Si29  1  0.673001  0.530114  0.960791  1
  Si  Si30  1  0.179222  0.969792  0.539624  1
  Si  Si31  1  0.040030  0.604879  0.750922  1
  Si  Si32  1  0.324655  0.468067  0.461597  1
  Si  Si33  1  0.540021  0.894580  0.749846  1
  Si  Si34  1  0.199915  0.859044  0.249523  1
  Ge  Ge35  1  0.818634  0.029859  0.461152  1
