# generated using pymatgen
data_La12MgCo6
_symmetry_space_group_name_H-M   'P 1'
_cell_length_a   8.81909536
_cell_length_b   8.81909484
_cell_length_c   8.81909500
_cell_angle_alpha   109.47121871
_cell_angle_beta   109.47121752
_cell_angle_gamma   109.47122169
_symmetry_Int_Tables_number   1
_chemical_formula_structural   La12MgCo6
_chemical_formula_sum   'La12 Mg1 Co6'
_cell_volume   528.01979352
_cell_formula_units_Z   1
loop_
 _symmetry_equiv_pos_site_id
 _symmetry_equiv_pos_as_xyz
  1  'x, y, z'
loop_
 _atom_site_type_symbol
 _atom_site_label
 _atom_site_symmetry_multiplicity
 _atom_site_fract_x
 _atom_site_fract_y
 _atom_site_fract_z
 _atom_site_occupancy
  La  La0  1  0.808848  0.685513  0.494361  1
  La  La1  1  0.191152  0.314487  0.505639  1
  La  La2  1  0.191152  0.685513  0.876665  1
  La  La3  1  0.808848  0.314487  0.123335  1
  La  La4  1  0.685513  0.494361  0.808848  1
  La  La5  1  0.314487  0.505639  0.191152  1
  La  La6  1  0.685513  0.876665  0.191152  1
  La  La7  1  0.314487  0.123335  0.808848  1
  La  La8  1  0.494361  0.808848  0.685513  1
  La  La9  1  0.505639  0.191152  0.314487  1
  La  La10  1  0.123335  0.808848  0.314487  1
  La  La11  1  0.876665  0.191152  0.685513  1
  Mg  Mg12  1  0.000000  0.000000  0.000000  1
  Co  Co13  1  0.880835  0.380835  0.500000  1
  Co  Co14  1  0.119165  0.619165  0.500000  1
  Co  Co15  1  0.380835  0.500000  0.880835  1
  Co  Co16  1  0.619165  0.500000  0.119165  1
  Co  Co17  1  0.500000  0.880835  0.380835  1
  Co  Co18  1  0.500000  0.119165  0.619165  1
