# generated using pymatgen
data_Mn3Nb2FeP24
_symmetry_space_group_name_H-M   'P 1'
_cell_length_a   8.56073878
_cell_length_b   8.55676712
_cell_length_c   10.68211521
_cell_angle_alpha   65.81658172
_cell_angle_beta   65.78683117
_cell_angle_gamma   39.48380734
_symmetry_Int_Tables_number   1
_chemical_formula_structural   Mn3Nb2FeP24
_chemical_formula_sum   'Mn3 Nb2 Fe1 P24'
_cell_volume   447.89375064
_cell_formula_units_Z   1
loop_
 _symmetry_equiv_pos_site_id
 _symmetry_equiv_pos_as_xyz
  1  'x, y, z'
loop_
 _atom_site_type_symbol
 _atom_site_label
 _atom_site_symmetry_multiplicity
 _atom_site_fract_x
 _atom_site_fract_y
 _atom_site_fract_z
 _atom_site_occupancy
  Mn  Mn0  1  0.008686  0.628034  0.045824  1
  Mn  Mn1  1  0.626773  0.007906  0.545582  1
  Mn  Mn2  1  0.992239  0.370889  0.954147  1
  Nb  Nb3  1  0.303360  0.696939  0.250352  1
  Nb  Nb4  1  0.696619  0.304296  0.749418  1
  Fe  Fe5  1  0.370709  0.991318  0.453844  1
  P  P6  1  0.597341  0.950915  0.073832  1
  P  P7  1  0.047526  0.405307  0.425815  1
  P  P8  1  0.403385  0.048744  0.926312  1
  P  P9  1  0.951591  0.595806  0.574347  1
  P  P10  1  0.581957  0.292674  0.165189  1
  P  P11  1  0.706698  0.418656  0.334433  1
  P  P12  1  0.979160  0.332373  0.758325  1
  P  P13  1  0.668357  0.020209  0.741809  1
  P  P14  1  0.020525  0.667280  0.240748  1
  P  P15  1  0.332990  0.979209  0.258282  1
  P  P16  1  0.015253  0.918385  0.927827  1
  P  P17  1  0.081613  0.984087  0.573163  1
  P  P18  1  0.984580  0.081415  0.072435  1
  P  P19  1  0.918775  0.016006  0.427406  1
  P  P20  1  0.333007  0.432815  0.504153  1
  P  P21  1  0.568237  0.666596  0.995556  1
  P  P22  1  0.667811  0.565539  0.495872  1
  P  P23  1  0.431909  0.333462  0.004206  1
  P  P24  1  0.994557  0.649195  0.836087  1
  P  P25  1  0.351715  0.005306  0.664680  1
  P  P26  1  0.004806  0.352024  0.164173  1
  P  P27  1  0.650371  0.994234  0.336625  1
  P  P28  1  0.292829  0.582189  0.665268  1
  P  P29  1  0.416624  0.708193  0.834291  1
