# generated using pymatgen
data_Er2TaB2Ir2Ru3
_symmetry_space_group_name_H-M   'P 1'
_cell_length_a   9.70591800
_cell_length_b   9.69879900
_cell_length_c   3.11423000
_cell_angle_alpha   90.00000000
_cell_angle_beta   90.00000000
_cell_angle_gamma   90.00000000
_symmetry_Int_Tables_number   1
_chemical_formula_structural   Er2TaB2Ir2Ru3
_chemical_formula_sum   'Er4 Ta2 B4 Ir4 Ru6'
_cell_volume   293.16036985
_cell_formula_units_Z   2
loop_
 _symmetry_equiv_pos_site_id
 _symmetry_equiv_pos_as_xyz
  1  'x, y, z'
loop_
 _atom_site_type_symbol
 _atom_site_label
 _atom_site_symmetry_multiplicity
 _atom_site_fract_x
 _atom_site_fract_y
 _atom_site_fract_z
 _atom_site_occupancy
  Er  Er0  1  0.825161  0.674654  0.000000  1
  Er  Er1  1  0.174839  0.325346  0.000000  1
  Er  Er2  1  0.325161  0.825346  0.000000  1
  Er  Er3  1  0.674839  0.174654  0.000000  1
  Ta  Ta4  1  0.500000  0.500000  0.000000  1
  Ta  Ta5  1  0.000000  0.000000  0.000000  1
  B  B6  1  0.623851  0.885761  0.000000  1
  B  B7  1  0.376149  0.114239  0.000000  1
  B  B8  1  0.123851  0.614239  0.000000  1
  B  B9  1  0.876149  0.385761  0.000000  1
  Ir  Ir10  1  0.570946  0.720180  0.500000  1
  Ir  Ir11  1  0.429054  0.279820  0.500000  1
  Ir  Ir12  1  0.070946  0.779820  0.500000  1
  Ir  Ir13  1  0.929054  0.220180  0.500000  1
  Ru  Ru14  1  0.282366  0.569994  0.500000  1
  Ru  Ru15  1  0.717634  0.430006  0.500000  1
  Ru  Ru16  1  0.217634  0.069994  0.500000  1
  Ru  Ru17  1  0.782366  0.930006  0.500000  1
  Ru  Ru18  1  0.500000  0.000000  0.500000  1
  Ru  Ru19  1  0.000000  0.500000  0.500000  1
