# generated using pymatgen
data_Hf4Zn(B7Ir6)2
_symmetry_space_group_name_H-M   'P 1'
_cell_length_a   3.45029661
_cell_length_b   7.78105157
_cell_length_c   13.44636773
_cell_angle_alpha   89.98672661
_cell_angle_beta   90.02502447
_cell_angle_gamma   90.04191532
_symmetry_Int_Tables_number   1
_chemical_formula_structural   Hf4Zn(B7Ir6)2
_chemical_formula_sum   'Hf4 Zn1 B14 Ir12'
_cell_volume   360.99363114
_cell_formula_units_Z   1
loop_
 _symmetry_equiv_pos_site_id
 _symmetry_equiv_pos_as_xyz
  1  'x, y, z'
loop_
 _atom_site_type_symbol
 _atom_site_label
 _atom_site_symmetry_multiplicity
 _atom_site_fract_x
 _atom_site_fract_y
 _atom_site_fract_z
 _atom_site_occupancy
  Hf  Hf0  1  0.251230  0.497140  0.833903  1
  Hf  Hf1  1  0.252480  0.001768  0.332543  1
  Hf  Hf2  1  0.747520  0.998232  0.667457  1
  Hf  Hf3  1  0.748770  0.502860  0.166097  1
  Zn  Zn4  1  0.500000  0.500000  0.500000  1
  B  B5  1  0.500000  0.000000  0.000000  1
  B  B6  1  0.000000  0.000000  0.000000  1
  B  B7  1  0.752454  0.325402  0.728182  1
  B  B8  1  0.752347  0.829199  0.221116  1
  B  B9  1  0.751455  0.752864  0.803545  1
  B  B10  1  0.752616  0.246876  0.299110  1
  B  B11  1  0.750057  0.425716  0.974556  1
  B  B12  1  0.754921  0.919839  0.473924  1
  B  B13  1  0.247653  0.170801  0.778884  1
  B  B14  1  0.247546  0.674598  0.271818  1
  B  B15  1  0.247384  0.753124  0.700890  1
  B  B16  1  0.248545  0.247136  0.196455  1
  B  B17  1  0.245079  0.080161  0.526076  1
  B  B18  1  0.249943  0.574284  0.025444  1
  Ir  Ir19  1  0.748176  0.592345  0.677577  1
  Ir  Ir20  1  0.749456  0.087793  0.162058  1
  Ir  Ir21  1  0.750491  0.703148  0.961403  1
  Ir  Ir22  1  0.747774  0.195023  0.458253  1
  Ir  Ir23  1  0.748946  0.203847  0.876335  1
  Ir  Ir24  1  0.748716  0.714531  0.363764  1
  Ir  Ir25  1  0.250544  0.912207  0.837942  1
  Ir  Ir26  1  0.251824  0.407655  0.322423  1
  Ir  Ir27  1  0.252226  0.804977  0.541747  1
  Ir  Ir28  1  0.249509  0.296852  0.038597  1
  Ir  Ir29  1  0.251284  0.285469  0.636236  1
  Ir  Ir30  1  0.251054  0.796153  0.123665  1
