# generated using pymatgen
data_YbDy3Ni13C4
_symmetry_space_group_name_H-M   'P 1'
_cell_length_a   8.35062990
_cell_length_b   8.35063045
_cell_length_c   3.84421900
_cell_angle_alpha   90.00000000
_cell_angle_beta   90.00000000
_cell_angle_gamma   91.08391604
_symmetry_Int_Tables_number   1
_chemical_formula_structural   YbDy3Ni13C4
_chemical_formula_sum   'Yb1 Dy3 Ni13 C4'
_cell_volume   268.02104922
_cell_formula_units_Z   1
loop_
 _symmetry_equiv_pos_site_id
 _symmetry_equiv_pos_as_xyz
  1  'x, y, z'
loop_
 _atom_site_type_symbol
 _atom_site_label
 _atom_site_symmetry_multiplicity
 _atom_site_fract_x
 _atom_site_fract_y
 _atom_site_fract_z
 _atom_site_occupancy
  Yb  Yb0  1  0.191488  0.808512  0.500000  1
  Dy  Dy1  1  0.812830  0.187170  0.500000  1
  Dy  Dy2  1  0.346144  0.348601  0.500000  1
  Dy  Dy3  1  0.651399  0.653856  0.500000  1
  Ni  Ni4  1  0.000366  0.999634  0.000000  1
  Ni  Ni5  1  0.215667  0.570910  0.000000  1
  Ni  Ni6  1  0.784595  0.431271  0.000000  1
  Ni  Ni7  1  0.429090  0.784333  0.000000  1
  Ni  Ni8  1  0.568729  0.215405  0.000000  1
  Ni  Ni9  1  0.998431  0.500839  0.500000  1
  Ni  Ni10  1  0.499161  0.001569  0.500000  1
  Ni  Ni11  1  0.073041  0.290832  0.000000  1
  Ni  Ni12  1  0.925094  0.710208  0.000000  1
  Ni  Ni13  1  0.709168  0.926959  0.000000  1
  Ni  Ni14  1  0.289792  0.074906  0.000000  1
  Ni  Ni15  1  0.124460  0.117443  0.500000  1
  Ni  Ni16  1  0.882557  0.875540  0.500000  1
  C  C17  1  0.000673  0.501925  0.000000  1
  C  C18  1  0.498075  0.999327  0.000000  1
  C  C19  1  0.442534  0.557466  0.000000  1
  C  C20  1  0.556705  0.443295  0.000000  1
