# generated using pymatgen
data_Sc4Al24OsPt8
_symmetry_space_group_name_H-M   'P 1'
_cell_length_a   7.44604208
_cell_length_b   7.48160666
_cell_length_c   13.06206657
_cell_angle_alpha   84.77276636
_cell_angle_beta   79.19462559
_cell_angle_gamma   59.87153983
_symmetry_Int_Tables_number   1
_chemical_formula_structural   Sc4Al24OsPt8
_chemical_formula_sum   'Sc4 Al24 Os1 Pt8'
_cell_volume   618.19756397
_cell_formula_units_Z   1
loop_
 _symmetry_equiv_pos_site_id
 _symmetry_equiv_pos_as_xyz
  1  'x, y, z'
loop_
 _atom_site_type_symbol
 _atom_site_label
 _atom_site_symmetry_multiplicity
 _atom_site_fract_x
 _atom_site_fract_y
 _atom_site_fract_z
 _atom_site_occupancy
  Sc  Sc0  1  0.391641  0.170506  0.810096  1
  Sc  Sc1  1  0.608359  0.829494  0.189904  1
  Sc  Sc2  1  0.734974  0.498528  0.810163  1
  Sc  Sc3  1  0.265026  0.501472  0.189837  1
  Al  Al4  1  0.685816  0.829615  0.943661  1
  Al  Al5  1  0.314184  0.170385  0.056339  1
  Al  Al6  1  0.145800  0.832093  0.563102  1
  Al  Al7  1  0.854200  0.167907  0.436898  1
  Al  Al8  1  0.479811  0.167094  0.560537  1
  Al  Al9  1  0.520189  0.832906  0.439463  1
  Al  Al10  1  0.222135  0.164297  0.321398  1
  Al  Al11  1  0.777865  0.835703  0.678602  1
  Al  Al12  1  0.437119  0.505285  0.678790  1
  Al  Al13  1  0.562881  0.494715  0.321210  1
  Al  Al14  1  0.107810  0.163561  0.675673  1
  Al  Al15  1  0.892190  0.836439  0.324327  1
  Al  Al16  1  0.351949  0.496416  0.943694  1
  Al  Al17  1  0.648051  0.503584  0.056306  1
  Al  Al18  1  0.016476  0.174805  0.950970  1
  Al  Al19  1  0.983524  0.825195  0.049030  1
  Al  Al20  1  0.187125  0.498766  0.439527  1
  Al  Al21  1  0.812875  0.501234  0.560473  1
  Al  Al22  1  0.729395  0.162699  0.182834  1
  Al  Al23  1  0.270605  0.837301  0.817166  1
  Al  Al24  1  0.060825  0.623865  0.818201  1
  Al  Al25  1  0.939175  0.376135  0.181799  1
  Al  Al26  1  0.851096  0.047512  0.816820  1
  Al  Al27  1  0.148904  0.952488  0.183181  1
  Os  Os28  1  0.000000  0.500000  0.000000  1
  Pt  Pt29  1  0.120204  0.492667  0.638836  1
  Pt  Pt30  1  0.879796  0.507333  0.361164  1
  Pt  Pt31  1  0.657453  0.171176  0.999926  1
  Pt  Pt32  1  0.342547  0.828824  0.000074  1
  Pt  Pt33  1  0.536654  0.166504  0.361654  1
  Pt  Pt34  1  0.463346  0.833496  0.638346  1
  Pt  Pt35  1  0.778510  0.175713  0.637179  1
  Pt  Pt36  1  0.221490  0.824287  0.362821  1
