# generated using pymatgen
data_La4Pr2In7Sn3
_symmetry_space_group_name_H-M   'P 1'
_cell_length_a   6.65461700
_cell_length_b   6.67731124
_cell_length_c   10.44638900
_cell_angle_alpha   90.00000000
_cell_angle_beta   90.00000000
_cell_angle_gamma   102.42306665
_symmetry_Int_Tables_number   1
_chemical_formula_structural   La4Pr2In7Sn3
_chemical_formula_sum   'La4 Pr2 In7 Sn3'
_cell_volume   453.31622290
_cell_formula_units_Z   1
loop_
 _symmetry_equiv_pos_site_id
 _symmetry_equiv_pos_as_xyz
  1  'x, y, z'
loop_
 _atom_site_type_symbol
 _atom_site_label
 _atom_site_symmetry_multiplicity
 _atom_site_fract_x
 _atom_site_fract_y
 _atom_site_fract_z
 _atom_site_occupancy
  La  La0  1  0.204833  0.789971  0.502261  1
  La  La1  1  0.204833  0.789971  0.997739  1
  La  La2  1  0.796434  0.211326  0.501636  1
  La  La3  1  0.796434  0.211326  0.998364  1
  Pr  Pr4  1  0.631531  0.623532  0.250000  1
  Pr  Pr5  1  0.368452  0.373209  0.750000  1
  In  In6  1  0.009090  0.014396  0.250000  1
  In  In7  1  0.983780  0.986230  0.750000  1
  In  In8  1  0.309763  0.302393  0.051491  1
  In  In9  1  0.691214  0.698226  0.952843  1
  In  In10  1  0.309763  0.302393  0.448509  1
  In  In11  1  0.691214  0.698226  0.547157  1
  In  In12  1  0.496512  0.064076  0.250000  1
  Sn  Sn13  1  0.925488  0.509409  0.750000  1
  Sn  Sn14  1  0.504967  0.930361  0.750000  1
  Sn  Sn15  1  0.075694  0.494953  0.250000  1
