# generated using pymatgen
data_Nd2Th(InPt)3
_symmetry_space_group_name_H-M   'P 1'
_cell_length_a   7.75459378
_cell_length_b   7.78413282
_cell_length_c   4.05556300
_cell_angle_alpha   90.00000000
_cell_angle_beta   90.00000000
_cell_angle_gamma   120.12608351
_symmetry_Int_Tables_number   1
_chemical_formula_structural   Nd2Th(InPt)3
_chemical_formula_sum   'Nd2 Th1 In3 Pt3'
_cell_volume   211.73755741
_cell_formula_units_Z   1
loop_
 _symmetry_equiv_pos_site_id
 _symmetry_equiv_pos_as_xyz
  1  'x, y, z'
loop_
 _atom_site_type_symbol
 _atom_site_label
 _atom_site_symmetry_multiplicity
 _atom_site_fract_x
 _atom_site_fract_y
 _atom_site_fract_z
 _atom_site_occupancy
  Nd  Nd0  1  0.592010  0.001603  0.500000  1
  Nd  Nd1  1  0.407990  0.409594  0.500000  1
  Th  Th2  1  0.000000  0.588998  0.500000  1
  In  In3  1  0.000000  0.244295  0.000000  1
  In  In4  1  0.260768  0.008543  0.000000  1
  In  In5  1  0.739232  0.747775  0.000000  1
  Pt  Pt6  1  0.000000  0.988856  0.500000  1
  Pt  Pt7  1  0.683110  0.346722  0.000000  1
  Pt  Pt8  1  0.316890  0.663613  0.000000  1
