# generated using pymatgen
data_LiEuP2Rh
_symmetry_space_group_name_H-M   'P 1'
_cell_length_a   5.79366329
_cell_length_b   5.79366324
_cell_length_c   5.79366308
_cell_angle_alpha   139.46383354
_cell_angle_beta   139.46383489
_cell_angle_gamma   58.66830193
_symmetry_Int_Tables_number   1
_chemical_formula_structural   LiEuP2Rh
_chemical_formula_sum   'Li1 Eu1 P2 Rh1'
_cell_volume   81.37931979
_cell_formula_units_Z   1
loop_
 _symmetry_equiv_pos_site_id
 _symmetry_equiv_pos_as_xyz
  1  'x, y, z'
loop_
 _atom_site_type_symbol
 _atom_site_label
 _atom_site_symmetry_multiplicity
 _atom_site_fract_x
 _atom_site_fract_y
 _atom_site_fract_z
 _atom_site_occupancy
  Li  Li0  1  0.750000  0.250000  0.500000  1
  Eu  Eu1  1  0.000000  0.000000  0.000000  1
  P  P2  1  0.614769  0.614769  0.000000  1
  P  P3  1  0.385231  0.385231  0.000000  1
  Rh  Rh4  1  0.250000  0.750000  0.500000  1
