# generated using pymatgen
data_TiNb2(CrP)3
_symmetry_space_group_name_H-M   'P 1'
_cell_length_a   6.48883549
_cell_length_b   6.43984666
_cell_length_c   3.30246300
_cell_angle_alpha   90.00000000
_cell_angle_beta   90.00000000
_cell_angle_gamma   119.75056873
_symmetry_Int_Tables_number   1
_chemical_formula_structural   TiNb2(CrP)3
_chemical_formula_sum   'Ti1 Nb2 Cr3 P3'
_cell_volume   119.81107790
_cell_formula_units_Z   1
loop_
 _symmetry_equiv_pos_site_id
 _symmetry_equiv_pos_as_xyz
  1  'x, y, z'
loop_
 _atom_site_type_symbol
 _atom_site_label
 _atom_site_symmetry_multiplicity
 _atom_site_fract_x
 _atom_site_fract_y
 _atom_site_fract_z
 _atom_site_occupancy
  Ti  Ti0  1  0.000000  0.596050  0.500000  1
  Nb  Nb1  1  0.405276  0.403513  0.500000  1
  Nb  Nb2  1  0.594724  0.998237  0.500000  1
  Cr  Cr3  1  0.000000  0.252140  0.000000  1
  Cr  Cr4  1  0.249870  0.998860  0.000000  1
  Cr  Cr5  1  0.750130  0.748990  0.000000  1
  P  P6  1  0.674943  0.339460  0.000000  1
  P  P7  1  0.325057  0.664519  0.000000  1
  P  P8  1  0.000000  0.998231  0.500000  1
