# generated using pymatgen
data_IrRuBr18
_symmetry_space_group_name_H-M   'P 1'
_cell_length_a   9.07201336
_cell_length_b   9.07201413
_cell_length_c   9.07201424
_cell_angle_alpha   91.35096661
_cell_angle_beta   91.35094613
_cell_angle_gamma   91.35096044
_symmetry_Int_Tables_number   1
_chemical_formula_structural   IrRuBr18
_chemical_formula_sum   'Ir1 Ru1 Br18'
_cell_volume   746.00719348
_cell_formula_units_Z   1
loop_
 _symmetry_equiv_pos_site_id
 _symmetry_equiv_pos_as_xyz
  1  'x, y, z'
loop_
 _atom_site_type_symbol
 _atom_site_label
 _atom_site_symmetry_multiplicity
 _atom_site_fract_x
 _atom_site_fract_y
 _atom_site_fract_z
 _atom_site_occupancy
  Ir  Ir0  1  0.500000  0.500000  0.500000  1
  Ru  Ru1  1  0.000000  0.000000  0.000000  1
  Br  Br2  1  0.725282  0.980829  0.017987  1
  Br  Br3  1  0.743693  0.130096  0.617020  1
  Br  Br4  1  0.017987  0.725282  0.980829  1
  Br  Br5  1  0.256307  0.869904  0.382980  1
  Br  Br6  1  0.130096  0.617020  0.743693  1
  Br  Br7  1  0.019171  0.982013  0.274718  1
  Br  Br8  1  0.617020  0.743693  0.130096  1
  Br  Br9  1  0.982013  0.274718  0.019171  1
  Br  Br10  1  0.869904  0.382980  0.256307  1
  Br  Br11  1  0.382980  0.256307  0.869904  1
  Br  Br12  1  0.980829  0.017987  0.725282  1
  Br  Br13  1  0.274718  0.019171  0.982013  1
  Br  Br14  1  0.774320  0.527537  0.485383  1
  Br  Br15  1  0.514617  0.225680  0.472463  1
  Br  Br16  1  0.472463  0.514617  0.225680  1
  Br  Br17  1  0.485383  0.774320  0.527537  1
  Br  Br18  1  0.527537  0.485383  0.774320  1
  Br  Br19  1  0.225680  0.472463  0.514617  1
