# generated using pymatgen
data_Lu3(B3Ir4)2
_symmetry_space_group_name_H-M   'P 1'
_cell_length_a   9.98101399
_cell_length_b   9.17905084
_cell_length_c   5.51894175
_cell_angle_alpha   81.43286655
_cell_angle_beta   65.42114921
_cell_angle_gamma   33.14598299
_symmetry_Int_Tables_number   1
_chemical_formula_structural   Lu3(B3Ir4)2
_chemical_formula_sum   'Lu3 B6 Ir8'
_cell_volume   230.33415987
_cell_formula_units_Z   1
loop_
 _symmetry_equiv_pos_site_id
 _symmetry_equiv_pos_as_xyz
  1  'x, y, z'
loop_
 _atom_site_type_symbol
 _atom_site_label
 _atom_site_symmetry_multiplicity
 _atom_site_fract_x
 _atom_site_fract_y
 _atom_site_fract_z
 _atom_site_occupancy
  Lu  Lu0  1  0.000000  0.000000  0.000000  1
  Lu  Lu1  1  0.177960  0.177960  0.822040  1
  Lu  Lu2  1  0.822040  0.822040  0.177960  1
  B  B3  1  0.822624  0.528411  0.471589  1
  B  B4  1  0.177376  0.471589  0.528411  1
  B  B5  1  0.471589  0.177376  0.822624  1
  B  B6  1  0.672525  0.327475  0.672525  1
  B  B7  1  0.528411  0.822624  0.177376  1
  B  B8  1  0.327475  0.672525  0.327475  1
  Ir  Ir9  1  0.414974  0.414974  0.585026  1
  Ir  Ir10  1  0.587265  0.587265  0.912735  1
  Ir  Ir11  1  0.087265  0.087265  0.412735  1
  Ir  Ir12  1  0.912735  0.912735  0.587265  1
  Ir  Ir13  1  0.585026  0.585026  0.414974  1
  Ir  Ir14  1  0.250000  0.250000  0.250000  1
  Ir  Ir15  1  0.412735  0.412735  0.087265  1
  Ir  Ir16  1  0.750000  0.750000  0.750000  1
