# generated using pymatgen
data_Dy10Cd3Co
_symmetry_space_group_name_H-M   'P 1'
_cell_length_a   9.57176400
_cell_length_b   9.57176505
_cell_length_c   9.78540300
_cell_angle_alpha   90.00000000
_cell_angle_beta   90.00000000
_cell_angle_gamma   119.99999636
_symmetry_Int_Tables_number   1
_chemical_formula_structural   Dy10Cd3Co
_chemical_formula_sum   'Dy20 Cd6 Co2'
_cell_volume   776.41403260
_cell_formula_units_Z   2
loop_
 _symmetry_equiv_pos_site_id
 _symmetry_equiv_pos_as_xyz
  1  'x, y, z'
loop_
 _atom_site_type_symbol
 _atom_site_label
 _atom_site_symmetry_multiplicity
 _atom_site_fract_x
 _atom_site_fract_y
 _atom_site_fract_z
 _atom_site_occupancy
  Dy  Dy0  1  0.000000  0.000000  0.500000  1
  Dy  Dy1  1  0.000000  0.000000  0.000000  1
  Dy  Dy2  1  0.542877  0.457123  0.250000  1
  Dy  Dy3  1  0.542877  0.085753  0.250000  1
  Dy  Dy4  1  0.914247  0.457123  0.250000  1
  Dy  Dy5  1  0.457123  0.542877  0.750000  1
  Dy  Dy6  1  0.457123  0.914247  0.750000  1
  Dy  Dy7  1  0.085753  0.542877  0.750000  1
  Dy  Dy8  1  0.212014  0.787986  0.436233  1
  Dy  Dy9  1  0.212014  0.424030  0.436233  1
  Dy  Dy10  1  0.575970  0.787986  0.436233  1
  Dy  Dy11  1  0.787986  0.212014  0.563767  1
  Dy  Dy12  1  0.787986  0.575970  0.563767  1
  Dy  Dy13  1  0.424030  0.212014  0.563767  1
  Dy  Dy14  1  0.787986  0.212014  0.936233  1
  Dy  Dy15  1  0.787986  0.575970  0.936233  1
  Dy  Dy16  1  0.424030  0.212014  0.936233  1
  Dy  Dy17  1  0.212014  0.787986  0.063767  1
  Dy  Dy18  1  0.212014  0.424030  0.063767  1
  Dy  Dy19  1  0.575970  0.787986  0.063767  1
  Cd  Cd20  1  0.885038  0.114962  0.250000  1
  Cd  Cd21  1  0.885038  0.770076  0.250000  1
  Cd  Cd22  1  0.229924  0.114962  0.250000  1
  Cd  Cd23  1  0.114962  0.885038  0.750000  1
  Cd  Cd24  1  0.114962  0.229924  0.750000  1
  Cd  Cd25  1  0.770076  0.885038  0.750000  1
  Co  Co26  1  0.333333  0.666667  0.250000  1
  Co  Co27  1  0.666667  0.333333  0.750000  1
