# generated using pymatgen
data_Yb2NiIrO6
_symmetry_space_group_name_H-M   'P 1'
_cell_length_a   5.59789100
_cell_length_b   5.32313229
_cell_length_c   9.24911447
_cell_angle_alpha   55.39942474
_cell_angle_beta   90.00000000
_cell_angle_gamma   90.00000000
_symmetry_Int_Tables_number   1
_chemical_formula_structural   Yb2NiIrO6
_chemical_formula_sum   'Yb4 Ni2 Ir2 O12'
_cell_volume   226.86141367
_cell_formula_units_Z   2
loop_
 _symmetry_equiv_pos_site_id
 _symmetry_equiv_pos_as_xyz
  1  'x, y, z'
loop_
 _atom_site_type_symbol
 _atom_site_label
 _atom_site_symmetry_multiplicity
 _atom_site_fract_x
 _atom_site_fract_y
 _atom_site_fract_z
 _atom_site_occupancy
  Yb  Yb0  1  0.930994  0.226846  0.752784  1
  Yb  Yb1  1  0.430994  0.773154  0.747216  1
  Yb  Yb2  1  0.569006  0.226846  0.252784  1
  Yb  Yb3  1  0.069006  0.773154  0.247216  1
  Ni  Ni4  1  0.500000  0.000000  0.000000  1
  Ni  Ni5  1  0.000000  0.000000  0.500000  1
  Ir  Ir6  1  0.500000  0.500000  0.500000  1
  Ir  Ir7  1  0.000000  0.500000  0.000000  1
  O  O8  1  0.467360  0.639554  0.255241  1
  O  O9  1  0.191629  0.849241  0.949566  1
  O  O10  1  0.208472  0.257616  0.556596  1
  O  O11  1  0.708472  0.742384  0.943404  1
  O  O12  1  0.691629  0.150759  0.550434  1
  O  O13  1  0.967360  0.360446  0.244759  1
  O  O14  1  0.032640  0.639554  0.755241  1
  O  O15  1  0.308371  0.849241  0.449566  1
  O  O16  1  0.291528  0.257616  0.056596  1
  O  O17  1  0.808371  0.150759  0.050434  1
  O  O18  1  0.791528  0.742384  0.443404  1
  O  O19  1  0.532640  0.360446  0.744759  1
