# generated using pymatgen
data_Sr5GaOsN7
_symmetry_space_group_name_H-M   'P 1'
_cell_length_a   6.42211520
_cell_length_b   9.11155207
_cell_length_c   9.43541039
_cell_angle_alpha   113.04966319
_cell_angle_beta   99.25036080
_cell_angle_gamma   89.83469694
_symmetry_Int_Tables_number   1
_chemical_formula_structural   Sr5GaOsN7
_chemical_formula_sum   'Sr10 Ga2 Os2 N14'
_cell_volume   500.33508481
_cell_formula_units_Z   2
loop_
 _symmetry_equiv_pos_site_id
 _symmetry_equiv_pos_as_xyz
  1  'x, y, z'
loop_
 _atom_site_type_symbol
 _atom_site_label
 _atom_site_symmetry_multiplicity
 _atom_site_fract_x
 _atom_site_fract_y
 _atom_site_fract_z
 _atom_site_occupancy
  Sr  Sr0  1  0.852563  0.589081  0.361788  1
  Sr  Sr1  1  0.269920  0.969351  0.557311  1
  Sr  Sr2  1  0.687588  0.401273  0.828482  1
  Sr  Sr3  1  0.312412  0.598727  0.171518  1
  Sr  Sr4  1  0.386269  0.775803  0.880532  1
  Sr  Sr5  1  0.613731  0.224197  0.119468  1
  Sr  Sr6  1  0.147437  0.410919  0.638212  1
  Sr  Sr7  1  0.858773  0.823277  0.742047  1
  Sr  Sr8  1  0.141227  0.176723  0.257953  1
  Sr  Sr9  1  0.730080  0.030649  0.442689  1
  Ga  Ga10  1  0.583717  0.361155  0.478791  1
  Ga  Ga11  1  0.416283  0.638845  0.521209  1
  Os  Os12  1  0.125891  0.223052  0.915858  1
  Os  Os13  1  0.874109  0.776948  0.084142  1
  N  N14  1  0.575564  0.564356  0.678755  1
  N  N15  1  0.424436  0.435644  0.321245  1
  N  N16  1  0.149724  0.707383  0.600765  1
  N  N17  1  0.850276  0.292617  0.399235  1
  N  N18  1  0.415404  0.195664  0.504473  1
  N  N19  1  0.584596  0.804336  0.495527  1
  N  N20  1  0.964364  0.153448  0.723144  1
  N  N21  1  0.035636  0.846552  0.276856  1
  N  N22  1  0.231539  0.059241  0.962340  1
  N  N23  1  0.768461  0.940759  0.037660  1
  N  N24  1  0.349528  0.344953  0.920070  1
  N  N25  1  0.967242  0.339446  0.058526  1
  N  N26  1  0.032758  0.660554  0.941474  1
  N  N27  1  0.650472  0.655047  0.079930  1
