# generated using pymatgen
data_Sr4In2PtRh3
_symmetry_space_group_name_H-M   'P 1'
_cell_length_a   6.10433519
_cell_length_b   6.09027196
_cell_length_c   8.18647188
_cell_angle_alpha   78.61178552
_cell_angle_beta   78.29222029
_cell_angle_gamma   59.45121329
_symmetry_Int_Tables_number   1
_chemical_formula_structural   Sr4In2PtRh3
_chemical_formula_sum   'Sr4 In2 Pt1 Rh3'
_cell_volume   255.04098063
_cell_formula_units_Z   1
loop_
 _symmetry_equiv_pos_site_id
 _symmetry_equiv_pos_as_xyz
  1  'x, y, z'
loop_
 _atom_site_type_symbol
 _atom_site_label
 _atom_site_symmetry_multiplicity
 _atom_site_fract_x
 _atom_site_fract_y
 _atom_site_fract_z
 _atom_site_occupancy
  Sr  Sr0  1  0.505841  0.788392  0.352694  1
  Sr  Sr1  1  0.212331  0.495235  0.144862  1
  Sr  Sr2  1  0.493514  0.210845  0.646861  1
  Sr  Sr3  1  0.789515  0.505113  0.854874  1
  In  In4  1  0.890203  0.107084  0.246431  1
  In  In5  1  0.111353  0.884447  0.754445  1
  Pt  Pt6  1  0.994800  0.290835  0.493428  1
  Rh  Rh7  1  0.290160  0.994463  0.991905  1
  Rh  Rh8  1  0.005014  0.717578  0.507214  1
  Rh  Rh9  1  0.707268  0.006007  0.007287  1
