# generated using pymatgen
data_SrLaPr4NdIrBr12
_symmetry_space_group_name_H-M   'P 1'
_cell_length_a   9.72190430
_cell_length_b   9.60187834
_cell_length_c   9.73230613
_cell_angle_alpha   106.12098129
_cell_angle_beta   106.18140038
_cell_angle_gamma   106.70864016
_symmetry_Int_Tables_number   1
_chemical_formula_structural   SrLaPr4NdIrBr12
_chemical_formula_sum   'Sr1 La1 Pr4 Nd1 Ir1 Br12'
_cell_volume   769.85951489
_cell_formula_units_Z   1
loop_
 _symmetry_equiv_pos_site_id
 _symmetry_equiv_pos_as_xyz
  1  'x, y, z'
loop_
 _atom_site_type_symbol
 _atom_site_label
 _atom_site_symmetry_multiplicity
 _atom_site_fract_x
 _atom_site_fract_y
 _atom_site_fract_z
 _atom_site_occupancy
  Sr  Sr0  1  0.500361  0.499221  0.499827  1
  La  La1  1  0.103437  0.306764  0.019043  1
  Pr  Pr2  1  0.018836  0.105594  0.314408  1
  Pr  Pr3  1  0.980559  0.893195  0.684972  1
  Pr  Pr4  1  0.683918  0.980107  0.894100  1
  Pr  Pr5  1  0.897501  0.696136  0.980983  1
  Nd  Nd6  1  0.314064  0.020588  0.105663  1
  Ir  Ir7  1  0.001221  0.003435  0.999904  1
  Br  Br8  1  0.216595  0.682661  0.073477  1
  Br  Br9  1  0.451982  0.364964  0.154268  1
  Br  Br10  1  0.679332  0.072524  0.215694  1
  Br  Br11  1  0.926899  0.781810  0.318997  1
  Br  Br12  1  0.155471  0.450632  0.369500  1
  Br  Br13  1  0.365340  0.150396  0.446214  1
  Br  Br14  1  0.634555  0.847718  0.551581  1
  Br  Br15  1  0.845642  0.549523  0.634336  1
  Br  Br16  1  0.072426  0.215607  0.677533  1
  Br  Br17  1  0.319248  0.927022  0.786287  1
  Br  Br18  1  0.550962  0.632305  0.846860  1
  Br  Br19  1  0.781656  0.319803  0.926359  1
