# generated using pymatgen
data_AcSbRhO
_symmetry_space_group_name_H-M   'P 1'
_cell_length_a   4.37406800
_cell_length_b   4.37406800
_cell_length_c   9.13195400
_cell_angle_alpha   90.00000000
_cell_angle_beta   90.00000000
_cell_angle_gamma   90.00000000
_symmetry_Int_Tables_number   1
_chemical_formula_structural   AcSbRhO
_chemical_formula_sum   'Ac2 Sb2 Rh2 O2'
_cell_volume   174.71684388
_cell_formula_units_Z   2
loop_
 _symmetry_equiv_pos_site_id
 _symmetry_equiv_pos_as_xyz
  1  'x, y, z'
loop_
 _atom_site_type_symbol
 _atom_site_label
 _atom_site_symmetry_multiplicity
 _atom_site_fract_x
 _atom_site_fract_y
 _atom_site_fract_z
 _atom_site_occupancy
  Ac  Ac0  1  0.250002  0.250002  0.133182  1
  Ac  Ac1  1  0.750002  0.750002  0.866820  1
  Sb  Sb2  1  0.750002  0.750002  0.342515  1
  Sb  Sb3  1  0.250002  0.250002  0.657486  1
  Rh  Rh4  1  0.750004  0.250002  0.500000  1
  Rh  Rh5  1  0.250002  0.750004  0.500000  1
  O  O6  1  0.750004  0.250002  0.000000  1
  O  O7  1  0.250002  0.750004  0.000000  1
