# generated using pymatgen
data_TbNi3P2
_symmetry_space_group_name_H-M   'P 1'
_cell_length_a   3.78864900
_cell_length_b   10.48346000
_cell_length_c   12.34212700
_cell_angle_alpha   90.00000000
_cell_angle_beta   90.00000000
_cell_angle_gamma   90.00000000
_symmetry_Int_Tables_number   1
_chemical_formula_structural   TbNi3P2
_chemical_formula_sum   'Tb6 Ni18 P12'
_cell_volume   490.20645454
_cell_formula_units_Z   6
loop_
 _symmetry_equiv_pos_site_id
 _symmetry_equiv_pos_as_xyz
  1  'x, y, z'
loop_
 _atom_site_type_symbol
 _atom_site_label
 _atom_site_symmetry_multiplicity
 _atom_site_fract_x
 _atom_site_fract_y
 _atom_site_fract_z
 _atom_site_occupancy
  Tb  Tb0  1  0.752296  0.000000  0.478888  1
  Tb  Tb1  1  0.252296  0.500000  0.521112  1
  Tb  Tb2  1  0.251883  0.684117  0.794547  1
  Tb  Tb3  1  0.251883  0.315883  0.794547  1
  Tb  Tb4  1  0.751883  0.815883  0.205453  1
  Tb  Tb5  1  0.751883  0.184117  0.205453  1
  Ni  Ni6  1  0.751633  0.000000  0.016169  1
  Ni  Ni7  1  0.251633  0.500000  0.983831  1
  Ni  Ni8  1  0.252348  0.199470  0.570988  1
  Ni  Ni9  1  0.252348  0.800530  0.570988  1
  Ni  Ni10  1  0.752348  0.300530  0.429012  1
  Ni  Ni11  1  0.752348  0.699470  0.429012  1
  Ni  Ni12  1  0.251698  0.620073  0.289162  1
  Ni  Ni13  1  0.251698  0.379927  0.289162  1
  Ni  Ni14  1  0.751698  0.879927  0.710838  1
  Ni  Ni15  1  0.751698  0.120073  0.710838  1
  Ni  Ni16  1  0.251469  0.167226  0.004153  1
  Ni  Ni17  1  0.251469  0.832774  0.004153  1
  Ni  Ni18  1  0.751469  0.332774  0.995847  1
  Ni  Ni19  1  0.751469  0.667226  0.995847  1
  Ni  Ni20  1  0.250695  0.000000  0.841584  1
  Ni  Ni21  1  0.750695  0.500000  0.158416  1
  Ni  Ni22  1  0.252274  0.000000  0.299815  1
  Ni  Ni23  1  0.752274  0.500000  0.700185  1
  P  P24  1  0.252238  0.187373  0.385655  1
  P  P25  1  0.252238  0.812627  0.385655  1
  P  P26  1  0.752238  0.312627  0.614345  1
  P  P27  1  0.752238  0.687373  0.614345  1
  P  P28  1  0.251817  0.000000  0.123031  1
  P  P29  1  0.751817  0.500000  0.876969  1
  P  P30  1  0.251493  0.651394  0.107045  1
  P  P31  1  0.251493  0.348606  0.107045  1
  P  P32  1  0.751493  0.848606  0.892955  1
  P  P33  1  0.751493  0.151394  0.892955  1
  P  P34  1  0.251827  0.000000  0.656634  1
  P  P35  1  0.751827  0.500000  0.343366  1
