# generated using pymatgen
data_Co5Ni3RuSe8
_symmetry_space_group_name_H-M   'P 1'
_cell_length_a   7.38119392
_cell_length_b   7.38119348
_cell_length_c   7.38119420
_cell_angle_alpha   60.07609877
_cell_angle_beta   60.07610295
_cell_angle_gamma   60.07609596
_symmetry_Int_Tables_number   1
_chemical_formula_structural   Co5Ni3RuSe8
_chemical_formula_sum   'Co5 Ni3 Ru1 Se8'
_cell_volume   284.84798271
_cell_formula_units_Z   1
loop_
 _symmetry_equiv_pos_site_id
 _symmetry_equiv_pos_as_xyz
  1  'x, y, z'
loop_
 _atom_site_type_symbol
 _atom_site_label
 _atom_site_symmetry_multiplicity
 _atom_site_fract_x
 _atom_site_fract_y
 _atom_site_fract_z
 _atom_site_occupancy
  Co  Co0  1  0.122408  0.122408  0.122408  1
  Co  Co1  1  0.367354  0.877422  0.877422  1
  Co  Co2  1  0.877422  0.367354  0.877422  1
  Co  Co3  1  0.877422  0.877422  0.367354  1
  Co  Co4  1  0.876536  0.876536  0.876536  1
  Ni  Ni5  1  0.627898  0.124454  0.124454  1
  Ni  Ni6  1  0.124454  0.627898  0.124454  1
  Ni  Ni7  1  0.124454  0.124454  0.627898  1
  Ru  Ru8  1  0.501096  0.501096  0.501096  1
  Se  Se9  1  0.247195  0.247195  0.247195  1
  Se  Se10  1  0.748884  0.748884  0.748884  1
  Se  Se11  1  0.743121  0.261441  0.261441  1
  Se  Se12  1  0.739099  0.260676  0.739099  1
  Se  Se13  1  0.739099  0.739099  0.260676  1
  Se  Se14  1  0.260676  0.739099  0.739099  1
  Se  Se15  1  0.261441  0.743121  0.261441  1
  Se  Se16  1  0.261441  0.261441  0.743121  1
