# generated using pymatgen
data_Pr2Dy6Co3Si12Rh
_symmetry_space_group_name_H-M   'P 1'
_cell_length_a   8.08124500
_cell_length_b   8.08124581
_cell_length_c   8.08956200
_cell_angle_alpha   89.99994328
_cell_angle_beta   90.00000000
_cell_angle_gamma   119.99995984
_symmetry_Int_Tables_number   1
_chemical_formula_structural   Pr2Dy6Co3Si12Rh
_chemical_formula_sum   'Pr2 Dy6 Co3 Si12 Rh1'
_cell_volume   457.52244669
_cell_formula_units_Z   1
loop_
 _symmetry_equiv_pos_site_id
 _symmetry_equiv_pos_as_xyz
  1  'x, y, z'
loop_
 _atom_site_type_symbol
 _atom_site_label
 _atom_site_symmetry_multiplicity
 _atom_site_fract_x
 _atom_site_fract_y
 _atom_site_fract_z
 _atom_site_occupancy
  Pr  Pr0  1  0.000000  0.000000  0.248558  1
  Pr  Pr1  1  0.000000  0.000000  0.751743  1
  Dy  Dy2  1  0.011842  0.505921  0.248516  1
  Dy  Dy3  1  0.494079  0.505920  0.248515  1
  Dy  Dy4  1  0.503605  0.007210  0.749886  1
  Dy  Dy5  1  0.494079  0.988158  0.248515  1
  Dy  Dy6  1  0.503605  0.496396  0.749885  1
  Dy  Dy7  1  0.992790  0.496395  0.749886  1
  Co  Co8  1  0.333333  0.666667  0.969208  1
  Co  Co9  1  0.333333  0.666667  0.530797  1
  Co  Co10  1  0.666667  0.333334  0.030784  1
  Si  Si11  1  0.172996  0.345992  0.001074  1
  Si  Si12  1  0.654008  0.827004  0.001073  1
  Si  Si13  1  0.173441  0.346881  0.498399  1
  Si  Si14  1  0.347162  0.173580  0.998476  1
  Si  Si15  1  0.172996  0.827003  0.001074  1
  Si  Si16  1  0.653119  0.826559  0.498398  1
  Si  Si17  1  0.826419  0.652838  0.998476  1
  Si  Si18  1  0.335489  0.167744  0.503040  1
  Si  Si19  1  0.173441  0.826559  0.498399  1
  Si  Si20  1  0.832256  0.664511  0.503041  1
  Si  Si21  1  0.826419  0.173580  0.998476  1
  Si  Si22  1  0.832256  0.167744  0.503041  1
  Rh  Rh23  1  0.666667  0.333333  0.470737  1
