# generated using pymatgen
data_Er2TmCdIn4
_symmetry_space_group_name_H-M   'P 1'
_cell_length_a   6.31463008
_cell_length_b   6.31462916
_cell_length_c   10.41179500
_cell_angle_alpha   90.00000000
_cell_angle_beta   90.00000000
_cell_angle_gamma   102.31960382
_symmetry_Int_Tables_number   1
_chemical_formula_structural   Er2TmCdIn4
_chemical_formula_sum   'Er4 Tm2 Cd2 In8'
_cell_volume   405.60543830
_cell_formula_units_Z   2
loop_
 _symmetry_equiv_pos_site_id
 _symmetry_equiv_pos_as_xyz
  1  'x, y, z'
loop_
 _atom_site_type_symbol
 _atom_site_label
 _atom_site_symmetry_multiplicity
 _atom_site_fract_x
 _atom_site_fract_y
 _atom_site_fract_z
 _atom_site_occupancy
  Er  Er0  1  0.203847  0.796153  0.500000  1
  Er  Er1  1  0.203847  0.796153  0.000000  1
  Er  Er2  1  0.796153  0.203847  0.500000  1
  Er  Er3  1  0.796153  0.203847  0.000000  1
  Tm  Tm4  1  0.616385  0.616385  0.250000  1
  Tm  Tm5  1  0.383615  0.383615  0.750000  1
  Cd  Cd6  1  0.007413  0.007413  0.250000  1
  Cd  Cd7  1  0.992587  0.992587  0.750000  1
  In  In8  1  0.307148  0.307148  0.042891  1
  In  In9  1  0.692852  0.692852  0.957109  1
  In  In10  1  0.307148  0.307148  0.457109  1
  In  In11  1  0.692852  0.692852  0.542891  1
  In  In12  1  0.512403  0.071785  0.250000  1
  In  In13  1  0.928215  0.487597  0.750000  1
  In  In14  1  0.487597  0.928215  0.750000  1
  In  In15  1  0.071785  0.512403  0.250000  1
