# generated using pymatgen
data_AlPCl14
_symmetry_space_group_name_H-M   'P 1'
_cell_length_a   10.22719300
_cell_length_b   10.52603431
_cell_length_c   11.29179148
_cell_angle_alpha   81.43342209
_cell_angle_beta   90.00277739
_cell_angle_gamma   89.99788444
_symmetry_Int_Tables_number   1
_chemical_formula_structural   AlPCl14
_chemical_formula_sum   'Al2 P2 Cl28'
_cell_volume   1202.01979259
_cell_formula_units_Z   2
loop_
 _symmetry_equiv_pos_site_id
 _symmetry_equiv_pos_as_xyz
  1  'x, y, z'
loop_
 _atom_site_type_symbol
 _atom_site_label
 _atom_site_symmetry_multiplicity
 _atom_site_fract_x
 _atom_site_fract_y
 _atom_site_fract_z
 _atom_site_occupancy
  Al  Al0  1  0.241007  0.328719  0.081756  1
  Al  Al1  1  0.740986  0.671290  0.418243  1
  P  P2  1  0.761425  0.674355  0.918933  1
  P  P3  1  0.261424  0.325643  0.581072  1
  Cl  Cl4  1  0.232435  0.758929  0.363934  1
  Cl  Cl5  1  0.732463  0.241068  0.136046  1
  Cl  Cl6  1  0.743835  0.252969  0.636764  1
  Cl  Cl7  1  0.243783  0.747044  0.863267  1
  Cl  Cl8  1  0.572068  0.052335  0.035221  1
  Cl  Cl9  1  0.072071  0.947664  0.464770  1
  Cl  Cl10  1  0.439940  0.939774  0.964754  1
  Cl  Cl11  1  0.939945  0.060217  0.535252  1
  Cl  Cl12  1  0.810747  0.171310  0.295195  1
  Cl  Cl13  1  0.310765  0.828679  0.204805  1
  Cl  Cl14  1  0.185102  0.829182  0.698400  1
  Cl  Cl15  1  0.685102  0.170813  0.801606  1
  Cl  Cl16  1  0.338885  0.222613  0.232960  1
  Cl  Cl17  1  0.838867  0.777380  0.267047  1
  Cl  Cl18  1  0.670018  0.725813  0.766171  1
  Cl  Cl19  1  0.170026  0.274181  0.733825  1
  Cl  Cl20  1  0.381840  0.403930  0.945918  1
  Cl  Cl21  1  0.881825  0.596063  0.554088  1
  Cl  Cl22  1  0.640079  0.628641  0.051926  1
  Cl  Cl23  1  0.140073  0.371340  0.448064  1
  Cl  Cl24  1  0.872226  0.525075  0.906205  1
  Cl  Cl25  1  0.372209  0.474933  0.593787  1
  Cl  Cl26  1  0.131399  0.485134  0.137062  1
  Cl  Cl27  1  0.631376  0.514878  0.362940  1
  Cl  Cl28  1  0.105850  0.204514  0.002773  1
  Cl  Cl29  1  0.605838  0.795510  0.497217  1
  Cl  Cl30  1  0.873188  0.817267  0.949895  1
  Cl  Cl31  1  0.373201  0.182737  0.550107  1
