# generated using pymatgen
data_YbSm2Y4FeI12
_symmetry_space_group_name_H-M   'P 1'
_cell_length_a   9.78410238
_cell_length_b   9.85368091
_cell_length_c   9.78697809
_cell_angle_alpha   107.14024845
_cell_angle_beta   106.83940277
_cell_angle_gamma   106.76788468
_symmetry_Int_Tables_number   1
_chemical_formula_structural   YbSm2Y4FeI12
_chemical_formula_sum   'Yb1 Sm2 Y4 Fe1 I12'
_cell_volume   787.59292528
_cell_formula_units_Z   1
loop_
 _symmetry_equiv_pos_site_id
 _symmetry_equiv_pos_as_xyz
  1  'x, y, z'
loop_
 _atom_site_type_symbol
 _atom_site_label
 _atom_site_symmetry_multiplicity
 _atom_site_fract_x
 _atom_site_fract_y
 _atom_site_fract_z
 _atom_site_occupancy
  Yb  Yb0  1  0.499984  0.499721  0.500268  1
  Sm  Sm1  1  0.710535  0.975939  0.906934  1
  Sm  Sm2  1  0.975401  0.906013  0.709782  1
  Y  Y3  1  0.098581  0.301491  0.025446  1
  Y  Y4  1  0.285318  0.024633  0.093357  1
  Y  Y5  1  0.903069  0.699198  0.974918  1
  Y  Y6  1  0.024545  0.092863  0.286084  1
  Fe  Fe7  1  0.998580  0.000109  0.997976  1
  I  I8  1  0.073810  0.226973  0.682980  1
  I  I9  1  0.377306  0.151566  0.454358  1
  I  I10  1  0.617168  0.844548  0.539753  1
  I  I11  1  0.225512  0.683282  0.073241  1
  I  I12  1  0.778455  0.322489  0.928757  1
  I  I13  1  0.685564  0.074734  0.229889  1
  I  I14  1  0.544459  0.619325  0.849491  1
  I  I15  1  0.847596  0.541092  0.621736  1
  I  I16  1  0.928468  0.778431  0.316516  1
  I  I17  1  0.319916  0.928155  0.779597  1
  I  I18  1  0.455640  0.375826  0.150669  1
  I  I19  1  0.150093  0.453611  0.378250  1
