# generated using pymatgen
data_ErTm5MgCo17P12
_symmetry_space_group_name_H-M   'P 1'
_cell_length_a   3.69236300
_cell_length_b   10.53689400
_cell_length_c   12.19078300
_cell_angle_alpha   90.00000000
_cell_angle_beta   90.00000000
_cell_angle_gamma   90.00000000
_symmetry_Int_Tables_number   1
_chemical_formula_structural   ErTm5MgCo17P12
_chemical_formula_sum   'Er1 Tm5 Mg1 Co17 P12'
_cell_volume   474.29506105
_cell_formula_units_Z   1
loop_
 _symmetry_equiv_pos_site_id
 _symmetry_equiv_pos_as_xyz
  1  'x, y, z'
loop_
 _atom_site_type_symbol
 _atom_site_label
 _atom_site_symmetry_multiplicity
 _atom_site_fract_x
 _atom_site_fract_y
 _atom_site_fract_z
 _atom_site_occupancy
  Er  Er0  1  0.500000  0.000000  0.477663  1
  Tm  Tm1  1  0.000000  0.500000  0.525846  1
  Tm  Tm2  1  0.500000  0.822217  0.207317  1
  Tm  Tm3  1  0.500000  0.177783  0.207317  1
  Tm  Tm4  1  0.000000  0.682029  0.794558  1
  Tm  Tm5  1  0.000000  0.317971  0.794558  1
  Mg  Mg6  1  0.500000  0.500000  0.154672  1
  Co  Co7  1  0.000000  0.000000  0.837841  1
  Co  Co8  1  0.500000  0.500000  0.704402  1
  Co  Co9  1  0.000000  0.000000  0.295765  1
  Co  Co10  1  0.000000  0.500000  0.986218  1
  Co  Co11  1  0.500000  0.000000  0.012053  1
  Co  Co12  1  0.500000  0.329150  0.992824  1
  Co  Co13  1  0.500000  0.670850  0.992824  1
  Co  Co14  1  0.000000  0.163379  0.001647  1
  Co  Co15  1  0.000000  0.836621  0.001647  1
  Co  Co16  1  0.500000  0.296064  0.433311  1
  Co  Co17  1  0.500000  0.703936  0.433311  1
  Co  Co18  1  0.000000  0.202435  0.570266  1
  Co  Co19  1  0.000000  0.797565  0.570266  1
  Co  Co20  1  0.500000  0.879264  0.708207  1
  Co  Co21  1  0.500000  0.120736  0.708207  1
  Co  Co22  1  0.000000  0.623524  0.293483  1
  Co  Co23  1  0.000000  0.376476  0.293483  1
  P  P24  1  0.500000  0.500000  0.882921  1
  P  P25  1  0.000000  0.000000  0.116587  1
  P  P26  1  0.500000  0.500000  0.355609  1
  P  P27  1  0.000000  0.000000  0.653840  1
  P  P28  1  0.500000  0.310907  0.617848  1
  P  P29  1  0.500000  0.689093  0.617848  1
  P  P30  1  0.000000  0.188331  0.385177  1
  P  P31  1  0.000000  0.811669  0.385177  1
  P  P32  1  0.500000  0.848939  0.889224  1
  P  P33  1  0.500000  0.151061  0.889224  1
  P  P34  1  0.000000  0.663656  0.104428  1
  P  P35  1  0.000000  0.336344  0.104428  1
