# generated using pymatgen
data_SmDy5Rh18
_symmetry_space_group_name_H-M   'P 1'
_cell_length_a   5.26910900
_cell_length_b   5.26910990
_cell_length_c   17.60937400
_cell_angle_alpha   90.00000000
_cell_angle_beta   90.00000000
_cell_angle_gamma   120.00000063
_symmetry_Int_Tables_number   1
_chemical_formula_structural   SmDy5Rh18
_chemical_formula_sum   'Sm1 Dy5 Rh18'
_cell_volume   423.39817920
_cell_formula_units_Z   1
loop_
 _symmetry_equiv_pos_site_id
 _symmetry_equiv_pos_as_xyz
  1  'x, y, z'
loop_
 _atom_site_type_symbol
 _atom_site_label
 _atom_site_symmetry_multiplicity
 _atom_site_fract_x
 _atom_site_fract_y
 _atom_site_fract_z
 _atom_site_occupancy
  Sm  Sm0  1  0.666667  0.333333  0.250000  1
  Dy  Dy1  1  0.333333  0.666667  0.957784  1
  Dy  Dy2  1  0.666667  0.333333  0.041683  1
  Dy  Dy3  1  0.666667  0.333333  0.458317  1
  Dy  Dy4  1  0.333333  0.666667  0.542216  1
  Dy  Dy5  1  0.333333  0.666667  0.750000  1
  Rh  Rh6  1  0.167199  0.832801  0.374602  1
  Rh  Rh7  1  0.167199  0.334397  0.374602  1
  Rh  Rh8  1  0.665603  0.832801  0.374602  1
  Rh  Rh9  1  0.832785  0.167215  0.625850  1
  Rh  Rh10  1  0.832785  0.665570  0.625850  1
  Rh  Rh11  1  0.334430  0.167215  0.625850  1
  Rh  Rh12  1  0.832785  0.167215  0.874150  1
  Rh  Rh13  1  0.832785  0.665570  0.874150  1
  Rh  Rh14  1  0.334430  0.167215  0.874150  1
  Rh  Rh15  1  0.167199  0.832801  0.125398  1
  Rh  Rh16  1  0.167199  0.334397  0.125398  1
  Rh  Rh17  1  0.665603  0.832801  0.125398  1
  Rh  Rh18  1  0.333333  0.666667  0.250000  1
  Rh  Rh19  1  0.666667  0.333333  0.750000  1
  Rh  Rh20  1  0.000000  0.000000  0.250000  1
  Rh  Rh21  1  0.000000  0.000000  0.750000  1
  Rh  Rh22  1  0.000000  0.000000  0.500192  1
  Rh  Rh23  1  0.000000  0.000000  0.999808  1
