# generated using pymatgen
data_BaNd2(H6Os)2
_symmetry_space_group_name_H-M   'P 1'
_cell_length_a   5.15170300
_cell_length_b   5.15170354
_cell_length_c   8.60405800
_cell_angle_alpha   90.00000000
_cell_angle_beta   90.00000000
_cell_angle_gamma   120.00000298
_symmetry_Int_Tables_number   1
_chemical_formula_structural   BaNd2(H6Os)2
_chemical_formula_sum   'Ba1 Nd2 H12 Os2'
_cell_volume   197.75871357
_cell_formula_units_Z   1
loop_
 _symmetry_equiv_pos_site_id
 _symmetry_equiv_pos_as_xyz
  1  'x, y, z'
loop_
 _atom_site_type_symbol
 _atom_site_label
 _atom_site_symmetry_multiplicity
 _atom_site_fract_x
 _atom_site_fract_y
 _atom_site_fract_z
 _atom_site_occupancy
  Ba  Ba0  1  0.000000  0.000000  0.000000  1
  Nd  Nd1  1  0.666667  0.333333  0.363203  1
  Nd  Nd2  1  0.333333  0.666667  0.636797  1
  H  H3  1  0.169811  0.830189  0.379328  1
  H  H4  1  0.660378  0.830189  0.379328  1
  H  H5  1  0.169811  0.339622  0.379328  1
  H  H6  1  0.830189  0.169811  0.620672  1
  H  H7  1  0.339622  0.169811  0.620672  1
  H  H8  1  0.830189  0.660378  0.620672  1
  H  H9  1  0.513937  0.027874  0.850528  1
  H  H10  1  0.513937  0.486063  0.850528  1
  H  H11  1  0.972126  0.486063  0.850528  1
  H  H12  1  0.486063  0.972126  0.149472  1
  H  H13  1  0.486063  0.513937  0.149472  1
  H  H14  1  0.027874  0.513937  0.149472  1
  Os  Os15  1  0.666667  0.333333  0.727450  1
  Os  Os16  1  0.333333  0.666667  0.272550  1
