# generated using pymatgen
data_BaCa(RhN)2
_symmetry_space_group_name_H-M   'P 1'
_cell_length_a   3.79189200
_cell_length_b   3.79189200
_cell_length_c   7.85889800
_cell_angle_alpha   90.00000000
_cell_angle_beta   90.00000000
_cell_angle_gamma   90.00000000
_symmetry_Int_Tables_number   1
_chemical_formula_structural   BaCa(RhN)2
_chemical_formula_sum   'Ba1 Ca1 Rh2 N2'
_cell_volume   112.99873218
_cell_formula_units_Z   1
loop_
 _symmetry_equiv_pos_site_id
 _symmetry_equiv_pos_as_xyz
  1  'x, y, z'
loop_
 _atom_site_type_symbol
 _atom_site_label
 _atom_site_symmetry_multiplicity
 _atom_site_fract_x
 _atom_site_fract_y
 _atom_site_fract_z
 _atom_site_occupancy
  Ba  Ba0  1  0.000000  0.000000  0.749999  1
  Ca  Ca1  1  0.000000  0.000000  0.250000  1
  Rh  Rh2  1  0.500000  0.500000  0.034933  1
  Rh  Rh3  1  0.500000  0.500000  0.465067  1
  N  N4  1  0.500000  0.000000  0.033317  1
  N  N5  1  0.000000  0.500000  0.466683  1
