# generated using pymatgen
data_Sc3TiZn2(B2Ir5)2
_symmetry_space_group_name_H-M   'P 1'
_cell_length_a   9.40986174
_cell_length_b   3.03918000
_cell_length_c   9.40986174
_cell_angle_alpha   90.00000000
_cell_angle_beta   90.41174500
_cell_angle_gamma   90.00000000
_symmetry_Int_Tables_number   1
_chemical_formula_structural   Sc3TiZn2(B2Ir5)2
_chemical_formula_sum   'Sc3 Ti1 Zn2 B4 Ir10'
_cell_volume   269.09875806
_cell_formula_units_Z   1
loop_
 _symmetry_equiv_pos_site_id
 _symmetry_equiv_pos_as_xyz
  1  'x, y, z'
loop_
 _atom_site_type_symbol
 _atom_site_label
 _atom_site_symmetry_multiplicity
 _atom_site_fract_x
 _atom_site_fract_y
 _atom_site_fract_z
 _atom_site_occupancy
  Sc  Sc0  1  0.676309  0.000000  0.176307  1
  Sc  Sc1  1  0.177287  0.000000  0.322284  1
  Sc  Sc2  1  0.822284  0.000000  0.677289  1
  Ti  Ti3  1  0.322925  0.000000  0.822925  1
  Zn  Zn4  1  0.997718  0.000000  0.000831  1
  Zn  Zn5  1  0.500830  0.000000  0.497717  1
  B  B6  1  0.372999  0.000000  0.125688  1
  B  B7  1  0.873812  0.000000  0.373812  1
  B  B8  1  0.127172  0.000000  0.627174  1
  B  B9  1  0.625690  0.000000  0.872999  1
  Ir  Ir10  1  0.494794  0.499999  0.994795  1
  Ir  Ir11  1  0.217920  0.499999  0.062144  1
  Ir  Ir12  1  0.931253  0.499999  0.217814  1
  Ir  Ir13  1  0.430565  0.499999  0.281169  1
  Ir  Ir14  1  0.717814  0.499999  0.431253  1
  Ir  Ir15  1  0.001983  0.499999  0.501982  1
  Ir  Ir16  1  0.286836  0.499999  0.578497  1
  Ir  Ir17  1  0.562143  0.499999  0.717920  1
  Ir  Ir18  1  0.078498  0.499999  0.786837  1
  Ir  Ir19  1  0.781170  0.499999  0.930565  1
