# generated using pymatgen
data_TaCu2Ir3(SeS3)2
_symmetry_space_group_name_H-M   'P 1'
_cell_length_a   7.31929791
_cell_length_b   6.91698326
_cell_length_c   7.30809500
_cell_angle_alpha   58.11123064
_cell_angle_beta   60.05061439
_cell_angle_gamma   58.28181282
_symmetry_Int_Tables_number   1
_chemical_formula_structural   TaCu2Ir3(SeS3)2
_chemical_formula_sum   'Ta1 Cu2 Ir3 Se2 S6'
_cell_volume   254.35281736
_cell_formula_units_Z   1
loop_
 _symmetry_equiv_pos_site_id
 _symmetry_equiv_pos_as_xyz
  1  'x, y, z'
loop_
 _atom_site_type_symbol
 _atom_site_label
 _atom_site_symmetry_multiplicity
 _atom_site_fract_x
 _atom_site_fract_y
 _atom_site_fract_z
 _atom_site_occupancy
  Ta  Ta0  1  0.662702  0.035799  0.650749  1
  Cu  Cu1  1  0.006241  0.010427  0.991666  1
  Cu  Cu2  1  0.216341  0.267328  0.258164  1
  Ir  Ir3  1  0.624880  0.642777  0.618030  1
  Ir  Ir4  1  0.624880  0.642777  0.114314  1
  Ir  Ir5  1  0.113321  0.646328  0.620175  1
  Se  Se6  1  0.385092  0.382550  0.845960  1
  Se  Se7  1  0.385092  0.382550  0.386399  1
  S  S8  1  0.886870  0.857523  0.882386  1
  S  S9  1  0.886870  0.857523  0.373220  1
  S  S10  1  0.382319  0.853149  0.382266  1
  S  S11  1  0.827561  0.391777  0.390332  1
  S  S12  1  0.386983  0.854123  0.879446  1
  S  S13  1  0.860849  0.425364  0.856893  1
