# generated using pymatgen
data_Ca7TiMn2N9
_symmetry_space_group_name_H-M   'P 1'
_cell_length_a   9.94045400
_cell_length_b   6.04491523
_cell_length_c   9.01130368
_cell_angle_alpha   88.58453193
_cell_angle_beta   90.00000000
_cell_angle_gamma   90.00000000
_symmetry_Int_Tables_number   1
_chemical_formula_structural   Ca7TiMn2N9
_chemical_formula_sum   'Ca14 Ti2 Mn4 N18'
_cell_volume   541.31681543
_cell_formula_units_Z   2
loop_
 _symmetry_equiv_pos_site_id
 _symmetry_equiv_pos_as_xyz
  1  'x, y, z'
loop_
 _atom_site_type_symbol
 _atom_site_label
 _atom_site_symmetry_multiplicity
 _atom_site_fract_x
 _atom_site_fract_y
 _atom_site_fract_z
 _atom_site_occupancy
  Ca  Ca0  1  0.932279  0.428607  0.168735  1
  Ca  Ca1  1  0.080938  0.246302  0.495144  1
  Ca  Ca2  1  0.250000  0.089875  0.796478  1
  Ca  Ca3  1  0.432279  0.571393  0.831265  1
  Ca  Ca4  1  0.580938  0.753698  0.504856  1
  Ca  Ca5  1  0.579641  0.064338  0.826565  1
  Ca  Ca6  1  0.920359  0.064338  0.826565  1
  Ca  Ca7  1  0.420359  0.935662  0.173435  1
  Ca  Ca8  1  0.419062  0.246302  0.495144  1
  Ca  Ca9  1  0.079641  0.935662  0.173435  1
  Ca  Ca10  1  0.919062  0.753698  0.504856  1
  Ca  Ca11  1  0.067721  0.571393  0.831265  1
  Ca  Ca12  1  0.750000  0.910125  0.203522  1
  Ca  Ca13  1  0.567721  0.428607  0.168735  1
  Ti  Ti14  1  0.750000  0.279698  0.435514  1
  Ti  Ti15  1  0.250000  0.720302  0.564486  1
  Mn  Mn16  1  0.250000  0.328739  0.067850  1
  Mn  Mn17  1  0.750000  0.459283  0.722305  1
  Mn  Mn18  1  0.750000  0.671261  0.932150  1
  Mn  Mn19  1  0.250000  0.540717  0.277695  1
  N  N20  1  0.401116  0.230919  0.982885  1
  N  N21  1  0.250000  0.234400  0.268643  1
  N  N22  1  0.902202  0.117549  0.341838  1
  N  N23  1  0.607515  0.366396  0.631038  1
  N  N24  1  0.750000  0.553917  0.333713  1
  N  N25  1  0.250000  0.636615  0.078650  1
  N  N26  1  0.892485  0.366396  0.631038  1
  N  N27  1  0.392485  0.633604  0.368962  1
  N  N28  1  0.750000  0.363385  0.921350  1
  N  N29  1  0.097798  0.882451  0.658162  1
  N  N30  1  0.750000  0.765600  0.731357  1
  N  N31  1  0.107515  0.633604  0.368962  1
  N  N32  1  0.598884  0.769081  0.017115  1
  N  N33  1  0.250000  0.446083  0.666287  1
  N  N34  1  0.402202  0.882451  0.658162  1
  N  N35  1  0.597798  0.117549  0.341838  1
  N  N36  1  0.098884  0.230919  0.982885  1
  N  N37  1  0.901116  0.769081  0.017115  1
