# generated using pymatgen
data_Na4V3Ni17P12
_symmetry_space_group_name_H-M   'P 1'
_cell_length_a   3.64108200
_cell_length_b   10.42744114
_cell_length_c   11.94847220
_cell_angle_alpha   89.73614918
_cell_angle_beta   90.00000000
_cell_angle_gamma   90.00000000
_symmetry_Int_Tables_number   1
_chemical_formula_structural   Na4V3Ni17P12
_chemical_formula_sum   'Na4 V3 Ni17 P12'
_cell_volume   453.64484402
_cell_formula_units_Z   1
loop_
 _symmetry_equiv_pos_site_id
 _symmetry_equiv_pos_as_xyz
  1  'x, y, z'
loop_
 _atom_site_type_symbol
 _atom_site_label
 _atom_site_symmetry_multiplicity
 _atom_site_fract_x
 _atom_site_fract_y
 _atom_site_fract_z
 _atom_site_occupancy
  Na  Na0  1  0.250000  0.581162  0.704388  1
  Na  Na1  1  0.250000  0.917755  0.205746  1
  Na  Na2  1  0.750000  0.417747  0.294882  1
  Na  Na3  1  0.750000  0.081943  0.794794  1
  V  V4  1  0.250000  0.707381  0.989110  1
  V  V5  1  0.250000  0.791224  0.489696  1
  V  V6  1  0.750000  0.292310  0.010445  1
  Ni  Ni7  1  0.750000  0.214120  0.511184  1
  Ni  Ni8  1  0.250000  0.406474  0.487370  1
  Ni  Ni9  1  0.250000  0.091524  0.988226  1
  Ni  Ni10  1  0.750000  0.589786  0.512162  1
  Ni  Ni11  1  0.750000  0.909588  0.012694  1
  Ni  Ni12  1  0.250000  0.216857  0.177544  1
  Ni  Ni13  1  0.250000  0.278075  0.675619  1
  Ni  Ni14  1  0.750000  0.781683  0.822650  1
  Ni  Ni15  1  0.750000  0.717678  0.323647  1
  Ni  Ni16  1  0.250000  0.884048  0.700737  1
  Ni  Ni17  1  0.250000  0.617610  0.202616  1
  Ni  Ni18  1  0.750000  0.120136  0.301684  1
  Ni  Ni19  1  0.750000  0.382923  0.796679  1
  Ni  Ni20  1  0.250000  0.466926  0.930046  1
  Ni  Ni21  1  0.250000  0.035408  0.429749  1
  Ni  Ni22  1  0.750000  0.532305  0.069956  1
  Ni  Ni23  1  0.750000  0.969765  0.569318  1
  P  P24  1  0.250000  0.416781  0.113411  1
  P  P25  1  0.250000  0.082574  0.612715  1
  P  P26  1  0.750000  0.582357  0.885901  1
  P  P27  1  0.750000  0.915410  0.386748  1
  P  P28  1  0.250000  0.266621  0.866933  1
  P  P29  1  0.250000  0.234909  0.369010  1
  P  P30  1  0.750000  0.732666  0.132202  1
  P  P31  1  0.750000  0.767099  0.631465  1
  P  P32  1  0.250000  0.596962  0.391386  1
  P  P33  1  0.250000  0.901576  0.891329  1
  P  P34  1  0.750000  0.399060  0.608459  1
  P  P35  1  0.750000  0.099554  0.109499  1
