# generated using pymatgen
data_TbHoCo3P7Ru9
_symmetry_space_group_name_H-M   'P 1'
_cell_length_a   9.31618500
_cell_length_b   9.31618536
_cell_length_c   3.82661100
_cell_angle_alpha   90.00000000
_cell_angle_beta   90.00000000
_cell_angle_gamma   120.00000228
_symmetry_Int_Tables_number   1
_chemical_formula_structural   TbHoCo3P7Ru9
_chemical_formula_sum   'Tb1 Ho1 Co3 P7 Ru9'
_cell_volume   287.62137770
_cell_formula_units_Z   1
loop_
 _symmetry_equiv_pos_site_id
 _symmetry_equiv_pos_as_xyz
  1  'x, y, z'
loop_
 _atom_site_type_symbol
 _atom_site_label
 _atom_site_symmetry_multiplicity
 _atom_site_fract_x
 _atom_site_fract_y
 _atom_site_fract_z
 _atom_site_occupancy
  Tb  Tb0  1  0.000000  0.000000  0.000000  1
  Ho  Ho1  1  0.333333  0.666667  0.500000  1
  Co  Co2  1  0.824527  0.602150  0.000000  1
  Co  Co3  1  0.397850  0.222378  0.000000  1
  Co  Co4  1  0.777622  0.175473  0.000000  1
  P  P5  1  0.781682  0.734096  0.500000  1
  P  P6  1  0.265904  0.047586  0.500000  1
  P  P7  1  0.952414  0.218318  0.500000  1
  P  P8  1  0.666667  0.333333  0.000000  1
  P  P9  1  0.077976  0.634682  0.000000  1
  P  P10  1  0.365318  0.443294  0.000000  1
  P  P11  1  0.556706  0.922024  0.000000  1
  Ru  Ru12  1  0.092087  0.394986  0.000000  1
  Ru  Ru13  1  0.605014  0.697101  0.000000  1
  Ru  Ru14  1  0.302899  0.907913  0.000000  1
  Ru  Ru15  1  0.048997  0.767885  0.500000  1
  Ru  Ru16  1  0.232115  0.281111  0.500000  1
  Ru  Ru17  1  0.718889  0.951003  0.500000  1
  Ru  Ru18  1  0.872547  0.418300  0.500000  1
  Ru  Ru19  1  0.581700  0.454247  0.500000  1
  Ru  Ru20  1  0.545753  0.127453  0.500000  1
