# generated using pymatgen
data_Er4VFe19P12
_symmetry_space_group_name_H-M   'P 1'
_cell_length_a   3.64754300
_cell_length_b   10.30281407
_cell_length_c   11.81774551
_cell_angle_alpha   89.80996449
_cell_angle_beta   90.00000000
_cell_angle_gamma   90.00000000
_symmetry_Int_Tables_number   1
_chemical_formula_structural   Er4VFe19P12
_chemical_formula_sum   'Er4 V1 Fe19 P12'
_cell_volume   444.10792935
_cell_formula_units_Z   1
loop_
 _symmetry_equiv_pos_site_id
 _symmetry_equiv_pos_as_xyz
  1  'x, y, z'
loop_
 _atom_site_type_symbol
 _atom_site_label
 _atom_site_symmetry_multiplicity
 _atom_site_fract_x
 _atom_site_fract_y
 _atom_site_fract_z
 _atom_site_occupancy
  Er  Er0  1  0.250000  0.578937  0.703212  1
  Er  Er1  1  0.250000  0.919933  0.204461  1
  Er  Er2  1  0.750000  0.419840  0.296028  1
  Er  Er3  1  0.750000  0.082798  0.794952  1
  V  V4  1  0.250000  0.700511  0.990710  1
  Fe  Fe5  1  0.250000  0.790731  0.489592  1
  Fe  Fe6  1  0.750000  0.294409  0.010900  1
  Fe  Fe7  1  0.750000  0.207902  0.510797  1
  Fe  Fe8  1  0.250000  0.404177  0.490439  1
  Fe  Fe9  1  0.250000  0.097716  0.990654  1
  Fe  Fe10  1  0.750000  0.592468  0.509839  1
  Fe  Fe11  1  0.750000  0.907546  0.009926  1
  Fe  Fe12  1  0.250000  0.220601  0.176357  1
  Fe  Fe13  1  0.250000  0.279409  0.676262  1
  Fe  Fe14  1  0.750000  0.783381  0.819909  1
  Fe  Fe15  1  0.750000  0.719480  0.325755  1
  Fe  Fe16  1  0.250000  0.875064  0.702278  1
  Fe  Fe17  1  0.250000  0.624284  0.202319  1
  Fe  Fe18  1  0.750000  0.124503  0.298590  1
  Fe  Fe19  1  0.750000  0.376057  0.799033  1
  Fe  Fe20  1  0.250000  0.461697  0.932865  1
  Fe  Fe21  1  0.250000  0.036528  0.432083  1
  Fe  Fe22  1  0.750000  0.534466  0.066567  1
  Fe  Fe23  1  0.750000  0.963114  0.567897  1
  P  P24  1  0.250000  0.422597  0.113987  1
  P  P25  1  0.250000  0.077754  0.612512  1
  P  P26  1  0.750000  0.575409  0.884620  1
  P  P27  1  0.750000  0.922493  0.386982  1
  P  P28  1  0.250000  0.264987  0.870738  1
  P  P29  1  0.250000  0.234272  0.370935  1
  P  P30  1  0.750000  0.734299  0.132932  1
  P  P31  1  0.750000  0.763503  0.624080  1
  P  P32  1  0.250000  0.599847  0.396001  1
  P  P33  1  0.250000  0.908098  0.896831  1
  P  P34  1  0.750000  0.397801  0.604850  1
  P  P35  1  0.750000  0.103387  0.104107  1
