# generated using pymatgen
data_Er2LuFe8Ru
_symmetry_space_group_name_H-M   'P 1'
_cell_length_a   8.73443521
_cell_length_b   8.73443555
_cell_length_c   8.73443516
_cell_angle_alpha   33.67740359
_cell_angle_beta   33.67740184
_cell_angle_gamma   33.67739513
_symmetry_Int_Tables_number   1
_chemical_formula_structural   Er2LuFe8Ru
_chemical_formula_sum   'Er2 Lu1 Fe8 Ru1'
_cell_volume   182.54160133
_cell_formula_units_Z   1
loop_
 _symmetry_equiv_pos_site_id
 _symmetry_equiv_pos_as_xyz
  1  'x, y, z'
loop_
 _atom_site_type_symbol
 _atom_site_label
 _atom_site_symmetry_multiplicity
 _atom_site_fract_x
 _atom_site_fract_y
 _atom_site_fract_z
 _atom_site_occupancy
  Er  Er0  1  0.000137  0.000137  0.000137  1
  Er  Er1  1  0.858163  0.858163  0.858163  1
  Lu  Lu2  1  0.141591  0.141591  0.141591  1
  Fe  Fe3  1  0.418190  0.418190  0.922787  1
  Fe  Fe4  1  0.922787  0.418190  0.418190  1
  Fe  Fe5  1  0.581854  0.077375  0.581854  1
  Fe  Fe6  1  0.581854  0.581854  0.077375  1
  Fe  Fe7  1  0.418190  0.922787  0.418190  1
  Fe  Fe8  1  0.077375  0.581854  0.581854  1
  Fe  Fe9  1  0.332926  0.332926  0.332926  1
  Fe  Fe10  1  0.667070  0.667070  0.667070  1
  Ru  Ru11  1  0.499864  0.499864  0.499864  1
