# generated using pymatgen
data_Ho3Zn3Si2Pt
_symmetry_space_group_name_H-M   'P 1'
_cell_length_a   6.84599000
_cell_length_b   6.84598978
_cell_length_c   4.25959100
_cell_angle_alpha   90.00000000
_cell_angle_beta   90.00000000
_cell_angle_gamma   120.00000106
_symmetry_Int_Tables_number   1
_chemical_formula_structural   Ho3Zn3Si2Pt
_chemical_formula_sum   'Ho3 Zn3 Si2 Pt1'
_cell_volume   172.89046194
_cell_formula_units_Z   1
loop_
 _symmetry_equiv_pos_site_id
 _symmetry_equiv_pos_as_xyz
  1  'x, y, z'
loop_
 _atom_site_type_symbol
 _atom_site_label
 _atom_site_symmetry_multiplicity
 _atom_site_fract_x
 _atom_site_fract_y
 _atom_site_fract_z
 _atom_site_occupancy
  Ho  Ho0  1  0.415202  0.000000  0.000000  1
  Ho  Ho1  1  0.000000  0.415203  0.000000  1
  Ho  Ho2  1  0.584797  0.584798  0.000000  1
  Zn  Zn3  1  0.758008  0.000000  0.500001  1
  Zn  Zn4  1  0.241993  0.241993  0.500001  1
  Zn  Zn5  1  0.000000  0.758008  0.500001  1
  Si  Si6  1  0.666667  0.333334  0.500001  1
  Si  Si7  1  0.333333  0.666667  0.500001  1
  Pt  Pt8  1  0.000000  0.000000  0.000000  1
