# generated using pymatgen
data_YbHo2Er3(Si3Ru)8
_symmetry_space_group_name_H-M   'P 1'
_cell_length_a   10.12101638
_cell_length_b   10.12101622
_cell_length_c   8.12223400
_cell_angle_alpha   89.93567429
_cell_angle_beta   90.06432378
_cell_angle_gamma   132.66994876
_symmetry_Int_Tables_number   1
_chemical_formula_structural   YbHo2Er3(Si3Ru)8
_chemical_formula_sum   'Yb1 Ho2 Er3 Si24 Ru8'
_cell_volume   611.74492480
_cell_formula_units_Z   1
loop_
 _symmetry_equiv_pos_site_id
 _symmetry_equiv_pos_as_xyz
  1  'x, y, z'
loop_
 _atom_site_type_symbol
 _atom_site_label
 _atom_site_symmetry_multiplicity
 _atom_site_fract_x
 _atom_site_fract_y
 _atom_site_fract_z
 _atom_site_occupancy
  Yb  Yb0  1  0.498003  0.998003  0.250000  1
  Ho  Ho1  1  0.001443  0.501443  0.750000  1
  Ho  Ho2  1  0.502534  0.002534  0.750000  1
  Er  Er3  1  0.997415  0.497415  0.250000  1
  Er  Er4  1  0.499783  0.499689  0.499614  1
  Er  Er5  1  0.999689  0.999783  0.000386  1
  Si  Si6  1  0.388474  0.155104  0.003252  1
  Si  Si7  1  0.655104  0.888474  0.496748  1
  Si  Si8  1  0.111725  0.344802  0.505367  1
  Si  Si9  1  0.844802  0.611725  0.994633  1
  Si  Si10  1  0.611731  0.845672  0.994056  1
  Si  Si11  1  0.345672  0.111731  0.505944  1
  Si  Si12  1  0.888121  0.655308  0.494670  1
  Si  Si13  1  0.155308  0.388121  0.005330  1
  Si  Si14  1  0.613662  0.379258  0.228351  1
  Si  Si15  1  0.879258  0.113662  0.271649  1
  Si  Si16  1  0.888437  0.121909  0.727863  1
  Si  Si17  1  0.621909  0.388437  0.772137  1
  Si  Si18  1  0.388311  0.621783  0.771494  1
  Si  Si19  1  0.121783  0.888311  0.728506  1
  Si  Si20  1  0.704815  0.294185  0.000923  1
  Si  Si21  1  0.794185  0.204815  0.499077  1
  Si  Si22  1  0.295242  0.705731  0.000014  1
  Si  Si23  1  0.205731  0.795242  0.499986  1
  Si  Si24  1  0.166275  0.167517  0.332999  1
  Si  Si25  1  0.667517  0.666275  0.167001  1
  Si  Si26  1  0.332764  0.331710  0.833131  1
  Si  Si27  1  0.831710  0.832764  0.666869  1
  Si  Si28  1  0.376737  0.611004  0.228295  1
  Si  Si29  1  0.111004  0.876737  0.271705  1
  Ru  Ru30  1  0.626050  0.626815  0.872913  1
  Ru  Ru31  1  0.126815  0.126050  0.627087  1
  Ru  Ru32  1  0.873196  0.873181  0.372610  1
  Ru  Ru33  1  0.373181  0.373196  0.127390  1
  Ru  Ru34  1  0.329459  0.668897  0.500694  1
  Ru  Ru35  1  0.168897  0.829459  0.999306  1
  Ru  Ru36  1  0.671121  0.332140  0.501561  1
  Ru  Ru37  1  0.832140  0.171121  0.998439  1
