# generated using pymatgen
data_Rb6Li4ZrSnAs6
_symmetry_space_group_name_H-M   'P 1'
_cell_length_a   10.45998110
_cell_length_b   10.45997899
_cell_length_c   16.18467800
_cell_angle_alpha   90.00000000
_cell_angle_beta   90.00000000
_cell_angle_gamma   142.99848498
_symmetry_Int_Tables_number   1
_chemical_formula_structural   Rb6Li4ZrSnAs6
_chemical_formula_sum   'Rb12 Li8 Zr2 Sn2 As12'
_cell_volume   1065.72226559
_cell_formula_units_Z   2
loop_
 _symmetry_equiv_pos_site_id
 _symmetry_equiv_pos_as_xyz
  1  'x, y, z'
loop_
 _atom_site_type_symbol
 _atom_site_label
 _atom_site_symmetry_multiplicity
 _atom_site_fract_x
 _atom_site_fract_y
 _atom_site_fract_z
 _atom_site_occupancy
  Rb  Rb0  1  0.603944  0.947950  0.828846  1
  Rb  Rb1  1  0.275148  0.278979  0.321929  1
  Rb  Rb2  1  0.224852  0.221021  0.821929  1
  Rb  Rb3  1  0.721021  0.724852  0.678071  1
  Rb  Rb4  1  0.447950  0.103944  0.671154  1
  Rb  Rb5  1  0.896056  0.552050  0.328846  1
  Rb  Rb6  1  0.052050  0.396056  0.171154  1
  Rb  Rb7  1  0.402329  0.063617  0.171700  1
  Rb  Rb8  1  0.563617  0.902329  0.328300  1
  Rb  Rb9  1  0.097671  0.436383  0.671700  1
  Rb  Rb10  1  0.936383  0.597671  0.828300  1
  Rb  Rb11  1  0.778979  0.775148  0.178071  1
  Li  Li12  1  0.085394  0.914606  0.000000  1
  Li  Li13  1  0.583582  0.416418  0.500000  1
  Li  Li14  1  0.916418  0.083582  0.000000  1
  Li  Li15  1  0.752098  0.247902  0.000000  1
  Li  Li16  1  0.747902  0.252098  0.500000  1
  Li  Li17  1  0.248100  0.751900  0.000000  1
  Li  Li18  1  0.251900  0.748100  0.500000  1
  Li  Li19  1  0.414606  0.585394  0.500000  1
  Zr  Zr20  1  0.084849  0.915151  0.500000  1
  Zr  Zr21  1  0.415151  0.584849  0.000000  1
  Sn  Sn22  1  0.912695  0.087305  0.500000  1
  Sn  Sn23  1  0.587305  0.412695  0.000000  1
  As  As24  1  0.076178  0.402313  0.407426  1
  As  As25  1  0.902313  0.576178  0.092574  1
  As  As26  1  0.423822  0.097687  0.907426  1
  As  As27  1  0.597687  0.923822  0.592574  1
  As  As28  1  0.930220  0.605632  0.589054  1
  As  As29  1  0.105632  0.430220  0.910946  1
  As  As30  1  0.569780  0.894368  0.089054  1
  As  As31  1  0.394368  0.069780  0.410946  1
  As  As32  1  0.233710  0.230500  0.589655  1
  As  As33  1  0.730500  0.733710  0.910345  1
  As  As34  1  0.266290  0.269500  0.089655  1
  As  As35  1  0.769500  0.766290  0.410345  1
