# generated using pymatgen
data_Rb2TbU(AuSe3)2
_symmetry_space_group_name_H-M   'P 1'
_cell_length_a   8.11295944
_cell_length_b   8.11295973
_cell_length_c   10.76966568
_cell_angle_alpha   89.10196065
_cell_angle_beta   89.10196091
_cell_angle_gamma   30.04759843
_symmetry_Int_Tables_number   1
_chemical_formula_structural   Rb2TbU(AuSe3)2
_chemical_formula_sum   'Rb2 Tb1 U1 Au2 Se6'
_cell_volume   354.89343648
_cell_formula_units_Z   1
loop_
 _symmetry_equiv_pos_site_id
 _symmetry_equiv_pos_as_xyz
  1  'x, y, z'
loop_
 _atom_site_type_symbol
 _atom_site_label
 _atom_site_symmetry_multiplicity
 _atom_site_fract_x
 _atom_site_fract_y
 _atom_site_fract_z
 _atom_site_occupancy
  Rb  Rb0  1  0.749467  0.749467  0.238432  1
  Rb  Rb1  1  0.250533  0.250533  0.761567  1
  Tb  Tb2  1  0.000000  0.000000  0.000000  1
  U  U3  1  0.000000  0.000000  0.500001  1
  Au  Au4  1  0.454662  0.454662  0.250153  1
  Au  Au5  1  0.545338  0.545338  0.749846  1
  Se  Se6  1  0.063909  0.063909  0.260956  1
  Se  Se7  1  0.936091  0.936091  0.739043  1
  Se  Se8  1  0.375332  0.375332  0.044204  1
  Se  Se9  1  0.620334  0.620334  0.535286  1
  Se  Se10  1  0.624668  0.624668  0.955795  1
  Se  Se11  1  0.379666  0.379666  0.464714  1
