# generated using pymatgen
data_Li4Tb4SnSb3
_symmetry_space_group_name_H-M   'P 1'
_cell_length_a   9.48595200
_cell_length_b   9.48595201
_cell_length_c   7.06635300
_cell_angle_alpha   90.00000000
_cell_angle_beta   90.00000000
_cell_angle_gamma   119.99999299
_symmetry_Int_Tables_number   1
_chemical_formula_structural   Li4Tb4SnSb3
_chemical_formula_sum   'Li8 Tb8 Sn2 Sb6'
_cell_volume   550.66546070
_cell_formula_units_Z   2
loop_
 _symmetry_equiv_pos_site_id
 _symmetry_equiv_pos_as_xyz
  1  'x, y, z'
loop_
 _atom_site_type_symbol
 _atom_site_label
 _atom_site_symmetry_multiplicity
 _atom_site_fract_x
 _atom_site_fract_y
 _atom_site_fract_z
 _atom_site_occupancy
  Li  Li0  1  0.166909  0.333818  0.274511  1
  Li  Li1  1  0.166909  0.833091  0.274511  1
  Li  Li2  1  0.666182  0.833091  0.274511  1
  Li  Li3  1  0.833091  0.666182  0.774511  1
  Li  Li4  1  0.833091  0.166909  0.774511  1
  Li  Li5  1  0.333818  0.166909  0.774511  1
  Li  Li6  1  0.333333  0.666667  0.692833  1
  Li  Li7  1  0.666667  0.333333  0.192833  1
  Tb  Tb8  1  0.508325  0.016648  0.494062  1
  Tb  Tb9  1  0.508325  0.491675  0.494062  1
  Tb  Tb10  1  0.983352  0.491675  0.494062  1
  Tb  Tb11  1  0.491675  0.983352  0.994062  1
  Tb  Tb12  1  0.491675  0.508325  0.994062  1
  Tb  Tb13  1  0.016648  0.508325  0.994062  1
  Tb  Tb14  1  0.000000  0.000000  0.501032  1
  Tb  Tb15  1  0.000000  0.000000  0.001032  1
  Sn  Sn16  1  0.333333  0.666667  0.259185  1
  Sn  Sn17  1  0.666667  0.333333  0.759185  1
  Sb  Sb18  1  0.166401  0.332801  0.737409  1
  Sb  Sb19  1  0.166401  0.833599  0.737409  1
  Sb  Sb20  1  0.667199  0.833599  0.737409  1
  Sb  Sb21  1  0.833599  0.667199  0.237409  1
  Sb  Sb22  1  0.833599  0.166401  0.237409  1
  Sb  Sb23  1  0.332801  0.166401  0.237409  1
