# generated using pymatgen
data_Nd2Cr2(Tc5C)3
_symmetry_space_group_name_H-M   'P 1'
_cell_length_a   6.96582051
_cell_length_b   6.96313331
_cell_length_c   6.96581946
_cell_angle_alpha   82.65969811
_cell_angle_beta   82.95666390
_cell_angle_gamma   82.65970291
_symmetry_Int_Tables_number   1
_chemical_formula_structural   Nd2Cr2(Tc5C)3
_chemical_formula_sum   'Nd2 Cr2 Tc15 C3'
_cell_volume   330.40838616
_cell_formula_units_Z   1
loop_
 _symmetry_equiv_pos_site_id
 _symmetry_equiv_pos_as_xyz
  1  'x, y, z'
loop_
 _atom_site_type_symbol
 _atom_site_label
 _atom_site_symmetry_multiplicity
 _atom_site_fract_x
 _atom_site_fract_y
 _atom_site_fract_z
 _atom_site_occupancy
  Nd  Nd0  1  0.649556  0.648626  0.649556  1
  Nd  Nd1  1  0.350444  0.351374  0.350444  1
  Cr  Cr2  1  0.000000  0.000000  0.500000  1
  Cr  Cr3  1  0.500000  0.000000  0.000000  1
  Tc  Tc4  1  0.000000  0.500000  0.000000  1
  Tc  Tc5  1  0.280706  0.725180  0.998885  1
  Tc  Tc6  1  0.721575  0.000000  0.278425  1
  Tc  Tc7  1  0.001115  0.274820  0.719294  1
  Tc  Tc8  1  0.278425  0.000000  0.721575  1
  Tc  Tc9  1  0.998885  0.725180  0.280706  1
  Tc  Tc10  1  0.719294  0.274820  0.001115  1
  Tc  Tc11  1  0.349285  0.342290  0.866653  1
  Tc  Tc12  1  0.342360  0.871545  0.342360  1
  Tc  Tc13  1  0.866653  0.342290  0.349285  1
  Tc  Tc14  1  0.650715  0.657710  0.133347  1
  Tc  Tc15  1  0.657640  0.128455  0.657640  1
  Tc  Tc16  1  0.133347  0.657710  0.650715  1
  Tc  Tc17  1  0.901991  0.902378  0.901991  1
  Tc  Tc18  1  0.098009  0.097622  0.098009  1
  C  C19  1  0.500000  0.500000  0.000000  1
  C  C20  1  0.500000  0.000000  0.500000  1
  C  C21  1  0.000000  0.500000  0.500000  1
