# generated using pymatgen
data_TbUC2
_symmetry_space_group_name_H-M   'P 1'
_cell_length_a   6.08204477
_cell_length_b   6.08204502
_cell_length_c   6.08204329
_cell_angle_alpha   34.29013037
_cell_angle_beta   34.29012228
_cell_angle_gamma   34.29013014
_symmetry_Int_Tables_number   1
_chemical_formula_structural   TbUC2
_chemical_formula_sum   'Tb1 U1 C2'
_cell_volume   63.68377772
_cell_formula_units_Z   1
loop_
 _symmetry_equiv_pos_site_id
 _symmetry_equiv_pos_as_xyz
  1  'x, y, z'
loop_
 _atom_site_type_symbol
 _atom_site_label
 _atom_site_symmetry_multiplicity
 _atom_site_fract_x
 _atom_site_fract_y
 _atom_site_fract_z
 _atom_site_occupancy
  Tb  Tb0  1  0.000000  0.000000  0.000000  1
  U  U1  1  0.500000  0.500000  0.500000  1
  C  C2  1  0.236665  0.236665  0.236665  1
  C  C3  1  0.763335  0.763335  0.763335  1
