# generated using pymatgen
data_Ho16In5HgPd2
_symmetry_space_group_name_H-M   'P 1'
_cell_length_a   10.44130800
_cell_length_b   10.46783488
_cell_length_c   6.92621606
_cell_angle_alpha   90.01280556
_cell_angle_beta   90.00000000
_cell_angle_gamma   119.91621324
_symmetry_Int_Tables_number   1
_chemical_formula_structural   Ho16In5HgPd2
_chemical_formula_sum   'Ho16 In5 Hg1 Pd2'
_cell_volume   656.15202648
_cell_formula_units_Z   1
loop_
 _symmetry_equiv_pos_site_id
 _symmetry_equiv_pos_as_xyz
  1  'x, y, z'
loop_
 _atom_site_type_symbol
 _atom_site_label
 _atom_site_symmetry_multiplicity
 _atom_site_fract_x
 _atom_site_fract_y
 _atom_site_fract_z
 _atom_site_occupancy
  Ho  Ho0  1  0.527340  0.054681  0.509635  1
  Ho  Ho1  1  0.940856  0.473669  0.509706  1
  Ho  Ho2  1  0.532813  0.473669  0.509706  1
  Ho  Ho3  1  0.471629  0.943257  0.007035  1
  Ho  Ho4  1  0.058427  0.527576  0.010571  1
  Ho  Ho5  1  0.469149  0.527576  0.010571  1
  Ho  Ho6  1  0.174778  0.349555  0.715269  1
  Ho  Ho7  1  0.655146  0.823083  0.719403  1
  Ho  Ho8  1  0.167938  0.823083  0.719403  1
  Ho  Ho9  1  0.825167  0.650335  0.204734  1
  Ho  Ho10  1  0.350664  0.174963  0.217512  1
  Ho  Ho11  1  0.824298  0.174963  0.217512  1
  Ho  Ho12  1  0.668823  0.337644  0.878000  1
  Ho  Ho13  1  0.333589  0.667179  0.379748  1
  Ho  Ho14  1  0.999845  0.999690  0.487938  1
  Ho  Ho15  1  0.000674  0.001348  0.991840  1
  In  In16  1  0.326395  0.162761  0.750927  1
  In  In17  1  0.836368  0.162761  0.750927  1
  In  In18  1  0.162417  0.324836  0.249985  1
  In  In19  1  0.674798  0.837498  0.250855  1
  In  In20  1  0.162699  0.837498  0.250855  1
  Hg  Hg21  1  0.835505  0.671009  0.756839  1
  Pd  Pd22  1  0.666907  0.333813  0.279846  1
  Pd  Pd23  1  0.333775  0.667552  0.779227  1
