# generated using pymatgen
data_ErHfB6Ir
_symmetry_space_group_name_H-M   'P 1'
_cell_length_a   3.52159500
_cell_length_b   9.07691800
_cell_length_c   11.36525800
_cell_angle_alpha   90.00000000
_cell_angle_beta   90.00000000
_cell_angle_gamma   90.00000000
_symmetry_Int_Tables_number   1
_chemical_formula_structural   ErHfB6Ir
_chemical_formula_sum   'Er4 Hf4 B24 Ir4'
_cell_volume   363.29307512
_cell_formula_units_Z   4
loop_
 _symmetry_equiv_pos_site_id
 _symmetry_equiv_pos_as_xyz
  1  'x, y, z'
loop_
 _atom_site_type_symbol
 _atom_site_label
 _atom_site_symmetry_multiplicity
 _atom_site_fract_x
 _atom_site_fract_y
 _atom_site_fract_z
 _atom_site_occupancy
  Er  Er0  1  0.500000  0.322023  0.413074  1
  Er  Er1  1  0.500000  0.677977  0.586926  1
  Er  Er2  1  0.500000  0.177977  0.913074  1
  Er  Er3  1  0.500000  0.822023  0.086926  1
  Hf  Hf4  1  0.500000  0.445669  0.125693  1
  Hf  Hf5  1  0.500000  0.554331  0.874307  1
  Hf  Hf6  1  0.500000  0.054331  0.625693  1
  Hf  Hf7  1  0.500000  0.945669  0.374307  1
  B  B8  1  0.000000  0.102116  0.472360  1
  B  B9  1  0.000000  0.897884  0.527640  1
  B  B10  1  0.000000  0.397884  0.972360  1
  B  B11  1  0.000000  0.602116  0.027640  1
  B  B12  1  0.000000  0.130941  0.317891  1
  B  B13  1  0.000000  0.869059  0.682109  1
  B  B14  1  0.000000  0.369059  0.817891  1
  B  B15  1  0.000000  0.630941  0.182109  1
  B  B16  1  0.000000  0.052929  0.065632  1
  B  B17  1  0.000000  0.947071  0.934368  1
  B  B18  1  0.000000  0.447071  0.565632  1
  B  B19  1  0.000000  0.552929  0.434368  1
  B  B20  1  0.000000  0.479292  0.287027  1
  B  B21  1  0.000000  0.520708  0.712973  1
  B  B22  1  0.000000  0.020708  0.787027  1
  B  B23  1  0.000000  0.979292  0.212973  1
  B  B24  1  0.000000  0.253128  0.079958  1
  B  B25  1  0.000000  0.746872  0.920042  1
  B  B26  1  0.000000  0.246872  0.579958  1
  B  B27  1  0.000000  0.753128  0.420042  1
  B  B28  1  0.000000  0.297832  0.237548  1
  B  B29  1  0.000000  0.702168  0.762452  1
  B  B30  1  0.000000  0.202168  0.737548  1
  B  B31  1  0.000000  0.797832  0.262452  1
  Ir  Ir32  1  0.500000  0.142209  0.180138  1
  Ir  Ir33  1  0.500000  0.857791  0.819862  1
  Ir  Ir34  1  0.500000  0.357791  0.680138  1
  Ir  Ir35  1  0.500000  0.642209  0.319862  1
