# generated using pymatgen
data_Lu10In3Re
_symmetry_space_group_name_H-M   'P 1'
_cell_length_a   9.48668700
_cell_length_b   9.48668903
_cell_length_c   9.66731600
_cell_angle_alpha   90.00000000
_cell_angle_beta   90.00000000
_cell_angle_gamma   119.99999639
_symmetry_Int_Tables_number   1
_chemical_formula_structural   Lu10In3Re
_chemical_formula_sum   'Lu20 In6 Re2'
_cell_volume   753.46971191
_cell_formula_units_Z   2
loop_
 _symmetry_equiv_pos_site_id
 _symmetry_equiv_pos_as_xyz
  1  'x, y, z'
loop_
 _atom_site_type_symbol
 _atom_site_label
 _atom_site_symmetry_multiplicity
 _atom_site_fract_x
 _atom_site_fract_y
 _atom_site_fract_z
 _atom_site_occupancy
  Lu  Lu0  1  0.000000  0.000000  0.500000  1
  Lu  Lu1  1  0.000000  0.000000  0.000000  1
  Lu  Lu2  1  0.209399  0.790601  0.442592  1
  Lu  Lu3  1  0.209399  0.418801  0.442592  1
  Lu  Lu4  1  0.581199  0.790601  0.442592  1
  Lu  Lu5  1  0.790601  0.209399  0.557408  1
  Lu  Lu6  1  0.790601  0.581199  0.557408  1
  Lu  Lu7  1  0.418801  0.209399  0.557408  1
  Lu  Lu8  1  0.790601  0.209399  0.942592  1
  Lu  Lu9  1  0.790601  0.581199  0.942592  1
  Lu  Lu10  1  0.418801  0.209399  0.942592  1
  Lu  Lu11  1  0.209399  0.790601  0.057408  1
  Lu  Lu12  1  0.209399  0.418801  0.057408  1
  Lu  Lu13  1  0.581199  0.790601  0.057408  1
  Lu  Lu14  1  0.532141  0.467859  0.250000  1
  Lu  Lu15  1  0.532141  0.064282  0.250000  1
  Lu  Lu16  1  0.935718  0.467859  0.250000  1
  Lu  Lu17  1  0.467859  0.532141  0.750000  1
  Lu  Lu18  1  0.467859  0.935718  0.750000  1
  Lu  Lu19  1  0.064282  0.532141  0.750000  1
  In  In20  1  0.884581  0.115419  0.250000  1
  In  In21  1  0.884581  0.769161  0.250000  1
  In  In22  1  0.230839  0.115419  0.250000  1
  In  In23  1  0.115419  0.884581  0.750000  1
  In  In24  1  0.115419  0.230839  0.750000  1
  In  In25  1  0.769161  0.884581  0.750000  1
  Re  Re26  1  0.333333  0.666667  0.250000  1
  Re  Re27  1  0.666667  0.333333  0.750000  1
