# generated using pymatgen
data_Rb2Dy5YTe10
_symmetry_space_group_name_H-M   'P 1'
_cell_length_a   4.40968900
_cell_length_b   13.40564737
_cell_length_c   23.68216400
_cell_angle_alpha   89.89073932
_cell_angle_beta   90.00000000
_cell_angle_gamma   90.00000000
_symmetry_Int_Tables_number   1
_chemical_formula_structural   Rb2Dy5YTe10
_chemical_formula_sum   'Rb4 Dy10 Y2 Te20'
_cell_volume   1399.96232176
_cell_formula_units_Z   2
loop_
 _symmetry_equiv_pos_site_id
 _symmetry_equiv_pos_as_xyz
  1  'x, y, z'
loop_
 _atom_site_type_symbol
 _atom_site_label
 _atom_site_symmetry_multiplicity
 _atom_site_fract_x
 _atom_site_fract_y
 _atom_site_fract_z
 _atom_site_occupancy
  Rb  Rb0  1  0.250000  0.340669  0.097195  1
  Rb  Rb1  1  0.750000  0.659331  0.902805  1
  Rb  Rb2  1  0.750000  0.840894  0.402921  1
  Rb  Rb3  1  0.250000  0.159106  0.597079  1
  Dy  Dy4  1  0.250000  0.461081  0.700352  1
  Dy  Dy5  1  0.750000  0.538919  0.299648  1
  Dy  Dy6  1  0.750000  0.960987  0.799189  1
  Dy  Dy7  1  0.250000  0.039013  0.200811  1
  Dy  Dy8  1  0.250000  0.801528  0.670290  1
  Dy  Dy9  1  0.750000  0.198472  0.329710  1
  Dy  Dy10  1  0.750000  0.301358  0.829056  1
  Dy  Dy11  1  0.250000  0.698642  0.170944  1
  Dy  Dy12  1  0.250000  0.392360  0.445784  1
  Dy  Dy13  1  0.750000  0.607640  0.554216  1
  Y  Y14  1  0.750000  0.892430  0.054371  1
  Y  Y15  1  0.250000  0.107570  0.945629  1
  Te  Te16  1  0.250000  0.445615  0.570498  1
  Te  Te17  1  0.750000  0.554385  0.429502  1
  Te  Te18  1  0.750000  0.944966  0.929151  1
  Te  Te19  1  0.250000  0.055034  0.070849  1
  Te  Te20  1  0.250000  0.766660  0.542100  1
  Te  Te21  1  0.750000  0.233340  0.457900  1
  Te  Te22  1  0.750000  0.266881  0.957324  1
  Te  Te23  1  0.250000  0.733119  0.042676  1
  Te  Te24  1  0.250000  0.806203  0.800047  1
  Te  Te25  1  0.750000  0.193797  0.199953  1
  Te  Te26  1  0.750000  0.306387  0.699152  1
  Te  Te27  1  0.250000  0.693613  0.300848  1
  Te  Te28  1  0.250000  0.458486  0.830367  1
  Te  Te29  1  0.750000  0.541514  0.169633  1
  Te  Te30  1  0.750000  0.958781  0.669001  1
  Te  Te31  1  0.250000  0.041219  0.330999  1
  Te  Te32  1  0.250000  0.369048  0.313948  1
  Te  Te33  1  0.750000  0.630952  0.686052  1
  Te  Te34  1  0.750000  0.869366  0.186354  1
  Te  Te35  1  0.250000  0.130634  0.813646  1
