# generated using pymatgen
data_Sm3Ho(TcB4)4
_symmetry_space_group_name_H-M   'P 1'
_cell_length_a   3.63456500
_cell_length_b   6.01325270
_cell_length_c   11.64623100
_cell_angle_alpha   90.09326438
_cell_angle_beta   90.00000000
_cell_angle_gamma   90.00000000
_symmetry_Int_Tables_number   1
_chemical_formula_structural   Sm3Ho(TcB4)4
_chemical_formula_sum   'Sm3 Ho1 Tc4 B16'
_cell_volume   254.53453771
_cell_formula_units_Z   1
loop_
 _symmetry_equiv_pos_site_id
 _symmetry_equiv_pos_as_xyz
  1  'x, y, z'
loop_
 _atom_site_type_symbol
 _atom_site_label
 _atom_site_symmetry_multiplicity
 _atom_site_fract_x
 _atom_site_fract_y
 _atom_site_fract_z
 _atom_site_occupancy
  Sm  Sm0  1  0.000000  0.627069  0.650170  1
  Sm  Sm1  1  0.000000  0.372966  0.349309  1
  Sm  Sm2  1  0.000000  0.127013  0.850202  1
  Ho  Ho3  1  0.000000  0.872838  0.149818  1
  Tc  Tc4  1  0.000000  0.633381  0.914418  1
  Tc  Tc5  1  0.000000  0.367077  0.087606  1
  Tc  Tc6  1  0.000000  0.132198  0.586428  1
  Tc  Tc7  1  0.000000  0.867569  0.411542  1
  B  B8  1  0.500000  0.976997  0.690854  1
  B  B9  1  0.500000  0.021670  0.307162  1
  B  B10  1  0.500000  0.477248  0.809712  1
  B  B11  1  0.500000  0.524454  0.191241  1
  B  B12  1  0.500000  0.785357  0.816554  1
  B  B13  1  0.500000  0.211962  0.184021  1
  B  B14  1  0.500000  0.285450  0.684136  1
  B  B15  1  0.500000  0.714726  0.314334  1
  B  B16  1  0.500000  0.863106  0.969925  1
  B  B17  1  0.500000  0.136689  0.032691  1
  B  B18  1  0.500000  0.362113  0.531250  1
  B  B19  1  0.500000  0.637971  0.467539  1
  B  B20  1  0.500000  0.887783  0.545859  1
  B  B21  1  0.500000  0.111499  0.452701  1
  B  B22  1  0.500000  0.388577  0.954633  1
  B  B23  1  0.500000  0.614287  0.047894  1
