# generated using pymatgen
data_Tb3Gd16YIr12
_symmetry_space_group_name_H-M   'P 1'
_cell_length_a   11.01543700
_cell_length_b   11.01543700
_cell_length_c   6.41896900
_cell_angle_alpha   90.00000000
_cell_angle_beta   90.00000000
_cell_angle_gamma   90.00000000
_symmetry_Int_Tables_number   1
_chemical_formula_structural   Tb3Gd16YIr12
_chemical_formula_sum   'Tb3 Gd16 Y1 Ir12'
_cell_volume   778.87675038
_cell_formula_units_Z   1
loop_
 _symmetry_equiv_pos_site_id
 _symmetry_equiv_pos_as_xyz
  1  'x, y, z'
loop_
 _atom_site_type_symbol
 _atom_site_label
 _atom_site_symmetry_multiplicity
 _atom_site_fract_x
 _atom_site_fract_y
 _atom_site_fract_z
 _atom_site_occupancy
  Tb  Tb0  1  0.000000  0.000000  0.000000  1
  Tb  Tb1  1  0.500000  0.500000  0.000000  1
  Tb  Tb2  1  0.500000  0.500000  0.500000  1
  Gd  Gd3  1  0.290824  0.088812  0.380737  1
  Gd  Gd4  1  0.290852  0.911517  0.880556  1
  Gd  Gd5  1  0.709148  0.088483  0.880556  1
  Gd  Gd6  1  0.709176  0.911188  0.380737  1
  Gd  Gd7  1  0.588456  0.790974  0.880858  1
  Gd  Gd8  1  0.588805  0.209062  0.380699  1
  Gd  Gd9  1  0.411195  0.790938  0.380699  1
  Gd  Gd10  1  0.411544  0.209026  0.880858  1
  Gd  Gd11  1  0.209062  0.411195  0.619301  1
  Gd  Gd12  1  0.209026  0.588456  0.119142  1
  Gd  Gd13  1  0.790974  0.411544  0.119142  1
  Gd  Gd14  1  0.790938  0.588805  0.619301  1
  Gd  Gd15  1  0.911517  0.709148  0.119444  1
  Gd  Gd16  1  0.911188  0.290824  0.619263  1
  Gd  Gd17  1  0.088812  0.709176  0.619263  1
  Gd  Gd18  1  0.088483  0.290852  0.119444  1
  Y  Y19  1  0.000000  0.000000  0.500000  1
  Ir  Ir20  1  0.847529  0.152706  0.249419  1
  Ir  Ir21  1  0.847294  0.847529  0.750581  1
  Ir  Ir22  1  0.152706  0.152471  0.750581  1
  Ir  Ir23  1  0.152471  0.847294  0.249419  1
  Ir  Ir24  1  0.652425  0.347565  0.750053  1
  Ir  Ir25  1  0.652435  0.652425  0.249947  1
  Ir  Ir26  1  0.347565  0.347575  0.249947  1
  Ir  Ir27  1  0.347575  0.652435  0.750053  1
  Ir  Ir28  1  0.500000  0.000000  0.121564  1
  Ir  Ir29  1  0.500000  0.000000  0.621389  1
  Ir  Ir30  1  0.000000  0.500000  0.878436  1
  Ir  Ir31  1  0.000000  0.500000  0.378611  1
