# generated using pymatgen
data_Tm3Lu5Ga3Co
_symmetry_space_group_name_H-M   'P 1'
_cell_length_a   9.79142500
_cell_length_b   9.79711361
_cell_length_c   6.85786800
_cell_angle_alpha   90.00774551
_cell_angle_beta   90.00000000
_cell_angle_gamma   119.98079101
_symmetry_Int_Tables_number   1
_chemical_formula_structural   Tm3Lu5Ga3Co
_chemical_formula_sum   'Tm6 Lu10 Ga6 Co2'
_cell_volume   569.83329964
_cell_formula_units_Z   2
loop_
 _symmetry_equiv_pos_site_id
 _symmetry_equiv_pos_as_xyz
  1  'x, y, z'
loop_
 _atom_site_type_symbol
 _atom_site_label
 _atom_site_symmetry_multiplicity
 _atom_site_fract_x
 _atom_site_fract_y
 _atom_site_fract_z
 _atom_site_occupancy
  Tm  Tm0  1  0.463581  0.927163  0.208162  1
  Tm  Tm1  1  0.535849  0.464178  0.708291  1
  Tm  Tm2  1  0.928330  0.464178  0.708291  1
  Tm  Tm3  1  0.536046  0.072093  0.708637  1
  Tm  Tm4  1  0.000006  0.000013  0.232263  1
  Tm  Tm5  1  0.999960  0.999920  0.732294  1
  Lu  Lu6  1  0.173616  0.825388  0.511631  1
  Lu  Lu7  1  0.651772  0.825388  0.511631  1
  Lu  Lu8  1  0.174087  0.348174  0.510693  1
  Lu  Lu9  1  0.826744  0.174658  0.013409  1
  Lu  Lu10  1  0.347914  0.174658  0.013409  1
  Lu  Lu11  1  0.825791  0.651582  0.014076  1
  Lu  Lu12  1  0.332970  0.665939  0.827328  1
  Lu  Lu13  1  0.667024  0.334048  0.326932  1
  Lu  Lu14  1  0.463002  0.536889  0.207520  1
  Lu  Lu15  1  0.073887  0.536889  0.207520  1
  Ga  Ga16  1  0.163462  0.836182  0.957054  1
  Ga  Ga17  1  0.672719  0.836182  0.957054  1
  Ga  Ga18  1  0.164101  0.328202  0.957707  1
  Ga  Ga19  1  0.836385  0.163184  0.456728  1
  Ga  Ga20  1  0.326800  0.163184  0.456728  1
  Ga  Ga21  1  0.836545  0.673090  0.455960  1
  Co  Co22  1  0.332725  0.665453  0.445276  1
  Co  Co23  1  0.666683  0.333364  0.946242  1
