# generated using pymatgen
data_Tm4B16Ru13Rh3
_symmetry_space_group_name_H-M   'P 1'
_cell_length_a   9.20861070
_cell_length_b   7.46360563
_cell_length_c   7.47424817
_cell_angle_alpha   89.99246346
_cell_angle_beta   114.06685801
_cell_angle_gamma   114.15901814
_symmetry_Int_Tables_number   1
_chemical_formula_structural   Tm4B16Ru13Rh3
_chemical_formula_sum   'Tm4 B16 Ru13 Rh3'
_cell_volume   419.30038124
_cell_formula_units_Z   1
loop_
 _symmetry_equiv_pos_site_id
 _symmetry_equiv_pos_as_xyz
  1  'x, y, z'
loop_
 _atom_site_type_symbol
 _atom_site_label
 _atom_site_symmetry_multiplicity
 _atom_site_fract_x
 _atom_site_fract_y
 _atom_site_fract_z
 _atom_site_occupancy
  Tm  Tm0  1  0.749912  0.874619  0.123942  1
  Tm  Tm1  1  0.251293  0.626237  0.373867  1
  Tm  Tm2  1  0.749437  0.375933  0.625329  1
  Tm  Tm3  1  0.247863  0.123076  0.874228  1
  B  B4  1  0.911385  0.282875  0.070236  1
  B  B5  1  0.414874  0.561907  0.125182  1
  B  B6  1  0.088349  0.217149  0.156796  1
  B  B7  1  0.588153  0.156322  0.211356  1
  B  B8  1  0.417738  0.070569  0.294309  1
  B  B9  1  0.913121  0.624411  0.355137  1
  B  B10  1  0.586197  0.652232  0.374945  1
  B  B11  1  0.085841  0.875819  0.440981  1
  B  B12  1  0.912956  0.124829  0.564976  1
  B  B13  1  0.413105  0.346663  0.623222  1
  B  B14  1  0.087176  0.374448  0.655188  1
  B  B15  1  0.588520  0.934754  0.710933  1
  B  B16  1  0.414506  0.843261  0.783456  1
  B  B17  1  0.911074  0.789583  0.843338  1
  B  B18  1  0.582310  0.430756  0.874679  1
  B  B19  1  0.082890  0.707860  0.925634  1
  Ru  Ru20  1  0.627477  0.462141  0.176461  1
  Ru  Ru21  1  0.372068  0.333613  0.320280  1
  Ru  Ru22  1  0.873671  0.322976  0.336921  1
  Ru  Ru23  1  0.625452  0.962249  0.446756  1
  Ru  Ru24  1  0.126754  0.177133  0.461693  1
  Ru  Ru25  1  0.873064  0.823119  0.538210  1
  Ru  Ru26  1  0.371379  0.035542  0.550286  1
  Ru  Ru27  1  0.129168  0.678100  0.665601  1
  Ru  Ru28  1  0.624204  0.664135  0.675915  1
  Ru  Ru29  1  0.373745  0.537199  0.823944  1
  Ru  Ru30  1  0.873241  0.054308  0.835044  1
  Ru  Ru31  1  0.627823  0.166182  0.947990  1
  Ru  Ru32  1  0.129565  0.450159  0.964815  1
  Rh  Rh33  1  0.876720  0.552915  0.037222  1
  Rh  Rh34  1  0.376798  0.840370  0.051095  1
  Rh  Rh35  1  0.122172  0.946555  0.160037  1
