# generated using pymatgen
data_Ho3Mn(Ni4P3)2
_symmetry_space_group_name_H-M   'P 1'
_cell_length_a   3.75050000
_cell_length_b   10.51767100
_cell_length_c   12.27515300
_cell_angle_alpha   90.00000000
_cell_angle_beta   90.00000000
_cell_angle_gamma   90.00000000
_symmetry_Int_Tables_number   1
_chemical_formula_structural   Ho3Mn(Ni4P3)2
_chemical_formula_sum   'Ho6 Mn2 Ni16 P12'
_cell_volume   484.21213074
_cell_formula_units_Z   2
loop_
 _symmetry_equiv_pos_site_id
 _symmetry_equiv_pos_as_xyz
  1  'x, y, z'
loop_
 _atom_site_type_symbol
 _atom_site_label
 _atom_site_symmetry_multiplicity
 _atom_site_fract_x
 _atom_site_fract_y
 _atom_site_fract_z
 _atom_site_occupancy
  Ho  Ho0  1  0.752010  0.000000  0.478305  1
  Ho  Ho1  1  0.252010  0.500000  0.521695  1
  Ho  Ho2  1  0.251708  0.682770  0.794297  1
  Ho  Ho3  1  0.251708  0.317230  0.794297  1
  Ho  Ho4  1  0.751708  0.817230  0.205703  1
  Ho  Ho5  1  0.751708  0.182770  0.205703  1
  Mn  Mn6  1  0.251878  0.000000  0.844421  1
  Mn  Mn7  1  0.751878  0.500000  0.155579  1
  Ni  Ni8  1  0.751476  0.000000  0.016485  1
  Ni  Ni9  1  0.251476  0.500000  0.983515  1
  Ni  Ni10  1  0.252147  0.198956  0.571355  1
  Ni  Ni11  1  0.252147  0.801044  0.571355  1
  Ni  Ni12  1  0.752147  0.301044  0.428645  1
  Ni  Ni13  1  0.752147  0.698956  0.428645  1
  Ni  Ni14  1  0.252131  0.620885  0.289719  1
  Ni  Ni15  1  0.252131  0.379115  0.289719  1
  Ni  Ni16  1  0.752131  0.879115  0.710281  1
  Ni  Ni17  1  0.752131  0.120885  0.710281  1
  Ni  Ni18  1  0.251473  0.167072  0.006891  1
  Ni  Ni19  1  0.251473  0.832928  0.006891  1
  Ni  Ni20  1  0.751473  0.332928  0.993109  1
  Ni  Ni21  1  0.751473  0.667072  0.993109  1
  Ni  Ni22  1  0.251808  0.000000  0.299831  1
  Ni  Ni23  1  0.751808  0.500000  0.700169  1
  P  P24  1  0.252006  0.185919  0.385726  1
  P  P25  1  0.252006  0.814081  0.385726  1
  P  P26  1  0.752006  0.314081  0.614274  1
  P  P27  1  0.752006  0.685919  0.614274  1
  P  P28  1  0.251511  0.000000  0.122939  1
  P  P29  1  0.751511  0.500000  0.877061  1
  P  P30  1  0.251547  0.653270  0.107486  1
  P  P31  1  0.251547  0.346730  0.107486  1
  P  P32  1  0.751547  0.846730  0.892514  1
  P  P33  1  0.751547  0.153270  0.892514  1
  P  P34  1  0.252095  0.000000  0.653821  1
  P  P35  1  0.752095  0.500000  0.346179  1
