# generated using pymatgen
data_NbCoNiB2W
_symmetry_space_group_name_H-M   'P 1'
_cell_length_a   3.28882800
_cell_length_b   5.79656300
_cell_length_c   6.75440900
_cell_angle_alpha   90.00000000
_cell_angle_beta   90.00000000
_cell_angle_gamma   90.00000000
_symmetry_Int_Tables_number   1
_chemical_formula_structural   NbCoNiB2W
_chemical_formula_sum   'Nb2 Co2 Ni2 B4 W2'
_cell_volume   128.76536894
_cell_formula_units_Z   2
loop_
 _symmetry_equiv_pos_site_id
 _symmetry_equiv_pos_as_xyz
  1  'x, y, z'
loop_
 _atom_site_type_symbol
 _atom_site_label
 _atom_site_symmetry_multiplicity
 _atom_site_fract_x
 _atom_site_fract_y
 _atom_site_fract_z
 _atom_site_occupancy
  Nb  Nb0  1  0.250000  0.027793  0.824115  1
  Nb  Nb1  1  0.250000  0.527793  0.675885  1
  Co  Co2  1  0.250000  0.142167  0.440414  1
  Co  Co3  1  0.250000  0.642167  0.059586  1
  Ni  Ni4  1  0.750000  0.857989  0.554919  1
  Ni  Ni5  1  0.750000  0.357989  0.945081  1
  B  B6  1  0.250000  0.268458  0.134029  1
  B  B7  1  0.250000  0.768458  0.365971  1
  B  B8  1  0.750000  0.731584  0.887811  1
  B  B9  1  0.750000  0.231584  0.612189  1
  W  W10  1  0.750000  0.972008  0.176823  1
  W  W11  1  0.750000  0.472008  0.323177  1
