# generated using pymatgen
data_Ho8ZnIn3
_symmetry_space_group_name_H-M   'P 1'
_cell_length_a   10.61801700
_cell_length_b   10.61801599
_cell_length_c   6.77978200
_cell_angle_alpha   90.00000000
_cell_angle_beta   90.00000000
_cell_angle_gamma   120.00000628
_symmetry_Int_Tables_number   1
_chemical_formula_structural   Ho8ZnIn3
_chemical_formula_sum   'Ho16 Zn2 In6'
_cell_volume   661.96209997
_cell_formula_units_Z   2
loop_
 _symmetry_equiv_pos_site_id
 _symmetry_equiv_pos_as_xyz
  1  'x, y, z'
loop_
 _atom_site_type_symbol
 _atom_site_label
 _atom_site_symmetry_multiplicity
 _atom_site_fract_x
 _atom_site_fract_y
 _atom_site_fract_z
 _atom_site_occupancy
  Ho  Ho0  1  0.522469  0.044936  0.518228  1
  Ho  Ho1  1  0.955064  0.477531  0.518228  1
  Ho  Ho2  1  0.522469  0.477531  0.518228  1
  Ho  Ho3  1  0.477531  0.955064  0.018228  1
  Ho  Ho4  1  0.044936  0.522469  0.018228  1
  Ho  Ho5  1  0.477531  0.522469  0.018228  1
  Ho  Ho6  1  0.172415  0.344831  0.732161  1
  Ho  Ho7  1  0.655169  0.827585  0.732161  1
  Ho  Ho8  1  0.172415  0.827585  0.732161  1
  Ho  Ho9  1  0.827585  0.655169  0.232161  1
  Ho  Ho10  1  0.344831  0.172415  0.232161  1
  Ho  Ho11  1  0.827585  0.172415  0.232161  1
  Ho  Ho12  1  0.666667  0.333333  0.869883  1
  Ho  Ho13  1  0.333333  0.666667  0.369883  1
  Ho  Ho14  1  0.000000  0.000000  0.497145  1
  Ho  Ho15  1  0.000000  0.000000  0.997145  1
  Zn  Zn16  1  0.666667  0.333333  0.299289  1
  Zn  Zn17  1  0.333333  0.666667  0.799289  1
  In  In18  1  0.835596  0.671192  0.751539  1
  In  In19  1  0.328808  0.164404  0.751539  1
  In  In20  1  0.835596  0.164404  0.751539  1
  In  In21  1  0.164404  0.328808  0.251539  1
  In  In22  1  0.671192  0.835596  0.251539  1
  In  In23  1  0.164404  0.835596  0.251539  1
