# generated using pymatgen
data_Tb2DyGa2Ag3Ge
_symmetry_space_group_name_H-M   'P 1'
_cell_length_a   7.27527822
_cell_length_b   7.27519887
_cell_length_c   4.17431800
_cell_angle_alpha   90.00000000
_cell_angle_beta   90.00000000
_cell_angle_gamma   119.97213439
_symmetry_Int_Tables_number   1
_chemical_formula_structural   Tb2DyGa2Ag3Ge
_chemical_formula_sum   'Tb2 Dy1 Ga2 Ag3 Ge1'
_cell_volume   191.39584961
_cell_formula_units_Z   1
loop_
 _symmetry_equiv_pos_site_id
 _symmetry_equiv_pos_as_xyz
  1  'x, y, z'
loop_
 _atom_site_type_symbol
 _atom_site_label
 _atom_site_symmetry_multiplicity
 _atom_site_fract_x
 _atom_site_fract_y
 _atom_site_fract_z
 _atom_site_occupancy
  Tb  Tb0  1  0.003150  0.583749  0.000000  1
  Tb  Tb1  1  0.580579  0.996745  0.000000  1
  Dy  Dy2  1  0.416102  0.419313  0.000000  1
  Ga  Ga3  1  0.000286  0.000282  0.000000  1
  Ga  Ga4  1  0.666438  0.333452  0.500000  1
  Ag  Ag5  1  0.753682  0.750117  0.500000  1
  Ag  Ag6  1  0.249733  0.003739  0.500000  1
  Ag  Ag7  1  0.996561  0.246180  0.500000  1
  Ge  Ge8  1  0.333468  0.666425  0.500000  1
