# generated using pymatgen
data_Th10CuGeBi6
_symmetry_space_group_name_H-M   'P 1'
_cell_length_a   9.69024900
_cell_length_b   9.69024892
_cell_length_c   6.56193700
_cell_angle_alpha   90.00000000
_cell_angle_beta   90.00000000
_cell_angle_gamma   119.99999686
_symmetry_Int_Tables_number   1
_chemical_formula_structural   Th10CuGeBi6
_chemical_formula_sum   'Th10 Cu1 Ge1 Bi6'
_cell_volume   533.62058175
_cell_formula_units_Z   1
loop_
 _symmetry_equiv_pos_site_id
 _symmetry_equiv_pos_as_xyz
  1  'x, y, z'
loop_
 _atom_site_type_symbol
 _atom_site_label
 _atom_site_symmetry_multiplicity
 _atom_site_fract_x
 _atom_site_fract_y
 _atom_site_fract_z
 _atom_site_occupancy
  Th  Th0  1  0.666667  0.333333  0.000000  1
  Th  Th1  1  0.333333  0.666667  0.000000  1
  Th  Th2  1  0.333333  0.666667  0.500000  1
  Th  Th3  1  0.666667  0.333333  0.500000  1
  Th  Th4  1  0.742419  0.742419  0.749634  1
  Th  Th5  1  0.257581  0.000000  0.749634  1
  Th  Th6  1  0.000000  0.257581  0.749634  1
  Th  Th7  1  0.257581  0.257581  0.250366  1
  Th  Th8  1  0.742419  0.000000  0.250366  1
  Th  Th9  1  0.000000  0.742419  0.250366  1
  Cu  Cu10  1  0.000000  0.000000  0.500000  1
  Ge  Ge11  1  0.000000  0.000000  0.000000  1
  Bi  Bi12  1  0.387941  0.387941  0.748553  1
  Bi  Bi13  1  0.612059  0.000000  0.748553  1
  Bi  Bi14  1  0.000000  0.612059  0.748553  1
  Bi  Bi15  1  0.612059  0.612059  0.251447  1
  Bi  Bi16  1  0.387941  0.000000  0.251447  1
  Bi  Bi17  1  0.000000  0.387941  0.251447  1
