# generated using pymatgen
data_Pr4Sc6GaSi7
_symmetry_space_group_name_H-M   'P 1'
_cell_length_a   7.28030766
_cell_length_b   14.34356400
_cell_length_c   7.56026094
_cell_angle_alpha   90.00092664
_cell_angle_beta   89.86966583
_cell_angle_gamma   89.99882458
_symmetry_Int_Tables_number   1
_chemical_formula_structural   Pr4Sc6GaSi7
_chemical_formula_sum   'Pr8 Sc12 Ga2 Si14'
_cell_volume   789.48243119
_cell_formula_units_Z   2
loop_
 _symmetry_equiv_pos_site_id
 _symmetry_equiv_pos_as_xyz
  1  'x, y, z'
loop_
 _atom_site_type_symbol
 _atom_site_label
 _atom_site_symmetry_multiplicity
 _atom_site_fract_x
 _atom_site_fract_y
 _atom_site_fract_z
 _atom_site_occupancy
  Pr  Pr0  1  0.013048  0.599174  0.173447  1
  Pr  Pr1  1  0.013053  0.900850  0.173441  1
  Pr  Pr2  1  0.511380  0.599073  0.328415  1
  Pr  Pr3  1  0.511385  0.900942  0.328438  1
  Pr  Pr4  1  0.487042  0.097963  0.670809  1
  Pr  Pr5  1  0.487053  0.402017  0.670829  1
  Pr  Pr6  1  0.989661  0.098352  0.824856  1
  Pr  Pr7  1  0.989658  0.401624  0.824852  1
  Sc  Sc8  1  0.660003  0.250000  0.001756  1
  Sc  Sc9  1  0.339964  0.749993  0.997949  1
  Sc  Sc10  1  0.327104  0.125447  0.176614  1
  Sc  Sc11  1  0.327120  0.374533  0.176595  1
  Sc  Sc12  1  0.831635  0.126071  0.326575  1
  Sc  Sc13  1  0.831598  0.373916  0.326581  1
  Sc  Sc14  1  0.839966  0.750009  0.502652  1
  Sc  Sc15  1  0.161158  0.250004  0.498746  1
  Sc  Sc16  1  0.169407  0.625654  0.675778  1
  Sc  Sc17  1  0.169376  0.874355  0.675772  1
  Sc  Sc18  1  0.670450  0.626598  0.822953  1
  Sc  Sc19  1  0.670438  0.873418  0.822942  1
  Ga  Ga20  1  0.654611  0.039387  0.039744  1
  Ga  Ga21  1  0.654588  0.460604  0.039736  1
  Si  Si22  1  0.711516  0.750021  0.117379  1
  Si  Si23  1  0.033435  0.249982  0.123839  1
  Si  Si24  1  0.534670  0.249985  0.373255  1
  Si  Si25  1  0.211565  0.750023  0.382984  1
  Si  Si26  1  0.150513  0.039187  0.462217  1
  Si  Si27  1  0.150475  0.460817  0.462218  1
  Si  Si28  1  0.848959  0.539995  0.537755  1
  Si  Si29  1  0.848926  0.960005  0.537764  1
  Si  Si30  1  0.786714  0.249981  0.617124  1
  Si  Si31  1  0.465029  0.750015  0.625531  1
  Si  Si32  1  0.966107  0.750016  0.874548  1
  Si  Si33  1  0.288745  0.249981  0.883457  1
  Si  Si34  1  0.346836  0.540030  0.961225  1
  Si  Si35  1  0.346817  0.959976  0.961220  1
