# generated using pymatgen
data_Y2VSbO7
_symmetry_space_group_name_H-M   'P 1'
_cell_length_a   7.33181007
_cell_length_b   7.27746302
_cell_length_c   7.38776762
_cell_angle_alpha   89.98413475
_cell_angle_beta   59.40338036
_cell_angle_gamma   119.73094542
_symmetry_Int_Tables_number   1
_chemical_formula_structural   Y2VSbO7
_chemical_formula_sum   'Y4 V2 Sb2 O14'
_cell_volume   277.29289635
_cell_formula_units_Z   2
loop_
 _symmetry_equiv_pos_site_id
 _symmetry_equiv_pos_as_xyz
  1  'x, y, z'
loop_
 _atom_site_type_symbol
 _atom_site_label
 _atom_site_symmetry_multiplicity
 _atom_site_fract_x
 _atom_site_fract_y
 _atom_site_fract_z
 _atom_site_occupancy
  Y  Y0  1  0.500015  0.500013  0.999990  1
  Y  Y1  1  0.500013  0.000013  0.999988  1
  Y  Y2  1  0.000011  0.000012  0.499986  1
  Y  Y3  1  0.000008  0.000007  0.999992  1
  V  V4  1  0.499955  0.000005  0.500004  1
  V  V5  1  0.499788  0.499788  0.500224  1
  Sb  Sb6  1  0.999997  0.500015  0.999997  1
  Sb  Sb7  1  0.000015  0.500005  0.499989  1
  O  O8  1  0.254600  0.127365  0.120982  1
  O  O9  1  0.745428  0.872662  0.878991  1
  O  O10  1  0.683074  0.841656  0.410605  1
  O  O11  1  0.841514  0.420844  0.830318  1
  O  O12  1  0.253252  0.830556  0.837704  1
  O  O13  1  0.252392  0.421924  0.407745  1
  O  O14  1  0.251828  0.421368  0.838641  1
  O  O15  1  0.251086  0.830156  0.407810  1
  O  O16  1  0.316950  0.158357  0.589376  1
  O  O17  1  0.158517  0.579179  0.169653  1
  O  O18  1  0.746777  0.169465  0.162269  1
  O  O19  1  0.747634  0.578096  0.592234  1
  O  O20  1  0.748204  0.578648  0.161335  1
  O  O21  1  0.748941  0.169868  0.592167  1
