# generated using pymatgen
data_Th14Re3Ir2Ru
_symmetry_space_group_name_H-M   'P 1'
_cell_length_a   10.10682114
_cell_length_b   9.99571131
_cell_length_c   6.33570576
_cell_angle_alpha   90.22041661
_cell_angle_beta   89.67230056
_cell_angle_gamma   119.92921185
_symmetry_Int_Tables_number   1
_chemical_formula_structural   Th14Re3Ir2Ru
_chemical_formula_sum   'Th14 Re3 Ir2 Ru1'
_cell_volume   554.69706958
_cell_formula_units_Z   1
loop_
 _symmetry_equiv_pos_site_id
 _symmetry_equiv_pos_as_xyz
  1  'x, y, z'
loop_
 _atom_site_type_symbol
 _atom_site_label
 _atom_site_symmetry_multiplicity
 _atom_site_fract_x
 _atom_site_fract_y
 _atom_site_fract_z
 _atom_site_occupancy
  Th  Th0  1  0.459825  0.537960  0.296786  1
  Th  Th1  1  0.074489  0.535773  0.293914  1
  Th  Th2  1  0.918311  0.460239  0.797776  1
  Th  Th3  1  0.257840  0.128616  0.504761  1
  Th  Th4  1  0.542736  0.078708  0.797716  1
  Th  Th5  1  0.750810  0.875117  0.006704  1
  Th  Th6  1  0.666365  0.333925  0.282364  1
  Th  Th7  1  0.126231  0.874591  0.004380  1
  Th  Th8  1  0.461463  0.922598  0.295667  1
  Th  Th9  1  0.544026  0.464540  0.797350  1
  Th  Th10  1  0.871300  0.123352  0.506103  1
  Th  Th11  1  0.125879  0.249998  0.004963  1
  Th  Th12  1  0.871471  0.748171  0.504244  1
  Th  Th13  1  0.333614  0.666397  0.790226  1
  Re  Re14  1  0.817319  0.189134  0.051010  1
  Re  Re15  1  0.621836  0.809449  0.554464  1
  Re  Re16  1  0.371874  0.187212  0.047651  1
  Ir  Ir17  1  0.184356  0.375501  0.549962  1
  Ir  Ir18  1  0.183152  0.808396  0.549165  1
  Ru  Ru19  1  0.817100  0.630324  0.048797  1
