# generated using pymatgen
data_Ca4AlHgPt4
_symmetry_space_group_name_H-M   'P 1'
_cell_length_a   5.73012905
_cell_length_b   5.73012836
_cell_length_c   8.18641659
_cell_angle_alpha   77.02395859
_cell_angle_beta   77.02396020
_cell_angle_gamma   59.74344189
_symmetry_Int_Tables_number   1
_chemical_formula_structural   Ca4AlHgPt4
_chemical_formula_sum   'Ca4 Al1 Hg1 Pt4'
_cell_volume   224.26064541
_cell_formula_units_Z   1
loop_
 _symmetry_equiv_pos_site_id
 _symmetry_equiv_pos_as_xyz
  1  'x, y, z'
loop_
 _atom_site_type_symbol
 _atom_site_label
 _atom_site_symmetry_multiplicity
 _atom_site_fract_x
 _atom_site_fract_y
 _atom_site_fract_z
 _atom_site_occupancy
  Ca  Ca0  1  0.790173  0.509533  0.852365  1
  Ca  Ca1  1  0.490467  0.209827  0.647635  1
  Ca  Ca2  1  0.207011  0.496914  0.148051  1
  Ca  Ca3  1  0.503086  0.792989  0.351949  1
  Al  Al4  1  0.885370  0.114630  0.250000  1
  Hg  Hg5  1  0.166816  0.833184  0.750000  1
  Pt  Pt6  1  0.986282  0.733322  0.492146  1
  Pt  Pt7  1  0.266678  0.013718  0.007854  1
  Pt  Pt8  1  0.978505  0.274388  0.477229  1
  Pt  Pt9  1  0.725612  0.021495  0.022771  1
