# generated using pymatgen
data_Y8MgSc10Si16Tc
_symmetry_space_group_name_H-M   'P 1'
_cell_length_a   7.00268801
_cell_length_b   7.35832210
_cell_length_c   13.91217600
_cell_angle_alpha   90.00000000
_cell_angle_beta   90.00000000
_cell_angle_gamma   90.08734481
_symmetry_Int_Tables_number   1
_chemical_formula_structural   Y8MgSc10Si16Tc
_chemical_formula_sum   'Y8 Mg1 Sc10 Si16 Tc1'
_cell_volume   716.86624387
_cell_formula_units_Z   1
loop_
 _symmetry_equiv_pos_site_id
 _symmetry_equiv_pos_as_xyz
  1  'x, y, z'
loop_
 _atom_site_type_symbol
 _atom_site_label
 _atom_site_symmetry_multiplicity
 _atom_site_fract_x
 _atom_site_fract_y
 _atom_site_fract_z
 _atom_site_occupancy
  Y  Y0  1  0.012006  0.181696  0.093945  1
  Y  Y1  1  0.992051  0.819433  0.900706  1
  Y  Y2  1  0.487318  0.671950  0.902525  1
  Y  Y3  1  0.992051  0.819433  0.599294  1
  Y  Y4  1  0.514898  0.325915  0.095298  1
  Y  Y5  1  0.012006  0.181696  0.406055  1
  Y  Y6  1  0.514898  0.325915  0.404702  1
  Y  Y7  1  0.487318  0.671950  0.597475  1
  Mg  Mg8  1  0.843372  0.493325  0.250000  1
  Sc  Sc9  1  0.345958  0.002124  0.250000  1
  Sc  Sc10  1  0.655785  0.995709  0.750000  1
  Sc  Sc11  1  0.324800  0.178252  0.627352  1
  Sc  Sc12  1  0.676504  0.821380  0.374923  1
  Sc  Sc13  1  0.169043  0.673349  0.376862  1
  Sc  Sc14  1  0.676504  0.821380  0.125077  1
  Sc  Sc15  1  0.825350  0.328834  0.628559  1
  Sc  Sc16  1  0.324800  0.178252  0.872648  1
  Sc  Sc17  1  0.825350  0.328834  0.871441  1
  Sc  Sc18  1  0.169043  0.673349  0.123138  1
  Si  Si19  1  0.028378  0.119743  0.750000  1
  Si  Si20  1  0.976079  0.896258  0.250000  1
  Si  Si21  1  0.464210  0.619225  0.250000  1
  Si  Si22  1  0.517323  0.393239  0.750000  1
  Si  Si23  1  0.284230  0.863143  0.750000  1
  Si  Si24  1  0.715781  0.118726  0.250000  1
  Si  Si25  1  0.224956  0.373416  0.250000  1
  Si  Si26  1  0.792939  0.626297  0.750000  1
  Si  Si27  1  0.153893  0.464751  0.547837  1
  Si  Si28  1  0.841486  0.539129  0.467712  1
  Si  Si29  1  0.346347  0.965609  0.461919  1
  Si  Si30  1  0.841486  0.539129  0.032288  1
  Si  Si31  1  0.656795  0.033997  0.539545  1
  Si  Si32  1  0.153893  0.464751  0.952163  1
  Si  Si33  1  0.656795  0.033997  0.960455  1
  Si  Si34  1  0.346347  0.965609  0.038081  1
  Tc  Tc35  1  0.150008  0.490208  0.750000  1
