# generated using pymatgen
data_Dy16CoNi2Ag4Os
_symmetry_space_group_name_H-M   'P 1'
_cell_length_a   9.41802910
_cell_length_b   9.41773341
_cell_length_c   9.54590625
_cell_angle_alpha   60.15356496
_cell_angle_beta   60.15303584
_cell_angle_gamma   59.71910000
_symmetry_Int_Tables_number   1
_chemical_formula_structural   Dy16CoNi2Ag4Os
_chemical_formula_sum   'Dy16 Co1 Ni2 Ag4 Os1'
_cell_volume   598.79250318
_cell_formula_units_Z   1
loop_
 _symmetry_equiv_pos_site_id
 _symmetry_equiv_pos_as_xyz
  1  'x, y, z'
loop_
 _atom_site_type_symbol
 _atom_site_label
 _atom_site_symmetry_multiplicity
 _atom_site_fract_x
 _atom_site_fract_y
 _atom_site_fract_z
 _atom_site_occupancy
  Dy  Dy0  1  0.149382  0.546244  0.156806  1
  Dy  Dy1  1  0.690199  0.311679  0.687491  1
  Dy  Dy2  1  0.685892  0.311999  0.310219  1
  Dy  Dy3  1  0.937565  0.564549  0.563841  1
  Dy  Dy4  1  0.546245  0.149394  0.156794  1
  Dy  Dy5  1  0.151970  0.151967  0.544983  1
  Dy  Dy6  1  0.935320  0.935367  0.564615  1
  Dy  Dy7  1  0.311992  0.685880  0.310224  1
  Dy  Dy8  1  0.561783  0.943524  0.933207  1
  Dy  Dy9  1  0.564570  0.937571  0.563852  1
  Dy  Dy10  1  0.690355  0.690326  0.308906  1
  Dy  Dy11  1  0.562434  0.562418  0.934904  1
  Dy  Dy12  1  0.943523  0.561759  0.933233  1
  Dy  Dy13  1  0.311664  0.690197  0.687492  1
  Dy  Dy14  1  0.147072  0.147089  0.155856  1
  Dy  Dy15  1  0.311477  0.311502  0.683821  1
  Co  Co16  1  0.356668  0.356649  0.361010  1
  Ni  Ni17  1  0.357212  0.925094  0.359244  1
  Ni  Ni18  1  0.925090  0.357164  0.359301  1
  Ag  Ag19  1  0.918802  0.244354  0.918079  1
  Ag  Ag20  1  0.920167  0.920182  0.917974  1
  Ag  Ag21  1  0.919261  0.919279  0.243567  1
  Ag  Ag22  1  0.244373  0.918807  0.918063  1
  Os  Os23  1  0.356987  0.357004  0.926521  1
