# generated using pymatgen
data_Nb12Al2Ga6Fe3NiC4
_symmetry_space_group_name_H-M   'P 1'
_cell_length_a   8.21548641
_cell_length_b   8.22853037
_cell_length_c   8.22849000
_cell_angle_alpha   60.00350697
_cell_angle_beta   59.95412909
_cell_angle_gamma   59.95246680
_symmetry_Int_Tables_number   1
_chemical_formula_structural   Nb12Al2Ga6Fe3NiC4
_chemical_formula_sum   'Nb12 Al2 Ga6 Fe3 Ni1 C4'
_cell_volume   393.06580902
_cell_formula_units_Z   1
loop_
 _symmetry_equiv_pos_site_id
 _symmetry_equiv_pos_as_xyz
  1  'x, y, z'
loop_
 _atom_site_type_symbol
 _atom_site_label
 _atom_site_symmetry_multiplicity
 _atom_site_fract_x
 _atom_site_fract_y
 _atom_site_fract_z
 _atom_site_occupancy
  Nb  Nb0  1  0.803097  0.804769  0.196080  1
  Nb  Nb1  1  0.198596  0.186572  0.807426  1
  Nb  Nb2  1  0.803361  0.195675  0.805051  1
  Nb  Nb3  1  0.198241  0.807528  0.186588  1
  Nb  Nb4  1  0.198261  0.807509  0.807632  1
  Nb  Nb5  1  0.803356  0.195663  0.195927  1
  Nb  Nb6  1  0.447038  0.445427  0.053761  1
  Nb  Nb7  1  0.051243  0.063794  0.442474  1
  Nb  Nb8  1  0.446750  0.053927  0.445237  1
  Nb  Nb9  1  0.051033  0.442822  0.063323  1
  Nb  Nb10  1  0.051029  0.442834  0.442818  1
  Nb  Nb11  1  0.446742  0.053936  0.054087  1
  Al  Al12  1  0.741151  0.419770  0.419529  1
  Al  Al13  1  0.416224  0.748259  0.417746  1
  Ga  Ga14  1  0.415070  0.416915  0.752207  1
  Ga  Ga15  1  0.415070  0.416905  0.415766  1
  Ga  Ga16  1  0.503948  0.831951  0.832052  1
  Ga  Ga17  1  0.835669  0.496643  0.833851  1
  Ga  Ga18  1  0.835781  0.833677  0.496788  1
  Ga  Ga19  1  0.835795  0.833691  0.833783  1
  Fe  Fe20  1  0.626254  0.125148  0.624293  1
  Fe  Fe21  1  0.625312  0.625183  0.126193  1
  Fe  Fe22  1  0.625283  0.625185  0.623318  1
  Ni  Ni23  1  0.125705  0.626295  0.624012  1
  C  C24  1  0.624484  0.125336  0.125096  1
  C  C25  1  0.125350  0.624262  0.125198  1
  C  C26  1  0.125080  0.125163  0.625025  1
  C  C27  1  0.125077  0.125158  0.124739  1
