# generated using pymatgen
data_La5Mo3(As3Rh4)4
_symmetry_space_group_name_H-M   'P 1'
_cell_length_a   13.31778700
_cell_length_b   13.31778723
_cell_length_c   4.11672300
_cell_angle_alpha   90.00000000
_cell_angle_beta   90.00000000
_cell_angle_gamma   119.99999197
_symmetry_Int_Tables_number   1
_chemical_formula_structural   La5Mo3(As3Rh4)4
_chemical_formula_sum   'La5 Mo3 As12 Rh16'
_cell_volume   632.33387704
_cell_formula_units_Z   1
loop_
 _symmetry_equiv_pos_site_id
 _symmetry_equiv_pos_as_xyz
  1  'x, y, z'
loop_
 _atom_site_type_symbol
 _atom_site_label
 _atom_site_symmetry_multiplicity
 _atom_site_fract_x
 _atom_site_fract_y
 _atom_site_fract_z
 _atom_site_occupancy
  La  La0  1  0.666667  0.333333  0.000000  1
  La  La1  1  0.333333  0.666667  0.000000  1
  La  La2  1  0.188693  0.188693  0.500000  1
  La  La3  1  0.811307  0.000000  0.500000  1
  La  La4  1  0.000000  0.811307  0.500000  1
  Mo  Mo5  1  0.554566  0.554566  0.000000  1
  Mo  Mo6  1  0.445434  0.000000  0.000000  1
  Mo  Mo7  1  0.000000  0.445434  0.000000  1
  As  As8  1  0.368068  0.368068  0.000000  1
  As  As9  1  0.631932  0.000000  0.000000  1
  As  As10  1  0.000000  0.631932  0.000000  1
  As  As11  1  0.837842  0.318911  0.500000  1
  As  As12  1  0.681089  0.518930  0.500000  1
  As  As13  1  0.481070  0.162158  0.500000  1
  As  As14  1  0.318911  0.837842  0.500000  1
  As  As15  1  0.518930  0.681089  0.500000  1
  As  As16  1  0.162158  0.481070  0.500000  1
  As  As17  1  0.820553  0.820553  0.000000  1
  As  As18  1  0.179447  0.000000  0.000000  1
  As  As19  1  0.000000  0.179447  0.000000  1
  Rh  Rh20  1  0.823111  0.200875  0.000000  1
  Rh  Rh21  1  0.799125  0.622238  0.000000  1
  Rh  Rh22  1  0.377762  0.176889  0.000000  1
  Rh  Rh23  1  0.200875  0.823111  0.000000  1
  Rh  Rh24  1  0.622238  0.799125  0.000000  1
  Rh  Rh25  1  0.176889  0.377762  0.000000  1
  Rh  Rh26  1  0.643910  0.127083  0.500000  1
  Rh  Rh27  1  0.872917  0.516828  0.500000  1
  Rh  Rh28  1  0.483172  0.356090  0.500000  1
  Rh  Rh29  1  0.127083  0.643910  0.500000  1
  Rh  Rh30  1  0.516828  0.872917  0.500000  1
  Rh  Rh31  1  0.356090  0.483172  0.500000  1
  Rh  Rh32  1  0.718078  0.718078  0.500000  1
  Rh  Rh33  1  0.281922  0.000000  0.500000  1
  Rh  Rh34  1  0.000000  0.281922  0.500000  1
  Rh  Rh35  1  0.000000  0.000000  0.000000  1
