# generated using pymatgen
data_Er19LuSn7Pb9
_symmetry_space_group_name_H-M   'P 1'
_cell_length_a   8.09419202
_cell_length_b   8.14760700
_cell_length_c   15.45757300
_cell_angle_alpha   90.00000000
_cell_angle_beta   90.00000000
_cell_angle_gamma   90.00500304
_symmetry_Int_Tables_number   1
_chemical_formula_structural   Er19LuSn7Pb9
_chemical_formula_sum   'Er19 Lu1 Sn7 Pb9'
_cell_volume   1019.40058885
_cell_formula_units_Z   1
loop_
 _symmetry_equiv_pos_site_id
 _symmetry_equiv_pos_as_xyz
  1  'x, y, z'
loop_
 _atom_site_type_symbol
 _atom_site_label
 _atom_site_symmetry_multiplicity
 _atom_site_fract_x
 _atom_site_fract_y
 _atom_site_fract_z
 _atom_site_occupancy
  Er  Er0  1  0.380106  0.838478  0.876629  1
  Er  Er1  1  0.880512  0.660987  0.623498  1
  Er  Er2  1  0.619840  0.161099  0.377155  1
  Er  Er3  1  0.119665  0.337399  0.122985  1
  Er  Er4  1  0.619840  0.161099  0.122845  1
  Er  Er5  1  0.119665  0.337399  0.377015  1
  Er  Er6  1  0.380106  0.838478  0.623371  1
  Er  Er7  1  0.880512  0.660987  0.876502  1
  Er  Er8  1  0.537895  0.324922  0.895833  1
  Er  Er9  1  0.038426  0.174557  0.604379  1
  Er  Er10  1  0.464749  0.675145  0.397148  1
  Er  Er11  1  0.959928  0.827107  0.101580  1
  Er  Er12  1  0.464749  0.675145  0.102852  1
  Er  Er13  1  0.959928  0.827107  0.398420  1
  Er  Er14  1  0.537895  0.324922  0.604167  1
  Er  Er15  1  0.038426  0.174557  0.895621  1
  Er  Er16  1  0.710917  0.996359  0.750000  1
  Er  Er17  1  0.787324  0.494798  0.250000  1
  Er  Er18  1  0.291251  0.006577  0.250000  1
  Lu  Lu19  1  0.211019  0.503522  0.750000  1
  Sn  Sn20  1  0.575497  0.622760  0.750000  1
  Sn  Sn21  1  0.075982  0.876430  0.750000  1
  Sn  Sn22  1  0.424897  0.376300  0.250000  1
  Sn  Sn23  1  0.924013  0.121894  0.250000  1
  Sn  Sn24  1  0.345966  0.149523  0.750000  1
  Sn  Sn25  1  0.845979  0.350921  0.750000  1
  Sn  Sn26  1  0.655199  0.850374  0.250000  1
  Pb  Pb27  1  0.280271  0.031713  0.040908  1
  Pb  Pb28  1  0.781550  0.467462  0.459193  1
  Pb  Pb29  1  0.718431  0.968507  0.541959  1
  Pb  Pb30  1  0.218945  0.531393  0.958727  1
  Pb  Pb31  1  0.718431  0.968507  0.958041  1
  Pb  Pb32  1  0.218945  0.531393  0.541273  1
  Pb  Pb33  1  0.280271  0.031713  0.459092  1
  Pb  Pb34  1  0.781550  0.467462  0.040807  1
  Pb  Pb35  1  0.151314  0.653007  0.250000  1
