# generated using pymatgen
data_Dy11Lu(ThSn2)8
_symmetry_space_group_name_H-M   'P 1'
_cell_length_a   8.13254500
_cell_length_b   8.23314401
_cell_length_c   15.55468700
_cell_angle_alpha   90.00000000
_cell_angle_beta   90.00000000
_cell_angle_gamma   89.99781482
_symmetry_Int_Tables_number   1
_chemical_formula_structural   Dy11Lu(ThSn2)8
_chemical_formula_sum   'Dy11 Lu1 Th8 Sn16'
_cell_volume   1041.48606352
_cell_formula_units_Z   1
loop_
 _symmetry_equiv_pos_site_id
 _symmetry_equiv_pos_as_xyz
  1  'x, y, z'
loop_
 _atom_site_type_symbol
 _atom_site_label
 _atom_site_symmetry_multiplicity
 _atom_site_fract_x
 _atom_site_fract_y
 _atom_site_fract_z
 _atom_site_occupancy
  Dy  Dy0  1  0.363166  0.836447  0.876559  1
  Dy  Dy1  1  0.863149  0.663563  0.623541  1
  Dy  Dy2  1  0.636749  0.163437  0.376280  1
  Dy  Dy3  1  0.137086  0.336338  0.123696  1
  Dy  Dy4  1  0.636749  0.163437  0.123720  1
  Dy  Dy5  1  0.137086  0.336338  0.376304  1
  Dy  Dy6  1  0.363166  0.836447  0.623441  1
  Dy  Dy7  1  0.863149  0.663563  0.876459  1
  Dy  Dy8  1  0.191561  0.497686  0.750000  1
  Dy  Dy9  1  0.691656  0.002312  0.750000  1
  Dy  Dy10  1  0.808361  0.502371  0.250000  1
  Lu  Lu11  1  0.307879  0.997848  0.250000  1
  Th  Th12  1  0.519266  0.320490  0.903409  1
  Th  Th13  1  0.019307  0.179400  0.596586  1
  Th  Th14  1  0.480735  0.679408  0.403359  1
  Th  Th15  1  0.980634  0.820702  0.096635  1
  Th  Th16  1  0.480735  0.679408  0.096641  1
  Th  Th17  1  0.980634  0.820702  0.403365  1
  Th  Th18  1  0.519266  0.320490  0.596591  1
  Th  Th19  1  0.019307  0.179400  0.903414  1
  Sn  Sn20  1  0.297342  0.038558  0.042881  1
  Sn  Sn21  1  0.797215  0.461378  0.457660  1
  Sn  Sn22  1  0.702850  0.961288  0.542078  1
  Sn  Sn23  1  0.202810  0.538694  0.957951  1
  Sn  Sn24  1  0.702850  0.961288  0.957922  1
  Sn  Sn25  1  0.202810  0.538694  0.542049  1
  Sn  Sn26  1  0.297342  0.038558  0.457119  1
  Sn  Sn27  1  0.797215  0.461378  0.042340  1
  Sn  Sn28  1  0.558607  0.621279  0.750000  1
  Sn  Sn29  1  0.058746  0.878662  0.750000  1
  Sn  Sn30  1  0.441235  0.378183  0.250000  1
  Sn  Sn31  1  0.942625  0.120843  0.250000  1
  Sn  Sn32  1  0.324926  0.142144  0.750000  1
  Sn  Sn33  1  0.825009  0.357726  0.750000  1
  Sn  Sn34  1  0.673683  0.857839  0.250000  1
  Sn  Sn35  1  0.175096  0.643704  0.250000  1
