# generated using pymatgen
data_Eu3GeI2
_symmetry_space_group_name_H-M   'P 1'
_cell_length_a   15.32354906
_cell_length_b   14.60900922
_cell_length_c   8.10256027
_cell_angle_alpha   79.22398534
_cell_angle_beta   69.48126503
_cell_angle_gamma   31.29474704
_symmetry_Int_Tables_number   1
_chemical_formula_structural   Eu3GeI2
_chemical_formula_sum   'Eu12 Ge4 I8'
_cell_volume   858.47678613
_cell_formula_units_Z   4
loop_
 _symmetry_equiv_pos_site_id
 _symmetry_equiv_pos_as_xyz
  1  'x, y, z'
loop_
 _atom_site_type_symbol
 _atom_site_label
 _atom_site_symmetry_multiplicity
 _atom_site_fract_x
 _atom_site_fract_y
 _atom_site_fract_z
 _atom_site_occupancy
  Eu  Eu0  1  0.044503  0.455497  0.455497  1
  Eu  Eu1  1  0.794503  0.205497  0.205497  1
  Eu  Eu2  1  0.093828  0.588530  0.946517  1
  Eu  Eu3  1  0.878874  0.303483  0.661470  1
  Eu  Eu4  1  0.588530  0.093828  0.371126  1
  Eu  Eu5  1  0.156172  0.661470  0.303483  1
  Eu  Eu6  1  0.303483  0.878874  0.156172  1
  Eu  Eu7  1  0.371126  0.946517  0.588530  1
  Eu  Eu8  1  0.205497  0.794503  0.794503  1
  Eu  Eu9  1  0.455497  0.044503  0.044503  1
  Eu  Eu10  1  0.946517  0.371126  0.093828  1
  Eu  Eu11  1  0.661470  0.156172  0.878874  1
  Ge  Ge12  1  0.333985  0.333985  0.166015  1
  Ge  Ge13  1  0.166015  0.166015  0.333985  1
  Ge  Ge14  1  0.083985  0.083985  0.916015  1
  Ge  Ge15  1  0.916015  0.916015  0.083985  1
  I  I16  1  0.577604  0.577604  0.422396  1
  I  I17  1  0.672396  0.672396  0.827604  1
  I  I18  1  0.254415  0.254415  0.745585  1
  I  I19  1  0.422396  0.422396  0.577604  1
  I  I20  1  0.995585  0.995585  0.504415  1
  I  I21  1  0.745585  0.745585  0.254415  1
  I  I22  1  0.827604  0.827604  0.672396  1
  I  I23  1  0.504415  0.504415  0.995585  1
