# generated using pymatgen
data_Cs3HgH5
_symmetry_space_group_name_H-M   'P 1'
_cell_length_a   8.78091821
_cell_length_b   8.78091781
_cell_length_c   8.78091810
_cell_angle_alpha   121.40056757
_cell_angle_beta   121.40056614
_cell_angle_gamma   87.59079636
_symmetry_Int_Tables_number   1
_chemical_formula_structural   Cs3HgH5
_chemical_formula_sum   'Cs6 Hg2 H10'
_cell_volume   468.16105574
_cell_formula_units_Z   2
loop_
 _symmetry_equiv_pos_site_id
 _symmetry_equiv_pos_as_xyz
  1  'x, y, z'
loop_
 _atom_site_type_symbol
 _atom_site_label
 _atom_site_symmetry_multiplicity
 _atom_site_fract_x
 _atom_site_fract_y
 _atom_site_fract_z
 _atom_site_occupancy
  Cs  Cs0  1  0.681484  0.181484  0.862970  1
  Cs  Cs1  1  0.318516  0.818516  0.137030  1
  Cs  Cs2  1  0.181484  0.318516  0.500000  1
  Cs  Cs3  1  0.818516  0.681484  0.500000  1
  Cs  Cs4  1  0.750000  0.750000  0.000000  1
  Cs  Cs5  1  0.250000  0.250000  0.000000  1
  Hg  Hg6  1  0.750000  0.250000  0.500000  1
  Hg  Hg7  1  0.250000  0.750000  0.500000  1
  H  H8  1  0.957046  0.457046  0.741861  1
  H  H9  1  0.715186  0.215186  0.258139  1
  H  H10  1  0.457046  0.715186  0.500000  1
  H  H11  1  0.215186  0.957046  0.500000  1
  H  H12  1  0.042954  0.542954  0.258139  1
  H  H13  1  0.284814  0.784814  0.741861  1
  H  H14  1  0.542954  0.284814  0.500000  1
  H  H15  1  0.784814  0.042954  0.500000  1
  H  H16  1  0.000000  0.000000  0.000000  1
  H  H17  1  0.500000  0.500000  0.000000  1
