# generated using pymatgen
data_Gd3SnPd3Pb2
_symmetry_space_group_name_H-M   'P 1'
_cell_length_a   7.79449100
_cell_length_b   7.83689780
_cell_length_c   3.88088100
_cell_angle_alpha   90.00000000
_cell_angle_beta   90.00000000
_cell_angle_gamma   119.82116495
_symmetry_Int_Tables_number   1
_chemical_formula_structural   Gd3SnPd3Pb2
_chemical_formula_sum   'Gd3 Sn1 Pd3 Pb2'
_cell_volume   205.67083371
_cell_formula_units_Z   1
loop_
 _symmetry_equiv_pos_site_id
 _symmetry_equiv_pos_as_xyz
  1  'x, y, z'
loop_
 _atom_site_type_symbol
 _atom_site_label
 _atom_site_symmetry_multiplicity
 _atom_site_fract_x
 _atom_site_fract_y
 _atom_site_fract_z
 _atom_site_occupancy
  Gd  Gd0  1  0.402481  0.000000  0.500000  1
  Gd  Gd1  1  0.996691  0.397511  0.500000  1
  Gd  Gd2  1  0.599180  0.602489  0.500000  1
  Sn  Sn3  1  0.735873  0.000000  0.000000  1
  Pd  Pd4  1  0.988952  0.000000  0.500000  1
  Pd  Pd5  1  0.342294  0.673342  0.000000  1
  Pd  Pd6  1  0.668954  0.326658  0.000000  1
  Pb  Pb7  1  0.000227  0.734880  0.000000  1
  Pb  Pb8  1  0.265348  0.265120  0.000000  1
