# generated using pymatgen
data_La2Tb4OsBr10
_symmetry_space_group_name_H-M   'P 1'
_cell_length_a   7.56458470
_cell_length_b   9.38659908
_cell_length_c   9.50378220
_cell_angle_alpha   109.53805302
_cell_angle_beta   96.91362951
_cell_angle_gamma   103.97739587
_symmetry_Int_Tables_number   1
_chemical_formula_structural   La2Tb4OsBr10
_chemical_formula_sum   'La2 Tb4 Os1 Br10'
_cell_volume   602.02253342
_cell_formula_units_Z   1
loop_
 _symmetry_equiv_pos_site_id
 _symmetry_equiv_pos_as_xyz
  1  'x, y, z'
loop_
 _atom_site_type_symbol
 _atom_site_label
 _atom_site_symmetry_multiplicity
 _atom_site_fract_x
 _atom_site_fract_y
 _atom_site_fract_z
 _atom_site_occupancy
  La  La0  1  0.969253  0.289068  0.094789  1
  La  La1  1  0.030747  0.710932  0.905211  1
  Tb  Tb2  1  0.635551  0.866554  0.814756  1
  Tb  Tb3  1  0.364449  0.133446  0.185244  1
  Tb  Tb4  1  0.125551  0.044075  0.747400  1
  Tb  Tb5  1  0.874449  0.955925  0.252600  1
  Os  Os6  1  0.000000  0.000000  0.000000  1
  Br  Br7  1  0.539448  0.171716  0.917735  1
  Br  Br8  1  0.460552  0.828284  0.082265  1
  Br  Br9  1  0.754682  0.917208  0.545388  1
  Br  Br10  1  0.245318  0.082792  0.454612  1
  Br  Br11  1  0.093761  0.359241  0.821859  1
  Br  Br12  1  0.906239  0.640759  0.178141  1
  Br  Br13  1  0.223091  0.752032  0.643128  1
  Br  Br14  1  0.776909  0.247968  0.356872  1
  Br  Br15  1  0.631904  0.552342  0.725370  1
  Br  Br16  1  0.368096  0.447658  0.274630  1
