# generated using pymatgen
data_Nd2TmLu3(RuO7)2
_symmetry_space_group_name_H-M   'P 1'
_cell_length_a   6.36498173
_cell_length_b   6.36549333
_cell_length_c   7.44417300
_cell_angle_alpha   90.00000000
_cell_angle_beta   90.00000000
_cell_angle_gamma   109.63825729
_symmetry_Int_Tables_number   1
_chemical_formula_structural   Nd2TmLu3(RuO7)2
_chemical_formula_sum   'Nd2 Tm1 Lu3 Ru2 O14'
_cell_volume   284.06629551
_cell_formula_units_Z   1
loop_
 _symmetry_equiv_pos_site_id
 _symmetry_equiv_pos_as_xyz
  1  'x, y, z'
loop_
 _atom_site_type_symbol
 _atom_site_label
 _atom_site_symmetry_multiplicity
 _atom_site_fract_x
 _atom_site_fract_y
 _atom_site_fract_z
 _atom_site_occupancy
  Nd  Nd0  1  0.999739  0.000018  0.500407  1
  Nd  Nd1  1  0.999739  0.000018  0.999593  1
  Tm  Tm2  1  0.064646  0.515367  0.250000  1
  Lu  Lu3  1  0.485120  0.938216  0.750000  1
  Lu  Lu4  1  0.514902  0.062197  0.250000  1
  Lu  Lu5  1  0.938049  0.485138  0.750000  1
  Ru  Ru6  1  0.500017  0.499780  0.500441  1
  Ru  Ru7  1  0.500017  0.499780  0.999559  1
  O  O8  1  0.593408  0.593796  0.750000  1
  O  O9  1  0.407221  0.406239  0.250000  1
  O  O10  1  0.834509  0.123551  0.750000  1
  O  O11  1  0.165197  0.879767  0.250000  1
  O  O12  1  0.123714  0.834738  0.750000  1
  O  O13  1  0.875326  0.162882  0.250000  1
  O  O14  1  0.440456  0.177785  0.963677  1
  O  O15  1  0.558890  0.821931  0.463937  1
  O  O16  1  0.177768  0.439356  0.962272  1
  O  O17  1  0.822083  0.560186  0.464976  1
  O  O18  1  0.440456  0.177785  0.536323  1
  O  O19  1  0.558890  0.821931  0.036063  1
  O  O20  1  0.822083  0.560186  0.035024  1
  O  O21  1  0.177768  0.439356  0.537728  1
