# generated using pymatgen
data_La2VO5
_symmetry_space_group_name_H-M   'P 1'
_cell_length_a   3.96444900
_cell_length_b   11.07085400
_cell_length_c   11.49929700
_cell_angle_alpha   90.00000000
_cell_angle_beta   90.00000000
_cell_angle_gamma   90.00000000
_symmetry_Int_Tables_number   1
_chemical_formula_structural   La2VO5
_chemical_formula_sum   'La8 V4 O20'
_cell_volume   504.70226024
_cell_formula_units_Z   4
loop_
 _symmetry_equiv_pos_site_id
 _symmetry_equiv_pos_as_xyz
  1  'x, y, z'
loop_
 _atom_site_type_symbol
 _atom_site_label
 _atom_site_symmetry_multiplicity
 _atom_site_fract_x
 _atom_site_fract_y
 _atom_site_fract_z
 _atom_site_occupancy
  La  La0  1  0.750000  0.100988  0.719058  1
  La  La1  1  0.250000  0.899012  0.280942  1
  La  La2  1  0.750000  0.600988  0.780942  1
  La  La3  1  0.250000  0.399012  0.219058  1
  La  La4  1  0.250000  0.362999  0.558828  1
  La  La5  1  0.750000  0.637001  0.441172  1
  La  La6  1  0.250000  0.862999  0.941172  1
  La  La7  1  0.750000  0.137001  0.058828  1
  V  V8  1  0.250000  0.310656  0.873791  1
  V  V9  1  0.750000  0.689344  0.126209  1
  V  V10  1  0.250000  0.810656  0.626209  1
  V  V11  1  0.750000  0.189344  0.373790  1
  O  O12  1  0.250000  0.462543  0.831321  1
  O  O13  1  0.750000  0.537457  0.168679  1
  O  O14  1  0.250000  0.962543  0.668679  1
  O  O15  1  0.750000  0.037457  0.331321  1
  O  O16  1  0.250000  0.220551  0.729993  1
  O  O17  1  0.750000  0.779449  0.270007  1
  O  O18  1  0.250000  0.720551  0.770007  1
  O  O19  1  0.750000  0.279449  0.229993  1
  O  O20  1  0.750000  0.261808  0.876725  1
  O  O21  1  0.250000  0.738192  0.123275  1
  O  O22  1  0.750000  0.761808  0.623275  1
  O  O23  1  0.250000  0.238192  0.376725  1
  O  O24  1  0.250000  0.008397  0.102611  1
  O  O25  1  0.750000  0.991603  0.897389  1
  O  O26  1  0.250000  0.508397  0.397389  1
  O  O27  1  0.750000  0.491603  0.602611  1
  O  O28  1  0.250000  0.272036  0.033578  1
  O  O29  1  0.750000  0.727964  0.966422  1
  O  O30  1  0.250000  0.772036  0.466422  1
  O  O31  1  0.750000  0.227964  0.533578  1
