# generated using pymatgen
data_TbY5(ZnPd5)2
_symmetry_space_group_name_H-M   'P 1'
_cell_length_a   8.23166004
_cell_length_b   8.23166010
_cell_length_c   13.14392400
_cell_angle_alpha   90.00000000
_cell_angle_beta   90.00000000
_cell_angle_gamma   127.45633379
_symmetry_Int_Tables_number   1
_chemical_formula_structural   TbY5(ZnPd5)2
_chemical_formula_sum   'Tb2 Y10 Zn4 Pd20'
_cell_volume   707.00147879
_cell_formula_units_Z   2
loop_
 _symmetry_equiv_pos_site_id
 _symmetry_equiv_pos_as_xyz
  1  'x, y, z'
loop_
 _atom_site_type_symbol
 _atom_site_label
 _atom_site_symmetry_multiplicity
 _atom_site_fract_x
 _atom_site_fract_y
 _atom_site_fract_z
 _atom_site_occupancy
  Tb  Tb0  1  0.320653  0.679347  0.250000  1
  Tb  Tb1  1  0.679347  0.320653  0.750000  1
  Y  Y2  1  0.927896  0.072104  0.250000  1
  Y  Y3  1  0.072104  0.927896  0.750000  1
  Y  Y4  1  0.629800  0.370200  0.462631  1
  Y  Y5  1  0.370200  0.629800  0.537369  1
  Y  Y6  1  0.629800  0.370200  0.037369  1
  Y  Y7  1  0.370200  0.629800  0.962631  1
  Y  Y8  1  0.879600  0.120400  0.947510  1
  Y  Y9  1  0.120400  0.879600  0.052490  1
  Y  Y10  1  0.879600  0.120400  0.552490  1
  Y  Y11  1  0.120400  0.879600  0.447510  1
  Zn  Zn12  1  0.722766  0.277234  0.250000  1
  Zn  Zn13  1  0.277234  0.722766  0.750000  1
  Zn  Zn14  1  0.531604  0.468396  0.250000  1
  Zn  Zn15  1  0.468396  0.531604  0.750000  1
  Pd  Pd16  1  0.323587  0.069965  0.250000  1
  Pd  Pd17  1  0.069965  0.323587  0.750000  1
  Pd  Pd18  1  0.676413  0.930035  0.750000  1
  Pd  Pd19  1  0.930035  0.676413  0.250000  1
  Pd  Pd20  1  0.565334  0.000310  0.395900  1
  Pd  Pd21  1  0.000310  0.565334  0.604100  1
  Pd  Pd22  1  0.565334  0.000310  0.104100  1
  Pd  Pd23  1  0.000310  0.565334  0.895900  1
  Pd  Pd24  1  0.434666  0.999690  0.604100  1
  Pd  Pd25  1  0.999690  0.434666  0.395900  1
  Pd  Pd26  1  0.434666  0.999690  0.895900  1
  Pd  Pd27  1  0.999690  0.434666  0.104100  1
  Pd  Pd28  1  0.692170  0.746980  0.393371  1
  Pd  Pd29  1  0.746980  0.692170  0.606629  1
  Pd  Pd30  1  0.692170  0.746980  0.106629  1
  Pd  Pd31  1  0.746980  0.692170  0.893371  1
  Pd  Pd32  1  0.307830  0.253020  0.606629  1
  Pd  Pd33  1  0.253020  0.307830  0.393371  1
  Pd  Pd34  1  0.307830  0.253020  0.893371  1
  Pd  Pd35  1  0.253020  0.307830  0.106629  1
