# generated using pymatgen
data_Hf5Zn(Co5B2)2
_symmetry_space_group_name_H-M   'P 1'
_cell_length_a   8.70249400
_cell_length_b   8.70249400
_cell_length_c   3.13454400
_cell_angle_alpha   90.00000000
_cell_angle_beta   90.00000000
_cell_angle_gamma   90.00000000
_symmetry_Int_Tables_number   1
_chemical_formula_structural   Hf5Zn(Co5B2)2
_chemical_formula_sum   'Hf5 Zn1 Co10 B4'
_cell_volume   237.38968027
_cell_formula_units_Z   1
loop_
 _symmetry_equiv_pos_site_id
 _symmetry_equiv_pos_as_xyz
  1  'x, y, z'
loop_
 _atom_site_type_symbol
 _atom_site_label
 _atom_site_symmetry_multiplicity
 _atom_site_fract_x
 _atom_site_fract_y
 _atom_site_fract_z
 _atom_site_occupancy
  Hf  Hf0  1  0.500000  0.500000  0.000000  1
  Hf  Hf1  1  0.829339  0.318566  0.000000  1
  Hf  Hf2  1  0.318566  0.170661  0.000000  1
  Hf  Hf3  1  0.681434  0.829339  0.000000  1
  Hf  Hf4  1  0.170661  0.681434  0.000000  1
  Zn  Zn5  1  0.000000  0.000000  0.000000  1
  Co  Co6  1  0.500000  0.000000  0.500000  1
  Co  Co7  1  0.000000  0.500000  0.500000  1
  Co  Co8  1  0.068974  0.224163  0.500000  1
  Co  Co9  1  0.224163  0.931026  0.500000  1
  Co  Co10  1  0.775837  0.068974  0.500000  1
  Co  Co11  1  0.931026  0.775837  0.500000  1
  Co  Co12  1  0.429368  0.728332  0.500000  1
  Co  Co13  1  0.570632  0.271668  0.500000  1
  Co  Co14  1  0.728332  0.570632  0.500000  1
  Co  Co15  1  0.271668  0.429368  0.500000  1
  B  B16  1  0.619871  0.117604  0.000000  1
  B  B17  1  0.117604  0.380129  0.000000  1
  B  B18  1  0.882396  0.619871  0.000000  1
  B  B19  1  0.380129  0.882396  0.000000  1
