# generated using pymatgen
data_TbNd2Lu3Ta2O14
_symmetry_space_group_name_H-M   'P 1'
_cell_length_a   6.45074211
_cell_length_b   6.44783307
_cell_length_c   7.54948400
_cell_angle_alpha   90.00000000
_cell_angle_beta   90.00000000
_cell_angle_gamma   109.16010260
_symmetry_Int_Tables_number   1
_chemical_formula_structural   TbNd2Lu3Ta2O14
_chemical_formula_sum   'Tb1 Nd2 Lu3 Ta2 O14'
_cell_volume   296.61358708
_cell_formula_units_Z   1
loop_
 _symmetry_equiv_pos_site_id
 _symmetry_equiv_pos_as_xyz
  1  'x, y, z'
loop_
 _atom_site_type_symbol
 _atom_site_label
 _atom_site_symmetry_multiplicity
 _atom_site_fract_x
 _atom_site_fract_y
 _atom_site_fract_z
 _atom_site_occupancy
  Tb  Tb0  1  0.466002  0.999753  0.250000  1
  Nd  Nd1  1  0.503388  0.503988  0.501379  1
  Nd  Nd2  1  0.503388  0.503988  0.998621  1
  Lu  Lu3  1  0.002711  0.530029  0.250000  1
  Lu  Lu4  1  0.998029  0.468357  0.750000  1
  Lu  Lu5  1  0.532738  0.002071  0.750000  1
  Ta  Ta6  1  0.000532  0.000283  0.501670  1
  Ta  Ta7  1  0.000532  0.000283  0.998330  1
  O  O8  1  0.934760  0.072391  0.750000  1
  O  O9  1  0.063785  0.932161  0.250000  1
  O  O10  1  0.353388  0.639713  0.250000  1
  O  O11  1  0.647925  0.353637  0.750000  1
  O  O12  1  0.358894  0.639264  0.750000  1
  O  O13  1  0.644489  0.369355  0.250000  1
  O  O14  1  0.320847  0.070113  0.961556  1
  O  O15  1  0.674713  0.924561  0.473586  1
  O  O16  1  0.320847  0.070113  0.538444  1
  O  O17  1  0.674713  0.924561  0.026414  1
  O  O18  1  0.064560  0.320025  0.463149  1
  O  O19  1  0.934600  0.677666  0.964585  1
  O  O20  1  0.934600  0.677666  0.535415  1
  O  O21  1  0.064560  0.320025  0.036851  1
