# generated using pymatgen
data_Tb10SnBi5P2
_symmetry_space_group_name_H-M   'P 1'
_cell_length_a   9.23990200
_cell_length_b   9.24013283
_cell_length_c   6.70993700
_cell_angle_alpha   90.00000000
_cell_angle_beta   90.00000000
_cell_angle_gamma   120.00082796
_symmetry_Int_Tables_number   1
_chemical_formula_structural   Tb10SnBi5P2
_chemical_formula_sum   'Tb10 Sn1 Bi5 P2'
_cell_volume   496.12490656
_cell_formula_units_Z   1
loop_
 _symmetry_equiv_pos_site_id
 _symmetry_equiv_pos_as_xyz
  1  'x, y, z'
loop_
 _atom_site_type_symbol
 _atom_site_label
 _atom_site_symmetry_multiplicity
 _atom_site_fract_x
 _atom_site_fract_y
 _atom_site_fract_z
 _atom_site_occupancy
  Tb  Tb0  1  0.669753  0.333889  0.001845  1
  Tb  Tb1  1  0.330247  0.664137  0.001845  1
  Tb  Tb2  1  0.330247  0.664137  0.498155  1
  Tb  Tb3  1  0.669753  0.333889  0.498155  1
  Tb  Tb4  1  0.762628  0.762865  0.750000  1
  Tb  Tb5  1  0.237372  0.000237  0.750000  1
  Tb  Tb6  1  0.000000  0.238429  0.750000  1
  Tb  Tb7  1  0.234536  0.239490  0.250000  1
  Tb  Tb8  1  0.765464  0.004953  0.250000  1
  Tb  Tb9  1  0.000000  0.760509  0.250000  1
  Sn  Sn10  1  0.000000  0.399224  0.250000  1
  Bi  Bi11  1  0.399043  0.398304  0.750000  1
  Bi  Bi12  1  0.600957  0.999261  0.750000  1
  Bi  Bi13  1  0.000000  0.600359  0.750000  1
  Bi  Bi14  1  0.601875  0.601935  0.250000  1
  Bi  Bi15  1  0.398125  0.000060  0.250000  1
  P  P16  1  0.000000  0.999160  0.999804  1
  P  P17  1  0.000000  0.999160  0.500196  1
