# generated using pymatgen
data_RbCuPSe3
_symmetry_space_group_name_H-M   'P 1'
_cell_length_a   12.45692100
_cell_length_b   6.56266594
_cell_length_c   10.04073975
_cell_angle_alpha   57.33880242
_cell_angle_beta   90.00000000
_cell_angle_gamma   90.00000000
_symmetry_Int_Tables_number   1
_chemical_formula_structural   RbCuPSe3
_chemical_formula_sum   'Rb4 Cu4 P4 Se12'
_cell_volume   691.04301702
_cell_formula_units_Z   4
loop_
 _symmetry_equiv_pos_site_id
 _symmetry_equiv_pos_as_xyz
  1  'x, y, z'
loop_
 _atom_site_type_symbol
 _atom_site_label
 _atom_site_symmetry_multiplicity
 _atom_site_fract_x
 _atom_site_fract_y
 _atom_site_fract_z
 _atom_site_occupancy
  Rb  Rb0  1  0.170946  0.262119  0.488182  1
  Rb  Rb1  1  0.670946  0.737881  0.011818  1
  Rb  Rb2  1  0.829054  0.737881  0.511818  1
  Rb  Rb3  1  0.329054  0.262119  0.988182  1
  Cu  Cu4  1  0.056175  0.684047  0.866531  1
  Cu  Cu5  1  0.556175  0.315953  0.633469  1
  Cu  Cu6  1  0.943825  0.315953  0.133469  1
  Cu  Cu7  1  0.443825  0.684047  0.366531  1
  P  P8  1  0.460053  0.845338  0.613421  1
  P  P9  1  0.960053  0.154662  0.886579  1
  P  P10  1  0.539947  0.154662  0.386579  1
  P  P11  1  0.039947  0.845338  0.113421  1
  Se  Se12  1  0.320248  0.736924  0.529835  1
  Se  Se13  1  0.820248  0.263076  0.970165  1
  Se  Se14  1  0.679752  0.263076  0.470165  1
  Se  Se15  1  0.179752  0.736924  0.029835  1
  Se  Se16  1  0.416660  0.015867  0.745175  1
  Se  Se17  1  0.916660  0.984133  0.754825  1
  Se  Se18  1  0.583340  0.984133  0.254825  1
  Se  Se19  1  0.083340  0.015867  0.245175  1
  Se  Se20  1  0.582201  0.553623  0.745819  1
  Se  Se21  1  0.082201  0.446377  0.754181  1
  Se  Se22  1  0.417799  0.446377  0.254181  1
  Se  Se23  1  0.917799  0.553623  0.245819  1
