# generated using pymatgen
data_Er4NiAg
_symmetry_space_group_name_H-M   'P 1'
_cell_length_a   9.36823451
_cell_length_b   9.36789747
_cell_length_c   9.36827300
_cell_angle_alpha   59.99959998
_cell_angle_beta   60.00028649
_cell_angle_gamma   59.99927438
_symmetry_Int_Tables_number   1
_chemical_formula_structural   Er4NiAg
_chemical_formula_sum   'Er16 Ni4 Ag4'
_cell_volume   581.35534352
_cell_formula_units_Z   4
loop_
 _symmetry_equiv_pos_site_id
 _symmetry_equiv_pos_as_xyz
  1  'x, y, z'
loop_
 _atom_site_type_symbol
 _atom_site_label
 _atom_site_symmetry_multiplicity
 _atom_site_fract_x
 _atom_site_fract_y
 _atom_site_fract_z
 _atom_site_occupancy
  Er  Er0  1  0.185897  0.814092  0.814118  1
  Er  Er1  1  0.814106  0.185885  0.185889  1
  Er  Er2  1  0.814099  0.185881  0.814126  1
  Er  Er3  1  0.185895  0.814108  0.185880  1
  Er  Er4  1  0.814104  0.814110  0.185888  1
  Er  Er5  1  0.185895  0.185872  0.814124  1
  Er  Er6  1  0.600116  0.600242  0.600212  1
  Er  Er7  1  0.600133  0.600251  0.199421  1
  Er  Er8  1  0.600147  0.199415  0.600234  1
  Er  Er9  1  0.199465  0.600206  0.600180  1
  Er  Er10  1  0.061101  0.438932  0.438936  1
  Er  Er11  1  0.438927  0.061063  0.061090  1
  Er  Er12  1  0.438929  0.061021  0.438924  1
  Er  Er13  1  0.061136  0.438924  0.061014  1
  Er  Er14  1  0.438926  0.438919  0.061046  1
  Er  Er15  1  0.061156  0.060990  0.438929  1
  Ni  Ni16  1  0.393136  0.393070  0.393126  1
  Ni  Ni17  1  0.393116  0.393087  0.820678  1
  Ni  Ni18  1  0.393050  0.820859  0.393044  1
  Ni  Ni19  1  0.820638  0.393093  0.393135  1
  Ag  Ag20  1  0.832383  0.832376  0.832380  1
  Ag  Ag21  1  0.832382  0.832374  0.502868  1
  Ag  Ag22  1  0.832382  0.502856  0.832381  1
  Ag  Ag23  1  0.502879  0.832370  0.832377  1
