# generated using pymatgen
data_NiSb12Os2Rh
_symmetry_space_group_name_H-M   'P 1'
_cell_length_a   8.07732019
_cell_length_b   8.06654288
_cell_length_c   9.36013691
_cell_angle_alpha   54.84274639
_cell_angle_beta   55.00669790
_cell_angle_gamma   70.84265538
_symmetry_Int_Tables_number   1
_chemical_formula_structural   NiSb12Os2Rh
_chemical_formula_sum   'Ni1 Sb12 Os2 Rh1'
_cell_volume   408.47211645
_cell_formula_units_Z   1
loop_
 _symmetry_equiv_pos_site_id
 _symmetry_equiv_pos_as_xyz
  1  'x, y, z'
loop_
 _atom_site_type_symbol
 _atom_site_label
 _atom_site_symmetry_multiplicity
 _atom_site_fract_x
 _atom_site_fract_y
 _atom_site_fract_z
 _atom_site_occupancy
  Ni  Ni0  1  0.500000  0.000000  0.500000  1
  Sb  Sb1  1  0.155347  0.155046  0.180759  1
  Sb  Sb2  1  0.844653  0.844954  0.819241  1
  Sb  Sb3  1  0.839316  0.847028  0.495952  1
  Sb  Sb4  1  0.160684  0.152972  0.504048  1
  Sb  Sb5  1  0.816709  0.506226  0.337730  1
  Sb  Sb6  1  0.183291  0.493774  0.662270  1
  Sb  Sb7  1  0.505972  0.817609  0.340275  1
  Sb  Sb8  1  0.494028  0.182391  0.659725  1
  Sb  Sb9  1  0.662046  0.338414  0.845360  1
  Sb  Sb10  1  0.337954  0.661586  0.154640  1
  Sb  Sb11  1  0.660190  0.333237  0.159266  1
  Sb  Sb12  1  0.339810  0.666763  0.840734  1
  Os  Os13  1  0.000000  0.500000  0.000000  1
  Os  Os14  1  0.500000  0.000000  0.000000  1
  Rh  Rh15  1  0.000000  0.500000  0.500000  1
