# generated using pymatgen
data_TaNbVP2Rh
_symmetry_space_group_name_H-M   'P 1'
_cell_length_a   3.52481200
_cell_length_b   6.44825055
_cell_length_c   7.55781054
_cell_angle_alpha   89.67355816
_cell_angle_beta   90.00000000
_cell_angle_gamma   90.00000000
_symmetry_Int_Tables_number   1
_chemical_formula_structural   TaNbVP2Rh
_chemical_formula_sum   'Ta2 Nb2 V2 P4 Rh2'
_cell_volume   171.77771195
_cell_formula_units_Z   2
loop_
 _symmetry_equiv_pos_site_id
 _symmetry_equiv_pos_as_xyz
  1  'x, y, z'
loop_
 _atom_site_type_symbol
 _atom_site_label
 _atom_site_symmetry_multiplicity
 _atom_site_fract_x
 _atom_site_fract_y
 _atom_site_fract_z
 _atom_site_occupancy
  Ta  Ta0  1  0.750000  0.984439  0.664609  1
  Ta  Ta1  1  0.250000  0.015561  0.335391  1
  Nb  Nb2  1  0.250000  0.542110  0.158917  1
  Nb  Nb3  1  0.750000  0.457890  0.841083  1
  V  V4  1  0.750000  0.864007  0.061008  1
  V  V5  1  0.250000  0.135993  0.938992  1
  P  P6  1  0.250000  0.766902  0.862161  1
  P  P7  1  0.750000  0.233098  0.137839  1
  P  P8  1  0.750000  0.728567  0.366601  1
  P  P9  1  0.250000  0.271433  0.633399  1
  Rh  Rh10  1  0.250000  0.653392  0.567387  1
  Rh  Rh11  1  0.750000  0.346608  0.432613  1
