# generated using pymatgen
data_Nd12ZnSi4Sn
_symmetry_space_group_name_H-M   'P 1'
_cell_length_a   8.78371781
_cell_length_b   8.78378110
_cell_length_c   8.78371744
_cell_angle_alpha   112.21213549
_cell_angle_beta   110.39194117
_cell_angle_gamma   105.87374016
_symmetry_Int_Tables_number   1
_chemical_formula_structural   Nd12ZnSi4Sn
_chemical_formula_sum   'Nd12 Zn1 Si4 Sn1'
_cell_volume   520.02592488
_cell_formula_units_Z   1
loop_
 _symmetry_equiv_pos_site_id
 _symmetry_equiv_pos_as_xyz
  1  'x, y, z'
loop_
 _atom_site_type_symbol
 _atom_site_label
 _atom_site_symmetry_multiplicity
 _atom_site_fract_x
 _atom_site_fract_y
 _atom_site_fract_z
 _atom_site_occupancy
  Nd  Nd0  1  0.440583  0.238456  0.202124  1
  Nd  Nd1  1  0.559417  0.761544  0.797876  1
  Nd  Nd2  1  0.036331  0.238456  0.797874  1
  Nd  Nd3  1  0.963669  0.761544  0.202126  1
  Nd  Nd4  1  0.180651  0.270228  0.450880  1
  Nd  Nd5  1  0.819349  0.729772  0.549120  1
  Nd  Nd6  1  0.180653  0.729772  0.910424  1
  Nd  Nd7  1  0.819347  0.270228  0.089576  1
  Nd  Nd8  1  0.321154  0.615828  0.294675  1
  Nd  Nd9  1  0.678846  0.384172  0.705325  1
  Nd  Nd10  1  0.321144  0.026473  0.705328  1
  Nd  Nd11  1  0.678856  0.973527  0.294672  1
  Zn  Zn12  1  0.000000  0.000000  0.000000  1
  Si  Si13  1  0.370418  0.000000  0.370418  1
  Si  Si14  1  0.629582  0.000000  0.629582  1
  Si  Si15  1  0.113058  0.613058  0.499999  1
  Si  Si16  1  0.886942  0.386942  0.500001  1
  Sn  Sn17  1  0.500000  0.500000  0.000000  1
