# generated using pymatgen
data_Dy3Er5(Si4Mo3)4
_symmetry_space_group_name_H-M   'P 1'
_cell_length_a   6.75380710
_cell_length_b   6.93912200
_cell_length_c   12.91235387
_cell_angle_alpha   90.01963783
_cell_angle_beta   89.99671299
_cell_angle_gamma   90.00899840
_symmetry_Int_Tables_number   1
_chemical_formula_structural   Dy3Er5(Si4Mo3)4
_chemical_formula_sum   'Dy3 Er5 Si16 Mo12'
_cell_volume   605.14376572
_cell_formula_units_Z   1
loop_
 _symmetry_equiv_pos_site_id
 _symmetry_equiv_pos_as_xyz
  1  'x, y, z'
loop_
 _atom_site_type_symbol
 _atom_site_label
 _atom_site_symmetry_multiplicity
 _atom_site_fract_x
 _atom_site_fract_y
 _atom_site_fract_z
 _atom_site_occupancy
  Dy  Dy0  1  0.002841  0.832768  0.593699  1
  Dy  Dy1  1  0.497047  0.332830  0.406287  1
  Dy  Dy2  1  0.997106  0.167175  0.093772  1
  Er  Er3  1  0.496854  0.332773  0.094055  1
  Er  Er4  1  0.996857  0.167347  0.406133  1
  Er  Er5  1  0.503164  0.667308  0.594029  1
  Er  Er6  1  0.003109  0.832509  0.905963  1
  Er  Er7  1  0.502983  0.667481  0.905947  1
  Si  Si8  1  0.659251  0.041151  0.547082  1
  Si  Si9  1  0.159789  0.459060  0.952788  1
  Si  Si10  1  0.340947  0.958580  0.047011  1
  Si  Si11  1  0.840659  0.541165  0.452868  1
  Si  Si12  1  0.340507  0.958352  0.452870  1
  Si  Si13  1  0.840165  0.541726  0.047037  1
  Si  Si14  1  0.659264  0.041102  0.952788  1
  Si  Si15  1  0.159543  0.458377  0.547116  1
  Si  Si16  1  0.534790  0.366875  0.749956  1
  Si  Si17  1  0.034745  0.133398  0.750123  1
  Si  Si18  1  0.465230  0.633464  0.249863  1
  Si  Si19  1  0.965247  0.866623  0.250205  1
  Si  Si20  1  0.802105  0.630189  0.750233  1
  Si  Si21  1  0.302824  0.869478  0.750165  1
  Si  Si22  1  0.197427  0.369922  0.250104  1
  Si  Si23  1  0.697472  0.130133  0.250017  1
  Mo  Mo24  1  0.830392  0.334652  0.625018  1
  Mo  Mo25  1  0.330470  0.165338  0.875005  1
  Mo  Mo26  1  0.169785  0.665266  0.124880  1
  Mo  Mo27  1  0.669692  0.834712  0.374992  1
  Mo  Mo28  1  0.169402  0.665623  0.374683  1
  Mo  Mo29  1  0.669339  0.834385  0.125091  1
  Mo  Mo30  1  0.830182  0.334769  0.874820  1
  Mo  Mo31  1  0.330552  0.165462  0.625246  1
  Mo  Mo32  1  0.665948  0.998248  0.750054  1
  Mo  Mo33  1  0.166387  0.501721  0.750062  1
  Mo  Mo34  1  0.333961  0.001532  0.250030  1
  Mo  Mo35  1  0.833962  0.498507  0.250010  1
