# generated using pymatgen
data_Y2B6Ir5Rh4
_symmetry_space_group_name_H-M   'P 1'
_cell_length_a   5.62352200
_cell_length_b   5.63469230
_cell_length_c   8.62874000
_cell_angle_alpha   90.00000000
_cell_angle_beta   90.00000000
_cell_angle_gamma   119.93444389
_symmetry_Int_Tables_number   1
_chemical_formula_structural   Y2B6Ir5Rh4
_chemical_formula_sum   'Y2 B6 Ir5 Rh4'
_cell_volume   236.94258840
_cell_formula_units_Z   1
loop_
 _symmetry_equiv_pos_site_id
 _symmetry_equiv_pos_as_xyz
  1  'x, y, z'
loop_
 _atom_site_type_symbol
 _atom_site_label
 _atom_site_symmetry_multiplicity
 _atom_site_fract_x
 _atom_site_fract_y
 _atom_site_fract_z
 _atom_site_occupancy
  Y  Y0  1  0.000000  0.000000  0.701666  1
  Y  Y1  1  0.000000  0.000000  0.298334  1
  B  B2  1  0.666282  0.332563  0.000000  1
  B  B3  1  0.333718  0.667437  0.000000  1
  B  B4  1  0.666405  0.332808  0.668016  1
  B  B5  1  0.333595  0.667192  0.668016  1
  B  B6  1  0.333595  0.667192  0.331984  1
  B  B7  1  0.666405  0.332808  0.331984  1
  Ir  Ir8  1  0.500000  0.000000  0.836296  1
  Ir  Ir9  1  0.500000  0.000000  0.163704  1
  Ir  Ir10  1  0.500000  0.500000  0.500000  1
  Ir  Ir11  1  0.500000  0.000000  0.500000  1
  Ir  Ir12  1  0.000000  0.500000  0.500000  1
  Rh  Rh13  1  0.500000  0.500000  0.836613  1
  Rh  Rh14  1  0.000000  0.500000  0.836613  1
  Rh  Rh15  1  0.500000  0.500000  0.163387  1
  Rh  Rh16  1  0.000000  0.500000  0.163387  1
