# generated using pymatgen
data_Sm2Rh2O7
_symmetry_space_group_name_H-M   'P 1'
_cell_length_a   7.32425398
_cell_length_b   7.32425453
_cell_length_c   7.32425400
_cell_angle_alpha   60.00000239
_cell_angle_beta   59.99999989
_cell_angle_gamma   60.00000243
_symmetry_Int_Tables_number   1
_chemical_formula_structural   Sm2Rh2O7
_chemical_formula_sum   'Sm4 Rh4 O14'
_cell_volume   277.82750469
_cell_formula_units_Z   2
loop_
 _symmetry_equiv_pos_site_id
 _symmetry_equiv_pos_as_xyz
  1  'x, y, z'
loop_
 _atom_site_type_symbol
 _atom_site_label
 _atom_site_symmetry_multiplicity
 _atom_site_fract_x
 _atom_site_fract_y
 _atom_site_fract_z
 _atom_site_occupancy
  Sm  Sm0  1  0.625000  0.125000  0.625000  1
  Sm  Sm1  1  0.625000  0.625000  0.625000  1
  Sm  Sm2  1  0.125000  0.625000  0.625000  1
  Sm  Sm3  1  0.625000  0.625000  0.125000  1
  Rh  Rh4  1  0.125000  0.625000  0.125000  1
  Rh  Rh5  1  0.625000  0.125000  0.125000  1
  Rh  Rh6  1  0.125000  0.125000  0.625000  1
  Rh  Rh7  1  0.125000  0.125000  0.125000  1
  O  O8  1  0.209306  0.209306  0.790694  1
  O  O9  1  0.209306  0.790694  0.209306  1
  O  O10  1  0.790694  0.790694  0.209306  1
  O  O11  1  0.040694  0.459306  0.040694  1
  O  O12  1  0.459306  0.040694  0.040694  1
  O  O13  1  0.209306  0.790694  0.790694  1
  O  O14  1  0.750000  0.750000  0.750000  1
  O  O15  1  0.790694  0.209306  0.209306  1
  O  O16  1  0.040694  0.459306  0.459306  1
  O  O17  1  0.500000  0.500000  0.500000  1
  O  O18  1  0.459306  0.040694  0.459306  1
  O  O19  1  0.040694  0.040694  0.459306  1
  O  O20  1  0.459306  0.459306  0.040694  1
  O  O21  1  0.790694  0.209306  0.790694  1
