# generated using pymatgen
data_LiTa5Si(NiP)3
_symmetry_space_group_name_H-M   'P 1'
_cell_length_a   7.34010849
_cell_length_b   7.34010878
_cell_length_c   7.25071893
_cell_angle_alpha   93.88974886
_cell_angle_beta   92.89262082
_cell_angle_gamma   152.02345456
_symmetry_Int_Tables_number   1
_chemical_formula_structural   LiTa5Si(NiP)3
_chemical_formula_sum   'Li1 Ta5 Si1 Ni3 P3'
_cell_volume   177.67813420
_cell_formula_units_Z   1
loop_
 _symmetry_equiv_pos_site_id
 _symmetry_equiv_pos_as_xyz
  1  'x, y, z'
loop_
 _atom_site_type_symbol
 _atom_site_label
 _atom_site_symmetry_multiplicity
 _atom_site_fract_x
 _atom_site_fract_y
 _atom_site_fract_z
 _atom_site_occupancy
  Li  Li0  1  0.591588  0.068345  0.659933  1
  Ta  Ta1  1  0.871742  0.196156  0.067898  1
  Ta  Ta2  1  0.129351  0.800722  0.930074  1
  Ta  Ta3  1  0.195086  0.133328  0.328415  1
  Ta  Ta4  1  0.807510  0.870806  0.678316  1
  Ta  Ta5  1  0.501225  0.502530  0.003755  1
  Si  Si6  1  0.759427  0.443170  0.202596  1
  Ni  Ni7  1  0.393422  0.910669  0.304089  1
  Ni  Ni8  1  0.089703  0.393804  0.483506  1
  Ni  Ni9  1  0.912950  0.615209  0.528161  1
  P  P10  1  0.245159  0.558588  0.803746  1
  P  P11  1  0.443908  0.245552  0.689460  1
  P  P12  1  0.558930  0.761123  0.320051  1
