# generated using pymatgen
data_Nd3SmMn4(Co4P3)4
_symmetry_space_group_name_H-M   'P 1'
_cell_length_a   3.68994900
_cell_length_b   10.43741458
_cell_length_c   11.91553166
_cell_angle_alpha   89.96186874
_cell_angle_beta   90.00000000
_cell_angle_gamma   90.00000000
_symmetry_Int_Tables_number   1
_chemical_formula_structural   Nd3SmMn4(Co4P3)4
_chemical_formula_sum   'Nd3 Sm1 Mn4 Co16 P12'
_cell_volume   458.90905444
_cell_formula_units_Z   1
loop_
 _symmetry_equiv_pos_site_id
 _symmetry_equiv_pos_as_xyz
  1  'x, y, z'
loop_
 _atom_site_type_symbol
 _atom_site_label
 _atom_site_symmetry_multiplicity
 _atom_site_fract_x
 _atom_site_fract_y
 _atom_site_fract_z
 _atom_site_occupancy
  Nd  Nd0  1  0.250000  0.917867  0.203037  1
  Nd  Nd1  1  0.750000  0.418013  0.296841  1
  Nd  Nd2  1  0.750000  0.082488  0.796893  1
  Sm  Sm3  1  0.250000  0.582325  0.703185  1
  Mn  Mn4  1  0.250000  0.708326  0.988972  1
  Mn  Mn5  1  0.250000  0.791862  0.488737  1
  Mn  Mn6  1  0.750000  0.291680  0.010929  1
  Mn  Mn7  1  0.750000  0.207147  0.511136  1
  Co  Co8  1  0.250000  0.406256  0.490625  1
  Co  Co9  1  0.250000  0.094673  0.989840  1
  Co  Co10  1  0.750000  0.594620  0.511633  1
  Co  Co11  1  0.750000  0.905476  0.009726  1
  Co  Co12  1  0.250000  0.221390  0.175140  1
  Co  Co13  1  0.250000  0.279114  0.675904  1
  Co  Co14  1  0.750000  0.777984  0.824176  1
  Co  Co15  1  0.750000  0.720869  0.324733  1
  Co  Co16  1  0.250000  0.881717  0.698055  1
  Co  Co17  1  0.250000  0.617084  0.197929  1
  Co  Co18  1  0.750000  0.117316  0.302179  1
  Co  Co19  1  0.750000  0.383861  0.801311  1
  Co  Co20  1  0.250000  0.467377  0.932202  1
  Co  Co21  1  0.250000  0.033188  0.433611  1
  Co  Co22  1  0.750000  0.533335  0.066152  1
  Co  Co23  1  0.750000  0.965777  0.567286  1
  P  P24  1  0.250000  0.419172  0.109956  1
  P  P25  1  0.250000  0.080111  0.611222  1
  P  P26  1  0.750000  0.580641  0.888062  1
  P  P27  1  0.750000  0.918954  0.389522  1
  P  P28  1  0.250000  0.274662  0.867846  1
  P  P29  1  0.250000  0.225577  0.366979  1
  P  P30  1  0.750000  0.725356  0.132667  1
  P  P31  1  0.750000  0.772649  0.632901  1
  P  P32  1  0.250000  0.603494  0.393341  1
  P  P33  1  0.250000  0.896484  0.892890  1
  P  P34  1  0.750000  0.398577  0.607971  1
  P  P35  1  0.750000  0.104574  0.106411  1
