# generated using pymatgen
data_Ca3Yb7(Bi2Pb)2
_symmetry_space_group_name_H-M   'P 1'
_cell_length_a   9.29746401
_cell_length_b   9.37010591
_cell_length_c   6.99764300
_cell_angle_alpha   90.00000000
_cell_angle_beta   90.00000000
_cell_angle_gamma   119.74784790
_symmetry_Int_Tables_number   1
_chemical_formula_structural   Ca3Yb7(Bi2Pb)2
_chemical_formula_sum   'Ca3 Yb7 Bi4 Pb2'
_cell_volume   529.28465042
_cell_formula_units_Z   1
loop_
 _symmetry_equiv_pos_site_id
 _symmetry_equiv_pos_as_xyz
  1  'x, y, z'
loop_
 _atom_site_type_symbol
 _atom_site_label
 _atom_site_symmetry_multiplicity
 _atom_site_fract_x
 _atom_site_fract_y
 _atom_site_fract_z
 _atom_site_occupancy
  Ca  Ca0  1  0.004205  0.734899  0.750000  1
  Ca  Ca1  1  0.730773  0.734942  0.250000  1
  Ca  Ca2  1  0.269220  0.265069  0.750000  1
  Yb  Yb3  1  0.732012  0.000080  0.750000  1
  Yb  Yb4  1  0.334480  0.669080  0.499911  1
  Yb  Yb5  1  0.267963  0.000026  0.250000  1
  Yb  Yb6  1  0.995123  0.265082  0.250000  1
  Yb  Yb7  1  0.665546  0.330886  0.499827  1
  Yb  Yb8  1  0.334480  0.669080  0.000089  1
  Yb  Yb9  1  0.665546  0.330886  0.000173  1
  Bi  Bi10  1  0.379035  0.381299  0.250000  1
  Bi  Bi11  1  0.002367  0.381152  0.750000  1
  Bi  Bi12  1  0.621024  0.618663  0.750000  1
  Bi  Bi13  1  0.997689  0.618504  0.250000  1
  Pb  Pb14  1  0.612766  0.000435  0.250000  1
  Pb  Pb15  1  0.387770  0.999917  0.750000  1
