# generated using pymatgen
data_CsRb2Sb2Au3
_symmetry_space_group_name_H-M   'P 1'
_cell_length_a   8.35823189
_cell_length_b   8.35823191
_cell_length_c   8.35823197
_cell_angle_alpha   47.43396638
_cell_angle_beta   47.43396646
_cell_angle_gamma   47.43396388
_symmetry_Int_Tables_number   1
_chemical_formula_structural   CsRb2Sb2Au3
_chemical_formula_sum   'Cs1 Rb2 Sb2 Au3'
_cell_volume   289.80012325
_cell_formula_units_Z   1
loop_
 _symmetry_equiv_pos_site_id
 _symmetry_equiv_pos_as_xyz
  1  'x, y, z'
loop_
 _atom_site_type_symbol
 _atom_site_label
 _atom_site_symmetry_multiplicity
 _atom_site_fract_x
 _atom_site_fract_y
 _atom_site_fract_z
 _atom_site_occupancy
  Cs  Cs0  1  0.500000  0.500000  0.500000  1
  Rb  Rb1  1  0.918826  0.918826  0.918826  1
  Rb  Rb2  1  0.081174  0.081174  0.081174  1
  Sb  Sb3  1  0.249560  0.249560  0.249560  1
  Sb  Sb4  1  0.750440  0.750440  0.750440  1
  Au  Au5  1  0.000000  0.500000  0.500000  1
  Au  Au6  1  0.500000  0.000000  0.500000  1
  Au  Au7  1  0.500000  0.500000  0.000000  1
