# generated using pymatgen
data_CaNd9(In2Pt)4
_symmetry_space_group_name_H-M   'P 1'
_cell_length_a   3.77551500
_cell_length_b   8.35207072
_cell_length_c   18.79814646
_cell_angle_alpha   90.24166264
_cell_angle_beta   90.00000000
_cell_angle_gamma   90.00000000
_symmetry_Int_Tables_number   1
_chemical_formula_structural   CaNd9(In2Pt)4
_chemical_formula_sum   'Ca1 Nd9 In8 Pt4'
_cell_volume   592.76360313
_cell_formula_units_Z   1
loop_
 _symmetry_equiv_pos_site_id
 _symmetry_equiv_pos_as_xyz
  1  'x, y, z'
loop_
 _atom_site_type_symbol
 _atom_site_label
 _atom_site_symmetry_multiplicity
 _atom_site_fract_x
 _atom_site_fract_y
 _atom_site_fract_z
 _atom_site_occupancy
  Ca  Ca0  1  0.000000  0.000000  0.000000  1
  Nd  Nd1  1  0.000000  0.117156  0.415265  1
  Nd  Nd2  1  0.000000  0.882844  0.584735  1
  Nd  Nd3  1  0.000000  0.382763  0.914246  1
  Nd  Nd4  1  0.000000  0.617237  0.085754  1
  Nd  Nd5  1  0.000000  0.242837  0.219647  1
  Nd  Nd6  1  0.000000  0.757163  0.780353  1
  Nd  Nd7  1  0.000000  0.257674  0.718675  1
  Nd  Nd8  1  0.000000  0.742326  0.281325  1
  Nd  Nd9  1  0.000000  0.500000  0.500000  1
  In  In10  1  0.500000  0.426837  0.350554  1
  In  In11  1  0.500000  0.573163  0.649446  1
  In  In12  1  0.500000  0.072911  0.850838  1
  In  In13  1  0.500000  0.927089  0.149162  1
  In  In14  1  0.500000  0.290958  0.068205  1
  In  In15  1  0.500000  0.709042  0.931795  1
  In  In16  1  0.500000  0.208112  0.568558  1
  In  In17  1  0.500000  0.791888  0.431442  1
  Pt  Pt18  1  0.500000  0.023417  0.302595  1
  Pt  Pt19  1  0.500000  0.976583  0.697405  1
  Pt  Pt20  1  0.500000  0.478825  0.802984  1
  Pt  Pt21  1  0.500000  0.521175  0.197016  1
