# generated using pymatgen
data_U3Pa2O10
_symmetry_space_group_name_H-M   'P 1'
_cell_length_a   6.67034637
_cell_length_b   6.67034698
_cell_length_c   8.61688783
_cell_angle_alpha   49.84335699
_cell_angle_beta   49.84335263
_cell_angle_gamma   48.24314176
_symmetry_Int_Tables_number   1
_chemical_formula_structural   U3Pa2O10
_chemical_formula_sum   'U3 Pa2 O10'
_cell_volume   202.38704295
_cell_formula_units_Z   1
loop_
 _symmetry_equiv_pos_site_id
 _symmetry_equiv_pos_as_xyz
  1  'x, y, z'
loop_
 _atom_site_type_symbol
 _atom_site_label
 _atom_site_symmetry_multiplicity
 _atom_site_fract_x
 _atom_site_fract_y
 _atom_site_fract_z
 _atom_site_occupancy
  U  U0  1  0.102117  0.102117  0.696897  1
  U  U1  1  0.500000  0.500000  0.500000  1
  U  U2  1  0.897883  0.897883  0.303103  1
  Pa  Pa3  1  0.300457  0.300457  0.099743  1
  Pa  Pa4  1  0.699543  0.699543  0.900257  1
  O  O5  1  0.647763  0.147384  0.803844  1
  O  O6  1  0.147384  0.647763  0.803844  1
  O  O7  1  0.448601  0.953728  0.396615  1
  O  O8  1  0.953728  0.448601  0.396615  1
  O  O9  1  0.852616  0.352237  0.196156  1
  O  O10  1  0.255000  0.745000  0.000000  1
  O  O11  1  0.352237  0.852616  0.196156  1
  O  O12  1  0.745000  0.255000  0.000000  1
  O  O13  1  0.046272  0.551399  0.603385  1
  O  O14  1  0.551399  0.046272  0.603385  1
