# generated using pymatgen
data_Zr4Si4Ir2RuRh
_symmetry_space_group_name_H-M   'P 1'
_cell_length_a   3.99270300
_cell_length_b   6.57198597
_cell_length_c   7.44895153
_cell_angle_alpha   90.21854292
_cell_angle_beta   90.00000000
_cell_angle_gamma   90.00000000
_symmetry_Int_Tables_number   1
_chemical_formula_structural   Zr4Si4Ir2RuRh
_chemical_formula_sum   'Zr4 Si4 Ir2 Ru1 Rh1'
_cell_volume   195.45897753
_cell_formula_units_Z   1
loop_
 _symmetry_equiv_pos_site_id
 _symmetry_equiv_pos_as_xyz
  1  'x, y, z'
loop_
 _atom_site_type_symbol
 _atom_site_label
 _atom_site_symmetry_multiplicity
 _atom_site_fract_x
 _atom_site_fract_y
 _atom_site_fract_z
 _atom_site_occupancy
  Zr  Zr0  1  0.250000  0.018834  0.317661  1
  Zr  Zr1  1  0.250000  0.514214  0.184807  1
  Zr  Zr2  1  0.750000  0.986282  0.683055  1
  Zr  Zr3  1  0.750000  0.481562  0.815270  1
  Si  Si4  1  0.250000  0.279273  0.620334  1
  Si  Si5  1  0.250000  0.781895  0.882190  1
  Si  Si6  1  0.750000  0.722889  0.381870  1
  Si  Si7  1  0.750000  0.216938  0.116362  1
  Ir  Ir8  1  0.750000  0.844323  0.063412  1
  Ir  Ir9  1  0.750000  0.348815  0.433878  1
  Ru  Ru10  1  0.250000  0.153243  0.936718  1
  Rh  Rh11  1  0.250000  0.651731  0.564444  1
