# generated using pymatgen
data_Zr5Zn6SiRh12
_symmetry_space_group_name_H-M   'P 1'
_cell_length_a   4.44606800
_cell_length_b   6.28797600
_cell_length_c   13.20416500
_cell_angle_alpha   90.00000000
_cell_angle_beta   89.99850188
_cell_angle_gamma   90.00000000
_symmetry_Int_Tables_number   1
_chemical_formula_structural   Zr5Zn6SiRh12
_chemical_formula_sum   'Zr5 Zn6 Si1 Rh12'
_cell_volume   369.14578907
_cell_formula_units_Z   1
loop_
 _symmetry_equiv_pos_site_id
 _symmetry_equiv_pos_as_xyz
  1  'x, y, z'
loop_
 _atom_site_type_symbol
 _atom_site_label
 _atom_site_symmetry_multiplicity
 _atom_site_fract_x
 _atom_site_fract_y
 _atom_site_fract_z
 _atom_site_occupancy
  Zr  Zr0  1  0.499945  0.000000  0.158336  1
  Zr  Zr1  1  0.999926  0.500001  0.330644  1
  Zr  Zr2  1  0.500000  0.000000  0.500000  1
  Zr  Zr3  1  0.000074  0.500001  0.669356  1
  Zr  Zr4  1  0.500055  0.000000  0.841664  1
  Zn  Zn5  1  0.000000  0.000000  0.000000  1
  Zn  Zn6  1  0.499939  0.500001  0.171909  1
  Zn  Zn7  1  0.999929  0.000000  0.325120  1
  Zn  Zn8  1  0.500000  0.500001  0.500000  1
  Zn  Zn9  1  0.000071  0.000000  0.674880  1
  Zn  Zn10  1  0.500061  0.500001  0.828092  1
  Si  Si11  1  0.000000  0.500001  0.000000  1
  Rh  Rh12  1  0.500000  0.276237  0.000000  1
  Rh  Rh13  1  0.500000  0.723763  0.000000  1
  Rh  Rh14  1  0.999942  0.266674  0.152216  1
  Rh  Rh15  1  0.999942  0.733325  0.152216  1
  Rh  Rh16  1  0.499924  0.246960  0.331245  1
  Rh  Rh17  1  0.499924  0.753039  0.331245  1
  Rh  Rh18  1  0.000000  0.248858  0.500000  1
  Rh  Rh19  1  0.000000  0.751142  0.500000  1
  Rh  Rh20  1  0.500076  0.246960  0.668755  1
  Rh  Rh21  1  0.500076  0.753039  0.668755  1
  Rh  Rh22  1  0.000058  0.266674  0.847784  1
  Rh  Rh23  1  0.000058  0.733325  0.847784  1
