# generated using pymatgen
data_Cs2NiPd11O24
_symmetry_space_group_name_H-M   'P 1'
_cell_length_a   8.69954096
_cell_length_b   8.69954128
_cell_length_c   8.70591700
_cell_angle_alpha   107.24308542
_cell_angle_beta   107.09631454
_cell_angle_gamma   114.15220865
_symmetry_Int_Tables_number   1
_chemical_formula_structural   Cs2NiPd11O24
_chemical_formula_sum   'Cs2 Ni1 Pd11 O24'
_cell_volume   504.80072807
_cell_formula_units_Z   1
loop_
 _symmetry_equiv_pos_site_id
 _symmetry_equiv_pos_as_xyz
  1  'x, y, z'
loop_
 _atom_site_type_symbol
 _atom_site_label
 _atom_site_symmetry_multiplicity
 _atom_site_fract_x
 _atom_site_fract_y
 _atom_site_fract_z
 _atom_site_occupancy
  Cs  Cs0  1  0.799288  0.797801  0.999104  1
  Cs  Cs1  1  0.201304  0.199816  0.999104  1
  Ni  Ni2  1  0.166569  0.351741  0.518309  1
  Pd  Pd3  1  0.314109  0.831811  0.815647  1
  Pd  Pd4  1  0.650031  0.164680  0.814709  1
  Pd  Pd5  1  0.983835  0.501536  0.815647  1
  Pd  Pd6  1  0.020861  0.500424  0.185307  1
  Pd  Pd7  1  0.350896  0.833338  0.184236  1
  Pd  Pd8  1  0.684885  0.164447  0.185307  1
  Pd  Pd9  1  0.835169  0.648655  0.483825  1
  Pd  Pd10  1  0.168478  0.984887  0.484646  1
  Pd  Pd11  1  0.499757  0.316166  0.484646  1
  Pd  Pd12  1  0.496021  0.680833  0.513480  1
  Pd  Pd13  1  0.832645  0.017458  0.513480  1
  O  O14  1  0.789454  0.512458  0.633085  1
  O  O15  1  0.120627  0.843631  0.633085  1
  O  O16  1  0.455162  0.178435  0.633597  1
  O  O17  1  0.879753  0.169380  0.379651  1
  O  O18  1  0.210273  0.499898  0.379651  1
  O  O19  1  0.544092  0.825742  0.369834  1
  O  O20  1  0.492880  0.119903  0.280027  1
  O  O21  1  0.827393  0.452740  0.280132  1
  O  O22  1  0.160123  0.787146  0.280027  1
  O  O23  1  0.160737  0.546617  0.707355  1
  O  O24  1  0.506808  0.875608  0.719689  1
  O  O25  1  0.844082  0.212882  0.719689  1
  O  O26  1  0.510046  0.868668  0.048943  1
  O  O27  1  0.847412  0.201809  0.049219  1
  O  O28  1  0.180275  0.538899  0.048943  1
  O  O29  1  0.153568  0.798481  0.952049  1
  O  O30  1  0.491692  0.130550  0.949237  1
  O  O31  1  0.818686  0.457544  0.949237  1
  O  O32  1  0.123964  0.171923  0.636631  1
  O  O33  1  0.464709  0.512667  0.636631  1
  O  O34  1  0.795686  0.845351  0.641038  1
  O  O35  1  0.538664  0.486795  0.358448  1
  O  O36  1  0.871652  0.819783  0.358448  1
  O  O37  1  0.208414  0.149495  0.357909  1
