# generated using pymatgen
data_LiSm6Cd22Si
_symmetry_space_group_name_H-M   'P 1'
_cell_length_a   10.00510020
_cell_length_b   10.00510098
_cell_length_c   10.00510100
_cell_angle_alpha   60.00000325
_cell_angle_beta   60.00000067
_cell_angle_gamma   60.00000112
_symmetry_Int_Tables_number   1
_chemical_formula_structural   LiSm6Cd22Si
_chemical_formula_sum   'Li1 Sm6 Cd22 Si1'
_cell_volume   708.18938794
_cell_formula_units_Z   1
loop_
 _symmetry_equiv_pos_site_id
 _symmetry_equiv_pos_as_xyz
  1  'x, y, z'
loop_
 _atom_site_type_symbol
 _atom_site_label
 _atom_site_symmetry_multiplicity
 _atom_site_fract_x
 _atom_site_fract_y
 _atom_site_fract_z
 _atom_site_occupancy
  Li  Li0  1  0.500000  0.500000  0.500000  1
  Sm  Sm1  1  0.796064  0.796064  0.203936  1
  Sm  Sm2  1  0.203936  0.796064  0.203936  1
  Sm  Sm3  1  0.796064  0.203936  0.203936  1
  Sm  Sm4  1  0.203936  0.203936  0.796064  1
  Sm  Sm5  1  0.796064  0.203936  0.796064  1
  Sm  Sm6  1  0.203936  0.796064  0.796064  1
  Cd  Cd7  1  0.833781  0.833781  0.498658  1
  Cd  Cd8  1  0.833781  0.498658  0.833781  1
  Cd  Cd9  1  0.498658  0.833781  0.833781  1
  Cd  Cd10  1  0.833781  0.833781  0.833781  1
  Cd  Cd11  1  0.166219  0.166219  0.501342  1
  Cd  Cd12  1  0.166219  0.501342  0.166219  1
  Cd  Cd13  1  0.501342  0.166219  0.166219  1
  Cd  Cd14  1  0.166219  0.166219  0.166219  1
  Cd  Cd15  1  0.617816  0.617816  0.146554  1
  Cd  Cd16  1  0.617816  0.146554  0.617816  1
  Cd  Cd17  1  0.146554  0.617816  0.617816  1
  Cd  Cd18  1  0.617816  0.617816  0.617816  1
  Cd  Cd19  1  0.382184  0.382184  0.853446  1
  Cd  Cd20  1  0.382184  0.853446  0.382184  1
  Cd  Cd21  1  0.853446  0.382184  0.382184  1
  Cd  Cd22  1  0.382184  0.382184  0.382184  1
  Cd  Cd23  1  0.000000  0.000000  0.500000  1
  Cd  Cd24  1  0.500000  0.000000  0.500000  1
  Cd  Cd25  1  0.000000  0.500000  0.500000  1
  Cd  Cd26  1  0.500000  0.500000  0.000000  1
  Cd  Cd27  1  0.000000  0.500000  0.000000  1
  Cd  Cd28  1  0.500000  0.000000  0.000000  1
  Si  Si29  1  0.000000  0.000000  0.000000  1
