# generated using pymatgen
data_TbRe3Si2Mo
_symmetry_space_group_name_H-M   'P 1'
_cell_length_a   7.82521985
_cell_length_b   7.05353800
_cell_length_c   4.20333600
_cell_angle_alpha   90.00000000
_cell_angle_beta   90.00000000
_cell_angle_gamma   89.75215663
_symmetry_Int_Tables_number   1
_chemical_formula_structural   TbRe3Si2Mo
_chemical_formula_sum   'Tb2 Re6 Si4 Mo2'
_cell_volume   232.00300113
_cell_formula_units_Z   2
loop_
 _symmetry_equiv_pos_site_id
 _symmetry_equiv_pos_as_xyz
  1  'x, y, z'
loop_
 _atom_site_type_symbol
 _atom_site_label
 _atom_site_symmetry_multiplicity
 _atom_site_fract_x
 _atom_site_fract_y
 _atom_site_fract_z
 _atom_site_occupancy
  Tb  Tb0  1  0.500000  0.500000  0.000000  1
  Tb  Tb1  1  0.000000  0.000000  0.500000  1
  Re  Re2  1  0.109578  0.345291  0.000000  1
  Re  Re3  1  0.890422  0.654709  0.000000  1
  Re  Re4  1  0.157219  0.576386  0.500000  1
  Re  Re5  1  0.842781  0.423614  0.500000  1
  Re  Re6  1  0.334951  0.077637  0.000000  1
  Re  Re7  1  0.665049  0.922363  0.000000  1
  Si  Si8  1  0.688826  0.727068  0.500000  1
  Si  Si9  1  0.311174  0.272932  0.500000  1
  Si  Si10  1  0.187924  0.769943  0.000000  1
  Si  Si11  1  0.812076  0.230057  0.000000  1
  Mo  Mo12  1  0.613003  0.151270  0.500000  1
  Mo  Mo13  1  0.386997  0.848730  0.500000  1
