# generated using pymatgen
data_Tb10GaSn2Bi3
_symmetry_space_group_name_H-M   'P 1'
_cell_length_a   9.05459656
_cell_length_b   9.04611605
_cell_length_c   6.54429600
_cell_angle_alpha   90.00000000
_cell_angle_beta   90.00000000
_cell_angle_gamma   119.76417209
_symmetry_Int_Tables_number   1
_chemical_formula_structural   Tb10GaSn2Bi3
_chemical_formula_sum   'Tb10 Ga1 Sn2 Bi3'
_cell_volume   465.32026565
_cell_formula_units_Z   1
loop_
 _symmetry_equiv_pos_site_id
 _symmetry_equiv_pos_as_xyz
  1  'x, y, z'
loop_
 _atom_site_type_symbol
 _atom_site_label
 _atom_site_symmetry_multiplicity
 _atom_site_fract_x
 _atom_site_fract_y
 _atom_site_fract_z
 _atom_site_occupancy
  Tb  Tb0  1  0.652532  0.334252  0.999360  1
  Tb  Tb1  1  0.338843  0.659502  0.999674  1
  Tb  Tb2  1  0.338843  0.659502  0.500326  1
  Tb  Tb3  1  0.652532  0.334252  0.500640  1
  Tb  Tb4  1  0.751188  0.751618  0.750000  1
  Tb  Tb5  1  0.244330  0.015796  0.750000  1
  Tb  Tb6  1  0.015873  0.243015  0.750000  1
  Tb  Tb7  1  0.245771  0.240162  0.250000  1
  Tb  Tb8  1  0.756520  0.994605  0.250000  1
  Tb  Tb9  1  0.000045  0.763852  0.250000  1
  Ga  Ga10  1  0.393564  0.394872  0.750000  1
  Sn  Sn11  1  0.609880  0.609194  0.250000  1
  Sn  Sn12  1  0.390730  0.994127  0.250000  1
  Bi  Bi13  1  0.611623  0.004031  0.750000  1
  Bi  Bi14  1  0.003108  0.611529  0.750000  1
  Bi  Bi15  1  0.994617  0.389693  0.250000  1
