# generated using pymatgen
data_Yb2IrRhO7
_symmetry_space_group_name_H-M   'P 1'
_cell_length_a   7.21700083
_cell_length_b   7.17637957
_cell_length_c   7.21700083
_cell_angle_alpha   60.18601667
_cell_angle_beta   60.30617307
_cell_angle_gamma   60.18601555
_symmetry_Int_Tables_number   1
_chemical_formula_structural   Yb2IrRhO7
_chemical_formula_sum   'Yb4 Ir2 Rh2 O14'
_cell_volume   265.65609027
_cell_formula_units_Z   2
loop_
 _symmetry_equiv_pos_site_id
 _symmetry_equiv_pos_as_xyz
  1  'x, y, z'
loop_
 _atom_site_type_symbol
 _atom_site_label
 _atom_site_symmetry_multiplicity
 _atom_site_fract_x
 _atom_site_fract_y
 _atom_site_fract_z
 _atom_site_occupancy
  Yb  Yb0  1  0.625000  0.125000  0.125000  1
  Yb  Yb1  1  0.125000  0.625000  0.125000  1
  Yb  Yb2  1  0.125000  0.125000  0.625000  1
  Yb  Yb3  1  0.125000  0.125000  0.125000  1
  Ir  Ir4  1  0.125000  0.625000  0.625000  1
  Ir  Ir5  1  0.625000  0.625000  0.125000  1
  Rh  Rh6  1  0.625000  0.125000  0.625000  1
  Rh  Rh7  1  0.625000  0.625000  0.625000  1
  O  O8  1  0.704659  0.700100  0.294530  1
  O  O9  1  0.294530  0.300711  0.704659  1
  O  O10  1  0.704673  0.295327  0.704673  1
  O  O11  1  0.298814  0.701186  0.298814  1
  O  O12  1  0.294530  0.700100  0.704659  1
  O  O13  1  0.704659  0.300711  0.294530  1
  O  O14  1  0.545341  0.549900  0.955470  1
  O  O15  1  0.955470  0.949289  0.545341  1
  O  O16  1  0.545327  0.954673  0.545327  1
  O  O17  1  0.951186  0.548814  0.951186  1
  O  O18  1  0.955470  0.549900  0.545341  1
  O  O19  1  0.545341  0.949289  0.955470  1
  O  O20  1  0.250328  0.249672  0.250328  1
  O  O21  1  0.999672  0.000328  0.999672  1
