# generated using pymatgen
data_DyY2Ga6Ni8Ir
_symmetry_space_group_name_H-M   'P 1'
_cell_length_a   4.09894200
_cell_length_b   8.86133443
_cell_length_c   8.86133455
_cell_angle_alpha   58.39764812
_cell_angle_beta   90.00000000
_cell_angle_gamma   90.00000000
_symmetry_Int_Tables_number   1
_chemical_formula_structural   DyY2Ga6Ni8Ir
_chemical_formula_sum   'Dy1 Y2 Ga6 Ni8 Ir1'
_cell_volume   274.13181862
_cell_formula_units_Z   1
loop_
 _symmetry_equiv_pos_site_id
 _symmetry_equiv_pos_as_xyz
  1  'x, y, z'
loop_
 _atom_site_type_symbol
 _atom_site_label
 _atom_site_symmetry_multiplicity
 _atom_site_fract_x
 _atom_site_fract_y
 _atom_site_fract_z
 _atom_site_occupancy
  Dy  Dy0  1  0.000000  0.985556  0.014444  1
  Y  Y1  1  0.500000  0.334130  0.334042  1
  Y  Y2  1  0.500000  0.665958  0.665870  1
  Ga  Ga3  1  0.000000  0.525330  0.474670  1
  Ga  Ga4  1  0.000000  0.480189  0.988721  1
  Ga  Ga5  1  0.000000  0.011279  0.519811  1
  Ga  Ga6  1  0.500000  0.266754  0.733246  1
  Ga  Ga7  1  0.500000  0.724850  0.993944  1
  Ga  Ga8  1  0.500000  0.006056  0.275150  1
  Ni  Ni9  1  0.000000  0.176212  0.197180  1
  Ni  Ni10  1  0.000000  0.199571  0.632669  1
  Ni  Ni11  1  0.000000  0.610861  0.166273  1
  Ni  Ni12  1  0.000000  0.802820  0.823788  1
  Ni  Ni13  1  0.000000  0.367331  0.800429  1
  Ni  Ni14  1  0.000000  0.833727  0.389139  1
  Ni  Ni15  1  0.500000  0.292485  0.995817  1
  Ni  Ni16  1  0.500000  0.004183  0.707515  1
  Ir  Ir17  1  0.500000  0.712605  0.287395  1
