# generated using pymatgen
data_ScTi2Ge2BOs3
_symmetry_space_group_name_H-M   'P 1'
_cell_length_a   6.81886653
_cell_length_b   6.77518857
_cell_length_c   3.15394700
_cell_angle_alpha   90.00000000
_cell_angle_beta   90.00000000
_cell_angle_gamma   119.78834661
_symmetry_Int_Tables_number   1
_chemical_formula_structural   ScTi2Ge2BOs3
_chemical_formula_sum   'Sc1 Ti2 Ge2 B1 Os3'
_cell_volume   126.45642501
_cell_formula_units_Z   1
loop_
 _symmetry_equiv_pos_site_id
 _symmetry_equiv_pos_as_xyz
  1  'x, y, z'
loop_
 _atom_site_type_symbol
 _atom_site_label
 _atom_site_symmetry_multiplicity
 _atom_site_fract_x
 _atom_site_fract_y
 _atom_site_fract_z
 _atom_site_occupancy
  Sc  Sc0  1  0.000000  0.391124  0.500000  1
  Ti  Ti1  1  0.610424  0.611420  0.500000  1
  Ti  Ti2  1  0.389576  0.000996  0.500000  1
  Ge  Ge3  1  0.339497  0.671478  0.000000  1
  Ge  Ge4  1  0.660503  0.331981  0.000000  1
  B  B5  1  0.000000  0.998900  0.500000  1
  Os  Os6  1  0.000000  0.763074  0.000000  1
  Os  Os7  1  0.241522  0.236275  0.000000  1
  Os  Os8  1  0.758478  0.994753  0.000000  1
