# generated using pymatgen
data_La2C2Se
_symmetry_space_group_name_H-M   'P 1'
_cell_length_a   7.53339018
_cell_length_b   7.53338971
_cell_length_c   7.21779346
_cell_angle_alpha   78.52763764
_cell_angle_beta   78.52764034
_cell_angle_gamma   33.22561286
_symmetry_Int_Tables_number   1
_chemical_formula_structural   La2C2Se
_chemical_formula_sum   'La4 C4 Se2'
_cell_volume   219.56029340
_cell_formula_units_Z   2
loop_
 _symmetry_equiv_pos_site_id
 _symmetry_equiv_pos_as_xyz
  1  'x, y, z'
loop_
 _atom_site_type_symbol
 _atom_site_label
 _atom_site_symmetry_multiplicity
 _atom_site_fract_x
 _atom_site_fract_y
 _atom_site_fract_z
 _atom_site_occupancy
  La  La0  1  0.559935  0.158376  0.141032  1
  La  La1  1  0.158376  0.559935  0.641032  1
  La  La2  1  0.440065  0.841624  0.858968  1
  La  La3  1  0.841624  0.440065  0.358968  1
  C  C4  1  0.360621  0.096485  0.469319  1
  C  C5  1  0.903515  0.639379  0.030681  1
  C  C6  1  0.639379  0.903515  0.530681  1
  C  C7  1  0.096485  0.360621  0.969319  1
  Se  Se8  1  0.788575  0.211425  0.750000  1
  Se  Se9  1  0.211425  0.788575  0.250000  1
