# generated using pymatgen
data_Sm3Mg3Hg2Ru
_symmetry_space_group_name_H-M   'P 1'
_cell_length_a   8.01118200
_cell_length_b   8.01118189
_cell_length_c   3.97075200
_cell_angle_alpha   90.00000000
_cell_angle_beta   90.00000000
_cell_angle_gamma   120.00000045
_symmetry_Int_Tables_number   1
_chemical_formula_structural   Sm3Mg3Hg2Ru
_chemical_formula_sum   'Sm3 Mg3 Hg2 Ru1'
_cell_volume   220.69707821
_cell_formula_units_Z   1
loop_
 _symmetry_equiv_pos_site_id
 _symmetry_equiv_pos_as_xyz
  1  'x, y, z'
loop_
 _atom_site_type_symbol
 _atom_site_label
 _atom_site_symmetry_multiplicity
 _atom_site_fract_x
 _atom_site_fract_y
 _atom_site_fract_z
 _atom_site_occupancy
  Sm  Sm0  1  0.037022  0.432107  0.500000  1
  Sm  Sm1  1  0.567893  0.604915  0.500000  1
  Sm  Sm2  1  0.395085  0.962978  0.500000  1
  Mg  Mg3  1  0.999537  0.737691  0.000000  1
  Mg  Mg4  1  0.262309  0.261847  0.000000  1
  Mg  Mg5  1  0.738153  0.000463  0.000000  1
  Hg  Hg6  1  0.666667  0.333333  0.000000  1
  Hg  Hg7  1  0.000000  0.000000  0.500000  1
  Ru  Ru8  1  0.333333  0.666667  0.000000  1
