# generated using pymatgen
data_EuErTh2(ZnRh)4
_symmetry_space_group_name_H-M   'P 1'
_cell_length_a   4.02260100
_cell_length_b   7.15278780
_cell_length_c   8.41459691
_cell_angle_alpha   90.06500060
_cell_angle_beta   90.00000000
_cell_angle_gamma   90.00000000
_symmetry_Int_Tables_number   1
_chemical_formula_structural   EuErTh2(ZnRh)4
_chemical_formula_sum   'Eu1 Er1 Th2 Zn4 Rh4'
_cell_volume   242.11145373
_cell_formula_units_Z   1
loop_
 _symmetry_equiv_pos_site_id
 _symmetry_equiv_pos_as_xyz
  1  'x, y, z'
loop_
 _atom_site_type_symbol
 _atom_site_label
 _atom_site_symmetry_multiplicity
 _atom_site_fract_x
 _atom_site_fract_y
 _atom_site_fract_z
 _atom_site_occupancy
  Eu  Eu0  1  0.750000  0.954665  0.681660  1
  Er  Er1  1  0.250000  0.049097  0.313289  1
  Th  Th2  1  0.250000  0.546157  0.189494  1
  Th  Th3  1  0.750000  0.452711  0.811643  1
  Zn  Zn4  1  0.250000  0.636975  0.557103  1
  Zn  Zn5  1  0.750000  0.359878  0.438694  1
  Zn  Zn6  1  0.750000  0.882713  0.063742  1
  Zn  Zn7  1  0.250000  0.119180  0.940740  1
  Rh  Rh8  1  0.250000  0.730935  0.885439  1
  Rh  Rh9  1  0.750000  0.257643  0.124399  1
  Rh  Rh10  1  0.750000  0.746848  0.362743  1
  Rh  Rh11  1  0.250000  0.263197  0.631053  1
