# generated using pymatgen
data_Ta12CoTc11B12
_symmetry_space_group_name_H-M   'P 1'
_cell_length_a   3.17288000
_cell_length_b   9.02935779
_cell_length_c   15.60703216
_cell_angle_alpha   89.76095414
_cell_angle_beta   90.00000000
_cell_angle_gamma   90.00000000
_symmetry_Int_Tables_number   1
_chemical_formula_structural   Ta12CoTc11B12
_chemical_formula_sum   'Ta12 Co1 Tc11 B12'
_cell_volume   447.12304573
_cell_formula_units_Z   1
loop_
 _symmetry_equiv_pos_site_id
 _symmetry_equiv_pos_as_xyz
  1  'x, y, z'
loop_
 _atom_site_type_symbol
 _atom_site_label
 _atom_site_symmetry_multiplicity
 _atom_site_fract_x
 _atom_site_fract_y
 _atom_site_fract_z
 _atom_site_occupancy
  Ta  Ta0  1  0.000000  0.807738  0.491940  1
  Ta  Ta1  1  0.000000  0.194162  0.505079  1
  Ta  Ta2  1  0.000000  0.304247  0.007789  1
  Ta  Ta3  1  0.000000  0.693425  0.994340  1
  Ta  Ta4  1  0.000000  0.517517  0.594728  1
  Ta  Ta5  1  0.000000  0.485506  0.403024  1
  Ta  Ta6  1  0.000000  0.016058  0.906538  1
  Ta  Ta7  1  0.000000  0.981241  0.101216  1
  Ta  Ta8  1  0.000000  0.681492  0.208298  1
  Ta  Ta9  1  0.000000  0.319906  0.793077  1
  Ta  Ta10  1  0.000000  0.179537  0.292615  1
  Ta  Ta11  1  0.000000  0.820779  0.707650  1
  Co  Co12  1  0.500000  0.928227  0.232436  1
  Tc  Tc13  1  0.500000  0.723000  0.354872  1
  Tc  Tc14  1  0.500000  0.282871  0.641289  1
  Tc  Tc15  1  0.500000  0.212928  0.144209  1
  Tc  Tc16  1  0.500000  0.782396  0.859539  1
  Tc  Tc17  1  0.500000  0.518635  0.096344  1
  Tc  Tc18  1  0.500000  0.480590  0.906980  1
  Tc  Tc19  1  0.500000  0.017191  0.399611  1
  Tc  Tc20  1  0.500000  0.982037  0.593279  1
  Tc  Tc21  1  0.500000  0.567627  0.732336  1
  Tc  Tc22  1  0.500000  0.432442  0.267277  1
  Tc  Tc23  1  0.500000  0.068824  0.768059  1
  B  B24  1  0.500000  0.606432  0.492484  1
  B  B25  1  0.500000  0.395812  0.505037  1
  B  B26  1  0.500000  0.101586  0.008767  1
  B  B27  1  0.500000  0.895269  0.998147  1
  B  B28  1  0.000000  0.609569  0.832763  1
  B  B29  1  0.000000  0.389682  0.167549  1
  B  B30  1  0.000000  0.109253  0.667133  1
  B  B31  1  0.000000  0.893140  0.324592  1
  B  B32  1  0.500000  0.719153  0.602271  1
  B  B33  1  0.500000  0.284155  0.395919  1
  B  B34  1  0.500000  0.215993  0.898753  1
  B  B35  1  0.500000  0.781579  0.104063  1
