# generated using pymatgen
data_Tb8Y8MgAg3Rh4
_symmetry_space_group_name_H-M   'P 1'
_cell_length_a   9.61085278
_cell_length_b   9.63558991
_cell_length_c   9.63477800
_cell_angle_alpha   60.00266452
_cell_angle_beta   59.91789270
_cell_angle_gamma   60.08819040
_symmetry_Int_Tables_number   1
_chemical_formula_structural   Tb8Y8MgAg3Rh4
_chemical_formula_sum   'Tb8 Y8 Mg1 Ag3 Rh4'
_cell_volume   630.94824815
_cell_formula_units_Z   1
loop_
 _symmetry_equiv_pos_site_id
 _symmetry_equiv_pos_as_xyz
  1  'x, y, z'
loop_
 _atom_site_type_symbol
 _atom_site_label
 _atom_site_symmetry_multiplicity
 _atom_site_fract_x
 _atom_site_fract_y
 _atom_site_fract_z
 _atom_site_occupancy
  Tb  Tb0  1  0.599427  0.597913  0.598693  1
  Tb  Tb1  1  0.599427  0.597898  0.203961  1
  Tb  Tb2  1  0.599630  0.203862  0.598256  1
  Tb  Tb3  1  0.185676  0.604786  0.604774  1
  Tb  Tb4  1  0.059605  0.439100  0.440120  1
  Tb  Tb5  1  0.436564  0.062815  0.063259  1
  Tb  Tb6  1  0.436560  0.062812  0.437356  1
  Tb  Tb7  1  0.059616  0.439097  0.061173  1
  Y  Y8  1  0.436136  0.436400  0.063740  1
  Y  Y9  1  0.058966  0.060068  0.440480  1
  Y  Y10  1  0.184817  0.814373  0.814266  1
  Y  Y11  1  0.815157  0.185624  0.184863  1
  Y  Y12  1  0.815157  0.185621  0.814363  1
  Y  Y13  1  0.184817  0.814370  0.186555  1
  Y  Y14  1  0.814107  0.815027  0.185432  1
  Y  Y15  1  0.184937  0.186773  0.814135  1
  Mg  Mg16  1  0.540924  0.819634  0.819720  1
  Ag  Ag17  1  0.832517  0.835629  0.833862  1
  Ag  Ag18  1  0.832511  0.835632  0.497989  1
  Ag  Ag19  1  0.832332  0.498828  0.834416  1
  Rh  Rh20  1  0.388322  0.394239  0.395828  1
  Rh  Rh21  1  0.388334  0.394259  0.821617  1
  Rh  Rh22  1  0.391674  0.821407  0.393452  1
  Rh  Rh23  1  0.822790  0.393835  0.391690  1
