# generated using pymatgen
data_Ce8Zr9Sc(Si8Mo)2
_symmetry_space_group_name_H-M   'P 1'
_cell_length_a   7.09464799
_cell_length_b   7.32373523
_cell_length_c   13.95903000
_cell_angle_alpha   90.00000000
_cell_angle_beta   90.00000000
_cell_angle_gamma   89.96528312
_symmetry_Int_Tables_number   1
_chemical_formula_structural   Ce8Zr9Sc(Si8Mo)2
_chemical_formula_sum   'Ce8 Zr9 Sc1 Si16 Mo2'
_cell_volume   725.30162115
_cell_formula_units_Z   1
loop_
 _symmetry_equiv_pos_site_id
 _symmetry_equiv_pos_as_xyz
  1  'x, y, z'
loop_
 _atom_site_type_symbol
 _atom_site_label
 _atom_site_symmetry_multiplicity
 _atom_site_fract_x
 _atom_site_fract_y
 _atom_site_fract_z
 _atom_site_occupancy
  Ce  Ce0  1  0.990971  0.173818  0.096281  1
  Ce  Ce1  1  0.492805  0.329065  0.401494  1
  Ce  Ce2  1  0.509284  0.669615  0.902750  1
  Ce  Ce3  1  0.007173  0.825363  0.596046  1
  Ce  Ce4  1  0.007173  0.825363  0.903954  1
  Ce  Ce5  1  0.509284  0.669615  0.597250  1
  Ce  Ce6  1  0.492805  0.329065  0.098506  1
  Ce  Ce7  1  0.990971  0.173818  0.403719  1
  Zr  Zr8  1  0.663935  0.003428  0.250000  1
  Zr  Zr9  1  0.836309  0.673669  0.124849  1
  Zr  Zr10  1  0.331216  0.822362  0.374366  1
  Zr  Zr11  1  0.669746  0.178182  0.874631  1
  Zr  Zr12  1  0.162656  0.327752  0.625130  1
  Zr  Zr13  1  0.162656  0.327752  0.874870  1
  Zr  Zr14  1  0.669746  0.178182  0.625369  1
  Zr  Zr15  1  0.331216  0.822362  0.125634  1
  Zr  Zr16  1  0.836309  0.673669  0.375151  1
  Sc  Sc17  1  0.335027  0.995307  0.750000  1
  Si  Si18  1  0.800764  0.378525  0.250000  1
  Si  Si19  1  0.288132  0.129395  0.250000  1
  Si  Si20  1  0.710197  0.869517  0.750000  1
  Si  Si21  1  0.198846  0.621526  0.750000  1
  Si  Si22  1  0.039778  0.876664  0.250000  1
  Si  Si23  1  0.535786  0.619299  0.250000  1
  Si  Si24  1  0.465700  0.380680  0.750000  1
  Si  Si25  1  0.960556  0.124552  0.750000  1
  Si  Si26  1  0.838885  0.465534  0.956281  1
  Si  Si27  1  0.341857  0.036952  0.539658  1
  Si  Si28  1  0.657841  0.964464  0.041174  1
  Si  Si29  1  0.161820  0.534040  0.455843  1
  Si  Si30  1  0.161820  0.534040  0.044157  1
  Si  Si31  1  0.657841  0.964464  0.458826  1
  Si  Si32  1  0.341857  0.036952  0.960342  1
  Si  Si33  1  0.838885  0.465534  0.543719  1
  Mo  Mo34  1  0.161660  0.501917  0.250000  1
  Mo  Mo35  1  0.838493  0.497560  0.750000  1
