# generated using pymatgen
data_La5Dy(OsBr3)2
_symmetry_space_group_name_H-M   'P 1'
_cell_length_a   4.32235500
_cell_length_b   9.12025459
_cell_length_c   12.20977716
_cell_angle_alpha   86.86050110
_cell_angle_beta   90.00000000
_cell_angle_gamma   90.00000000
_symmetry_Int_Tables_number   1
_chemical_formula_structural   La5Dy(OsBr3)2
_chemical_formula_sum   'La5 Dy1 Os2 Br6'
_cell_volume   480.59896652
_cell_formula_units_Z   1
loop_
 _symmetry_equiv_pos_site_id
 _symmetry_equiv_pos_as_xyz
  1  'x, y, z'
loop_
 _atom_site_type_symbol
 _atom_site_label
 _atom_site_symmetry_multiplicity
 _atom_site_fract_x
 _atom_site_fract_y
 _atom_site_fract_z
 _atom_site_occupancy
  La  La0  1  0.750000  0.674357  0.123843  1
  La  La1  1  0.250000  0.885405  0.339141  1
  La  La2  1  0.250000  0.322485  0.881887  1
  La  La3  1  0.250000  0.897261  0.889944  1
  La  La4  1  0.750000  0.122348  0.659135  1
  Dy  Dy5  1  0.750000  0.089573  0.107571  1
  Os  Os6  1  0.250000  0.885772  0.126513  1
  Os  Os7  1  0.750000  0.113918  0.874232  1
  Br  Br8  1  0.250000  0.391176  0.131097  1
  Br  Br9  1  0.750000  0.124505  0.376184  1
  Br  Br10  1  0.750000  0.603852  0.871404  1
  Br  Br11  1  0.250000  0.357657  0.627064  1
  Br  Br12  1  0.750000  0.648282  0.376058  1
  Br  Br13  1  0.250000  0.883411  0.615927  1
