# generated using pymatgen
data_CrGa2IrSe6
_symmetry_space_group_name_H-M   'P 1'
_cell_length_a   3.83298500
_cell_length_b   10.37113111
_cell_length_c   12.75541817
_cell_angle_alpha   88.14394488
_cell_angle_beta   90.00000000
_cell_angle_gamma   90.00000000
_symmetry_Int_Tables_number   1
_chemical_formula_structural   CrGa2IrSe6
_chemical_formula_sum   'Cr2 Ga4 Ir2 Se12'
_cell_volume   506.79233019
_cell_formula_units_Z   2
loop_
 _symmetry_equiv_pos_site_id
 _symmetry_equiv_pos_as_xyz
  1  'x, y, z'
loop_
 _atom_site_type_symbol
 _atom_site_label
 _atom_site_symmetry_multiplicity
 _atom_site_fract_x
 _atom_site_fract_y
 _atom_site_fract_z
 _atom_site_occupancy
  Cr  Cr0  1  0.250000  0.404388  0.610213  1
  Cr  Cr1  1  0.750000  0.595612  0.389787  1
  Ga  Ga2  1  0.750000  0.263452  0.794226  1
  Ga  Ga3  1  0.250000  0.736548  0.205774  1
  Ga  Ga4  1  0.750000  0.762320  0.702852  1
  Ga  Ga5  1  0.250000  0.237680  0.297148  1
  Ir  Ir6  1  0.250000  0.909292  0.891917  1
  Ir  Ir7  1  0.750000  0.090708  0.108083  1
  Se  Se8  1  0.250000  0.935051  0.089068  1
  Se  Se9  1  0.750000  0.064949  0.910932  1
  Se  Se10  1  0.250000  0.429265  0.408773  1
  Se  Se11  1  0.750000  0.570735  0.591227  1
  Se  Se12  1  0.750000  0.089263  0.306030  1
  Se  Se13  1  0.250000  0.910737  0.693970  1
  Se  Se14  1  0.750000  0.591874  0.186495  1
  Se  Se15  1  0.250000  0.408126  0.813505  1
  Se  Se16  1  0.250000  0.251383  0.105816  1
  Se  Se17  1  0.750000  0.748617  0.894184  1
  Se  Se18  1  0.250000  0.759730  0.393031  1
  Se  Se19  1  0.750000  0.240270  0.606969  1
