# generated using pymatgen
data_Tb2Lu2B12MoRh
_symmetry_space_group_name_H-M   'P 1'
_cell_length_a   3.64342700
_cell_length_b   9.13468634
_cell_length_c   11.55627525
_cell_angle_alpha   90.35897355
_cell_angle_beta   90.00000000
_cell_angle_gamma   90.00000000
_symmetry_Int_Tables_number   1
_chemical_formula_structural   Tb2Lu2B12MoRh
_chemical_formula_sum   'Tb4 Lu4 B24 Mo2 Rh2'
_cell_volume   384.60335235
_cell_formula_units_Z   2
loop_
 _symmetry_equiv_pos_site_id
 _symmetry_equiv_pos_as_xyz
  1  'x, y, z'
loop_
 _atom_site_type_symbol
 _atom_site_label
 _atom_site_symmetry_multiplicity
 _atom_site_fract_x
 _atom_site_fract_y
 _atom_site_fract_z
 _atom_site_occupancy
  Tb  Tb0  1  0.500000  0.319072  0.412499  1
  Tb  Tb1  1  0.500000  0.680928  0.587501  1
  Tb  Tb2  1  0.500000  0.175938  0.916420  1
  Tb  Tb3  1  0.500000  0.824062  0.083580  1
  Lu  Lu4  1  0.500000  0.443279  0.126896  1
  Lu  Lu5  1  0.500000  0.556721  0.873104  1
  Lu  Lu6  1  0.500000  0.054716  0.628069  1
  Lu  Lu7  1  0.500000  0.945284  0.371931  1
  B  B8  1  0.000000  0.102986  0.473045  1
  B  B9  1  0.000000  0.897014  0.526955  1
  B  B10  1  0.000000  0.398604  0.971352  1
  B  B11  1  0.000000  0.601396  0.028648  1
  B  B12  1  0.000000  0.131163  0.317996  1
  B  B13  1  0.000000  0.868837  0.682004  1
  B  B14  1  0.000000  0.369764  0.816181  1
  B  B15  1  0.000000  0.630236  0.183819  1
  B  B16  1  0.000000  0.052393  0.066656  1
  B  B17  1  0.000000  0.947607  0.933344  1
  B  B18  1  0.000000  0.445296  0.566233  1
  B  B19  1  0.000000  0.554704  0.433767  1
  B  B20  1  0.000000  0.483487  0.287504  1
  B  B21  1  0.000000  0.516513  0.712496  1
  B  B22  1  0.000000  0.020457  0.785311  1
  B  B23  1  0.000000  0.979543  0.214689  1
  B  B24  1  0.000000  0.251918  0.080343  1
  B  B25  1  0.000000  0.748082  0.919657  1
  B  B26  1  0.000000  0.249084  0.580106  1
  B  B27  1  0.000000  0.750916  0.419894  1
  B  B28  1  0.000000  0.295993  0.236308  1
  B  B29  1  0.000000  0.704007  0.763692  1
  B  B30  1  0.000000  0.208692  0.734166  1
  B  B31  1  0.000000  0.791308  0.265834  1
  Mo  Mo32  1  0.500000  0.139827  0.181977  1
  Mo  Mo33  1  0.500000  0.860173  0.818023  1
  Rh  Rh34  1  0.500000  0.360881  0.679412  1
  Rh  Rh35  1  0.500000  0.639119  0.320588  1
