# generated using pymatgen
data_HoH2Cl
_symmetry_space_group_name_H-M   'P 1'
_cell_length_a   10.22746911
_cell_length_b   10.22746906
_cell_length_c   10.22746835
_cell_angle_alpha   20.76745418
_cell_angle_beta   20.76745413
_cell_angle_gamma   20.76745606
_symmetry_Int_Tables_number   1
_chemical_formula_structural   HoH2Cl
_chemical_formula_sum   'Ho2 H4 Cl2'
_cell_volume   117.75542425
_cell_formula_units_Z   2
loop_
 _symmetry_equiv_pos_site_id
 _symmetry_equiv_pos_as_xyz
  1  'x, y, z'
loop_
 _atom_site_type_symbol
 _atom_site_label
 _atom_site_symmetry_multiplicity
 _atom_site_fract_x
 _atom_site_fract_y
 _atom_site_fract_z
 _atom_site_occupancy
  Ho  Ho0  1  0.886965  0.886965  0.886965  1
  Ho  Ho1  1  0.113035  0.113035  0.113035  1
  H  H2  1  0.813464  0.813464  0.813464  1
  H  H3  1  0.186536  0.186536  0.186536  1
  H  H4  1  0.546144  0.546144  0.546144  1
  H  H5  1  0.453856  0.453856  0.453856  1
  Cl  Cl6  1  0.720837  0.720837  0.720837  1
  Cl  Cl7  1  0.279163  0.279163  0.279163  1
