# generated using pymatgen
data_Dy5YAl24GaOs7
_symmetry_space_group_name_H-M   'P 1'
_cell_length_a   8.86024607
_cell_length_b   8.86074997
_cell_length_c   9.54978000
_cell_angle_alpha   90.13787918
_cell_angle_beta   89.86074403
_cell_angle_gamma   119.84119905
_symmetry_Int_Tables_number   1
_chemical_formula_structural   Dy5YAl24GaOs7
_chemical_formula_sum   'Dy5 Y1 Al24 Ga1 Os7'
_cell_volume   650.32626822
_cell_formula_units_Z   1
loop_
 _symmetry_equiv_pos_site_id
 _symmetry_equiv_pos_as_xyz
  1  'x, y, z'
loop_
 _atom_site_type_symbol
 _atom_site_label
 _atom_site_symmetry_multiplicity
 _atom_site_fract_x
 _atom_site_fract_y
 _atom_site_fract_z
 _atom_site_occupancy
  Dy  Dy0  1  0.808243  0.614895  0.754489  1
  Dy  Dy1  1  0.614943  0.808280  0.245513  1
  Dy  Dy2  1  0.385095  0.191767  0.754490  1
  Dy  Dy3  1  0.194370  0.805674  0.255997  1
  Dy  Dy4  1  0.805638  0.194376  0.744019  1
  Y  Y5  1  0.191806  0.385062  0.245485  1
  Al  Al6  1  0.327230  0.672824  0.022123  1
  Al  Al7  1  0.672779  0.327221  0.977835  1
  Al  Al8  1  0.665931  0.334106  0.518595  1
  Al  Al9  1  0.334084  0.665926  0.481434  1
  Al  Al10  1  0.162564  0.325607  0.571691  1
  Al  Al11  1  0.837435  0.674389  0.428354  1
  Al  Al12  1  0.674402  0.837426  0.571652  1
  Al  Al13  1  0.853053  0.678895  0.082046  1
  Al  Al14  1  0.325619  0.162556  0.428377  1
  Al  Al15  1  0.146933  0.321095  0.917908  1
  Al  Al16  1  0.162990  0.836977  0.576284  1
  Al  Al17  1  0.321111  0.146915  0.082015  1
  Al  Al18  1  0.836969  0.162993  0.423749  1
  Al  Al19  1  0.678888  0.853040  0.917952  1
  Al  Al20  1  0.836765  0.163188  0.077142  1
  Al  Al21  1  0.163193  0.836785  0.922820  1
  Al  Al22  1  0.562004  0.121079  0.249555  1
  Al  Al23  1  0.437994  0.878911  0.750446  1
  Al  Al24  1  0.878890  0.438012  0.249565  1
  Al  Al25  1  0.121085  0.562004  0.750440  1
  Al  Al26  1  0.565735  0.434335  0.258092  1
  Al  Al27  1  0.434309  0.565683  0.741917  1
  Al  Al28  1  0.998677  0.001119  0.250703  1
  Al  Al29  1  0.001258  0.998733  0.749293  1
  Ga  Ga30  1  0.500042  0.500014  0.999972  1
  Os  Os31  1  0.500002  0.000006  0.000011  1
  Os  Os32  1  0.999963  0.500021  0.999953  1
  Os  Os33  1  0.500009  0.000007  0.499990  1
  Os  Os34  1  0.999947  0.500029  0.500070  1
  Os  Os35  1  0.500029  0.500011  0.500037  1
  Os  Os36  1  0.000001  0.000005  0.000032  1
  Os  Os37  1  0.000014  0.000035  0.499953  1
