# generated using pymatgen
data_Cs6Rb2Y6BBr20
_symmetry_space_group_name_H-M   'P 1'
_cell_length_a   12.56210398
_cell_length_b   12.54142781
_cell_length_c   12.54142800
_cell_angle_alpha   59.99999951
_cell_angle_beta   60.05443106
_cell_angle_gamma   60.05443477
_symmetry_Int_Tables_number   1
_chemical_formula_structural   Cs6Rb2Y6BBr20
_chemical_formula_sum   'Cs6 Rb2 Y6 B1 Br20'
_cell_volume   1398.29300179
_cell_formula_units_Z   1
loop_
 _symmetry_equiv_pos_site_id
 _symmetry_equiv_pos_as_xyz
  1  'x, y, z'
loop_
 _atom_site_type_symbol
 _atom_site_label
 _atom_site_symmetry_multiplicity
 _atom_site_fract_x
 _atom_site_fract_y
 _atom_site_fract_z
 _atom_site_occupancy
  Cs  Cs0  1  0.359097  0.359478  0.359478  1
  Cs  Cs1  1  0.640903  0.640522  0.640522  1
  Cs  Cs2  1  0.359097  0.359478  0.921947  1
  Cs  Cs3  1  0.359097  0.921947  0.359478  1
  Cs  Cs4  1  0.640903  0.640522  0.078053  1
  Cs  Cs5  1  0.640903  0.078053  0.640522  1
  Rb  Rb6  1  0.918551  0.360483  0.360483  1
  Rb  Rb7  1  0.081449  0.639517  0.639517  1
  Y  Y8  1  0.848786  0.148815  0.148815  1
  Y  Y9  1  0.151214  0.851185  0.851185  1
  Y  Y10  1  0.151214  0.851185  0.146416  1
  Y  Y11  1  0.848786  0.148815  0.853584  1
  Y  Y12  1  0.151214  0.146416  0.851185  1
  Y  Y13  1  0.848786  0.853584  0.148815  1
  B  B14  1  0.000000  0.000000  0.000000  1
  Br  Br15  1  0.325226  0.000764  0.000764  1
  Br  Br16  1  0.674774  0.999236  0.999236  1
  Br  Br17  1  0.000000  0.320850  0.679150  1
  Br  Br18  1  0.000000  0.679150  0.320850  1
  Br  Br19  1  0.000000  0.320850  0.000000  1
  Br  Br20  1  0.674774  0.999236  0.326753  1
  Br  Br21  1  0.000000  0.679150  0.000000  1
  Br  Br22  1  0.325226  0.000764  0.673247  1
  Br  Br23  1  0.000000  0.000000  0.320850  1
  Br  Br24  1  0.000000  0.000000  0.679150  1
  Br  Br25  1  0.674774  0.326753  0.999236  1
  Br  Br26  1  0.325226  0.673247  0.000764  1
  Br  Br27  1  0.691643  0.313273  0.313273  1
  Br  Br28  1  0.308357  0.686727  0.686727  1
  Br  Br29  1  0.308357  0.686727  0.318188  1
  Br  Br30  1  0.691643  0.313273  0.681812  1
  Br  Br31  1  0.308357  0.318188  0.686727  1
  Br  Br32  1  0.691643  0.681812  0.313273  1
  Br  Br33  1  0.235635  0.254788  0.254788  1
  Br  Br34  1  0.764365  0.745212  0.745212  1
