# generated using pymatgen
data_CeTh(Ga4Co)2
_symmetry_space_group_name_H-M   'P 1'
_cell_length_a   8.09563047
_cell_length_b   8.09563103
_cell_length_c   6.55687500
_cell_angle_alpha   90.00000000
_cell_angle_beta   90.00000000
_cell_angle_gamma   150.03407646
_symmetry_Int_Tables_number   1
_chemical_formula_structural   CeTh(Ga4Co)2
_chemical_formula_sum   'Ce1 Th1 Ga8 Co2'
_cell_volume   214.64491468
_cell_formula_units_Z   1
loop_
 _symmetry_equiv_pos_site_id
 _symmetry_equiv_pos_as_xyz
  1  'x, y, z'
loop_
 _atom_site_type_symbol
 _atom_site_label
 _atom_site_symmetry_multiplicity
 _atom_site_fract_x
 _atom_site_fract_y
 _atom_site_fract_z
 _atom_site_occupancy
  Ce  Ce0  1  0.383082  0.616918  0.750000  1
  Th  Th1  1  0.617706  0.382294  0.250000  1
  Ga  Ga2  1  0.999094  0.000906  0.996833  1
  Ga  Ga3  1  0.999094  0.000906  0.503167  1
  Ga  Ga4  1  0.812020  0.187980  0.052359  1
  Ga  Ga5  1  0.190173  0.809827  0.943866  1
  Ga  Ga6  1  0.190173  0.809827  0.556134  1
  Ga  Ga7  1  0.812020  0.187980  0.447641  1
  Ga  Ga8  1  0.422500  0.577500  0.250000  1
  Ga  Ga9  1  0.575648  0.424352  0.750000  1
  Co  Co10  1  0.725293  0.274707  0.750000  1
  Co  Co11  1  0.273196  0.726804  0.250000  1
