# generated using pymatgen
data_Hf9Zr6Nb5Si16
_symmetry_space_group_name_H-M   'P 1'
_cell_length_a   7.01731577
_cell_length_b   7.01465290
_cell_length_c   12.84712234
_cell_angle_alpha   90.13142876
_cell_angle_beta   90.11181623
_cell_angle_gamma   89.98950079
_symmetry_Int_Tables_number   1
_chemical_formula_structural   Hf9Zr6Nb5Si16
_chemical_formula_sum   'Hf9 Zr6 Nb5 Si16'
_cell_volume   632.38431431
_cell_formula_units_Z   1
loop_
 _symmetry_equiv_pos_site_id
 _symmetry_equiv_pos_as_xyz
  1  'x, y, z'
loop_
 _atom_site_type_symbol
 _atom_site_label
 _atom_site_symmetry_multiplicity
 _atom_site_fract_x
 _atom_site_fract_y
 _atom_site_fract_z
 _atom_site_occupancy
  Hf  Hf0  1  0.855008  0.997201  0.373533  1
  Hf  Hf1  1  0.004900  0.146176  0.127551  1
  Hf  Hf2  1  0.997231  0.853512  0.625612  1
  Hf  Hf3  1  0.645912  0.497197  0.876521  1
  Hf  Hf4  1  0.502039  0.353581  0.623798  1
  Hf  Hf5  1  0.498407  0.645134  0.123250  1
  Hf  Hf6  1  0.145245  0.003116  0.873605  1
  Hf  Hf7  1  0.001037  0.652617  0.033296  1
  Hf  Hf8  1  0.001498  0.347050  0.530671  1
  Zr  Zr9  1  0.653806  0.997276  0.968407  1
  Zr  Zr10  1  0.152276  0.501730  0.781909  1
  Zr  Zr11  1  0.849025  0.497258  0.282704  1
  Zr  Zr12  1  0.502585  0.153162  0.219308  1
  Zr  Zr13  1  0.496913  0.845630  0.716243  1
  Zr  Zr14  1  0.345465  0.001399  0.467623  1
  Nb  Nb15  1  0.353723  0.505782  0.375834  1
  Nb  Nb16  1  0.673332  0.673523  0.499211  1
  Nb  Nb17  1  0.824497  0.175399  0.749925  1
  Nb  Nb18  1  0.176157  0.825096  0.250716  1
  Nb  Nb19  1  0.325741  0.325563  0.000755  1
  Si  Si20  1  0.050914  0.698158  0.435201  1
  Si  Si21  1  0.952150  0.301749  0.936526  1
  Si  Si22  1  0.700182  0.050473  0.563725  1
  Si  Si23  1  0.201029  0.452998  0.186908  1
  Si  Si24  1  0.800739  0.547085  0.684514  1
  Si  Si25  1  0.451222  0.198817  0.814733  1
  Si  Si26  1  0.547896  0.798031  0.314650  1
  Si  Si27  1  0.300190  0.950265  0.064661  1
  Si  Si28  1  0.854126  0.795624  0.821515  1
  Si  Si29  1  0.145268  0.210592  0.324587  1
  Si  Si30  1  0.796666  0.854041  0.177350  1
  Si  Si31  1  0.294684  0.642735  0.569923  1
  Si  Si32  1  0.705243  0.354318  0.072435  1
  Si  Si33  1  0.640558  0.297661  0.426882  1
  Si  Si34  1  0.353100  0.703114  0.928629  1
  Si  Si35  1  0.201233  0.146936  0.677287  1
