# generated using pymatgen
data_Zr10Ga5BiS
_symmetry_space_group_name_H-M   'P 1'
_cell_length_a   8.31716816
_cell_length_b   8.28442089
_cell_length_c   5.80694984
_cell_angle_alpha   89.90748930
_cell_angle_beta   90.04607535
_cell_angle_gamma   119.86983696
_symmetry_Int_Tables_number   1
_chemical_formula_structural   Zr10Ga5BiS
_chemical_formula_sum   'Zr10 Ga5 Bi1 S1'
_cell_volume   346.96359521
_cell_formula_units_Z   1
loop_
 _symmetry_equiv_pos_site_id
 _symmetry_equiv_pos_as_xyz
  1  'x, y, z'
loop_
 _atom_site_type_symbol
 _atom_site_label
 _atom_site_symmetry_multiplicity
 _atom_site_fract_x
 _atom_site_fract_y
 _atom_site_fract_z
 _atom_site_occupancy
  Zr  Zr0  1  0.000000  0.760140  0.232404  1
  Zr  Zr1  1  0.260917  0.248060  0.242183  1
  Zr  Zr2  1  0.739083  0.987143  0.242183  1
  Zr  Zr3  1  0.000000  0.250140  0.756386  1
  Zr  Zr4  1  0.747240  0.746413  0.760535  1
  Zr  Zr5  1  0.252760  0.999173  0.760535  1
  Zr  Zr6  1  0.348552  0.674835  0.504072  1
  Zr  Zr7  1  0.651448  0.326281  0.504072  1
  Zr  Zr8  1  0.653590  0.329569  0.995718  1
  Zr  Zr9  1  0.346410  0.675980  0.995718  1
  Ga  Ga10  1  0.608684  0.604698  0.248151  1
  Ga  Ga11  1  0.391316  0.996013  0.248151  1
  Ga  Ga12  1  0.000000  0.608616  0.750033  1
  Ga  Ga13  1  0.388267  0.391923  0.753087  1
  Ga  Ga14  1  0.611733  0.003656  0.753087  1
  Bi  Bi15  1  0.000000  0.395903  0.251793  1
  S  S16  1  0.000000  0.001457  0.501894  1
