# generated using pymatgen
data_Pr4Sn10Ir5Rh
_symmetry_space_group_name_H-M   'P 1'
_cell_length_a   13.68809038
_cell_length_b   13.68809109
_cell_length_c   7.39750613
_cell_angle_alpha   89.97872349
_cell_angle_beta   90.02127585
_cell_angle_gamma   161.13291356
_symmetry_Int_Tables_number   1
_chemical_formula_structural   Pr4Sn10Ir5Rh
_chemical_formula_sum   'Pr4 Sn10 Ir5 Rh1'
_cell_volume   448.20428047
_cell_formula_units_Z   1
loop_
 _symmetry_equiv_pos_site_id
 _symmetry_equiv_pos_as_xyz
  1  'x, y, z'
loop_
 _atom_site_type_symbol
 _atom_site_label
 _atom_site_symmetry_multiplicity
 _atom_site_fract_x
 _atom_site_fract_y
 _atom_site_fract_z
 _atom_site_occupancy
  Pr  Pr0  1  0.476640  0.523360  0.236469  1
  Pr  Pr1  1  0.172791  0.827209  0.256373  1
  Pr  Pr2  1  0.524165  0.475835  0.740437  1
  Pr  Pr3  1  0.826856  0.173144  0.756038  1
  Sn  Sn4  1  0.704964  0.295036  0.551005  1
  Sn  Sn5  1  0.596976  0.403024  0.113374  1
  Sn  Sn6  1  0.049116  0.950884  0.400911  1
  Sn  Sn7  1  0.950932  0.049068  0.899204  1
  Sn  Sn8  1  0.710191  0.289809  0.975608  1
  Sn  Sn9  1  0.289856  0.710144  0.475286  1
  Sn  Sn10  1  0.295039  0.704961  0.051259  1
  Sn  Sn11  1  0.878964  0.121036  0.229660  1
  Sn  Sn12  1  0.120853  0.879147  0.731038  1
  Sn  Sn13  1  0.403539  0.596461  0.613008  1
  Ir  Ir14  1  0.393182  0.606818  0.980105  1
  Ir  Ir15  1  0.776659  0.223341  0.264284  1
  Ir  Ir16  1  0.223324  0.776676  0.764183  1
  Ir  Ir17  1  0.050783  0.949217  0.022720  1
  Ir  Ir18  1  0.606871  0.393129  0.480744  1
  Rh  Rh19  1  0.948299  0.051701  0.522095  1
