# generated using pymatgen
data_TbY7Ti11Si16Pd
_symmetry_space_group_name_H-M   'P 1'
_cell_length_a   7.05839403
_cell_length_b   7.05839876
_cell_length_c   12.90032163
_cell_angle_alpha   90.10411991
_cell_angle_beta   89.89175996
_cell_angle_gamma   89.67630273
_symmetry_Int_Tables_number   1
_chemical_formula_structural   TbY7Ti11Si16Pd
_chemical_formula_sum   'Tb1 Y7 Ti11 Si16 Pd1'
_cell_volume   642.69392601
_cell_formula_units_Z   1
loop_
 _symmetry_equiv_pos_site_id
 _symmetry_equiv_pos_as_xyz
  1  'x, y, z'
loop_
 _atom_site_type_symbol
 _atom_site_label
 _atom_site_symmetry_multiplicity
 _atom_site_fract_x
 _atom_site_fract_y
 _atom_site_fract_z
 _atom_site_occupancy
  Tb  Tb0  1  0.999402  0.656773  0.031921  1
  Y  Y1  1  0.340165  0.003265  0.466751  1
  Y  Y2  1  0.497252  0.840663  0.717555  1
  Y  Y3  1  0.500856  0.158764  0.214421  1
  Y  Y4  1  0.840663  0.497239  0.282463  1
  Y  Y5  1  0.158777  0.500867  0.785577  1
  Y  Y6  1  0.656729  0.999429  0.968055  1
  Y  Y7  1  0.003280  0.340177  0.533256  1
  Ti  Ti8  1  0.175387  0.826836  0.249157  1
  Ti  Ti9  1  0.826877  0.175305  0.750842  1
  Ti  Ti10  1  0.673025  0.673038  0.500005  1
  Ti  Ti11  1  0.149665  0.006070  0.877283  1
  Ti  Ti12  1  0.493727  0.653767  0.124711  1
  Ti  Ti13  1  0.508263  0.349382  0.626867  1
  Ti  Ti14  1  0.653710  0.493682  0.875302  1
  Ti  Ti15  1  0.349426  0.508299  0.373169  1
  Ti  Ti16  1  0.848813  0.992781  0.375184  1
  Ti  Ti17  1  0.006116  0.149736  0.122736  1
  Ti  Ti18  1  0.992715  0.848806  0.624818  1
  Si  Si19  1  0.201736  0.131442  0.685867  1
  Si  Si20  1  0.374030  0.709943  0.932987  1
  Si  Si21  1  0.630079  0.295443  0.433933  1
  Si  Si22  1  0.709681  0.373766  0.066983  1
  Si  Si23  1  0.295408  0.630099  0.566072  1
  Si  Si24  1  0.797268  0.869483  0.183999  1
  Si  Si25  1  0.131485  0.201708  0.314132  1
  Si  Si26  1  0.869483  0.797391  0.816001  1
  Si  Si27  1  0.286015  0.943905  0.064865  1
  Si  Si28  1  0.546873  0.791404  0.314953  1
  Si  Si29  1  0.451480  0.209580  0.813432  1
  Si  Si30  1  0.791381  0.546992  0.685025  1
  Si  Si31  1  0.209632  0.451482  0.186625  1
  Si  Si32  1  0.708930  0.047521  0.565238  1
  Si  Si33  1  0.943725  0.285639  0.935062  1
  Si  Si34  1  0.047547  0.708940  0.434754  1
  Pd  Pd35  1  0.330397  0.330382  0.999998  1
