# generated using pymatgen
data_NdEr15Cd4(OsPt)2
_symmetry_space_group_name_H-M   'P 1'
_cell_length_a   9.60847679
_cell_length_b   9.60847648
_cell_length_c   9.67987300
_cell_angle_alpha   59.75388914
_cell_angle_beta   59.75389022
_cell_angle_gamma   59.28942344
_symmetry_Int_Tables_number   1
_chemical_formula_structural   NdEr15Cd4(OsPt)2
_chemical_formula_sum   'Nd1 Er15 Cd4 Os2 Pt2'
_cell_volume   626.13613294
_cell_formula_units_Z   1
loop_
 _symmetry_equiv_pos_site_id
 _symmetry_equiv_pos_as_xyz
  1  'x, y, z'
loop_
 _atom_site_type_symbol
 _atom_site_label
 _atom_site_symmetry_multiplicity
 _atom_site_fract_x
 _atom_site_fract_y
 _atom_site_fract_z
 _atom_site_occupancy
  Nd  Nd0  1  0.938001  0.938001  0.561999  1
  Er  Er1  1  0.350607  0.350607  0.350697  1
  Er  Er2  1  0.350607  0.350607  0.948088  1
  Er  Er3  1  0.347316  0.955674  0.348505  1
  Er  Er4  1  0.955674  0.347316  0.348505  1
  Er  Er5  1  0.814331  0.188696  0.188801  1
  Er  Er6  1  0.188696  0.814331  0.808173  1
  Er  Er7  1  0.188696  0.814331  0.188801  1
  Er  Er8  1  0.814331  0.188696  0.808173  1
  Er  Er9  1  0.188087  0.188087  0.811913  1
  Er  Er10  1  0.808464  0.808464  0.191536  1
  Er  Er11  1  0.938061  0.553574  0.567215  1
  Er  Er12  1  0.553574  0.938061  0.941150  1
  Er  Er13  1  0.553574  0.938061  0.567215  1
  Er  Er14  1  0.938061  0.553574  0.941150  1
  Er  Er15  1  0.564251  0.564251  0.935749  1
  Cd  Cd16  1  0.580517  0.580517  0.581377  1
  Cd  Cd17  1  0.580517  0.580517  0.257591  1
  Cd  Cd18  1  0.578329  0.257746  0.581963  1
  Cd  Cd19  1  0.257746  0.578329  0.581963  1
  Os  Os20  1  0.145519  0.145519  0.134779  1
  Os  Os21  1  0.145519  0.145519  0.574182  1
  Pt  Pt22  1  0.144894  0.574632  0.140237  1
  Pt  Pt23  1  0.574632  0.144894  0.140237  1
