# generated using pymatgen
data_Hf18TiRe6P2W
_symmetry_space_group_name_H-M   'P 1'
_cell_length_a   8.58913800
_cell_length_b   8.58913826
_cell_length_c   8.58460600
_cell_angle_alpha   90.00000000
_cell_angle_beta   90.00000000
_cell_angle_gamma   119.99999901
_symmetry_Int_Tables_number   1
_chemical_formula_structural   Hf18TiRe6P2W
_chemical_formula_sum   'Hf18 Ti1 Re6 P2 W1'
_cell_volume   548.46658996
_cell_formula_units_Z   1
loop_
 _symmetry_equiv_pos_site_id
 _symmetry_equiv_pos_as_xyz
  1  'x, y, z'
loop_
 _atom_site_type_symbol
 _atom_site_label
 _atom_site_symmetry_multiplicity
 _atom_site_fract_x
 _atom_site_fract_y
 _atom_site_fract_z
 _atom_site_occupancy
  Hf  Hf0  1  0.196551  0.803449  0.451471  1
  Hf  Hf1  1  0.196551  0.393100  0.451471  1
  Hf  Hf2  1  0.606900  0.803449  0.451471  1
  Hf  Hf3  1  0.803449  0.196551  0.548529  1
  Hf  Hf4  1  0.803449  0.606900  0.548529  1
  Hf  Hf5  1  0.393100  0.196551  0.548529  1
  Hf  Hf6  1  0.803665  0.196335  0.950569  1
  Hf  Hf7  1  0.803665  0.607332  0.950569  1
  Hf  Hf8  1  0.392668  0.196335  0.950569  1
  Hf  Hf9  1  0.196335  0.803665  0.049431  1
  Hf  Hf10  1  0.196335  0.392668  0.049431  1
  Hf  Hf11  1  0.607332  0.803665  0.049431  1
  Hf  Hf12  1  0.539487  0.460513  0.248897  1
  Hf  Hf13  1  0.539487  0.078975  0.248897  1
  Hf  Hf14  1  0.921025  0.460513  0.248897  1
  Hf  Hf15  1  0.460513  0.539487  0.751103  1
  Hf  Hf16  1  0.460513  0.921025  0.751103  1
  Hf  Hf17  1  0.078975  0.539487  0.751103  1
  Ti  Ti18  1  0.000000  0.000000  0.500000  1
  Re  Re19  1  0.889596  0.110404  0.251947  1
  Re  Re20  1  0.889596  0.779191  0.251947  1
  Re  Re21  1  0.220809  0.110404  0.251947  1
  Re  Re22  1  0.110404  0.889596  0.748053  1
  Re  Re23  1  0.110404  0.220809  0.748053  1
  Re  Re24  1  0.779191  0.889596  0.748053  1
  P  P25  1  0.333333  0.666667  0.249842  1
  P  P26  1  0.666667  0.333333  0.750158  1
  W  W27  1  0.000000  0.000000  0.000000  1
