# generated using pymatgen
data_K3Rb3Ba3Ta12(Si2O13)4
_symmetry_space_group_name_H-M   'P 1'
_cell_length_a   7.87271200
_cell_length_b   9.17386900
_cell_length_c   15.88216800
_cell_angle_alpha   90.00000000
_cell_angle_beta   90.00000000
_cell_angle_gamma   90.00000000
_symmetry_Int_Tables_number   1
_chemical_formula_structural   K3Rb3Ba3Ta12(Si2O13)4
_chemical_formula_sum   'K3 Rb3 Ba3 Ta12 Si8 O52'
_cell_volume   1147.06144954
_cell_formula_units_Z   1
loop_
 _symmetry_equiv_pos_site_id
 _symmetry_equiv_pos_as_xyz
  1  'x, y, z'
loop_
 _atom_site_type_symbol
 _atom_site_label
 _atom_site_symmetry_multiplicity
 _atom_site_fract_x
 _atom_site_fract_y
 _atom_site_fract_z
 _atom_site_occupancy
  K  K0  1  0.000000  0.888127  0.500000  1
  K  K1  1  0.000000  0.802300  0.196432  1
  K  K2  1  0.000000  0.802300  0.803568  1
  Rb  Rb3  1  0.500000  0.903024  0.500000  1
  Rb  Rb4  1  0.500000  0.797960  0.201904  1
  Rb  Rb5  1  0.500000  0.797960  0.798096  1
  Ba  Ba6  1  0.500000  0.302014  0.698383  1
  Ba  Ba7  1  0.500000  0.302014  0.301617  1
  Ba  Ba8  1  0.500000  0.396812  0.000000  1
  Ta  Ta9  1  0.750966  0.758717  0.000000  1
  Ta  Ta10  1  0.245778  0.265260  0.500000  1
  Ta  Ta11  1  0.754222  0.265260  0.500000  1
  Ta  Ta12  1  0.247264  0.117264  0.882019  1
  Ta  Ta13  1  0.752736  0.117264  0.882019  1
  Ta  Ta14  1  0.247264  0.117264  0.117981  1
  Ta  Ta15  1  0.249034  0.758717  0.000000  1
  Ta  Ta16  1  0.247697  0.620168  0.380294  1
  Ta  Ta17  1  0.752303  0.620168  0.619706  1
  Ta  Ta18  1  0.752303  0.620168  0.380294  1
  Ta  Ta19  1  0.247697  0.620168  0.619706  1
  Ta  Ta20  1  0.752736  0.117264  0.117981  1
  Si  Si21  1  0.794380  0.494770  0.833931  1
  Si  Si22  1  0.205620  0.494770  0.833931  1
  Si  Si23  1  0.792570  0.005555  0.667272  1
  Si  Si24  1  0.792570  0.005555  0.332728  1
  Si  Si25  1  0.207430  0.005555  0.667272  1
  Si  Si26  1  0.207430  0.005555  0.332728  1
  Si  Si27  1  0.794380  0.494770  0.166069  1
  Si  Si28  1  0.205620  0.494770  0.166069  1
  O  O29  1  0.765402  0.911109  0.912652  1
  O  O30  1  0.273740  0.601020  0.909454  1
  O  O31  1  0.726260  0.601020  0.909454  1
  O  O32  1  0.728197  0.556913  0.743373  1
  O  O33  1  0.271803  0.556913  0.743373  1
  O  O34  1  0.000000  0.496614  0.834632  1
  O  O35  1  0.238079  0.413702  0.588001  1
  O  O36  1  0.761921  0.413702  0.588001  1
  O  O37  1  0.761921  0.413702  0.411999  1
  O  O38  1  0.284129  0.332702  0.848246  1
  O  O39  1  0.715871  0.332702  0.848246  1
  O  O40  1  0.500000  0.271121  0.500000  1
  O  O41  1  0.000000  0.226368  0.500000  1
  O  O42  1  0.763103  0.178138  0.000000  1
  O  O43  1  0.000000  0.129561  0.864502  1
  O  O44  1  0.000000  0.129561  0.135498  1
  O  O45  1  0.500000  0.117310  0.886743  1
  O  O46  1  0.500000  0.117310  0.113257  1
  O  O47  1  0.277396  0.109540  0.592161  1
  O  O48  1  0.277396  0.109540  0.407839  1
  O  O49  1  0.722604  0.109540  0.592161  1
  O  O50  1  0.722604  0.109540  0.407839  1
  O  O51  1  0.278874  0.064884  0.757058  1
  O  O52  1  0.721126  0.064884  0.757058  1
  O  O53  1  0.721126  0.064884  0.242942  1
  O  O54  1  0.278874  0.064884  0.242942  1
  O  O55  1  0.000000  0.004983  0.667802  1
  O  O56  1  0.000000  0.004983  0.332198  1
  O  O57  1  0.234598  0.911109  0.912652  1
  O  O58  1  0.234598  0.911109  0.087348  1
  O  O59  1  0.765402  0.911109  0.087348  1
  O  O60  1  0.265979  0.836740  0.652019  1
  O  O61  1  0.734021  0.836740  0.652019  1
  O  O62  1  0.265979  0.836740  0.347981  1
  O  O63  1  0.734021  0.836740  0.347981  1
  O  O64  1  0.500000  0.763359  0.000000  1
  O  O65  1  0.000000  0.732381  0.000000  1
  O  O66  1  0.234895  0.673051  0.500000  1
  O  O67  1  0.765105  0.673051  0.500000  1
  O  O68  1  0.000000  0.639525  0.634894  1
  O  O69  1  0.000000  0.639525  0.365106  1
  O  O70  1  0.500000  0.615230  0.619124  1
  O  O71  1  0.500000  0.615230  0.380876  1
  O  O72  1  0.273740  0.601020  0.090546  1
  O  O73  1  0.726260  0.601020  0.090546  1
  O  O74  1  0.271803  0.556913  0.256627  1
  O  O75  1  0.728197  0.556913  0.256627  1
  O  O76  1  0.000000  0.496614  0.165368  1
  O  O77  1  0.238079  0.413702  0.411999  1
  O  O78  1  0.284129  0.332702  0.151754  1
  O  O79  1  0.715871  0.332702  0.151754  1
  O  O80  1  0.236897  0.178138  0.000000  1
