# generated using pymatgen
data_Tb4Ce3Pr(ReB6)4
_symmetry_space_group_name_H-M   'P 1'
_cell_length_a   3.74698600
_cell_length_b   9.25455363
_cell_length_c   11.65241382
_cell_angle_alpha   89.88542609
_cell_angle_beta   90.00000000
_cell_angle_gamma   90.00000000
_symmetry_Int_Tables_number   1
_chemical_formula_structural   Tb4Ce3Pr(ReB6)4
_chemical_formula_sum   'Tb4 Ce3 Pr1 Re4 B24'
_cell_volume   404.06625100
_cell_formula_units_Z   1
loop_
 _symmetry_equiv_pos_site_id
 _symmetry_equiv_pos_as_xyz
  1  'x, y, z'
loop_
 _atom_site_type_symbol
 _atom_site_label
 _atom_site_symmetry_multiplicity
 _atom_site_fract_x
 _atom_site_fract_y
 _atom_site_fract_z
 _atom_site_occupancy
  Tb  Tb0  1  0.000000  0.943724  0.371200  1
  Tb  Tb1  1  0.000000  0.056546  0.628890  1
  Tb  Tb2  1  0.000000  0.444168  0.127525  1
  Tb  Tb3  1  0.000000  0.555683  0.873412  1
  Ce  Ce4  1  0.000000  0.675854  0.586283  1
  Ce  Ce5  1  0.000000  0.822830  0.086116  1
  Ce  Ce6  1  0.000000  0.177733  0.914336  1
  Pr  Pr7  1  0.000000  0.323056  0.413390  1
  Re  Re8  1  0.000000  0.641295  0.320222  1
  Re  Re9  1  0.000000  0.361537  0.681505  1
  Re  Re10  1  0.000000  0.136035  0.176224  1
  Re  Re11  1  0.000000  0.861389  0.821149  1
  B  B12  1  0.500000  0.556597  0.431670  1
  B  B13  1  0.500000  0.446649  0.570260  1
  B  B14  1  0.500000  0.053668  0.067604  1
  B  B15  1  0.500000  0.945414  0.931296  1
  B  B16  1  0.500000  0.748524  0.418312  1
  B  B17  1  0.500000  0.252037  0.584125  1
  B  B18  1  0.500000  0.247616  0.080871  1
  B  B19  1  0.500000  0.752406  0.918394  1
  B  B20  1  0.500000  0.791630  0.265980  1
  B  B21  1  0.500000  0.208846  0.734410  1
  B  B22  1  0.500000  0.290007  0.231435  1
  B  B23  1  0.500000  0.708846  0.766737  1
  B  B24  1  0.500000  0.632903  0.185951  1
  B  B25  1  0.500000  0.367744  0.814379  1
  B  B26  1  0.500000  0.130089  0.311894  1
  B  B27  1  0.500000  0.867960  0.686520  1
  B  B28  1  0.500000  0.983646  0.211940  1
  B  B29  1  0.500000  0.015319  0.787537  1
  B  B30  1  0.500000  0.486349  0.286061  1
  B  B31  1  0.500000  0.515918  0.713438  1
  B  B32  1  0.500000  0.609818  0.030522  1
  B  B33  1  0.500000  0.390488  0.969893  1
  B  B34  1  0.500000  0.101431  0.471465  1
  B  B35  1  0.500000  0.896247  0.529055  1
