# generated using pymatgen
data_Y7Ho3In3Ru
_symmetry_space_group_name_H-M   'P 1'
_cell_length_a   9.73612200
_cell_length_b   9.73612065
_cell_length_c   9.77205400
_cell_angle_alpha   90.00000000
_cell_angle_beta   90.00000000
_cell_angle_gamma   119.99999781
_symmetry_Int_Tables_number   1
_chemical_formula_structural   Y7Ho3In3Ru
_chemical_formula_sum   'Y14 Ho6 In6 Ru2'
_cell_volume   802.21070597
_cell_formula_units_Z   2
loop_
 _symmetry_equiv_pos_site_id
 _symmetry_equiv_pos_as_xyz
  1  'x, y, z'
loop_
 _atom_site_type_symbol
 _atom_site_label
 _atom_site_symmetry_multiplicity
 _atom_site_fract_x
 _atom_site_fract_y
 _atom_site_fract_z
 _atom_site_occupancy
  Y  Y0  1  0.000000  0.000000  0.500000  1
  Y  Y1  1  0.000000  0.000000  0.000000  1
  Y  Y2  1  0.790353  0.209647  0.938606  1
  Y  Y3  1  0.790353  0.580705  0.938606  1
  Y  Y4  1  0.419295  0.209647  0.938606  1
  Y  Y5  1  0.209647  0.790353  0.061394  1
  Y  Y6  1  0.209647  0.419295  0.061394  1
  Y  Y7  1  0.580705  0.790353  0.061394  1
  Y  Y8  1  0.539350  0.460650  0.251793  1
  Y  Y9  1  0.539350  0.078701  0.251793  1
  Y  Y10  1  0.921299  0.460650  0.251793  1
  Y  Y11  1  0.460650  0.539350  0.748207  1
  Y  Y12  1  0.460650  0.921299  0.748207  1
  Y  Y13  1  0.078701  0.539350  0.748207  1
  Ho  Ho14  1  0.210382  0.789618  0.438649  1
  Ho  Ho15  1  0.210382  0.420765  0.438649  1
  Ho  Ho16  1  0.579235  0.789618  0.438649  1
  Ho  Ho17  1  0.789618  0.210382  0.561351  1
  Ho  Ho18  1  0.789618  0.579235  0.561351  1
  Ho  Ho19  1  0.420765  0.210382  0.561351  1
  In  In20  1  0.884089  0.115911  0.249674  1
  In  In21  1  0.884089  0.768180  0.249674  1
  In  In22  1  0.231820  0.115911  0.249674  1
  In  In23  1  0.115911  0.884089  0.750326  1
  In  In24  1  0.115911  0.231820  0.750326  1
  In  In25  1  0.768180  0.884089  0.750326  1
  Ru  Ru26  1  0.333333  0.666667  0.252478  1
  Ru  Ru27  1  0.666667  0.333333  0.747522  1
