# generated using pymatgen
data_Zr6Ta3Nb(GaSn3)2
_symmetry_space_group_name_H-M   'P 1'
_cell_length_a   8.57577900
_cell_length_b   8.57577921
_cell_length_c   5.75208600
_cell_angle_alpha   90.00000000
_cell_angle_beta   90.00000000
_cell_angle_gamma   119.99999534
_symmetry_Int_Tables_number   1
_chemical_formula_structural   Zr6Ta3Nb(GaSn3)2
_chemical_formula_sum   'Zr6 Ta3 Nb1 Ga2 Sn6'
_cell_volume   366.35590371
_cell_formula_units_Z   1
loop_
 _symmetry_equiv_pos_site_id
 _symmetry_equiv_pos_as_xyz
  1  'x, y, z'
loop_
 _atom_site_type_symbol
 _atom_site_label
 _atom_site_symmetry_multiplicity
 _atom_site_fract_x
 _atom_site_fract_y
 _atom_site_fract_z
 _atom_site_occupancy
  Zr  Zr0  1  0.000061  0.269770  0.249939  1
  Zr  Zr1  1  0.730230  0.999939  0.750061  1
  Zr  Zr2  1  0.730230  0.730291  0.249939  1
  Zr  Zr3  1  0.000061  0.730291  0.750061  1
  Zr  Zr4  1  0.269709  0.269770  0.750061  1
  Zr  Zr5  1  0.269709  0.999939  0.249939  1
  Ta  Ta6  1  0.333333  0.666667  0.000000  1
  Ta  Ta7  1  0.666667  0.333333  0.000000  1
  Ta  Ta8  1  0.333333  0.666667  0.500000  1
  Nb  Nb9  1  0.666667  0.333333  0.500000  1
  Ga  Ga10  1  0.000000  0.000000  0.000000  1
  Ga  Ga11  1  0.000000  0.000000  0.500000  1
  Sn  Sn12  1  0.609790  0.000003  0.249964  1
  Sn  Sn13  1  0.390213  0.000003  0.750036  1
  Sn  Sn14  1  0.390213  0.390210  0.249964  1
  Sn  Sn15  1  0.999997  0.609787  0.249964  1
  Sn  Sn16  1  0.999997  0.390210  0.750036  1
  Sn  Sn17  1  0.609790  0.609787  0.750036  1
