# generated using pymatgen
data_Nd8Cu3Si12Au
_symmetry_space_group_name_H-M   'P 1'
_cell_length_a   8.15745400
_cell_length_b   8.15745402
_cell_length_c   8.58325800
_cell_angle_alpha   90.00000000
_cell_angle_beta   90.00000000
_cell_angle_gamma   119.99999179
_symmetry_Int_Tables_number   1
_chemical_formula_structural   Nd8Cu3Si12Au
_chemical_formula_sum   'Nd8 Cu3 Si12 Au1'
_cell_volume   494.64326807
_cell_formula_units_Z   1
loop_
 _symmetry_equiv_pos_site_id
 _symmetry_equiv_pos_as_xyz
  1  'x, y, z'
loop_
 _atom_site_type_symbol
 _atom_site_label
 _atom_site_symmetry_multiplicity
 _atom_site_fract_x
 _atom_site_fract_y
 _atom_site_fract_z
 _atom_site_occupancy
  Nd  Nd0  1  0.498867  0.501133  0.752256  1
  Nd  Nd1  1  0.498882  0.501118  0.247782  1
  Nd  Nd2  1  0.002267  0.501133  0.752256  1
  Nd  Nd3  1  0.002236  0.501118  0.247782  1
  Nd  Nd4  1  0.498867  0.997733  0.752256  1
  Nd  Nd5  1  0.498882  0.997764  0.247782  1
  Nd  Nd6  1  0.000000  0.000000  0.752028  1
  Nd  Nd7  1  0.000000  0.000000  0.248011  1
  Cu  Cu8  1  0.666667  0.333333  0.000053  1
  Cu  Cu9  1  0.333333  0.666667  0.000087  1
  Cu  Cu10  1  0.333333  0.666667  0.499604  1
  Si  Si11  1  0.830516  0.169484  0.000126  1
  Si  Si12  1  0.168853  0.831147  0.999901  1
  Si  Si13  1  0.338968  0.169484  0.000126  1
  Si  Si14  1  0.170018  0.829982  0.499875  1
  Si  Si15  1  0.662293  0.831147  0.999901  1
  Si  Si16  1  0.837417  0.162583  0.500203  1
  Si  Si17  1  0.830516  0.661032  0.000126  1
  Si  Si18  1  0.659963  0.829982  0.499875  1
  Si  Si19  1  0.168853  0.337707  0.999901  1
  Si  Si20  1  0.325168  0.162583  0.500203  1
  Si  Si21  1  0.170018  0.340037  0.499875  1
  Si  Si22  1  0.837417  0.674832  0.500203  1
  Au  Au23  1  0.666667  0.333333  0.499785  1
