# generated using pymatgen
data_LiCe4Cr3(Co4P3)4
_symmetry_space_group_name_H-M   'P 1'
_cell_length_a   3.69407900
_cell_length_b   10.39765728
_cell_length_c   11.79516098
_cell_angle_alpha   90.11543315
_cell_angle_beta   90.00000000
_cell_angle_gamma   90.00000000
_symmetry_Int_Tables_number   1
_chemical_formula_structural   LiCe4Cr3(Co4P3)4
_chemical_formula_sum   'Li1 Ce4 Cr3 Co16 P12'
_cell_volume   453.04847029
_cell_formula_units_Z   1
loop_
 _symmetry_equiv_pos_site_id
 _symmetry_equiv_pos_as_xyz
  1  'x, y, z'
loop_
 _atom_site_type_symbol
 _atom_site_label
 _atom_site_symmetry_multiplicity
 _atom_site_fract_x
 _atom_site_fract_y
 _atom_site_fract_z
 _atom_site_occupancy
  Li  Li0  1  0.250000  0.699293  0.991808  1
  Ce  Ce1  1  0.250000  0.582505  0.703035  1
  Ce  Ce2  1  0.250000  0.917651  0.198973  1
  Ce  Ce3  1  0.750000  0.417240  0.296969  1
  Ce  Ce4  1  0.750000  0.080367  0.798782  1
  Cr  Cr5  1  0.250000  0.791971  0.489728  1
  Cr  Cr6  1  0.750000  0.294379  0.009750  1
  Cr  Cr7  1  0.750000  0.207033  0.511336  1
  Co  Co8  1  0.250000  0.403878  0.488891  1
  Co  Co9  1  0.250000  0.097437  0.987175  1
  Co  Co10  1  0.750000  0.594383  0.513680  1
  Co  Co11  1  0.750000  0.910798  0.013529  1
  Co  Co12  1  0.250000  0.221717  0.175896  1
  Co  Co13  1  0.250000  0.278778  0.676691  1
  Co  Co14  1  0.750000  0.781212  0.820299  1
  Co  Co15  1  0.750000  0.718910  0.327505  1
  Co  Co16  1  0.250000  0.889440  0.697510  1
  Co  Co17  1  0.250000  0.615879  0.200676  1
  Co  Co18  1  0.750000  0.114567  0.300603  1
  Co  Co19  1  0.750000  0.384437  0.800773  1
  Co  Co20  1  0.250000  0.466517  0.930920  1
  Co  Co21  1  0.250000  0.032331  0.431696  1
  Co  Co22  1  0.750000  0.531356  0.067176  1
  Co  Co23  1  0.750000  0.968836  0.564631  1
  P  P24  1  0.250000  0.418927  0.110561  1
  P  P25  1  0.250000  0.083409  0.610614  1
  P  P26  1  0.750000  0.582022  0.887292  1
  P  P27  1  0.750000  0.916612  0.386578  1
  P  P28  1  0.250000  0.273144  0.869259  1
  P  P29  1  0.250000  0.226304  0.368107  1
  P  P30  1  0.750000  0.723327  0.137200  1
  P  P31  1  0.750000  0.775417  0.631386  1
  P  P32  1  0.250000  0.603751  0.395189  1
  P  P33  1  0.250000  0.894248  0.894132  1
  P  P34  1  0.750000  0.394600  0.606641  1
  P  P35  1  0.750000  0.107325  0.105007  1
