# generated using pymatgen
data_Th6Au6SCl
_symmetry_space_group_name_H-M   'P 1'
_cell_length_a   8.18236159
_cell_length_b   8.18236171
_cell_length_c   8.18236205
_cell_angle_alpha   113.74375639
_cell_angle_beta   113.74374135
_cell_angle_gamma   113.74373156
_symmetry_Int_Tables_number   1
_chemical_formula_structural   Th6Au6SCl
_chemical_formula_sum   'Th6 Au6 S1 Cl1'
_cell_volume   339.05847322
_cell_formula_units_Z   1
loop_
 _symmetry_equiv_pos_site_id
 _symmetry_equiv_pos_as_xyz
  1  'x, y, z'
loop_
 _atom_site_type_symbol
 _atom_site_label
 _atom_site_symmetry_multiplicity
 _atom_site_fract_x
 _atom_site_fract_y
 _atom_site_fract_z
 _atom_site_occupancy
  Th  Th0  1  0.039893  0.400068  0.281316  1
  Th  Th1  1  0.400068  0.281316  0.039893  1
  Th  Th2  1  0.718684  0.960107  0.599932  1
  Th  Th3  1  0.281316  0.039893  0.400068  1
  Th  Th4  1  0.599932  0.718684  0.960107  1
  Th  Th5  1  0.960107  0.599932  0.718684  1
  Au  Au6  1  0.437357  0.934925  0.763999  1
  Au  Au7  1  0.934925  0.763999  0.437357  1
  Au  Au8  1  0.236001  0.562643  0.065075  1
  Au  Au9  1  0.763999  0.437357  0.934925  1
  Au  Au10  1  0.065075  0.236001  0.562643  1
  Au  Au11  1  0.562643  0.065075  0.236001  1
  S  S12  1  0.000000  0.000000  0.000000  1
  Cl  Cl13  1  0.500000  0.500000  0.500000  1
