# generated using pymatgen
data_Sc4GeBr6
_symmetry_space_group_name_H-M   'P 1'
_cell_length_a   3.80852500
_cell_length_b   12.64875800
_cell_length_c   13.17510200
_cell_angle_alpha   90.00000000
_cell_angle_beta   90.00000000
_cell_angle_gamma   90.00000000
_symmetry_Int_Tables_number   1
_chemical_formula_structural   Sc4GeBr6
_chemical_formula_sum   'Sc8 Ge2 Br12'
_cell_volume   634.68565190
_cell_formula_units_Z   2
loop_
 _symmetry_equiv_pos_site_id
 _symmetry_equiv_pos_as_xyz
  1  'x, y, z'
loop_
 _atom_site_type_symbol
 _atom_site_label
 _atom_site_symmetry_multiplicity
 _atom_site_fract_x
 _atom_site_fract_y
 _atom_site_fract_z
 _atom_site_occupancy
  Sc  Sc0  1  0.000000  0.111324  0.085841  1
  Sc  Sc1  1  0.000000  0.888676  0.914159  1
  Sc  Sc2  1  0.000000  0.611324  0.414159  1
  Sc  Sc3  1  0.000000  0.388676  0.585841  1
  Sc  Sc4  1  0.500000  0.127392  0.847442  1
  Sc  Sc5  1  0.500000  0.872608  0.152558  1
  Sc  Sc6  1  0.500000  0.627392  0.652558  1
  Sc  Sc7  1  0.500000  0.372608  0.347442  1
  Ge  Ge8  1  0.500000  0.000000  0.000000  1
  Ge  Ge9  1  0.500000  0.500000  0.500000  1
  Br  Br10  1  0.500000  0.262999  0.678186  1
  Br  Br11  1  0.500000  0.737001  0.321814  1
  Br  Br12  1  0.500000  0.762999  0.821814  1
  Br  Br13  1  0.500000  0.237001  0.178186  1
  Br  Br14  1  0.000000  0.259022  0.927648  1
  Br  Br15  1  0.000000  0.740978  0.072352  1
  Br  Br16  1  0.000000  0.483235  0.241656  1
  Br  Br17  1  0.000000  0.516765  0.758344  1
  Br  Br18  1  0.000000  0.983235  0.258344  1
  Br  Br19  1  0.000000  0.016765  0.741656  1
  Br  Br20  1  0.000000  0.240978  0.427648  1
  Br  Br21  1  0.000000  0.759022  0.572352  1
