# generated using pymatgen
data_RbTm2ScS5
_symmetry_space_group_name_H-M   'P 1'
_cell_length_a   3.88349800
_cell_length_b   11.61783400
_cell_length_c   20.74134200
_cell_angle_alpha   90.00000000
_cell_angle_beta   90.00000000
_cell_angle_gamma   90.00000000
_symmetry_Int_Tables_number   1
_chemical_formula_structural   RbTm2ScS5
_chemical_formula_sum   'Rb4 Tm8 Sc4 S20'
_cell_volume   935.80444818
_cell_formula_units_Z   4
loop_
 _symmetry_equiv_pos_site_id
 _symmetry_equiv_pos_as_xyz
  1  'x, y, z'
loop_
 _atom_site_type_symbol
 _atom_site_label
 _atom_site_symmetry_multiplicity
 _atom_site_fract_x
 _atom_site_fract_y
 _atom_site_fract_z
 _atom_site_occupancy
  Rb  Rb0  1  0.250000  0.850291  0.093087  1
  Rb  Rb1  1  0.750000  0.149709  0.906913  1
  Rb  Rb2  1  0.750000  0.350291  0.406913  1
  Rb  Rb3  1  0.250000  0.649709  0.593087  1
  Tm  Tm4  1  0.750000  0.798567  0.828164  1
  Tm  Tm5  1  0.250000  0.201433  0.171836  1
  Tm  Tm6  1  0.250000  0.298567  0.671836  1
  Tm  Tm7  1  0.750000  0.701433  0.328164  1
  Tm  Tm8  1  0.250000  0.956945  0.696257  1
  Tm  Tm9  1  0.750000  0.043055  0.303743  1
  Tm  Tm10  1  0.750000  0.456945  0.803743  1
  Tm  Tm11  1  0.250000  0.543055  0.196257  1
  Sc  Sc12  1  0.750000  0.393390  0.051603  1
  Sc  Sc13  1  0.250000  0.606610  0.948397  1
  Sc  Sc14  1  0.250000  0.893390  0.448397  1
  Sc  Sc15  1  0.750000  0.106610  0.551603  1
  S  S16  1  0.250000  0.953463  0.566243  1
  S  S17  1  0.750000  0.046537  0.433757  1
  S  S18  1  0.750000  0.453463  0.933757  1
  S  S19  1  0.250000  0.546537  0.066243  1
  S  S20  1  0.750000  0.754959  0.955640  1
  S  S21  1  0.250000  0.245041  0.044360  1
  S  S22  1  0.250000  0.254959  0.544360  1
  S  S23  1  0.750000  0.745041  0.455640  1
  S  S24  1  0.250000  0.952901  0.826266  1
  S  S25  1  0.750000  0.047099  0.173734  1
  S  S26  1  0.750000  0.452901  0.673734  1
  S  S27  1  0.250000  0.547099  0.326266  1
  S  S28  1  0.750000  0.126231  0.679201  1
  S  S29  1  0.250000  0.873769  0.320799  1
  S  S30  1  0.250000  0.626231  0.820799  1
  S  S31  1  0.750000  0.373769  0.179201  1
  S  S32  1  0.750000  0.695650  0.198345  1
  S  S33  1  0.250000  0.304350  0.801655  1
  S  S34  1  0.250000  0.195650  0.301655  1
  S  S35  1  0.750000  0.804350  0.698345  1
