# generated using pymatgen
data_Ca2Dy3Er(Si3Ru)8
_symmetry_space_group_name_H-M   'P 1'
_cell_length_a   10.14087934
_cell_length_b   10.13921087
_cell_length_c   8.14401331
_cell_angle_alpha   90.04714563
_cell_angle_beta   89.96346279
_cell_angle_gamma   132.66870448
_symmetry_Int_Tables_number   1
_chemical_formula_structural   Ca2Dy3Er(Si3Ru)8
_chemical_formula_sum   'Ca2 Dy3 Er1 Si24 Ru8'
_cell_volume   615.70650946
_cell_formula_units_Z   1
loop_
 _symmetry_equiv_pos_site_id
 _symmetry_equiv_pos_as_xyz
  1  'x, y, z'
loop_
 _atom_site_type_symbol
 _atom_site_label
 _atom_site_symmetry_multiplicity
 _atom_site_fract_x
 _atom_site_fract_y
 _atom_site_fract_z
 _atom_site_occupancy
  Ca  Ca0  1  0.998236  0.498178  0.250231  1
  Ca  Ca1  1  0.499735  0.499814  0.499710  1
  Dy  Dy2  1  0.497014  0.996935  0.250603  1
  Dy  Dy3  1  0.003143  0.503270  0.749459  1
  Dy  Dy4  1  0.501287  0.001389  0.749545  1
  Er  Er5  1  0.999592  0.999532  0.000616  1
  Si  Si6  1  0.387835  0.155731  0.006264  1
  Si  Si7  1  0.654554  0.886187  0.493469  1
  Si  Si8  1  0.114199  0.347085  0.506889  1
  Si  Si9  1  0.845879  0.612586  0.993373  1
  Si  Si10  1  0.611830  0.844242  0.995007  1
  Si  Si11  1  0.345493  0.113592  0.505003  1
  Si  Si12  1  0.886208  0.653719  0.496850  1
  Si  Si13  1  0.154864  0.387844  0.003184  1
  Si  Si14  1  0.609117  0.375897  0.230178  1
  Si  Si15  1  0.875572  0.108838  0.270699  1
  Si  Si16  1  0.891173  0.123718  0.728387  1
  Si  Si17  1  0.623423  0.390988  0.770502  1
  Si  Si18  1  0.389554  0.622191  0.771007  1
  Si  Si19  1  0.122502  0.889737  0.727899  1
  Si  Si20  1  0.705420  0.295922  0.000472  1
  Si  Si21  1  0.796515  0.205123  0.499326  1
  Si  Si22  1  0.294059  0.703884  0.001295  1
  Si  Si23  1  0.203352  0.794405  0.498727  1
  Si  Si24  1  0.168839  0.166967  0.333821  1
  Si  Si25  1  0.664799  0.666506  0.168435  1
  Si  Si26  1  0.332171  0.334435  0.831729  1
  Si  Si27  1  0.832640  0.829802  0.666060  1
  Si  Si28  1  0.378595  0.612473  0.230003  1
  Si  Si29  1  0.112258  0.878461  0.271238  1
  Ru  Ru30  1  0.627734  0.627495  0.875891  1
  Ru  Ru31  1  0.124044  0.124349  0.627475  1
  Ru  Ru32  1  0.875486  0.875248  0.372185  1
  Ru  Ru33  1  0.371674  0.372181  0.124374  1
  Ru  Ru34  1  0.331543  0.673132  0.502473  1
  Ru  Ru35  1  0.171549  0.832577  0.997701  1
  Ru  Ru36  1  0.669635  0.327244  0.501970  1
  Ru  Ru37  1  0.828477  0.168324  0.997952  1
