# generated using pymatgen
data_ScGa3Pd4
_symmetry_space_group_name_H-M   'P 1'
_cell_length_a   5.03468978
_cell_length_b   5.03468978
_cell_length_c   5.03468978
_cell_angle_alpha   92.17679712
_cell_angle_beta   92.17679712
_cell_angle_gamma   87.82320288
_symmetry_Int_Tables_number   1
_chemical_formula_structural   ScGa3Pd4
_chemical_formula_sum   'Sc1 Ga3 Pd4'
_cell_volume   127.35035540
_cell_formula_units_Z   1
loop_
 _symmetry_equiv_pos_site_id
 _symmetry_equiv_pos_as_xyz
  1  'x, y, z'
loop_
 _atom_site_type_symbol
 _atom_site_label
 _atom_site_symmetry_multiplicity
 _atom_site_fract_x
 _atom_site_fract_y
 _atom_site_fract_z
 _atom_site_occupancy
  Sc  Sc0  1  0.399859  0.899859  0.600141  1
  Ga  Ga1  1  0.906634  0.596521  0.414539  1
  Ga  Ga2  1  0.585461  0.406634  0.903479  1
  Ga  Ga3  1  0.096521  0.085461  0.093366  1
  Pd  Pd4  1  0.095393  0.595393  0.904607  1
  Pd  Pd5  1  0.616410  0.902548  0.102826  1
  Pd  Pd6  1  0.897174  0.116410  0.597452  1
  Pd  Pd7  1  0.402548  0.397174  0.383590  1
