# generated using pymatgen
data_Tb3Y2(FeTe)2
_symmetry_space_group_name_H-M   'P 1'
_cell_length_a   7.85996623
_cell_length_b   7.85996575
_cell_length_c   15.18440969
_cell_angle_alpha   90.03300753
_cell_angle_beta   89.96699223
_cell_angle_gamma   150.77801060
_symmetry_Int_Tables_number   1
_chemical_formula_structural   Tb3Y2(FeTe)2
_chemical_formula_sum   'Tb6 Y4 Fe4 Te4'
_cell_volume   457.96488217
_cell_formula_units_Z   2
loop_
 _symmetry_equiv_pos_site_id
 _symmetry_equiv_pos_as_xyz
  1  'x, y, z'
loop_
 _atom_site_type_symbol
 _atom_site_label
 _atom_site_symmetry_multiplicity
 _atom_site_fract_x
 _atom_site_fract_y
 _atom_site_fract_z
 _atom_site_occupancy
  Tb  Tb0  1  0.961010  0.038990  0.380793  1
  Tb  Tb1  1  0.038990  0.961010  0.619207  1
  Tb  Tb2  1  0.039173  0.960827  0.880396  1
  Tb  Tb3  1  0.960827  0.039173  0.119604  1
  Tb  Tb4  1  0.742514  0.257486  0.628704  1
  Tb  Tb5  1  0.257486  0.742514  0.371296  1
  Y  Y6  1  0.256892  0.743108  0.127797  1
  Y  Y7  1  0.743108  0.256892  0.872203  1
  Y  Y8  1  0.396836  0.603164  0.749994  1
  Y  Y9  1  0.603164  0.396836  0.250006  1
  Fe  Fe10  1  0.830273  0.169727  0.249898  1
  Fe  Fe11  1  0.169727  0.830273  0.750102  1
  Fe  Fe12  1  0.406356  0.593644  0.250031  1
  Fe  Fe13  1  0.593644  0.406356  0.749969  1
  Te  Te14  1  0.618182  0.381818  0.039879  1
  Te  Te15  1  0.381818  0.618182  0.960121  1
  Te  Te16  1  0.382091  0.617909  0.539929  1
  Te  Te17  1  0.617909  0.382091  0.460071  1
