# generated using pymatgen
data_Ce12Pr8Ga11Ge5
_symmetry_space_group_name_H-M   'P 1'
_cell_length_a   7.64210700
_cell_length_b   8.04350732
_cell_length_c   15.27194600
_cell_angle_alpha   89.99323293
_cell_angle_beta   90.07177993
_cell_angle_gamma   90.15717557
_symmetry_Int_Tables_number   1
_chemical_formula_structural   Ce12Pr8Ga11Ge5
_chemical_formula_sum   'Ce12 Pr8 Ga11 Ge5'
_cell_volume   938.75222035
_cell_formula_units_Z   1
loop_
 _symmetry_equiv_pos_site_id
 _symmetry_equiv_pos_as_xyz
  1  'x, y, z'
loop_
 _atom_site_type_symbol
 _atom_site_label
 _atom_site_symmetry_multiplicity
 _atom_site_fract_x
 _atom_site_fract_y
 _atom_site_fract_z
 _atom_site_occupancy
  Ce  Ce0  1  0.343013  0.157854  0.628699  1
  Ce  Ce1  1  0.658174  0.839635  0.370598  1
  Ce  Ce2  1  0.604102  0.041507  0.752102  1
  Ce  Ce3  1  0.157358  0.659909  0.368442  1
  Ce  Ce4  1  0.843260  0.342040  0.869474  1
  Ce  Ce5  1  0.841639  0.344888  0.629970  1
  Ce  Ce6  1  0.901077  0.539883  0.250911  1
  Ce  Ce7  1  0.398955  0.957747  0.251660  1
  Ce  Ce8  1  0.342579  0.158827  0.871222  1
  Ce  Ce9  1  0.155418  0.652689  0.132018  1
  Ce  Ce10  1  0.655658  0.841947  0.129357  1
  Ce  Ce11  1  0.097758  0.459569  0.749091  1
  Pr  Pr12  1  0.020246  0.185545  0.404520  1
  Pr  Pr13  1  0.517413  0.317518  0.406450  1
  Pr  Pr14  1  0.484759  0.685752  0.906176  1
  Pr  Pr15  1  0.484763  0.688295  0.593212  1
  Pr  Pr16  1  0.982155  0.810149  0.594177  1
  Pr  Pr17  1  0.979765  0.816144  0.904420  1
  Pr  Pr18  1  0.515374  0.313503  0.093635  1
  Pr  Pr19  1  0.015406  0.187069  0.095646  1
  Ga  Ga20  1  0.263450  0.844158  0.749593  1
  Ga  Ga21  1  0.485909  0.577757  0.249717  1
  Ga  Ga22  1  0.017211  0.079284  0.747884  1
  Ga  Ga23  1  0.513783  0.421486  0.749867  1
  Ga  Ga24  1  0.175746  0.459780  0.539138  1
  Ga  Ga25  1  0.983016  0.920326  0.248620  1
  Ga  Ga26  1  0.736596  0.156660  0.250730  1
  Ga  Ga27  1  0.825759  0.540896  0.038925  1
  Ga  Ga28  1  0.317952  0.956840  0.040642  1
  Ga  Ga29  1  0.173290  0.460627  0.960782  1
  Ga  Ga30  1  0.679072  0.041914  0.539752  1
  Ge  Ge31  1  0.325655  0.958274  0.460362  1
  Ge  Ge32  1  0.828254  0.540687  0.460488  1
  Ge  Ge33  1  0.758567  0.656665  0.749955  1
  Ge  Ge34  1  0.241224  0.342169  0.250506  1
  Ge  Ge35  1  0.675642  0.042007  0.961257  1
