# generated using pymatgen
data_Y4Zr3MoF28
_symmetry_space_group_name_H-M   'P 1'
_cell_length_a   5.74754419
_cell_length_b   9.11369826
_cell_length_c   12.26616500
_cell_angle_alpha   62.33143061
_cell_angle_beta   90.01459424
_cell_angle_gamma   89.99864184
_symmetry_Int_Tables_number   1
_chemical_formula_structural   Y4Zr3MoF28
_chemical_formula_sum   'Y4 Zr3 Mo1 F28'
_cell_volume   569.04568400
_cell_formula_units_Z   1
loop_
 _symmetry_equiv_pos_site_id
 _symmetry_equiv_pos_as_xyz
  1  'x, y, z'
loop_
 _atom_site_type_symbol
 _atom_site_label
 _atom_site_symmetry_multiplicity
 _atom_site_fract_x
 _atom_site_fract_y
 _atom_site_fract_z
 _atom_site_occupancy
  Y  Y0  1  0.255560  0.815210  0.264621  1
  Y  Y1  1  0.743310  0.184509  0.732734  1
  Y  Y2  1  0.755904  0.184473  0.233222  1
  Y  Y3  1  0.245236  0.814469  0.768416  1
  Zr  Zr4  1  0.244021  0.274273  0.954808  1
  Zr  Zr5  1  0.256158  0.274270  0.454353  1
  Zr  Zr6  1  0.743377  0.726417  0.545018  1
  Mo  Mo7  1  0.756681  0.726252  0.045162  1
  F  F8  1  0.963742  0.711026  0.420852  1
  F  F9  1  0.035093  0.290330  0.577969  1
  F  F10  1  0.465745  0.289716  0.078344  1
  F  F11  1  0.529837  0.707467  0.924731  1
  F  F12  1  0.490476  0.733234  0.145935  1
  F  F13  1  0.514309  0.264409  0.850471  1
  F  F14  1  0.986796  0.267728  0.348326  1
  F  F15  1  0.013598  0.733606  0.650481  1
  F  F16  1  0.974835  0.743620  0.170559  1
  F  F17  1  0.031203  0.252345  0.827877  1
  F  F18  1  0.467818  0.255800  0.325875  1
  F  F19  1  0.532985  0.745929  0.673657  1
  F  F20  1  0.767418  0.481389  0.139846  1
  F  F21  1  0.229221  0.525476  0.859303  1
  F  F22  1  0.274790  0.525899  0.359452  1
  F  F23  1  0.727925  0.474504  0.640641  1
  F  F24  1  0.951281  0.279192  0.049340  1
  F  F25  1  0.037858  0.720270  0.951110  1
  F  F26  1  0.449678  0.723972  0.450431  1
  F  F27  1  0.549731  0.277226  0.549100  1
  F  F28  1  0.740975  0.977685  0.441816  1
  F  F29  1  0.260175  0.023761  0.558452  1
  F  F30  1  0.242150  0.023798  0.057599  1
  F  F31  1  0.763266  0.970383  0.948930  1
  F  F32  1  0.570336  0.973679  0.234391  1
  F  F33  1  0.428308  0.027432  0.766587  1
  F  F34  1  0.070747  0.026440  0.264883  1
  F  F35  1  0.929458  0.973809  0.734710  1
