# generated using pymatgen
data_Ca3AlGaPt2
_symmetry_space_group_name_H-M   'P 1'
_cell_length_a   5.78074400
_cell_length_b   7.77183900
_cell_length_c   13.87792600
_cell_angle_alpha   90.00000000
_cell_angle_beta   90.00000000
_cell_angle_gamma   90.00000000
_symmetry_Int_Tables_number   1
_chemical_formula_structural   Ca3AlGaPt2
_chemical_formula_sum   'Ca12 Al4 Ga4 Pt8'
_cell_volume   623.49374333
_cell_formula_units_Z   4
loop_
 _symmetry_equiv_pos_site_id
 _symmetry_equiv_pos_as_xyz
  1  'x, y, z'
loop_
 _atom_site_type_symbol
 _atom_site_label
 _atom_site_symmetry_multiplicity
 _atom_site_fract_x
 _atom_site_fract_y
 _atom_site_fract_z
 _atom_site_occupancy
  Ca  Ca0  1  0.140654  0.603829  0.098585  1
  Ca  Ca1  1  0.140654  0.896171  0.901415  1
  Ca  Ca2  1  0.859346  0.103829  0.401415  1
  Ca  Ca3  1  0.859346  0.396171  0.598585  1
  Ca  Ca4  1  0.859346  0.396171  0.901415  1
  Ca  Ca5  1  0.859346  0.103829  0.098585  1
  Ca  Ca6  1  0.140654  0.896171  0.598585  1
  Ca  Ca7  1  0.140654  0.603829  0.401415  1
  Ca  Ca8  1  0.373675  0.254359  0.250000  1
  Ca  Ca9  1  0.373675  0.245641  0.750000  1
  Ca  Ca10  1  0.626325  0.754359  0.250000  1
  Ca  Ca11  1  0.626325  0.745641  0.750000  1
  Al  Al12  1  0.388270  0.250000  0.000000  1
  Al  Al13  1  0.611730  0.750000  0.500000  1
  Al  Al14  1  0.611730  0.750000  0.000000  1
  Al  Al15  1  0.388270  0.250000  0.500000  1
  Ga  Ga16  1  0.865542  0.404736  0.250000  1
  Ga  Ga17  1  0.865542  0.095264  0.750000  1
  Ga  Ga18  1  0.134458  0.904736  0.250000  1
  Ga  Ga19  1  0.134458  0.595264  0.750000  1
  Pt  Pt20  1  0.639072  0.468882  0.093290  1
  Pt  Pt21  1  0.639072  0.031118  0.906710  1
  Pt  Pt22  1  0.360928  0.968882  0.406710  1
  Pt  Pt23  1  0.360928  0.531118  0.593290  1
  Pt  Pt24  1  0.360928  0.531118  0.906710  1
  Pt  Pt25  1  0.360928  0.968882  0.093290  1
  Pt  Pt26  1  0.639072  0.031118  0.593290  1
  Pt  Pt27  1  0.639072  0.468882  0.406710  1
