# generated using pymatgen
data_Dy3Zn3Ni2Rh
_symmetry_space_group_name_H-M   'P 1'
_cell_length_a   7.08570700
_cell_length_b   7.08570789
_cell_length_c   3.79599900
_cell_angle_alpha   90.00000000
_cell_angle_beta   90.00000000
_cell_angle_gamma   120.00000053
_symmetry_Int_Tables_number   1
_chemical_formula_structural   Dy3Zn3Ni2Rh
_chemical_formula_sum   'Dy3 Zn3 Ni2 Rh1'
_cell_volume   165.05289753
_cell_formula_units_Z   1
loop_
 _symmetry_equiv_pos_site_id
 _symmetry_equiv_pos_as_xyz
  1  'x, y, z'
loop_
 _atom_site_type_symbol
 _atom_site_label
 _atom_site_symmetry_multiplicity
 _atom_site_fract_x
 _atom_site_fract_y
 _atom_site_fract_z
 _atom_site_occupancy
  Dy  Dy0  1  0.407967  0.408749  0.500000  1
  Dy  Dy1  1  0.591251  0.999218  0.500000  1
  Dy  Dy2  1  0.000782  0.592033  0.500000  1
  Zn  Zn3  1  0.755308  0.759348  0.000000  1
  Zn  Zn4  1  0.240652  0.995960  0.000000  1
  Zn  Zn5  1  0.004040  0.244692  0.000000  1
  Ni  Ni6  1  0.333333  0.666667  0.000000  1
  Ni  Ni7  1  0.000000  0.000000  0.500000  1
  Rh  Rh8  1  0.666667  0.333333  0.000000  1
