# generated using pymatgen
data_SmZr5(Sb4Pd3)2
_symmetry_space_group_name_H-M   'P 1'
_cell_length_a   8.26701448
_cell_length_b   8.26702003
_cell_length_c   8.26701479
_cell_angle_alpha   109.79393802
_cell_angle_beta   109.30999313
_cell_angle_gamma   109.31014555
_symmetry_Int_Tables_number   1
_chemical_formula_structural   SmZr5(Sb4Pd3)2
_chemical_formula_sum   'Sm1 Zr5 Sb8 Pd6'
_cell_volume   434.92516281
_cell_formula_units_Z   1
loop_
 _symmetry_equiv_pos_site_id
 _symmetry_equiv_pos_as_xyz
  1  'x, y, z'
loop_
 _atom_site_type_symbol
 _atom_site_label
 _atom_site_symmetry_multiplicity
 _atom_site_fract_x
 _atom_site_fract_y
 _atom_site_fract_z
 _atom_site_occupancy
  Sm  Sm0  1  0.750000  0.874999  0.125000  1
  Zr  Zr1  1  0.623703  0.374794  0.249730  1
  Zr  Zr2  1  0.250001  0.625000  0.375000  1
  Zr  Zr3  1  0.374937  0.248910  0.625207  1
  Zr  Zr4  1  0.876297  0.126027  0.751090  1
  Zr  Zr5  1  0.125064  0.750270  0.873973  1
  Sb  Sb6  1  0.824050  0.497821  0.996932  1
  Sb  Sb7  1  0.315696  0.496712  0.995290  1
  Sb  Sb8  1  0.184304  0.179594  0.181016  1
  Sb  Sb9  1  0.500890  0.003069  0.327118  1
  Sb  Sb10  1  0.998579  0.818985  0.503288  1
  Sb  Sb11  1  0.999110  0.326228  0.502179  1
  Sb  Sb12  1  0.675951  0.672882  0.673772  1
  Sb  Sb13  1  0.501422  0.004709  0.820406  1
  Pd  Pd14  1  0.883204  0.260390  0.128407  1
  Pd  Pd15  1  0.131985  0.871593  0.254797  1
  Pd  Pd16  1  0.616796  0.745203  0.377188  1
  Pd  Pd17  1  0.750000  0.375000  0.625000  1
  Pd  Pd18  1  0.368016  0.622812  0.739608  1
  Pd  Pd19  1  0.250000  0.125000  0.875000  1
