# generated using pymatgen
data_U8Re2B24MoW
_symmetry_space_group_name_H-M   'P 1'
_cell_length_a   3.66482800
_cell_length_b   9.28173648
_cell_length_c   11.36999401
_cell_angle_alpha   90.02087647
_cell_angle_beta   90.00000000
_cell_angle_gamma   90.00000000
_symmetry_Int_Tables_number   1
_chemical_formula_structural   U8Re2B24MoW
_chemical_formula_sum   'U8 Re2 B24 Mo1 W1'
_cell_volume   386.76132381
_cell_formula_units_Z   1
loop_
 _symmetry_equiv_pos_site_id
 _symmetry_equiv_pos_as_xyz
  1  'x, y, z'
loop_
 _atom_site_type_symbol
 _atom_site_label
 _atom_site_symmetry_multiplicity
 _atom_site_fract_x
 _atom_site_fract_y
 _atom_site_fract_z
 _atom_site_occupancy
  U  U0  1  0.000000  0.335721  0.407727  1
  U  U1  1  0.000000  0.664240  0.592317  1
  U  U2  1  0.000000  0.835557  0.092520  1
  U  U3  1  0.000000  0.164720  0.907420  1
  U  U4  1  0.000000  0.955247  0.395126  1
  U  U5  1  0.000000  0.044249  0.604520  1
  U  U6  1  0.000000  0.456971  0.105127  1
  U  U7  1  0.000000  0.543351  0.895208  1
  Re  Re8  1  0.000000  0.144440  0.179336  1
  Re  Re9  1  0.000000  0.855713  0.820603  1
  B  B10  1  0.500000  0.549869  0.433222  1
  B  B11  1  0.500000  0.450286  0.566608  1
  B  B12  1  0.500000  0.049835  0.067042  1
  B  B13  1  0.500000  0.950241  0.932928  1
  B  B14  1  0.500000  0.743238  0.424597  1
  B  B15  1  0.500000  0.256355  0.575198  1
  B  B16  1  0.500000  0.242981  0.076546  1
  B  B17  1  0.500000  0.757196  0.923609  1
  B  B18  1  0.500000  0.804633  0.272641  1
  B  B19  1  0.500000  0.195221  0.727348  1
  B  B20  1  0.500000  0.303214  0.226792  1
  B  B21  1  0.500000  0.696873  0.773291  1
  B  B22  1  0.500000  0.645329  0.187115  1
  B  B23  1  0.500000  0.354815  0.813158  1
  B  B24  1  0.500000  0.144179  0.311398  1
  B  B25  1  0.500000  0.855710  0.688498  1
  B  B26  1  0.500000  0.986062  0.218348  1
  B  B27  1  0.500000  0.013836  0.781586  1
  B  B28  1  0.500000  0.484983  0.280976  1
  B  B29  1  0.500000  0.515201  0.719062  1
  B  B30  1  0.500000  0.643208  0.039033  1
  B  B31  1  0.500000  0.357158  0.961289  1
  B  B32  1  0.500000  0.142056  0.459677  1
  B  B33  1  0.500000  0.857455  0.540158  1
  Mo  Mo34  1  0.000000  0.644990  0.319831  1
  W  W35  1  0.000000  0.354868  0.680147  1
