# generated using pymatgen
data_NdEuTm2(SeO4)6
_symmetry_space_group_name_H-M   'P 1'
_cell_length_a   9.94718904
_cell_length_b   9.94719013
_cell_length_c   9.94719000
_cell_angle_alpha   58.05870319
_cell_angle_beta   58.05869247
_cell_angle_gamma   58.05871106
_symmetry_Int_Tables_number   1
_chemical_formula_structural   NdEuTm2(SeO4)6
_chemical_formula_sum   'Nd1 Eu1 Tm2 Se6 O24'
_cell_volume   664.98087573
_cell_formula_units_Z   1
loop_
 _symmetry_equiv_pos_site_id
 _symmetry_equiv_pos_as_xyz
  1  'x, y, z'
loop_
 _atom_site_type_symbol
 _atom_site_label
 _atom_site_symmetry_multiplicity
 _atom_site_fract_x
 _atom_site_fract_y
 _atom_site_fract_z
 _atom_site_occupancy
  Nd  Nd0  1  0.856843  0.856843  0.856843  1
  Eu  Eu1  1  0.643408  0.643408  0.643408  1
  Tm  Tm2  1  0.356803  0.356803  0.356803  1
  Tm  Tm3  1  0.143340  0.143340  0.143340  1
  Se  Se4  1  0.749754  0.044351  0.453803  1
  Se  Se5  1  0.970917  0.530047  0.250610  1
  Se  Se6  1  0.530047  0.250610  0.970918  1
  Se  Se7  1  0.453802  0.749754  0.044352  1
  Se  Se8  1  0.044352  0.453802  0.749754  1
  Se  Se9  1  0.250610  0.970917  0.530047  1
  O  O10  1  0.916092  0.076232  0.282388  1
  O  O11  1  0.771915  0.016304  0.621991  1
  O  O12  1  0.000511  0.368398  0.216664  1
  O  O13  1  0.703839  0.083841  0.949851  1
  O  O14  1  0.580195  0.213739  0.429022  1
  O  O15  1  0.873923  0.480318  0.732363  1
  O  O16  1  0.499670  0.283135  0.133449  1
  O  O17  1  0.796515  0.552269  0.417500  1
  O  O18  1  0.949851  0.703839  0.083841  1
  O  O19  1  0.552269  0.417500  0.796515  1
  O  O20  1  0.368398  0.216664  0.000511  1
  O  O21  1  0.283135  0.133449  0.499670  1
  O  O22  1  0.732363  0.873923  0.480318  1
  O  O23  1  0.621991  0.771915  0.016304  1
  O  O24  1  0.429022  0.580195  0.213739  1
  O  O25  1  0.076232  0.282388  0.916092  1
  O  O26  1  0.213739  0.429022  0.580195  1
  O  O27  1  0.480318  0.732363  0.873923  1
  O  O28  1  0.133449  0.499670  0.283135  1
  O  O29  1  0.417500  0.796515  0.552269  1
  O  O30  1  0.282388  0.916092  0.076232  1
  O  O31  1  0.016304  0.621991  0.771915  1
  O  O32  1  0.216664  0.000511  0.368398  1
  O  O33  1  0.083841  0.949851  0.703839  1
