# generated using pymatgen
data_UF18
_symmetry_space_group_name_H-M   'P 1'
_cell_length_a   5.95421389
_cell_length_b   9.53245960
_cell_length_c   13.78572800
_cell_angle_alpha   101.85032885
_cell_angle_beta   93.26313715
_cell_angle_gamma   102.74165284
_symmetry_Int_Tables_number   1
_chemical_formula_structural   UF18
_chemical_formula_sum   'U2 F36'
_cell_volume   742.62644576
_cell_formula_units_Z   2
loop_
 _symmetry_equiv_pos_site_id
 _symmetry_equiv_pos_as_xyz
  1  'x, y, z'
loop_
 _atom_site_type_symbol
 _atom_site_label
 _atom_site_symmetry_multiplicity
 _atom_site_fract_x
 _atom_site_fract_y
 _atom_site_fract_z
 _atom_site_occupancy
  U  U0  1  0.159544  0.988680  0.282302  1
  U  U1  1  0.840456  0.011320  0.717698  1
  F  F2  1  0.672878  0.623589  0.377197  1
  F  F3  1  0.327122  0.376411  0.622803  1
  F  F4  1  0.004074  0.389550  0.348532  1
  F  F5  1  0.995926  0.610450  0.651468  1
  F  F6  1  0.221008  0.887118  0.941742  1
  F  F7  1  0.778992  0.112882  0.058258  1
  F  F8  1  0.891629  0.081012  0.317139  1
  F  F9  1  0.108371  0.918988  0.682861  1
  F  F10  1  0.956763  0.792060  0.290391  1
  F  F11  1  0.043237  0.207940  0.709609  1
  F  F12  1  0.562152  0.489886  0.403243  1
  F  F13  1  0.437848  0.510114  0.596757  1
  F  F14  1  0.044037  0.955417  0.136667  1
  F  F15  1  0.955963  0.044583  0.863333  1
  F  F16  1  0.271207  0.037710  0.429666  1
  F  F17  1  0.728793  0.962290  0.570334  1
  F  F18  1  0.090554  0.410724  0.256931  1
  F  F19  1  0.909446  0.589276  0.743069  1
  F  F20  1  0.713019  0.661973  0.065486  1
  F  F21  1  0.286981  0.338027  0.934514  1
  F  F22  1  0.865760  0.597571  0.004582  1
  F  F23  1  0.134240  0.402429  0.995418  1
  F  F24  1  0.536514  0.578051  0.850860  1
  F  F25  1  0.463486  0.421949  0.149140  1
  F  F26  1  0.367653  0.182270  0.272663  1
  F  F27  1  0.632347  0.817730  0.727337  1
  F  F28  1  0.287457  0.791407  0.488403  1
  F  F29  1  0.712543  0.208593  0.511597  1
  F  F30  1  0.372515  0.826947  0.996229  1
  F  F31  1  0.627485  0.173053  0.003771  1
  F  F32  1  0.415391  0.884609  0.246293  1
  F  F33  1  0.584609  0.115391  0.753707  1
  F  F34  1  0.690454  0.417882  0.185687  1
  F  F35  1  0.309546  0.582118  0.814313  1
  F  F36  1  0.156046  0.641870  0.463271  1
  F  F37  1  0.843954  0.358130  0.536729  1
