# generated using pymatgen
data_Er6Zn22IrSe
_symmetry_space_group_name_H-M   'P 1'
_cell_length_a   9.01908755
_cell_length_b   8.97243671
_cell_length_c   9.01908800
_cell_angle_alpha   60.17095343
_cell_angle_beta   59.64050716
_cell_angle_gamma   60.17095808
_symmetry_Int_Tables_number   1
_chemical_formula_structural   Er6Zn22IrSe
_chemical_formula_sum   'Er6 Zn22 Ir1 Se1'
_cell_volume   515.98632122
_cell_formula_units_Z   1
loop_
 _symmetry_equiv_pos_site_id
 _symmetry_equiv_pos_as_xyz
  1  'x, y, z'
loop_
 _atom_site_type_symbol
 _atom_site_label
 _atom_site_symmetry_multiplicity
 _atom_site_fract_x
 _atom_site_fract_y
 _atom_site_fract_z
 _atom_site_occupancy
  Er  Er0  1  0.722292  0.286804  0.277708  1
  Er  Er1  1  0.718712  0.281288  0.718712  1
  Er  Er2  1  0.722292  0.713196  0.277708  1
  Er  Er3  1  0.277708  0.713196  0.722292  1
  Er  Er4  1  0.281288  0.718712  0.281288  1
  Er  Er5  1  0.277708  0.286804  0.722292  1
  Zn  Zn6  1  0.625509  0.125301  0.123891  1
  Zn  Zn7  1  0.124356  0.622323  0.124356  1
  Zn  Zn8  1  0.123891  0.125301  0.625509  1
  Zn  Zn9  1  0.124356  0.128966  0.124356  1
  Zn  Zn10  1  0.374491  0.874699  0.876109  1
  Zn  Zn11  1  0.875644  0.377677  0.875644  1
  Zn  Zn12  1  0.876109  0.874699  0.374491  1
  Zn  Zn13  1  0.875644  0.871034  0.875644  1
  Zn  Zn14  1  0.500000  0.000000  0.000000  1
  Zn  Zn15  1  0.500000  0.000000  0.500000  1
  Zn  Zn16  1  0.500000  0.500000  0.000000  1
  Zn  Zn17  1  0.000000  0.500000  0.500000  1
  Zn  Zn18  1  0.000000  0.000000  0.500000  1
  Zn  Zn19  1  0.000000  0.000000  0.000000  1
  Zn  Zn20  1  0.010734  0.329582  0.330099  1
  Zn  Zn21  1  0.332378  0.005892  0.332378  1
  Zn  Zn22  1  0.330099  0.329582  0.010734  1
  Zn  Zn23  1  0.332378  0.329350  0.332378  1
  Zn  Zn24  1  0.989266  0.670418  0.669901  1
  Zn  Zn25  1  0.667622  0.994108  0.667622  1
  Zn  Zn26  1  0.669901  0.670418  0.989266  1
  Zn  Zn27  1  0.667622  0.670650  0.667622  1
  Ir  Ir28  1  0.000000  0.500000  0.000000  1
  Se  Se29  1  0.500000  0.500000  0.500000  1
