# generated using pymatgen
data_Sc3Ni2Sn3Os
_symmetry_space_group_name_H-M   'P 1'
_cell_length_a   7.49093000
_cell_length_b   7.49106466
_cell_length_c   3.36653400
_cell_angle_alpha   90.00000000
_cell_angle_beta   90.00000000
_cell_angle_gamma   119.99647077
_symmetry_Int_Tables_number   1
_chemical_formula_structural   Sc3Ni2Sn3Os
_chemical_formula_sum   'Sc3 Ni2 Sn3 Os1'
_cell_volume   163.60944248
_cell_formula_units_Z   1
loop_
 _symmetry_equiv_pos_site_id
 _symmetry_equiv_pos_as_xyz
  1  'x, y, z'
loop_
 _atom_site_type_symbol
 _atom_site_label
 _atom_site_symmetry_multiplicity
 _atom_site_fract_x
 _atom_site_fract_y
 _atom_site_fract_z
 _atom_site_occupancy
  Sc  Sc0  1  0.600497  0.985040  0.000000  1
  Sc  Sc1  1  0.014953  0.615447  0.000000  1
  Sc  Sc2  1  0.384562  0.399513  0.000000  1
  Ni  Ni3  1  0.999994  0.000001  0.000000  1
  Ni  Ni4  1  0.666656  0.333337  0.500000  1
  Sn  Sn5  1  0.278954  0.011469  0.500000  1
  Sn  Sn6  1  0.988532  0.267476  0.500000  1
  Sn  Sn7  1  0.732517  0.721054  0.500000  1
  Os  Os8  1  0.333336  0.666662  0.500000  1
