# generated using pymatgen
data_Li8La8Si7Sb
_symmetry_space_group_name_H-M   'P 1'
_cell_length_a   9.17708400
_cell_length_b   9.16862742
_cell_length_c   7.65015801
_cell_angle_alpha   90.07698122
_cell_angle_beta   89.99995880
_cell_angle_gamma   120.03072361
_symmetry_Int_Tables_number   1
_chemical_formula_structural   Li8La8Si7Sb
_chemical_formula_sum   'Li8 La8 Si7 Sb1'
_cell_volume   557.28199153
_cell_formula_units_Z   1
loop_
 _symmetry_equiv_pos_site_id
 _symmetry_equiv_pos_as_xyz
  1  'x, y, z'
loop_
 _atom_site_type_symbol
 _atom_site_label
 _atom_site_symmetry_multiplicity
 _atom_site_fract_x
 _atom_site_fract_y
 _atom_site_fract_z
 _atom_site_occupancy
  Li  Li0  1  0.167002  0.334007  0.283383  1
  Li  Li1  1  0.169525  0.833897  0.287022  1
  Li  Li2  1  0.664366  0.833887  0.287020  1
  Li  Li3  1  0.832900  0.665809  0.785177  1
  Li  Li4  1  0.825714  0.163444  0.789632  1
  Li  Li5  1  0.337734  0.163436  0.789627  1
  Li  Li6  1  0.336819  0.673638  0.665232  1
  Li  Li7  1  0.665763  0.331525  0.167578  1
  La  La8  1  0.512256  0.024518  0.495529  1
  La  La9  1  0.520254  0.492038  0.491432  1
  La  La10  1  0.971783  0.492046  0.491438  1
  La  La11  1  0.487702  0.975407  0.997486  1
  La  La12  1  0.496896  0.516525  0.001003  1
  La  La13  1  0.019621  0.516531  0.000999  1
  La  La14  1  0.994581  0.989133  0.496114  1
  La  La15  1  0.996989  0.993973  0.005277  1
  Si  Si16  1  0.165920  0.832807  0.727287  1
  Si  Si17  1  0.666887  0.832808  0.727287  1
  Si  Si18  1  0.833346  0.666688  0.229499  1
  Si  Si19  1  0.834108  0.167242  0.227387  1
  Si  Si20  1  0.333135  0.167243  0.227388  1
  Si  Si21  1  0.332875  0.665750  0.269143  1
  Si  Si22  1  0.667093  0.334188  0.769261  1
  Sb  Sb23  1  0.166729  0.333458  0.730773  1
