# generated using pymatgen
data_CaTh3H8
_symmetry_space_group_name_H-M   'P 1'
_cell_length_a   5.39933420
_cell_length_b   5.39677697
_cell_length_c   6.56167300
_cell_angle_alpha   114.28242084
_cell_angle_beta   114.29468440
_cell_angle_gamma   90.00000511
_symmetry_Int_Tables_number   1
_chemical_formula_structural   CaTh3H8
_chemical_formula_sum   'Ca1 Th3 H8'
_cell_volume   155.52162583
_cell_formula_units_Z   1
loop_
 _symmetry_equiv_pos_site_id
 _symmetry_equiv_pos_as_xyz
  1  'x, y, z'
loop_
 _atom_site_type_symbol
 _atom_site_label
 _atom_site_symmetry_multiplicity
 _atom_site_fract_x
 _atom_site_fract_y
 _atom_site_fract_z
 _atom_site_occupancy
  Ca  Ca0  1  0.754838  0.254839  0.509676  1
  Th  Th1  1  0.004695  0.004695  0.009392  1
  Th  Th2  1  0.505143  0.505143  0.010289  1
  Th  Th3  1  0.254231  0.754231  0.508460  1
  H  H4  1  0.381453  0.380030  0.261452  1
  H  H5  1  0.879997  0.380030  0.261452  1
  H  H6  1  0.381453  0.881423  0.261452  1
  H  H7  1  0.879997  0.881423  0.261452  1
  H  H8  1  0.128445  0.128608  0.757094  1
  H  H9  1  0.628650  0.128608  0.757094  1
  H  H10  1  0.128445  0.628486  0.757094  1
  H  H11  1  0.628650  0.628486  0.757094  1
