# generated using pymatgen
data_K2DyOsO6
_symmetry_space_group_name_H-M   'P 1'
_cell_length_a   5.88202305
_cell_length_b   5.88214921
_cell_length_c   5.88201505
_cell_angle_alpha   120.00765563
_cell_angle_beta   89.98544719
_cell_angle_gamma   120.00773901
_symmetry_Int_Tables_number   1
_chemical_formula_structural   K2DyOsO6
_chemical_formula_sum   'K2 Dy1 Os1 O6'
_cell_volume   143.88912624
_cell_formula_units_Z   1
loop_
 _symmetry_equiv_pos_site_id
 _symmetry_equiv_pos_as_xyz
  1  'x, y, z'
loop_
 _atom_site_type_symbol
 _atom_site_label
 _atom_site_symmetry_multiplicity
 _atom_site_fract_x
 _atom_site_fract_y
 _atom_site_fract_z
 _atom_site_occupancy
  K  K0  1  0.750003  0.499994  0.250003  1
  K  K1  1  0.249996  0.500001  0.750000  1
  Dy  Dy2  1  0.999990  0.999994  0.999995  1
  Os  Os3  1  0.499984  0.999987  0.499988  1
  O  O4  1  0.271036  0.542064  0.271034  1
  O  O5  1  0.728982  0.000001  0.271020  1
  O  O6  1  0.271062  0.000002  0.271061  1
  O  O7  1  0.728946  0.000001  0.728943  1
  O  O8  1  0.728974  0.457948  0.728975  1
  O  O9  1  0.271022  0.000002  0.728981  1
