# generated using pymatgen
data_Er10Si16Sn
_symmetry_space_group_name_H-M   'P 1'
_cell_length_a   11.05616266
_cell_length_b   10.99630840
_cell_length_c   11.05616183
_cell_angle_alpha   144.74819359
_cell_angle_beta   136.21023925
_cell_angle_gamma   57.52079607
_symmetry_Int_Tables_number   1
_chemical_formula_structural   Er10Si16Sn
_chemical_formula_sum   'Er10 Si16 Sn1'
_cell_volume   532.21684562
_cell_formula_units_Z   1
loop_
 _symmetry_equiv_pos_site_id
 _symmetry_equiv_pos_as_xyz
  1  'x, y, z'
loop_
 _atom_site_type_symbol
 _atom_site_label
 _atom_site_symmetry_multiplicity
 _atom_site_fract_x
 _atom_site_fract_y
 _atom_site_fract_z
 _atom_site_occupancy
  Er  Er0  1  0.756559  0.759701  0.517549  1
  Er  Er1  1  0.440434  0.971989  0.015551  1
  Er  Er2  1  0.848419  0.368781  0.019019  1
  Er  Er3  1  0.956438  0.971989  0.531554  1
  Er  Er4  1  0.150217  0.164131  0.515934  1
  Er  Er5  1  0.349761  0.368781  0.520362  1
  Er  Er6  1  0.242152  0.759701  0.003143  1
  Er  Er7  1  0.545390  0.558072  0.496755  1
  Er  Er8  1  0.061315  0.558072  0.012682  1
  Er  Er9  1  0.648197  0.164131  0.013915  1
  Si  Si10  1  0.199302  0.576583  0.377282  1
  Si  Si11  1  0.000240  0.082784  0.082543  1
  Si  Si12  1  0.697372  0.279925  0.582554  1
  Si  Si13  1  0.799632  0.175960  0.376328  1
  Si  Si14  1  0.895354  0.501596  0.606242  1
  Si  Si15  1  0.419073  0.874241  0.455167  1
  Si  Si16  1  0.104101  0.713240  0.609139  1
  Si  Si17  1  0.301484  0.894301  0.592817  1
  Si  Si18  1  0.576938  0.039768  0.462831  1
  Si  Si19  1  0.999403  0.430977  0.431575  1
  Si  Si20  1  0.881887  0.839420  0.957533  1
  Si  Si21  1  0.401379  0.499905  0.098526  1
  Si  Si22  1  0.119006  0.087038  0.968032  1
  Si  Si23  1  0.287255  0.238842  0.951587  1
  Si  Si24  1  0.499335  0.381705  0.882370  1
  Si  Si25  1  0.595784  0.704986  0.109202  1
  Sn  Sn26  1  0.723572  0.694877  0.971304  1
