# generated using pymatgen
data_K4ZrTiBr12
_symmetry_space_group_name_H-M   'P 1'
_cell_length_a   7.64435818
_cell_length_b   7.35945431
_cell_length_c   12.73655600
_cell_angle_alpha   54.90688797
_cell_angle_beta   89.81192331
_cell_angle_gamma   89.63535370
_symmetry_Int_Tables_number   1
_chemical_formula_structural   K4ZrTiBr12
_chemical_formula_sum   'K4 Zr1 Ti1 Br12'
_cell_volume   586.27217571
_cell_formula_units_Z   1
loop_
 _symmetry_equiv_pos_site_id
 _symmetry_equiv_pos_as_xyz
  1  'x, y, z'
loop_
 _atom_site_type_symbol
 _atom_site_label
 _atom_site_symmetry_multiplicity
 _atom_site_fract_x
 _atom_site_fract_y
 _atom_site_fract_z
 _atom_site_occupancy
  K  K0  1  0.575497  0.723158  0.253659  1
  K  K1  1  0.076620  0.270349  0.250178  1
  K  K2  1  0.424503  0.276842  0.746341  1
  K  K3  1  0.923380  0.729651  0.749822  1
  Zr  Zr4  1  0.000000  0.000000  0.000000  1
  Ti  Ti5  1  0.500000  0.000000  0.500000  1
  Br  Br6  1  0.994696  0.831455  0.247348  1
  Br  Br7  1  0.495559  0.154463  0.264950  1
  Br  Br8  1  0.005304  0.168545  0.752652  1
  Br  Br9  1  0.504441  0.845537  0.735050  1
  Br  Br10  1  0.686475  0.677204  0.543407  1
  Br  Br11  1  0.191106  0.335915  0.957068  1
  Br  Br12  1  0.313525  0.322796  0.456593  1
  Br  Br13  1  0.808894  0.664085  0.042932  1
  Br  Br14  1  0.708900  0.225425  0.964366  1
  Br  Br15  1  0.223922  0.782006  0.535988  1
  Br  Br16  1  0.291100  0.774575  0.035634  1
  Br  Br17  1  0.776078  0.217994  0.464012  1
