# generated using pymatgen
data_Ho4Ga5Tc2Mo
_symmetry_space_group_name_H-M   'P 1'
_cell_length_a   5.50789560
_cell_length_b   5.50789497
_cell_length_c   8.69901000
_cell_angle_alpha   90.00000000
_cell_angle_beta   90.00000000
_cell_angle_gamma   119.21692810
_symmetry_Int_Tables_number   1
_chemical_formula_structural   Ho4Ga5Tc2Mo
_chemical_formula_sum   'Ho4 Ga5 Tc2 Mo1'
_cell_volume   230.32703703
_cell_formula_units_Z   1
loop_
 _symmetry_equiv_pos_site_id
 _symmetry_equiv_pos_as_xyz
  1  'x, y, z'
loop_
 _atom_site_type_symbol
 _atom_site_label
 _atom_site_symmetry_multiplicity
 _atom_site_fract_x
 _atom_site_fract_y
 _atom_site_fract_z
 _atom_site_occupancy
  Ho  Ho0  1  0.330953  0.669047  0.448873  1
  Ho  Ho1  1  0.667167  0.332833  0.556295  1
  Ho  Ho2  1  0.667167  0.332833  0.943705  1
  Ho  Ho3  1  0.330953  0.669047  0.051127  1
  Ga  Ga4  1  0.843755  0.656302  0.250000  1
  Ga  Ga5  1  0.343698  0.156245  0.250000  1
  Ga  Ga6  1  0.164173  0.835827  0.750000  1
  Ga  Ga7  1  0.164811  0.327917  0.750000  1
  Ga  Ga8  1  0.672083  0.835189  0.750000  1
  Tc  Tc9  1  0.987153  0.012847  0.491246  1
  Tc  Tc10  1  0.987153  0.012847  0.008754  1
  Mo  Mo11  1  0.840934  0.159066  0.250000  1
