# generated using pymatgen
data_Na2Ni7(P2Rh)3
_symmetry_space_group_name_H-M   'P 1'
_cell_length_a   3.66246700
_cell_length_b   10.53353500
_cell_length_c   12.00153600
_cell_angle_alpha   90.00000000
_cell_angle_beta   90.00000000
_cell_angle_gamma   90.00000000
_symmetry_Int_Tables_number   1
_chemical_formula_structural   Na2Ni7(P2Rh)3
_chemical_formula_sum   'Na4 Ni14 P12 Rh6'
_cell_volume   463.00394889
_cell_formula_units_Z   2
loop_
 _symmetry_equiv_pos_site_id
 _symmetry_equiv_pos_as_xyz
  1  'x, y, z'
loop_
 _atom_site_type_symbol
 _atom_site_label
 _atom_site_symmetry_multiplicity
 _atom_site_fract_x
 _atom_site_fract_y
 _atom_site_fract_z
 _atom_site_occupancy
  Na  Na0  1  0.250000  0.584594  0.706312  1
  Na  Na1  1  0.250000  0.915406  0.206312  1
  Na  Na2  1  0.750000  0.416634  0.291499  1
  Na  Na3  1  0.750000  0.083366  0.791499  1
  Ni  Ni4  1  0.750000  0.594986  0.514419  1
  Ni  Ni5  1  0.750000  0.905014  0.014419  1
  Ni  Ni6  1  0.250000  0.222571  0.181781  1
  Ni  Ni7  1  0.250000  0.277429  0.681781  1
  Ni  Ni8  1  0.750000  0.779742  0.820363  1
  Ni  Ni9  1  0.750000  0.720258  0.320363  1
  Ni  Ni10  1  0.250000  0.882689  0.699409  1
  Ni  Ni11  1  0.250000  0.617311  0.199409  1
  Ni  Ni12  1  0.750000  0.114180  0.299597  1
  Ni  Ni13  1  0.750000  0.385820  0.799597  1
  Ni  Ni14  1  0.250000  0.465725  0.930667  1
  Ni  Ni15  1  0.250000  0.034275  0.430667  1
  Ni  Ni16  1  0.750000  0.536710  0.069073  1
  Ni  Ni17  1  0.750000  0.963290  0.569073  1
  P  P18  1  0.250000  0.418056  0.113871  1
  P  P19  1  0.250000  0.081944  0.613871  1
  P  P20  1  0.750000  0.582907  0.885491  1
  P  P21  1  0.750000  0.917093  0.385491  1
  P  P22  1  0.250000  0.268557  0.867567  1
  P  P23  1  0.250000  0.231443  0.367567  1
  P  P24  1  0.750000  0.734061  0.131722  1
  P  P25  1  0.750000  0.765939  0.631722  1
  P  P26  1  0.250000  0.600316  0.385712  1
  P  P27  1  0.250000  0.899684  0.885712  1
  P  P28  1  0.750000  0.403589  0.613773  1
  P  P29  1  0.750000  0.096411  0.113773  1
  Rh  Rh30  1  0.250000  0.712447  0.987485  1
  Rh  Rh31  1  0.250000  0.787553  0.487485  1
  Rh  Rh32  1  0.750000  0.291295  0.015137  1
  Rh  Rh33  1  0.750000  0.208705  0.515137  1
  Rh  Rh34  1  0.250000  0.411416  0.486122  1
  Rh  Rh35  1  0.250000  0.088584  0.986122  1
