# generated using pymatgen
data_Lu2Th(CoSn)3
_symmetry_space_group_name_H-M   'P 1'
_cell_length_a   7.41835600
_cell_length_b   7.23577573
_cell_length_c   3.84907100
_cell_angle_alpha   90.00000000
_cell_angle_beta   90.00000000
_cell_angle_gamma   120.83827093
_symmetry_Int_Tables_number   1
_chemical_formula_structural   Lu2Th(CoSn)3
_chemical_formula_sum   'Lu2 Th1 Co3 Sn3'
_cell_volume   177.39791846
_cell_formula_units_Z   1
loop_
 _symmetry_equiv_pos_site_id
 _symmetry_equiv_pos_as_xyz
  1  'x, y, z'
loop_
 _atom_site_type_symbol
 _atom_site_label
 _atom_site_symmetry_multiplicity
 _atom_site_fract_x
 _atom_site_fract_y
 _atom_site_fract_z
 _atom_site_occupancy
  Lu  Lu0  1  0.998030  0.593420  0.500000  1
  Lu  Lu1  1  0.404610  0.406580  0.500000  1
  Th  Th2  1  0.583055  0.000000  0.500000  1
  Co  Co3  1  0.352222  0.685028  0.000000  1
  Co  Co4  1  0.995388  0.000000  0.500000  1
  Co  Co5  1  0.667195  0.314972  0.000000  1
  Sn  Sn6  1  0.743670  0.729942  0.000000  1
  Sn  Sn7  1  0.013727  0.270058  0.000000  1
  Sn  Sn8  1  0.242105  0.000000  0.000000  1
