# generated using pymatgen
data_Pa5Al(GaPt)6
_symmetry_space_group_name_H-M   'P 1'
_cell_length_a   7.01616400
_cell_length_b   7.01186321
_cell_length_c   8.32948200
_cell_angle_alpha   90.00000000
_cell_angle_beta   90.00000000
_cell_angle_gamma   120.08780090
_symmetry_Int_Tables_number   1
_chemical_formula_structural   Pa5Al(GaPt)6
_chemical_formula_sum   'Pa5 Al1 Ga6 Pt6'
_cell_volume   354.56582602
_cell_formula_units_Z   1
loop_
 _symmetry_equiv_pos_site_id
 _symmetry_equiv_pos_as_xyz
  1  'x, y, z'
loop_
 _atom_site_type_symbol
 _atom_site_label
 _atom_site_symmetry_multiplicity
 _atom_site_fract_x
 _atom_site_fract_y
 _atom_site_fract_z
 _atom_site_occupancy
  Pa  Pa0  1  0.999940  0.583694  0.750000  1
  Pa  Pa1  1  0.999824  0.577759  0.250000  1
  Pa  Pa2  1  0.578155  0.000277  0.250000  1
  Pa  Pa3  1  0.584009  0.999730  0.750000  1
  Pa  Pa4  1  0.427146  0.427354  0.750000  1
  Al  Al5  1  0.397961  0.398043  0.250000  1
  Ga  Ga6  1  0.001155  0.244509  0.497635  1
  Ga  Ga7  1  0.753418  0.753569  0.008727  1
  Ga  Ga8  1  0.001155  0.244509  0.002365  1
  Ga  Ga9  1  0.244793  0.001319  0.497540  1
  Ga  Ga10  1  0.244793  0.001319  0.002460  1
  Ga  Ga11  1  0.753418  0.753569  0.491273  1
  Pt  Pt12  1  0.333868  0.664567  0.497558  1
  Pt  Pt13  1  0.664752  0.334136  0.497838  1
  Pt  Pt14  1  0.664752  0.334136  0.002162  1
  Pt  Pt15  1  0.006986  0.006935  0.250000  1
  Pt  Pt16  1  0.010009  0.010004  0.750000  1
  Pt  Pt17  1  0.333868  0.664567  0.002442  1
