# generated using pymatgen
data_DyHo2Bi(Rh2O7)2
_symmetry_space_group_name_H-M   'P 1'
_cell_length_a   7.25975849
_cell_length_b   7.25975867
_cell_length_c   7.26524679
_cell_angle_alpha   59.57858719
_cell_angle_beta   59.57858569
_cell_angle_gamma   59.54706416
_symmetry_Int_Tables_number   1
_chemical_formula_structural   DyHo2Bi(Rh2O7)2
_chemical_formula_sum   'Dy1 Ho2 Bi1 Rh4 O14'
_cell_volume   268.09841199
_cell_formula_units_Z   1
loop_
 _symmetry_equiv_pos_site_id
 _symmetry_equiv_pos_as_xyz
  1  'x, y, z'
loop_
 _atom_site_type_symbol
 _atom_site_label
 _atom_site_symmetry_multiplicity
 _atom_site_fract_x
 _atom_site_fract_y
 _atom_site_fract_z
 _atom_site_occupancy
  Dy  Dy0  1  0.125000  0.125000  0.625000  1
  Ho  Ho1  1  0.125000  0.625000  0.125000  1
  Ho  Ho2  1  0.625000  0.125000  0.125000  1
  Bi  Bi3  1  0.125000  0.125000  0.125000  1
  Rh  Rh4  1  0.625000  0.625000  0.625000  1
  Rh  Rh5  1  0.625000  0.625000  0.125000  1
  Rh  Rh6  1  0.125000  0.625000  0.625000  1
  Rh  Rh7  1  0.625000  0.125000  0.625000  1
  O  O8  1  0.252645  0.252645  0.250823  1
  O  O9  1  0.288114  0.708136  0.288075  1
  O  O10  1  0.961704  0.961704  0.541774  1
  O  O11  1  0.537768  0.962958  0.537135  1
  O  O12  1  0.712723  0.712723  0.286842  1
  O  O13  1  0.962958  0.537768  0.537135  1
  O  O14  1  0.712232  0.287042  0.712865  1
  O  O15  1  0.288296  0.288296  0.708226  1
  O  O16  1  0.708136  0.288114  0.288075  1
  O  O17  1  0.287042  0.712232  0.712865  1
  O  O18  1  0.961886  0.541864  0.961925  1
  O  O19  1  0.537277  0.537277  0.963158  1
  O  O20  1  0.997355  0.997355  0.999177  1
  O  O21  1  0.541864  0.961886  0.961925  1
