# generated using pymatgen
data_Sm12AlSi12Au11
_symmetry_space_group_name_H-M   'P 1'
_cell_length_a   4.32479400
_cell_length_b   7.47195191
_cell_length_c   24.23873471
_cell_angle_alpha   89.98718602
_cell_angle_beta   90.00000000
_cell_angle_gamma   90.00000000
_symmetry_Int_Tables_number   1
_chemical_formula_structural   Sm12AlSi12Au11
_chemical_formula_sum   'Sm12 Al1 Si12 Au11'
_cell_volume   783.26627646
_cell_formula_units_Z   1
loop_
 _symmetry_equiv_pos_site_id
 _symmetry_equiv_pos_as_xyz
  1  'x, y, z'
loop_
 _atom_site_type_symbol
 _atom_site_label
 _atom_site_symmetry_multiplicity
 _atom_site_fract_x
 _atom_site_fract_y
 _atom_site_fract_z
 _atom_site_occupancy
  Sm  Sm0  1  0.250000  0.750556  0.332202  1
  Sm  Sm1  1  0.750000  0.250406  0.668367  1
  Sm  Sm2  1  0.750000  0.248885  0.166519  1
  Sm  Sm3  1  0.250000  0.750449  0.834207  1
  Sm  Sm4  1  0.250000  0.750796  0.166355  1
  Sm  Sm5  1  0.750000  0.249487  0.834051  1
  Sm  Sm6  1  0.750000  0.248259  0.332668  1
  Sm  Sm7  1  0.250000  0.750083  0.668398  1
  Sm  Sm8  1  0.250000  0.749812  0.000039  1
  Sm  Sm9  1  0.750000  0.249953  0.000135  1
  Sm  Sm10  1  0.750000  0.248610  0.498065  1
  Sm  Sm11  1  0.250000  0.752928  0.497687  1
  Al  Al12  1  0.250000  0.084660  0.584482  1
  Si  Si13  1  0.250000  0.082808  0.079199  1
  Si  Si14  1  0.750000  0.915785  0.918694  1
  Si  Si15  1  0.750000  0.583836  0.421501  1
  Si  Si16  1  0.250000  0.412816  0.582981  1
  Si  Si17  1  0.250000  0.083022  0.248858  1
  Si  Si18  1  0.750000  0.915528  0.751887  1
  Si  Si19  1  0.750000  0.582627  0.251512  1
  Si  Si20  1  0.250000  0.416628  0.751924  1
  Si  Si21  1  0.250000  0.083958  0.420456  1
  Si  Si22  1  0.750000  0.920935  0.582588  1
  Si  Si23  1  0.750000  0.583348  0.081948  1
  Si  Si24  1  0.250000  0.417767  0.919393  1
  Au  Au25  1  0.250000  0.416115  0.249633  1
  Au  Au26  1  0.750000  0.582970  0.749484  1
  Au  Au27  1  0.750000  0.915916  0.249607  1
  Au  Au28  1  0.250000  0.083001  0.748555  1
  Au  Au29  1  0.250000  0.416826  0.412152  1
  Au  Au30  1  0.750000  0.584936  0.582289  1
  Au  Au31  1  0.750000  0.916361  0.085580  1
  Au  Au32  1  0.250000  0.083842  0.915809  1
  Au  Au33  1  0.250000  0.416139  0.085442  1
  Au  Au34  1  0.750000  0.583281  0.915105  1
  Au  Au35  1  0.750000  0.916672  0.412229  1
