# generated using pymatgen
data_Er8Ti10Re2Si15As
_symmetry_space_group_name_H-M   'P 1'
_cell_length_a   6.97258371
_cell_length_b   6.96201311
_cell_length_c   12.80268806
_cell_angle_alpha   89.99241926
_cell_angle_beta   89.83635092
_cell_angle_gamma   89.94741328
_symmetry_Int_Tables_number   1
_chemical_formula_structural   Er8Ti10Re2Si15As
_chemical_formula_sum   'Er8 Ti10 Re2 Si15 As1'
_cell_volume   621.48089078
_cell_formula_units_Z   1
loop_
 _symmetry_equiv_pos_site_id
 _symmetry_equiv_pos_as_xyz
  1  'x, y, z'
loop_
 _atom_site_type_symbol
 _atom_site_label
 _atom_site_symmetry_multiplicity
 _atom_site_fract_x
 _atom_site_fract_y
 _atom_site_fract_z
 _atom_site_occupancy
  Er  Er0  1  0.340833  0.999509  0.465069  1
  Er  Er1  1  0.497426  0.842672  0.718744  1
  Er  Er2  1  0.498909  0.158302  0.216835  1
  Er  Er3  1  0.841764  0.498863  0.281142  1
  Er  Er4  1  0.159510  0.499823  0.784134  1
  Er  Er5  1  0.659696  0.996972  0.969836  1
  Er  Er6  1  0.999556  0.343709  0.530419  1
  Er  Er7  1  0.001466  0.658567  0.033166  1
  Ti  Ti8  1  0.824391  0.174235  0.751235  1
  Ti  Ti9  1  0.672432  0.673452  0.498871  1
  Ti  Ti10  1  0.154046  0.006316  0.877389  1
  Ti  Ti11  1  0.493644  0.652446  0.124590  1
  Ti  Ti12  1  0.506343  0.348017  0.627499  1
  Ti  Ti13  1  0.655820  0.496252  0.877003  1
  Ti  Ti14  1  0.346472  0.505457  0.372431  1
  Ti  Ti15  1  0.845846  0.993353  0.373753  1
  Ti  Ti16  1  0.006325  0.152179  0.125180  1
  Ti  Ti17  1  0.991603  0.844835  0.622542  1
  Re  Re18  1  0.326254  0.329041  0.001480  1
  Re  Re19  1  0.173407  0.829115  0.248465  1
  Si  Si20  1  0.369596  0.700388  0.932736  1
  Si  Si21  1  0.630187  0.296946  0.433783  1
  Si  Si22  1  0.701168  0.369487  0.067337  1
  Si  Si23  1  0.296236  0.631413  0.566263  1
  Si  Si24  1  0.799320  0.869364  0.183233  1
  Si  Si25  1  0.129850  0.200016  0.316985  1
  Si  Si26  1  0.869529  0.796747  0.816355  1
  Si  Si27  1  0.290811  0.953402  0.065876  1
  Si  Si28  1  0.545297  0.790271  0.315147  1
  Si  Si29  1  0.460176  0.210706  0.821965  1
  Si  Si30  1  0.791900  0.547237  0.684580  1
  Si  Si31  1  0.209640  0.453264  0.184069  1
  Si  Si32  1  0.706699  0.047012  0.565271  1
  Si  Si33  1  0.955512  0.291050  0.934900  1
  Si  Si34  1  0.048132  0.708817  0.431925  1
  As  As35  1  0.200201  0.130766  0.679792  1
