# generated using pymatgen
data_TbYb3Sc4(ReB6)4
_symmetry_space_group_name_H-M   'P 1'
_cell_length_a   3.55643700
_cell_length_b   9.05512804
_cell_length_c   11.40172205
_cell_angle_alpha   89.98972135
_cell_angle_beta   90.00000000
_cell_angle_gamma   90.00000000
_symmetry_Int_Tables_number   1
_chemical_formula_structural   TbYb3Sc4(ReB6)4
_chemical_formula_sum   'Tb1 Yb3 Sc4 Re4 B24'
_cell_volume   367.18096407
_cell_formula_units_Z   1
loop_
 _symmetry_equiv_pos_site_id
 _symmetry_equiv_pos_as_xyz
  1  'x, y, z'
loop_
 _atom_site_type_symbol
 _atom_site_label
 _atom_site_symmetry_multiplicity
 _atom_site_fract_x
 _atom_site_fract_y
 _atom_site_fract_z
 _atom_site_occupancy
  Tb  Tb0  1  0.000000  0.323283  0.414990  1
  Yb  Yb1  1  0.000000  0.677399  0.585455  1
  Yb  Yb2  1  0.000000  0.823387  0.085187  1
  Yb  Yb3  1  0.000000  0.176591  0.914619  1
  Sc  Sc4  1  0.000000  0.943698  0.368103  1
  Sc  Sc5  1  0.000000  0.055530  0.632205  1
  Sc  Sc6  1  0.000000  0.444101  0.131734  1
  Sc  Sc7  1  0.000000  0.556404  0.867363  1
  Re  Re8  1  0.000000  0.642095  0.317460  1
  Re  Re9  1  0.000000  0.357024  0.682867  1
  Re  Re10  1  0.000000  0.143945  0.182270  1
  Re  Re11  1  0.000000  0.856838  0.818058  1
  B  B12  1  0.500000  0.555370  0.432957  1
  B  B13  1  0.500000  0.445680  0.567750  1
  B  B14  1  0.500000  0.054476  0.067529  1
  B  B15  1  0.500000  0.945747  0.932752  1
  B  B16  1  0.500000  0.754852  0.418531  1
  B  B17  1  0.500000  0.244786  0.582153  1
  B  B18  1  0.500000  0.254905  0.081307  1
  B  B19  1  0.500000  0.744924  0.918434  1
  B  B20  1  0.500000  0.796328  0.263760  1
  B  B21  1  0.500000  0.203234  0.736491  1
  B  B22  1  0.500000  0.296499  0.235990  1
  B  B23  1  0.500000  0.703418  0.763404  1
  B  B24  1  0.500000  0.630102  0.181910  1
  B  B25  1  0.500000  0.369966  0.817820  1
  B  B26  1  0.500000  0.129382  0.317562  1
  B  B27  1  0.500000  0.869881  0.681974  1
  B  B28  1  0.500000  0.981868  0.213068  1
  B  B29  1  0.500000  0.018086  0.786989  1
  B  B30  1  0.500000  0.482425  0.286340  1
  B  B31  1  0.500000  0.518205  0.713117  1
  B  B32  1  0.500000  0.592218  0.024798  1
  B  B33  1  0.500000  0.407850  0.974917  1
  B  B34  1  0.500000  0.092981  0.474826  1
  B  B35  1  0.500000  0.906519  0.525309  1
