# generated using pymatgen
data_Na4HfZrTe6
_symmetry_space_group_name_H-M   'P 1'
_cell_length_a   7.51878887
_cell_length_b   7.51878883
_cell_length_c   7.87822336
_cell_angle_alpha   99.22563446
_cell_angle_beta   99.22563680
_cell_angle_gamma   120.18164780
_symmetry_Int_Tables_number   1
_chemical_formula_structural   Na4HfZrTe6
_chemical_formula_sum   'Na4 Hf1 Zr1 Te6'
_cell_volume   364.55315670
_cell_formula_units_Z   1
loop_
 _symmetry_equiv_pos_site_id
 _symmetry_equiv_pos_as_xyz
  1  'x, y, z'
loop_
 _atom_site_type_symbol
 _atom_site_label
 _atom_site_symmetry_multiplicity
 _atom_site_fract_x
 _atom_site_fract_y
 _atom_site_fract_z
 _atom_site_occupancy
  Na  Na0  1  0.000001  0.999999  0.000000  1
  Na  Na1  1  0.845742  0.154257  0.500000  1
  Na  Na2  1  0.499965  0.500033  0.500000  1
  Na  Na3  1  0.154270  0.845729  0.500000  1
  Hf  Hf4  1  0.329959  0.670042  0.000000  1
  Zr  Zr5  1  0.670243  0.329758  0.000000  1
  Te  Te6  1  0.712105  0.713891  0.220761  1
  Te  Te7  1  0.437688  0.075041  0.226688  1
  Te  Te8  1  0.078481  0.439524  0.226620  1
  Te  Te9  1  0.924958  0.562311  0.773311  1
  Te  Te10  1  0.560475  0.921518  0.773379  1
  Te  Te11  1  0.286110  0.287896  0.779240  1
