# generated using pymatgen
data_Nd3Th(Ni12P5)2
_symmetry_space_group_name_H-M   'P 1'
_cell_length_a   3.69024600
_cell_length_b   10.83345106
_cell_length_c   13.14414231
_cell_angle_alpha   71.86039788
_cell_angle_beta   90.00000000
_cell_angle_gamma   90.00000000
_symmetry_Int_Tables_number   1
_chemical_formula_structural   Nd3Th(Ni12P5)2
_chemical_formula_sum   'Nd3 Th1 Ni24 P10'
_cell_volume   499.36198424
_cell_formula_units_Z   1
loop_
 _symmetry_equiv_pos_site_id
 _symmetry_equiv_pos_as_xyz
  1  'x, y, z'
loop_
 _atom_site_type_symbol
 _atom_site_label
 _atom_site_symmetry_multiplicity
 _atom_site_fract_x
 _atom_site_fract_y
 _atom_site_fract_z
 _atom_site_occupancy
  Nd  Nd0  1  0.750000  0.720117  0.316840  1
  Nd  Nd1  1  0.250000  0.246880  0.187147  1
  Nd  Nd2  1  0.750000  0.752106  0.813048  1
  Th  Th3  1  0.250000  0.278909  0.682867  1
  Ni  Ni4  1  0.250000  0.841753  0.136065  1
  Ni  Ni5  1  0.750000  0.161882  0.861074  1
  Ni  Ni6  1  0.250000  0.287295  0.438716  1
  Ni  Ni7  1  0.750000  0.713827  0.561261  1
  Ni  Ni8  1  0.250000  0.070965  0.015481  1
  Ni  Ni9  1  0.750000  0.929615  0.984682  1
  Ni  Ni10  1  0.250000  0.065247  0.446676  1
  Ni  Ni11  1  0.750000  0.935731  0.552562  1
  Ni  Ni12  1  0.250000  0.597289  0.696409  1
  Ni  Ni13  1  0.750000  0.403299  0.304392  1
  Ni  Ni14  1  0.250000  0.582417  0.008248  1
  Ni  Ni15  1  0.750000  0.417780  0.991890  1
  Ni  Ni16  1  0.250000  0.578518  0.509881  1
  Ni  Ni17  1  0.750000  0.419754  0.491596  1
  Ni  Ni18  1  0.250000  0.298498  0.917887  1
  Ni  Ni19  1  0.750000  0.701784  0.081681  1
  Ni  Ni20  1  0.250000  0.992443  0.660090  1
  Ni  Ni21  1  0.750000  0.007048  0.340072  1
  Ni  Ni22  1  0.250000  0.841618  0.437554  1
  Ni  Ni23  1  0.750000  0.160452  0.563229  1
  Ni  Ni24  1  0.250000  0.987195  0.849417  1
  Ni  Ni25  1  0.750000  0.010857  0.150814  1
  Ni  Ni26  1  0.250000  0.562066  0.203407  1
  Ni  Ni27  1  0.750000  0.435578  0.796095  1
  P  P28  1  0.250000  0.508911  0.871265  1
  P  P29  1  0.750000  0.491169  0.129250  1
  P  P30  1  0.250000  0.799094  0.984206  1
  P  P31  1  0.750000  0.200008  0.015775  1
  P  P32  1  0.250000  0.495170  0.377744  1
  P  P33  1  0.750000  0.506770  0.621549  1
  P  P34  1  0.250000  0.811994  0.610762  1
  P  P35  1  0.750000  0.188081  0.389364  1
  P  P36  1  0.250000  0.950349  0.259321  1
  P  P37  1  0.750000  0.047534  0.741683  1
