# generated using pymatgen
data_Dy10In8Co3Ni
_symmetry_space_group_name_H-M   'P 1'
_cell_length_a   18.03137406
_cell_length_b   7.98274103
_cell_length_c   3.57875600
_cell_angle_alpha   90.00000000
_cell_angle_beta   90.00000000
_cell_angle_gamma   89.99079097
_symmetry_Int_Tables_number   1
_chemical_formula_structural   Dy10In8Co3Ni
_chemical_formula_sum   'Dy10 In8 Co3 Ni1'
_cell_volume   515.12537846
_cell_formula_units_Z   1
loop_
 _symmetry_equiv_pos_site_id
 _symmetry_equiv_pos_as_xyz
  1  'x, y, z'
loop_
 _atom_site_type_symbol
 _atom_site_label
 _atom_site_symmetry_multiplicity
 _atom_site_fract_x
 _atom_site_fract_y
 _atom_site_fract_z
 _atom_site_occupancy
  Dy  Dy0  1  0.410035  0.117740  0.000000  1
  Dy  Dy1  1  0.590914  0.881524  0.000000  1
  Dy  Dy2  1  0.909128  0.381451  0.000000  1
  Dy  Dy3  1  0.089474  0.618561  0.000000  1
  Dy  Dy4  1  0.999726  0.000457  0.000000  1
  Dy  Dy5  1  0.500241  0.500555  0.000000  1
  Dy  Dy6  1  0.222369  0.243908  0.000000  1
  Dy  Dy7  1  0.777998  0.749303  0.000000  1
  Dy  Dy8  1  0.722170  0.248737  0.000000  1
  Dy  Dy9  1  0.278815  0.757537  0.000000  1
  In  In10  1  0.569622  0.203560  0.500002  1
  In  In11  1  0.430487  0.796384  0.500002  1
  In  In12  1  0.068739  0.295979  0.500002  1
  In  In13  1  0.930333  0.703248  0.500002  1
  In  In14  1  0.847793  0.064807  0.500002  1
  In  In15  1  0.151503  0.934037  0.500002  1
  In  In16  1  0.348079  0.432711  0.500002  1
  In  In17  1  0.652115  0.564486  0.500002  1
  Co  Co18  1  0.304423  0.023734  0.500002  1
  Co  Co19  1  0.695640  0.978434  0.500002  1
  Co  Co20  1  0.804183  0.478224  0.500002  1
  Ni  Ni21  1  0.196210  0.524621  0.500002  1
