# generated using pymatgen
data_Ho4TcRuC4
_symmetry_space_group_name_H-M   'P 1'
_cell_length_a   5.07360100
_cell_length_b   6.50788374
_cell_length_c   9.78549591
_cell_angle_alpha   89.83872759
_cell_angle_beta   90.00000000
_cell_angle_gamma   90.00000000
_symmetry_Int_Tables_number   1
_chemical_formula_structural   Ho4TcRuC4
_chemical_formula_sum   'Ho8 Tc2 Ru2 C8'
_cell_volume   323.10019145
_cell_formula_units_Z   2
loop_
 _symmetry_equiv_pos_site_id
 _symmetry_equiv_pos_as_xyz
  1  'x, y, z'
loop_
 _atom_site_type_symbol
 _atom_site_label
 _atom_site_symmetry_multiplicity
 _atom_site_fract_x
 _atom_site_fract_y
 _atom_site_fract_z
 _atom_site_occupancy
  Ho  Ho0  1  0.250000  0.675571  0.556337  1
  Ho  Ho1  1  0.750000  0.324429  0.443663  1
  Ho  Ho2  1  0.750000  0.821166  0.057115  1
  Ho  Ho3  1  0.250000  0.178834  0.942885  1
  Ho  Ho4  1  0.250000  0.530731  0.217629  1
  Ho  Ho5  1  0.750000  0.469269  0.782371  1
  Ho  Ho6  1  0.750000  0.969737  0.714755  1
  Ho  Ho7  1  0.250000  0.030263  0.285245  1
  Tc  Tc8  1  0.250000  0.719903  0.866471  1
  Tc  Tc9  1  0.750000  0.280097  0.133529  1
  Ru  Ru10  1  0.750000  0.779710  0.365910  1
  Ru  Ru11  1  0.250000  0.220290  0.634090  1
  C  C12  1  0.250000  0.454864  0.759320  1
  C  C13  1  0.750000  0.545136  0.240680  1
  C  C14  1  0.750000  0.046186  0.257195  1
  C  C15  1  0.250000  0.953814  0.742805  1
  C  C16  1  0.250000  0.823601  0.052172  1
  C  C17  1  0.750000  0.176399  0.947828  1
  C  C18  1  0.750000  0.673608  0.552131  1
  C  C19  1  0.250000  0.326392  0.447869  1
