# generated using pymatgen
data_DyY5TcSb2
_symmetry_space_group_name_H-M   'P 1'
_cell_length_a   8.21174265
_cell_length_b   8.20273534
_cell_length_c   4.25662200
_cell_angle_alpha   90.00000000
_cell_angle_beta   90.00000000
_cell_angle_gamma   119.96372766
_symmetry_Int_Tables_number   1
_chemical_formula_structural   DyY5TcSb2
_chemical_formula_sum   'Dy1 Y5 Tc1 Sb2'
_cell_volume   248.39815584
_cell_formula_units_Z   1
loop_
 _symmetry_equiv_pos_site_id
 _symmetry_equiv_pos_as_xyz
  1  'x, y, z'
loop_
 _atom_site_type_symbol
 _atom_site_label
 _atom_site_symmetry_multiplicity
 _atom_site_fract_x
 _atom_site_fract_y
 _atom_site_fract_z
 _atom_site_occupancy
  Dy  Dy0  1  0.000000  0.235731  0.000000  1
  Y  Y1  1  0.236862  0.000042  0.000000  1
  Y  Y2  1  0.763138  0.763180  0.000000  1
  Y  Y3  1  0.601158  0.000141  0.500000  1
  Y  Y4  1  0.398842  0.398983  0.500000  1
  Y  Y5  1  0.000000  0.600871  0.500000  1
  Tc  Tc6  1  0.000000  0.000886  0.500000  1
  Sb  Sb7  1  0.333440  0.666804  0.000000  1
  Sb  Sb8  1  0.666560  0.333363  0.000000  1
