# generated using pymatgen
data_SmDyBe2(Co3B)2
_symmetry_space_group_name_H-M   'P 1'
_cell_length_a   5.03236605
_cell_length_b   5.03172845
_cell_length_c   6.37114200
_cell_angle_alpha   90.00000000
_cell_angle_beta   90.00000000
_cell_angle_gamma   120.00488723
_symmetry_Int_Tables_number   1
_chemical_formula_structural   SmDyBe2(Co3B)2
_chemical_formula_sum   'Sm1 Dy1 Be2 Co6 B2'
_cell_volume   139.70628548
_cell_formula_units_Z   1
loop_
 _symmetry_equiv_pos_site_id
 _symmetry_equiv_pos_as_xyz
  1  'x, y, z'
loop_
 _atom_site_type_symbol
 _atom_site_label
 _atom_site_symmetry_multiplicity
 _atom_site_fract_x
 _atom_site_fract_y
 _atom_site_fract_z
 _atom_site_occupancy
  Sm  Sm0  1  0.999981  0.000000  0.000000  1
  Dy  Dy1  1  0.999988  0.000002  0.500000  1
  Be  Be2  1  0.333550  0.666990  0.000000  1
  Be  Be3  1  0.666412  0.333009  0.000000  1
  Co  Co4  1  0.499985  0.000000  0.277316  1
  Co  Co5  1  0.499985  0.500001  0.277304  1
  Co  Co6  1  0.999983  0.500000  0.277278  1
  Co  Co7  1  0.499985  0.000000  0.722684  1
  Co  Co8  1  0.499985  0.500001  0.722695  1
  Co  Co9  1  0.999983  0.500000  0.722721  1
  B  B10  1  0.333321  0.666707  0.500000  1
  B  B11  1  0.666643  0.333292  0.500000  1
