# generated using pymatgen
data_Sr4TeIr3O16
_symmetry_space_group_name_H-M   'P 1'
_cell_length_a   5.18614870
_cell_length_b   5.57594820
_cell_length_c   13.03789600
_cell_angle_alpha   90.00000000
_cell_angle_beta   90.00000000
_cell_angle_gamma   89.90264990
_symmetry_Int_Tables_number   1
_chemical_formula_structural   Sr4TeIr3O16
_chemical_formula_sum   'Sr4 Te1 Ir3 O16'
_cell_volume   377.02537576
_cell_formula_units_Z   1
loop_
 _symmetry_equiv_pos_site_id
 _symmetry_equiv_pos_as_xyz
  1  'x, y, z'
loop_
 _atom_site_type_symbol
 _atom_site_label
 _atom_site_symmetry_multiplicity
 _atom_site_fract_x
 _atom_site_fract_y
 _atom_site_fract_z
 _atom_site_occupancy
  Sr  Sr0  1  0.750000  0.000000  0.666179  1
  Sr  Sr1  1  0.250000  0.500000  0.836158  1
  Sr  Sr2  1  0.250000  0.000000  0.335708  1
  Sr  Sr3  1  0.750000  0.500000  0.163835  1
  Te  Te4  1  0.750000  0.000000  0.931802  1
  Ir  Ir5  1  0.750000  0.500000  0.430672  1
  Ir  Ir6  1  0.250000  0.000000  0.068150  1
  Ir  Ir7  1  0.250000  0.500000  0.567381  1
  O  O8  1  0.132270  0.284743  0.667065  1
  O  O9  1  0.627254  0.214750  0.831269  1
  O  O10  1  0.872746  0.785250  0.831269  1
  O  O11  1  0.367730  0.715257  0.667065  1
  O  O12  1  0.870590  0.714423  0.330074  1
  O  O13  1  0.377306  0.791430  0.169780  1
  O  O14  1  0.122694  0.208570  0.169780  1
  O  O15  1  0.629410  0.285577  0.330074  1
  O  O16  1  0.563196  0.318430  0.542344  1
  O  O17  1  0.065852  0.192008  0.957432  1
  O  O18  1  0.434148  0.807992  0.957432  1
  O  O19  1  0.936804  0.681570  0.542344  1
  O  O20  1  0.436112  0.681775  0.455549  1
  O  O21  1  0.930656  0.810559  0.046545  1
  O  O22  1  0.569344  0.189441  0.046545  1
  O  O23  1  0.063888  0.318225  0.455549  1
