# generated using pymatgen
data_Al5Zn(CuPd2)6
_symmetry_space_group_name_H-M   'P 1'
_cell_length_a   4.10419000
_cell_length_b   6.64194100
_cell_length_c   12.32638501
_cell_angle_alpha   90.00341925
_cell_angle_beta   90.00135336
_cell_angle_gamma   89.99833423
_symmetry_Int_Tables_number   1
_chemical_formula_structural   Al5Zn(CuPd2)6
_chemical_formula_sum   'Al5 Zn1 Cu6 Pd12'
_cell_volume   336.01463943
_cell_formula_units_Z   1
loop_
 _symmetry_equiv_pos_site_id
 _symmetry_equiv_pos_as_xyz
  1  'x, y, z'
loop_
 _atom_site_type_symbol
 _atom_site_label
 _atom_site_symmetry_multiplicity
 _atom_site_fract_x
 _atom_site_fract_y
 _atom_site_fract_z
 _atom_site_occupancy
  Al  Al0  1  0.999894  0.500000  0.000415  1
  Al  Al1  1  0.499761  0.999983  0.165179  1
  Al  Al2  1  0.999805  0.499994  0.333348  1
  Al  Al3  1  0.499948  0.999980  0.501502  1
  Al  Al4  1  0.000106  0.499993  0.666262  1
  Zn  Zn5  1  0.500299  0.999978  0.833343  1
  Cu  Cu6  1  0.000139  0.000124  0.997167  1
  Cu  Cu7  1  0.499773  0.500049  0.169016  1
  Cu  Cu8  1  0.999636  0.999970  0.333310  1
  Cu  Cu9  1  0.500200  0.499996  0.497666  1
  Cu  Cu10  1  0.000131  0.000125  0.669504  1
  Cu  Cu11  1  0.500381  0.499812  0.833344  1
  Pd  Pd12  1  0.499891  0.254059  0.002045  1
  Pd  Pd13  1  0.499892  0.745974  0.002009  1
  Pd  Pd14  1  0.999839  0.248119  0.166701  1
  Pd  Pd15  1  0.999839  0.751918  0.166677  1
  Pd  Pd16  1  0.499845  0.248081  0.333340  1
  Pd  Pd17  1  0.499841  0.751917  0.333347  1
  Pd  Pd18  1  0.000032  0.248059  0.499946  1
  Pd  Pd19  1  0.000031  0.751936  0.499947  1
  Pd  Pd20  1  0.500068  0.253988  0.664622  1
  Pd  Pd21  1  0.500068  0.745980  0.664652  1
  Pd  Pd22  1  0.000291  0.257079  0.833319  1
  Pd  Pd23  1  0.000291  0.742884  0.833341  1
