# generated using pymatgen
data_Nd4Y2IrCl10
_symmetry_space_group_name_H-M   'P 1'
_cell_length_a   7.27396756
_cell_length_b   9.18096363
_cell_length_c   9.24540821
_cell_angle_alpha   109.86720294
_cell_angle_beta   94.72402600
_cell_angle_gamma   105.97996462
_symmetry_Int_Tables_number   1
_chemical_formula_structural   Nd4Y2IrCl10
_chemical_formula_sum   'Nd4 Y2 Ir1 Cl10'
_cell_volume   547.57269154
_cell_formula_units_Z   1
loop_
 _symmetry_equiv_pos_site_id
 _symmetry_equiv_pos_as_xyz
  1  'x, y, z'
loop_
 _atom_site_type_symbol
 _atom_site_label
 _atom_site_symmetry_multiplicity
 _atom_site_fract_x
 _atom_site_fract_y
 _atom_site_fract_z
 _atom_site_occupancy
  Nd  Nd0  1  0.470978  0.808172  0.606823  1
  Nd  Nd1  1  0.529022  0.191828  0.393177  1
  Nd  Nd2  1  0.352552  0.442470  0.749609  1
  Nd  Nd3  1  0.647448  0.557530  0.250391  1
  Y  Y4  1  0.866071  0.639440  0.686592  1
  Y  Y5  1  0.133929  0.360560  0.313408  1
  Ir  Ir6  1  0.500000  0.500000  0.500000  1
  Cl  Cl7  1  0.412305  0.133365  0.661950  1
  Cl  Cl8  1  0.587695  0.866635  0.338050  1
  Cl  Cl9  1  0.051679  0.667597  0.427631  1
  Cl  Cl10  1  0.948321  0.332403  0.572369  1
  Cl  Cl11  1  0.262424  0.744704  0.841256  1
  Cl  Cl12  1  0.737576  0.255296  0.158744  1
  Cl  Cl13  1  0.262301  0.421676  0.061033  1
  Cl  Cl14  1  0.737699  0.578324  0.938967  1
  Cl  Cl15  1  0.855203  0.942804  0.771211  1
  Cl  Cl16  1  0.144797  0.057196  0.228789  1
