# generated using pymatgen
data_NiB4Mo10P
_symmetry_space_group_name_H-M   'P 1'
_cell_length_a   6.98676106
_cell_length_b   6.98676164
_cell_length_c   6.98676134
_cell_angle_alpha   128.87110301
_cell_angle_beta   128.87110825
_cell_angle_gamma   75.21806302
_symmetry_Int_Tables_number   1
_chemical_formula_structural   NiB4Mo10P
_chemical_formula_sum   'Ni1 B4 Mo10 P1'
_cell_volume   201.24867851
_cell_formula_units_Z   1
loop_
 _symmetry_equiv_pos_site_id
 _symmetry_equiv_pos_as_xyz
  1  'x, y, z'
loop_
 _atom_site_type_symbol
 _atom_site_label
 _atom_site_symmetry_multiplicity
 _atom_site_fract_x
 _atom_site_fract_y
 _atom_site_fract_z
 _atom_site_occupancy
  Ni  Ni0  1  0.249999  0.249999  0.000000  1
  B  B1  1  0.379132  0.879131  0.258264  1
  B  B2  1  0.879131  0.620868  0.500000  1
  B  B3  1  0.120868  0.379132  0.500000  1
  B  B4  1  0.620868  0.120868  0.741735  1
  Mo  Mo5  1  0.007920  0.007920  0.000000  1
  Mo  Mo6  1  0.492080  0.492080  0.000000  1
  Mo  Mo7  1  0.698609  0.191419  0.172271  1
  Mo  Mo8  1  0.973662  0.480852  0.172271  1
  Mo  Mo9  1  0.526338  0.698609  0.507190  1
  Mo  Mo10  1  0.801391  0.973662  0.492810  1
  Mo  Mo11  1  0.191419  0.019148  0.492810  1
  Mo  Mo12  1  0.480852  0.308581  0.507190  1
  Mo  Mo13  1  0.019148  0.526338  0.827729  1
  Mo  Mo14  1  0.308581  0.801391  0.827729  1
  P  P15  1  0.750000  0.750000  0.000000  1
