# generated using pymatgen
data_Dy5V2Re(P3Ir4)4
_symmetry_space_group_name_H-M   'P 1'
_cell_length_a   12.67815232
_cell_length_b   12.65299020
_cell_length_c   3.97007300
_cell_angle_alpha   90.00000000
_cell_angle_beta   90.00000000
_cell_angle_gamma   119.93436636
_symmetry_Int_Tables_number   1
_chemical_formula_structural   Dy5V2Re(P3Ir4)4
_chemical_formula_sum   'Dy5 V2 Re1 P12 Ir16'
_cell_volume   551.90599253
_cell_formula_units_Z   1
loop_
 _symmetry_equiv_pos_site_id
 _symmetry_equiv_pos_as_xyz
  1  'x, y, z'
loop_
 _atom_site_type_symbol
 _atom_site_label
 _atom_site_symmetry_multiplicity
 _atom_site_fract_x
 _atom_site_fract_y
 _atom_site_fract_z
 _atom_site_occupancy
  Dy  Dy0  1  0.334677  0.667981  0.500000  1
  Dy  Dy1  1  0.665323  0.333302  0.500000  1
  Dy  Dy2  1  0.000000  0.812307  0.000000  1
  Dy  Dy3  1  0.188387  0.188460  0.000000  1
  Dy  Dy4  1  0.811613  0.000073  0.000000  1
  V  V5  1  0.548701  0.549014  0.500000  1
  V  V6  1  0.451299  0.000313  0.500000  1
  Re  Re7  1  0.000000  0.455153  0.500000  1
  P  P8  1  0.000000  0.639083  0.500000  1
  P  P9  1  0.365144  0.364998  0.500000  1
  P  P10  1  0.634856  0.999854  0.500000  1
  P  P11  1  0.517671  0.683730  0.000000  1
  P  P12  1  0.316982  0.832883  0.000000  1
  P  P13  1  0.170618  0.484085  0.000000  1
  P  P14  1  0.482329  0.166060  0.000000  1
  P  P15  1  0.683018  0.515902  0.000000  1
  P  P16  1  0.829382  0.313468  0.000000  1
  P  P17  1  0.000000  0.176276  0.500000  1
  P  P18  1  0.822987  0.822589  0.500000  1
  P  P19  1  0.177013  0.999603  0.500000  1
  Ir  Ir20  1  0.509458  0.866897  0.000000  1
  Ir  Ir21  1  0.133344  0.640963  0.000000  1
  Ir  Ir22  1  0.358471  0.490515  0.000000  1
  Ir  Ir23  1  0.490542  0.357438  0.000000  1
  Ir  Ir24  1  0.866656  0.507618  0.000000  1
  Ir  Ir25  1  0.641529  0.132043  0.000000  1
  Ir  Ir26  1  0.000000  0.289253  0.000000  1
  Ir  Ir27  1  0.715195  0.714071  0.000000  1
  Ir  Ir28  1  0.284805  0.998875  0.000000  1
  Ir  Ir29  1  0.626422  0.804584  0.500000  1
  Ir  Ir30  1  0.196395  0.819659  0.500000  1
  Ir  Ir31  1  0.177593  0.374775  0.500000  1
  Ir  Ir32  1  0.373578  0.178162  0.500000  1
  Ir  Ir33  1  0.803605  0.623264  0.500000  1
  Ir  Ir34  1  0.822407  0.197182  0.500000  1
  Ir  Ir35  1  0.000000  0.999571  0.500000  1
