# generated using pymatgen
data_Rb2(TaBr3)3
_symmetry_space_group_name_H-M   'P 1'
_cell_length_a   10.60196980
_cell_length_b   10.60197018
_cell_length_c   10.50879500
_cell_angle_alpha   76.58859074
_cell_angle_beta   76.58859025
_cell_angle_gamma   116.18342597
_symmetry_Int_Tables_number   1
_chemical_formula_structural   Rb2(TaBr3)3
_chemical_formula_sum   'Rb4 Ta6 Br18'
_cell_volume   952.48995630
_cell_formula_units_Z   2
loop_
 _symmetry_equiv_pos_site_id
 _symmetry_equiv_pos_as_xyz
  1  'x, y, z'
loop_
 _atom_site_type_symbol
 _atom_site_label
 _atom_site_symmetry_multiplicity
 _atom_site_fract_x
 _atom_site_fract_y
 _atom_site_fract_z
 _atom_site_occupancy
  Rb  Rb0  1  0.732660  0.051962  0.326069  1
  Rb  Rb1  1  0.267340  0.948038  0.673931  1
  Rb  Rb2  1  0.948038  0.267340  0.673931  1
  Rb  Rb3  1  0.051962  0.732660  0.326069  1
  Ta  Ta4  1  0.607388  0.607388  0.119442  1
  Ta  Ta5  1  0.392612  0.392612  0.880558  1
  Ta  Ta6  1  0.457181  0.294201  0.130853  1
  Ta  Ta7  1  0.542819  0.705799  0.869147  1
  Ta  Ta8  1  0.705799  0.542819  0.869147  1
  Ta  Ta9  1  0.294201  0.457181  0.130853  1
  Br  Br10  1  0.702861  0.297139  0.000000  1
  Br  Br11  1  0.297139  0.702861  0.000000  1
  Br  Br12  1  0.395008  0.007053  0.314288  1
  Br  Br13  1  0.604992  0.992947  0.685712  1
  Br  Br14  1  0.992947  0.604992  0.685712  1
  Br  Br15  1  0.007053  0.395008  0.314288  1
  Br  Br16  1  0.315013  0.111509  0.014605  1
  Br  Br17  1  0.684987  0.888491  0.985395  1
  Br  Br18  1  0.888491  0.684987  0.985395  1
  Br  Br19  1  0.111509  0.315013  0.014605  1
  Br  Br20  1  0.754571  0.754571  0.280868  1
  Br  Br21  1  0.245429  0.245429  0.719132  1
  Br  Br22  1  0.809890  0.809890  0.674849  1
  Br  Br23  1  0.190110  0.190110  0.325151  1
  Br  Br24  1  0.579177  0.376973  0.309008  1
  Br  Br25  1  0.420823  0.623027  0.690992  1
  Br  Br26  1  0.623027  0.420823  0.690992  1
  Br  Br27  1  0.376973  0.579177  0.309008  1
