# generated using pymatgen
data_Ce2Zr2Ni4As3P
_symmetry_space_group_name_H-M   'P 1'
_cell_length_a   3.99271900
_cell_length_b   3.99271781
_cell_length_c   15.03028800
_cell_angle_alpha   90.00000000
_cell_angle_beta   90.00000000
_cell_angle_gamma   120.00000157
_symmetry_Int_Tables_number   1
_chemical_formula_structural   Ce2Zr2Ni4As3P
_chemical_formula_sum   'Ce2 Zr2 Ni4 As3 P1'
_cell_volume   207.50821316
_cell_formula_units_Z   1
loop_
 _symmetry_equiv_pos_site_id
 _symmetry_equiv_pos_as_xyz
  1  'x, y, z'
loop_
 _atom_site_type_symbol
 _atom_site_label
 _atom_site_symmetry_multiplicity
 _atom_site_fract_x
 _atom_site_fract_y
 _atom_site_fract_z
 _atom_site_occupancy
  Ce  Ce0  1  0.000000  0.000000  0.504359  1
  Ce  Ce1  1  0.000000  0.000000  0.999148  1
  Zr  Zr2  1  0.000000  0.000000  0.251827  1
  Zr  Zr3  1  0.000000  0.000000  0.746756  1
  Ni  Ni4  1  0.333333  0.666667  0.342338  1
  Ni  Ni5  1  0.666667  0.333333  0.654587  1
  Ni  Ni6  1  0.666667  0.333333  0.837448  1
  Ni  Ni7  1  0.333333  0.666667  0.160898  1
  As  As8  1  0.333333  0.666667  0.874032  1
  As  As9  1  0.666667  0.333333  0.123629  1
  As  As10  1  0.666667  0.333333  0.379067  1
  P  P11  1  0.333333  0.666667  0.625911  1
