# generated using pymatgen
data_RbVAsO5
_symmetry_space_group_name_H-M   'P 1'
_cell_length_a   7.39082800
_cell_length_b   7.71561400
_cell_length_c   10.44383900
_cell_angle_alpha   90.00000000
_cell_angle_beta   90.00000000
_cell_angle_gamma   90.00000000
_symmetry_Int_Tables_number   1
_chemical_formula_structural   RbVAsO5
_chemical_formula_sum   'Rb4 V4 As4 O20'
_cell_volume   595.55757943
_cell_formula_units_Z   4
loop_
 _symmetry_equiv_pos_site_id
 _symmetry_equiv_pos_as_xyz
  1  'x, y, z'
loop_
 _atom_site_type_symbol
 _atom_site_label
 _atom_site_symmetry_multiplicity
 _atom_site_fract_x
 _atom_site_fract_y
 _atom_site_fract_z
 _atom_site_occupancy
  Rb  Rb0  1  0.124522  0.640365  0.364028  1
  Rb  Rb1  1  0.375478  0.359635  0.864028  1
  Rb  Rb2  1  0.624522  0.859635  0.635972  1
  Rb  Rb3  1  0.875478  0.140365  0.135972  1
  V  V4  1  0.118108  0.064516  0.544995  1
  V  V5  1  0.381892  0.935484  0.044995  1
  V  V6  1  0.618108  0.435484  0.455005  1
  V  V7  1  0.881892  0.564516  0.955005  1
  As  As8  1  0.338895  0.137497  0.339153  1
  As  As9  1  0.161105  0.862503  0.839153  1
  As  As10  1  0.838895  0.362503  0.660847  1
  As  As11  1  0.661105  0.637497  0.160847  1
  O  O12  1  0.341175  0.975553  0.455543  1
  O  O13  1  0.158825  0.024447  0.955543  1
  O  O14  1  0.841175  0.524447  0.544457  1
  O  O15  1  0.658825  0.475553  0.044457  1
  O  O16  1  0.946285  0.949376  0.492217  1
  O  O17  1  0.553715  0.050624  0.992217  1
  O  O18  1  0.446285  0.550624  0.507783  1
  O  O19  1  0.053715  0.449376  0.007783  1
  O  O20  1  0.032655  0.241071  0.672653  1
  O  O21  1  0.467345  0.758929  0.172653  1
  O  O22  1  0.532655  0.258929  0.327347  1
  O  O23  1  0.967345  0.741071  0.827347  1
  O  O24  1  0.158871  0.249657  0.408954  1
  O  O25  1  0.341129  0.750343  0.908954  1
  O  O26  1  0.658871  0.250343  0.591046  1
  O  O27  1  0.841129  0.749657  0.091046  1
  O  O28  1  0.226787  0.935772  0.691791  1
  O  O29  1  0.273213  0.064228  0.191791  1
  O  O30  1  0.726787  0.564228  0.308209  1
  O  O31  1  0.773213  0.435772  0.808209  1
