# generated using pymatgen
data_Ac2CuSi3
_symmetry_space_group_name_H-M   'P 1'
_cell_length_a   8.57578669
_cell_length_b   8.30051237
_cell_length_c   6.24683394
_cell_angle_alpha   70.64044287
_cell_angle_beta   65.94756746
_cell_angle_gamma   43.41198497
_symmetry_Int_Tables_number   1
_chemical_formula_structural   Ac2CuSi3
_chemical_formula_sum   'Ac4 Cu2 Si6'
_cell_volume   278.61662540
_cell_formula_units_Z   2
loop_
 _symmetry_equiv_pos_site_id
 _symmetry_equiv_pos_as_xyz
  1  'x, y, z'
loop_
 _atom_site_type_symbol
 _atom_site_label
 _atom_site_symmetry_multiplicity
 _atom_site_fract_x
 _atom_site_fract_y
 _atom_site_fract_z
 _atom_site_occupancy
  Ac  Ac0  1  0.244303  0.755697  0.244303  1
  Ac  Ac1  1  0.250001  0.249999  0.250001  1
  Ac  Ac2  1  0.750000  0.750000  0.750000  1
  Ac  Ac3  1  0.755697  0.244303  0.755697  1
  Cu  Cu4  1  0.666185  0.666185  0.333815  1
  Cu  Cu5  1  0.333815  0.333815  0.666185  1
  Si  Si6  1  0.831826  0.831826  0.168174  1
  Si  Si7  1  0.830044  0.337926  0.169955  1
  Si  Si8  1  0.662074  0.169956  0.337926  1
  Si  Si9  1  0.337926  0.830045  0.662074  1
  Si  Si10  1  0.169955  0.662074  0.830044  1
  Si  Si11  1  0.168174  0.168174  0.831826  1
