# generated using pymatgen
data_CsPrDy9(C2Br9)2
_symmetry_space_group_name_H-M   'P 1'
_cell_length_a   10.75352184
_cell_length_b   10.84310127
_cell_length_c   10.97034870
_cell_angle_alpha   113.46355008
_cell_angle_beta   87.41149683
_cell_angle_gamma   118.80553295
_symmetry_Int_Tables_number   1
_chemical_formula_structural   CsPrDy9(C2Br9)2
_chemical_formula_sum   'Cs1 Pr1 Dy9 C4 Br18'
_cell_volume   1010.92880140
_cell_formula_units_Z   1
loop_
 _symmetry_equiv_pos_site_id
 _symmetry_equiv_pos_as_xyz
  1  'x, y, z'
loop_
 _atom_site_type_symbol
 _atom_site_label
 _atom_site_symmetry_multiplicity
 _atom_site_fract_x
 _atom_site_fract_y
 _atom_site_fract_z
 _atom_site_occupancy
  Cs  Cs0  1  0.500202  0.001086  0.499992  1
  Pr  Pr1  1  0.654711  0.714234  0.698001  1
  Dy  Dy2  1  0.281404  0.362854  0.012775  1
  Dy  Dy3  1  0.091910  0.403956  0.298961  1
  Dy  Dy4  1  0.960838  0.037456  0.332366  1
  Dy  Dy5  1  0.906665  0.594750  0.699725  1
  Dy  Dy6  1  0.112282  0.942418  0.001759  1
  Dy  Dy7  1  0.040922  0.963583  0.668637  1
  Dy  Dy8  1  0.336247  0.281452  0.296090  1
  Dy  Dy9  1  0.719934  0.637736  0.988701  1
  Dy  Dy10  1  0.888741  0.057877  0.998739  1
  C  C11  1  0.156554  0.226593  0.123176  1
  C  C12  1  0.846599  0.774537  0.878607  1
  C  C13  1  0.924971  0.853085  0.798844  1
  C  C14  1  0.078130  0.148000  0.203281  1
  Br  Br15  1  0.449137  0.527108  0.839420  1
  Br  Br16  1  0.381910  0.039239  0.158934  1
  Br  Br17  1  0.784237  0.862359  0.498993  1
  Br  Br18  1  0.839700  0.311247  0.154747  1
  Br  Br19  1  0.546862  0.468424  0.166396  1
  Br  Br20  1  0.221177  0.142793  0.497213  1
  Br  Br21  1  0.313937  0.099532  0.829680  1
  Br  Br22  1  0.686946  0.900754  0.170196  1
  Br  Br23  1  0.974473  0.761895  0.172581  1
  Br  Br24  1  0.934269  0.302071  0.499576  1
  Br  Br25  1  0.025976  0.237865  0.827995  1
  Br  Br26  1  0.066178  0.698088  0.500451  1
  Br  Br27  1  0.259094  0.620462  0.186811  1
  Br  Br28  1  0.740669  0.379808  0.813314  1
  Br  Br29  1  0.639531  0.422611  0.492976  1
  Br  Br30  1  0.160655  0.689774  0.846005  1
  Br  Br31  1  0.618871  0.973241  0.848474  1
  Br  Br32  1  0.356269  0.563114  0.496585  1
