# generated using pymatgen
data_Hf16MnIr7N4
_symmetry_space_group_name_H-M   'P 1'
_cell_length_a   8.70681739
_cell_length_b   8.70681931
_cell_length_c   8.70681940
_cell_angle_alpha   59.95192607
_cell_angle_beta   59.95191847
_cell_angle_gamma   59.95192435
_symmetry_Int_Tables_number   1
_chemical_formula_structural   Hf16MnIr7N4
_chemical_formula_sum   'Hf16 Mn1 Ir7 N4'
_cell_volume   466.21872494
_cell_formula_units_Z   1
loop_
 _symmetry_equiv_pos_site_id
 _symmetry_equiv_pos_as_xyz
  1  'x, y, z'
loop_
 _atom_site_type_symbol
 _atom_site_label
 _atom_site_symmetry_multiplicity
 _atom_site_fract_x
 _atom_site_fract_y
 _atom_site_fract_z
 _atom_site_occupancy
  Hf  Hf0  1  0.119876  0.628731  0.628731  1
  Hf  Hf1  1  0.628731  0.119876  0.628731  1
  Hf  Hf2  1  0.628731  0.628731  0.119876  1
  Hf  Hf3  1  0.624962  0.624962  0.624962  1
  Hf  Hf4  1  0.815946  0.815946  0.178263  1
  Hf  Hf5  1  0.184543  0.184543  0.815536  1
  Hf  Hf6  1  0.815946  0.178263  0.815946  1
  Hf  Hf7  1  0.184543  0.815536  0.184543  1
  Hf  Hf8  1  0.178263  0.815946  0.815946  1
  Hf  Hf9  1  0.815536  0.184543  0.184543  1
  Hf  Hf10  1  0.435048  0.435048  0.065354  1
  Hf  Hf11  1  0.065105  0.065105  0.436599  1
  Hf  Hf12  1  0.435048  0.065354  0.435048  1
  Hf  Hf13  1  0.065105  0.436599  0.065105  1
  Hf  Hf14  1  0.065354  0.435048  0.435048  1
  Hf  Hf15  1  0.436599  0.065105  0.065105  1
  Mn  Mn16  1  0.836661  0.836661  0.836661  1
  Ir  Ir17  1  0.762687  0.412029  0.412029  1
  Ir  Ir18  1  0.412029  0.762687  0.412029  1
  Ir  Ir19  1  0.412029  0.412029  0.762687  1
  Ir  Ir20  1  0.413974  0.413974  0.413974  1
  Ir  Ir21  1  0.485886  0.838330  0.838330  1
  Ir  Ir22  1  0.838330  0.485886  0.838330  1
  Ir  Ir23  1  0.838330  0.838330  0.485886  1
  N  N24  1  0.624763  0.125761  0.125761  1
  N  N25  1  0.125761  0.624763  0.125761  1
  N  N26  1  0.125761  0.125761  0.624763  1
  N  N27  1  0.124451  0.124451  0.124451  1
