# generated using pymatgen
data_DyThWC2
_symmetry_space_group_name_H-M   'P 1'
_cell_length_a   5.27177600
_cell_length_b   6.78796100
_cell_length_c   9.99482300
_cell_angle_alpha   90.00000000
_cell_angle_beta   90.00000000
_cell_angle_gamma   90.00000000
_symmetry_Int_Tables_number   1
_chemical_formula_structural   DyThWC2
_chemical_formula_sum   'Dy4 Th4 W4 C8'
_cell_volume   357.66084196
_cell_formula_units_Z   4
loop_
 _symmetry_equiv_pos_site_id
 _symmetry_equiv_pos_as_xyz
  1  'x, y, z'
loop_
 _atom_site_type_symbol
 _atom_site_label
 _atom_site_symmetry_multiplicity
 _atom_site_fract_x
 _atom_site_fract_y
 _atom_site_fract_z
 _atom_site_occupancy
  Dy  Dy0  1  0.250000  0.827397  0.055033  1
  Dy  Dy1  1  0.750000  0.672603  0.555033  1
  Dy  Dy2  1  0.250000  0.327397  0.444967  1
  Dy  Dy3  1  0.750000  0.172603  0.944967  1
  Th  Th4  1  0.250000  0.463991  0.786925  1
  Th  Th5  1  0.750000  0.036009  0.286925  1
  Th  Th6  1  0.250000  0.963991  0.713075  1
  Th  Th7  1  0.750000  0.536009  0.213075  1
  W  W8  1  0.250000  0.279882  0.132355  1
  W  W9  1  0.750000  0.220118  0.632355  1
  W  W10  1  0.250000  0.779882  0.367645  1
  W  W11  1  0.750000  0.720118  0.867645  1
  C  C12  1  0.250000  0.169562  0.946188  1
  C  C13  1  0.750000  0.830438  0.053812  1
  C  C14  1  0.250000  0.669562  0.553812  1
  C  C15  1  0.750000  0.330438  0.446188  1
  C  C16  1  0.250000  0.047928  0.260464  1
  C  C17  1  0.750000  0.452072  0.760464  1
  C  C18  1  0.250000  0.547928  0.239536  1
  C  C19  1  0.750000  0.952072  0.739536  1
