# generated using pymatgen
data_LiErTl(P3Pd10)2
_symmetry_space_group_name_H-M   'P 1'
_cell_length_a   8.62873290
_cell_length_b   8.62873646
_cell_length_c   8.62873200
_cell_angle_alpha   60.00002740
_cell_angle_beta   59.99998148
_cell_angle_gamma   59.99995736
_symmetry_Int_Tables_number   1
_chemical_formula_structural   LiErTl(P3Pd10)2
_chemical_formula_sum   'Li1 Er1 Tl1 P6 Pd20'
_cell_volume   454.28259967
_cell_formula_units_Z   1
loop_
 _symmetry_equiv_pos_site_id
 _symmetry_equiv_pos_as_xyz
  1  'x, y, z'
loop_
 _atom_site_type_symbol
 _atom_site_label
 _atom_site_symmetry_multiplicity
 _atom_site_fract_x
 _atom_site_fract_y
 _atom_site_fract_z
 _atom_site_occupancy
  Li  Li0  1  0.000000  0.000000  0.000000  1
  Er  Er1  1  0.249999  0.250001  0.249999  1
  Tl  Tl2  1  0.750000  0.750000  0.750000  1
  P  P3  1  0.737723  0.262278  0.262277  1
  P  P4  1  0.737722  0.737722  0.262278  1
  P  P5  1  0.737722  0.262278  0.737723  1
  P  P6  1  0.262277  0.737722  0.262277  1
  P  P7  1  0.262278  0.737722  0.737723  1
  P  P8  1  0.262278  0.262278  0.737723  1
  Pd  Pd9  1  0.340897  0.002915  0.002915  1
  Pd  Pd10  1  0.002915  0.653274  0.340897  1
  Pd  Pd11  1  0.340897  0.002915  0.653275  1
  Pd  Pd12  1  0.002914  0.653274  0.002915  1
  Pd  Pd13  1  0.653274  0.340897  0.002915  1
  Pd  Pd14  1  0.616704  0.616704  0.149888  1
  Pd  Pd15  1  0.385341  0.843979  0.385340  1
  Pd  Pd16  1  0.149887  0.616704  0.616704  1
  Pd  Pd17  1  0.653274  0.002915  0.340897  1
  Pd  Pd18  1  0.002915  0.340897  0.653275  1
  Pd  Pd19  1  0.653275  0.002915  0.002915  1
  Pd  Pd20  1  0.002914  0.002915  0.340897  1
  Pd  Pd21  1  0.616704  0.149888  0.616704  1
  Pd  Pd22  1  0.340897  0.653275  0.002914  1
  Pd  Pd23  1  0.385341  0.385340  0.385341  1
  Pd  Pd24  1  0.616704  0.616703  0.616704  1
  Pd  Pd25  1  0.385341  0.385340  0.843979  1
  Pd  Pd26  1  0.002915  0.002914  0.653276  1
  Pd  Pd27  1  0.843978  0.385342  0.385340  1
  Pd  Pd28  1  0.002915  0.340897  0.002915  1
