# generated using pymatgen
data_Er3TmMnOsC4
_symmetry_space_group_name_H-M   'P 1'
_cell_length_a   5.02025700
_cell_length_b   6.36540946
_cell_length_c   9.62789040
_cell_angle_alpha   90.65345998
_cell_angle_beta   90.00000000
_cell_angle_gamma   90.00000000
_symmetry_Int_Tables_number   1
_chemical_formula_structural   Er3TmMnOsC4
_chemical_formula_sum   'Er6 Tm2 Mn2 Os2 C8'
_cell_volume   307.64877315
_cell_formula_units_Z   2
loop_
 _symmetry_equiv_pos_site_id
 _symmetry_equiv_pos_as_xyz
  1  'x, y, z'
loop_
 _atom_site_type_symbol
 _atom_site_label
 _atom_site_symmetry_multiplicity
 _atom_site_fract_x
 _atom_site_fract_y
 _atom_site_fract_z
 _atom_site_occupancy
  Er  Er0  1  0.750000  0.820316  0.052943  1
  Er  Er1  1  0.250000  0.179684  0.947057  1
  Er  Er2  1  0.250000  0.525576  0.217770  1
  Er  Er3  1  0.750000  0.474424  0.782230  1
  Er  Er4  1  0.750000  0.974209  0.714172  1
  Er  Er5  1  0.250000  0.025791  0.285828  1
  Tm  Tm6  1  0.250000  0.681281  0.556898  1
  Tm  Tm7  1  0.750000  0.318719  0.443102  1
  Mn  Mn8  1  0.250000  0.725824  0.862177  1
  Mn  Mn9  1  0.750000  0.274176  0.137823  1
  Os  Os10  1  0.750000  0.776592  0.363146  1
  Os  Os11  1  0.250000  0.223408  0.636854  1
  C  C12  1  0.250000  0.467058  0.764169  1
  C  C13  1  0.750000  0.532942  0.235831  1
  C  C14  1  0.750000  0.047887  0.254975  1
  C  C15  1  0.250000  0.952113  0.745025  1
  C  C16  1  0.250000  0.814272  0.040559  1
  C  C17  1  0.750000  0.185728  0.959441  1
  C  C18  1  0.750000  0.674230  0.552705  1
  C  C19  1  0.250000  0.325770  0.447295  1
