# generated using pymatgen
data_Ce2In3Cu18Sb
_symmetry_space_group_name_H-M   'P 1'
_cell_length_a   8.49249052
_cell_length_b   8.49249052
_cell_length_c   5.03111000
_cell_angle_alpha   90.00000000
_cell_angle_beta   90.00000000
_cell_angle_gamma   90.30720189
_symmetry_Int_Tables_number   1
_chemical_formula_structural   Ce2In3Cu18Sb
_chemical_formula_sum   'Ce2 In3 Cu18 Sb1'
_cell_volume   362.85048804
_cell_formula_units_Z   1
loop_
 _symmetry_equiv_pos_site_id
 _symmetry_equiv_pos_as_xyz
  1  'x, y, z'
loop_
 _atom_site_type_symbol
 _atom_site_label
 _atom_site_symmetry_multiplicity
 _atom_site_fract_x
 _atom_site_fract_y
 _atom_site_fract_z
 _atom_site_occupancy
  Ce  Ce0  1  0.000548  0.999167  0.000000  1
  Ce  Ce1  1  0.500834  0.499453  0.000000  1
  In  In2  1  0.874986  0.374732  0.000000  1
  In  In3  1  0.125269  0.625014  0.000000  1
  In  In4  1  0.627257  0.872743  0.000000  1
  Cu  Cu5  1  0.676094  0.174327  0.247700  1
  Cu  Cu6  1  0.173651  0.326348  0.247951  1
  Cu  Cu7  1  0.825630  0.674371  0.247608  1
  Cu  Cu8  1  0.325672  0.823907  0.247700  1
  Cu  Cu9  1  0.501597  0.998404  0.500000  1
  Cu  Cu10  1  0.201922  0.063859  0.500000  1
  Cu  Cu11  1  0.935826  0.205193  0.500000  1
  Cu  Cu12  1  0.436142  0.298079  0.500000  1
  Cu  Cu13  1  0.704155  0.435201  0.500000  1
  Cu  Cu14  1  0.999465  0.500536  0.500000  1
  Cu  Cu15  1  0.294808  0.564174  0.500000  1
  Cu  Cu16  1  0.565309  0.705901  0.500000  1
  Cu  Cu17  1  0.064800  0.795844  0.500000  1
  Cu  Cu18  1  0.794098  0.934691  0.500000  1
  Cu  Cu19  1  0.676094  0.174327  0.752300  1
  Cu  Cu20  1  0.173651  0.326348  0.752049  1
  Cu  Cu21  1  0.825630  0.674371  0.752392  1
  Cu  Cu22  1  0.325672  0.823907  0.752300  1
  Sb  Sb23  1  0.370892  0.129109  0.000000  1
