# generated using pymatgen
data_Ho2Er11Tm7Bi12
_symmetry_space_group_name_H-M   'P 1'
_cell_length_a   8.19836609
_cell_length_b   9.46204802
_cell_length_c   11.95419110
_cell_angle_alpha   89.99981855
_cell_angle_beta   89.98494128
_cell_angle_gamma   90.00674135
_symmetry_Int_Tables_number   1
_chemical_formula_structural   Ho2Er11Tm7Bi12
_chemical_formula_sum   'Ho2 Er11 Tm7 Bi12'
_cell_volume   927.32641534
_cell_formula_units_Z   1
loop_
 _symmetry_equiv_pos_site_id
 _symmetry_equiv_pos_as_xyz
  1  'x, y, z'
loop_
 _atom_site_type_symbol
 _atom_site_label
 _atom_site_symmetry_multiplicity
 _atom_site_fract_x
 _atom_site_fract_y
 _atom_site_fract_z
 _atom_site_occupancy
  Ho  Ho0  1  0.686161  0.750079  0.781956  1
  Ho  Ho1  1  0.186232  0.749902  0.718041  1
  Er  Er2  1  0.353672  0.749933  0.217402  1
  Er  Er3  1  0.853730  0.750113  0.282430  1
  Er  Er4  1  0.646641  0.250150  0.783012  1
  Er  Er5  1  0.146344  0.250175  0.716973  1
  Er  Er6  1  0.692254  0.564914  0.059174  1
  Er  Er7  1  0.192213  0.934983  0.440822  1
  Er  Er8  1  0.308045  0.064887  0.940915  1
  Er  Er9  1  0.476647  0.250115  0.488902  1
  Er  Er10  1  0.976438  0.250080  0.011204  1
  Er  Er11  1  0.313638  0.250142  0.217921  1
  Er  Er12  1  0.813615  0.250011  0.282172  1
  Tm  Tm13  1  0.807947  0.434512  0.559099  1
  Tm  Tm14  1  0.308101  0.434616  0.940900  1
  Tm  Tm15  1  0.808019  0.065533  0.559045  1
  Tm  Tm16  1  0.692062  0.934563  0.059250  1
  Tm  Tm17  1  0.192107  0.565418  0.440764  1
  Tm  Tm18  1  0.523368  0.749930  0.510807  1
  Tm  Tm19  1  0.023295  0.750092  0.989191  1
  Bi  Bi20  1  0.404436  0.749582  0.957871  1
  Bi  Bi21  1  0.904244  0.749814  0.542199  1
  Bi  Bi22  1  0.595013  0.249575  0.042584  1
  Bi  Bi23  1  0.094858  0.250610  0.457454  1
  Bi  Bi24  1  0.566455  0.996021  0.325747  1
  Bi  Bi25  1  0.066336  0.504044  0.174302  1
  Bi  Bi26  1  0.433926  0.496090  0.673986  1
  Bi  Bi27  1  0.933799  0.003988  0.825921  1
  Bi  Bi28  1  0.433954  0.003923  0.673993  1
  Bi  Bi29  1  0.933888  0.496123  0.825883  1
  Bi  Bi30  1  0.566281  0.504025  0.325793  1
  Bi  Bi31  1  0.066284  0.996057  0.174285  1
