# generated using pymatgen
data_Sr2Pt9Pb
_symmetry_space_group_name_H-M   'P 1'
_cell_length_a   9.43203303
_cell_length_b   9.43203319
_cell_length_c   9.43203322
_cell_angle_alpha   34.02773381
_cell_angle_beta   34.02773130
_cell_angle_gamma   34.02773440
_symmetry_Int_Tables_number   1
_chemical_formula_structural   Sr2Pt9Pb
_chemical_formula_sum   'Sr2 Pt9 Pb1'
_cell_volume   234.23041863
_cell_formula_units_Z   1
loop_
 _symmetry_equiv_pos_site_id
 _symmetry_equiv_pos_as_xyz
  1  'x, y, z'
loop_
 _atom_site_type_symbol
 _atom_site_label
 _atom_site_symmetry_multiplicity
 _atom_site_fract_x
 _atom_site_fract_y
 _atom_site_fract_z
 _atom_site_occupancy
  Sr  Sr0  1  0.001501  0.001501  0.001501  1
  Sr  Sr1  1  0.858058  0.858058  0.858058  1
  Pt  Pt2  1  0.583853  0.583853  0.081616  1
  Pt  Pt3  1  0.332416  0.332416  0.332416  1
  Pt  Pt4  1  0.920177  0.415872  0.415871  1
  Pt  Pt5  1  0.415872  0.920177  0.415871  1
  Pt  Pt6  1  0.500425  0.500425  0.500425  1
  Pt  Pt7  1  0.583852  0.081616  0.583853  1
  Pt  Pt8  1  0.081616  0.583852  0.583853  1
  Pt  Pt9  1  0.667487  0.667487  0.667487  1
  Pt  Pt10  1  0.415871  0.415871  0.920177  1
  Pb  Pb11  1  0.138871  0.138871  0.138871  1
