# generated using pymatgen
data_NdGdU2(ReB6)2
_symmetry_space_group_name_H-M   'P 1'
_cell_length_a   3.67199000
_cell_length_b   9.36279288
_cell_length_c   11.49011603
_cell_angle_alpha   90.04909133
_cell_angle_beta   90.00000000
_cell_angle_gamma   90.00000000
_symmetry_Int_Tables_number   1
_chemical_formula_structural   NdGdU2(ReB6)2
_chemical_formula_sum   'Nd2 Gd2 U4 Re4 B24'
_cell_volume   395.03098429
_cell_formula_units_Z   2
loop_
 _symmetry_equiv_pos_site_id
 _symmetry_equiv_pos_as_xyz
  1  'x, y, z'
loop_
 _atom_site_type_symbol
 _atom_site_label
 _atom_site_symmetry_multiplicity
 _atom_site_fract_x
 _atom_site_fract_y
 _atom_site_fract_z
 _atom_site_occupancy
  Nd  Nd0  1  0.000000  0.336597  0.407397  1
  Nd  Nd1  1  0.000000  0.663403  0.592603  1
  Gd  Gd2  1  0.000000  0.836774  0.092009  1
  Gd  Gd3  1  0.000000  0.163226  0.907991  1
  U  U4  1  0.000000  0.956806  0.395931  1
  U  U5  1  0.000000  0.043194  0.604069  1
  U  U6  1  0.000000  0.456793  0.103386  1
  U  U7  1  0.000000  0.543207  0.896614  1
  Re  Re8  1  0.000000  0.647775  0.316622  1
  Re  Re9  1  0.000000  0.352225  0.683378  1
  Re  Re10  1  0.000000  0.145441  0.181207  1
  Re  Re11  1  0.000000  0.854559  0.818793  1
  B  B12  1  0.500000  0.555296  0.428101  1
  B  B13  1  0.500000  0.444704  0.571899  1
  B  B14  1  0.500000  0.052711  0.069486  1
  B  B15  1  0.500000  0.947289  0.930514  1
  B  B16  1  0.500000  0.745581  0.420985  1
  B  B17  1  0.500000  0.254419  0.579015  1
  B  B18  1  0.500000  0.243183  0.076949  1
  B  B19  1  0.500000  0.756817  0.923051  1
  B  B20  1  0.500000  0.802701  0.274157  1
  B  B21  1  0.500000  0.197299  0.725843  1
  B  B22  1  0.500000  0.301053  0.223290  1
  B  B23  1  0.500000  0.698947  0.776710  1
  B  B24  1  0.500000  0.644988  0.187464  1
  B  B25  1  0.500000  0.355012  0.812536  1
  B  B26  1  0.500000  0.142526  0.310710  1
  B  B27  1  0.500000  0.857474  0.689290  1
  B  B28  1  0.500000  0.989836  0.219290  1
  B  B29  1  0.500000  0.010164  0.780710  1
  B  B30  1  0.500000  0.492057  0.278392  1
  B  B31  1  0.500000  0.507943  0.721608  1
  B  B32  1  0.500000  0.639518  0.038249  1
  B  B33  1  0.500000  0.360482  0.961751  1
  B  B34  1  0.500000  0.135736  0.462354  1
  B  B35  1  0.500000  0.864264  0.537646  1
