# generated using pymatgen
data_Ca(AlI4)2
_symmetry_space_group_name_H-M   'P 1'
_cell_length_a   8.21027600
_cell_length_b   8.41527461
_cell_length_c   15.44292388
_cell_angle_alpha   87.40302269
_cell_angle_beta   90.00000000
_cell_angle_gamma   90.00000000
_symmetry_Int_Tables_number   1
_chemical_formula_structural   Ca(AlI4)2
_chemical_formula_sum   'Ca2 Al4 I16'
_cell_volume   1065.88245651
_cell_formula_units_Z   2
loop_
 _symmetry_equiv_pos_site_id
 _symmetry_equiv_pos_as_xyz
  1  'x, y, z'
loop_
 _atom_site_type_symbol
 _atom_site_label
 _atom_site_symmetry_multiplicity
 _atom_site_fract_x
 _atom_site_fract_y
 _atom_site_fract_z
 _atom_site_occupancy
  Ca  Ca0  1  0.753437  0.075183  0.812289  1
  Ca  Ca1  1  0.246563  0.075183  0.312289  1
  Al  Al2  1  0.931450  0.221669  0.580022  1
  Al  Al3  1  0.068550  0.221669  0.080022  1
  Al  Al4  1  0.573157  0.642082  0.776843  1
  Al  Al5  1  0.426843  0.642082  0.276843  1
  I  I6  1  0.418970  0.614775  0.638781  1
  I  I7  1  0.581030  0.614775  0.138781  1
  I  I8  1  0.874018  0.730930  0.760243  1
  I  I9  1  0.125982  0.730930  0.260243  1
  I  I10  1  0.939026  0.481138  0.495002  1
  I  I11  1  0.060974  0.481138  0.995002  1
  I  I12  1  0.917773  0.998379  0.999954  1
  I  I13  1  0.082227  0.998379  0.499954  1
  I  I14  1  0.637241  0.126913  0.616333  1
  I  I15  1  0.362759  0.126913  0.116333  1
  I  I16  1  0.560537  0.380921  0.874482  1
  I  I17  1  0.439463  0.380921  0.374482  1
  I  I18  1  0.443680  0.863977  0.867078  1
  I  I19  1  0.556320  0.863977  0.367078  1
  I  I20  1  0.929356  0.231435  0.231174  1
  I  I21  1  0.070644  0.231435  0.731174  1
