# generated using pymatgen
data_Yb2ErGa8Ag3
_symmetry_space_group_name_H-M   'P 1'
_cell_length_a   4.36271490
_cell_length_b   8.34944809
_cell_length_c   8.34944817
_cell_angle_alpha   71.13866606
_cell_angle_beta   74.85529309
_cell_angle_gamma   74.85529050
_symmetry_Int_Tables_number   1
_chemical_formula_structural   Yb2ErGa8Ag3
_chemical_formula_sum   'Yb2 Er1 Ga8 Ag3'
_cell_volume   272.55872144
_cell_formula_units_Z   1
loop_
 _symmetry_equiv_pos_site_id
 _symmetry_equiv_pos_as_xyz
  1  'x, y, z'
loop_
 _atom_site_type_symbol
 _atom_site_label
 _atom_site_symmetry_multiplicity
 _atom_site_fract_x
 _atom_site_fract_y
 _atom_site_fract_z
 _atom_site_occupancy
  Yb  Yb0  1  0.499932  0.500068  0.500068  1
  Yb  Yb1  1  0.200523  0.799477  0.799477  1
  Er  Er2  1  0.796523  0.203477  0.203477  1
  Ga  Ga3  1  0.357638  0.361587  0.923137  1
  Ga  Ga4  1  0.644255  0.636330  0.075161  1
  Ga  Ga5  1  0.357638  0.923137  0.361587  1
  Ga  Ga6  1  0.644255  0.075161  0.636330  1
  Ga  Ga7  1  0.158900  0.472642  0.209560  1
  Ga  Ga8  1  0.840118  0.526738  0.793025  1
  Ga  Ga9  1  0.158900  0.209560  0.472642  1
  Ga  Ga10  1  0.840118  0.793025  0.526738  1
  Ag  Ag11  1  0.500007  0.999993  0.999993  1
  Ag  Ag12  1  0.000598  0.808561  0.190243  1
  Ag  Ag13  1  0.000598  0.190243  0.808561  1
