# generated using pymatgen
data_Yb2Sm3Er(Si3Ru)8
_symmetry_space_group_name_H-M   'P 1'
_cell_length_a   10.14746583
_cell_length_b   10.14600228
_cell_length_c   8.16927826
_cell_angle_alpha   90.07270205
_cell_angle_beta   89.93220099
_cell_angle_gamma   132.54945998
_symmetry_Int_Tables_number   1
_chemical_formula_structural   Yb2Sm3Er(Si3Ru)8
_chemical_formula_sum   'Yb2 Sm3 Er1 Si24 Ru8'
_cell_volume   619.61639954
_cell_formula_units_Z   1
loop_
 _symmetry_equiv_pos_site_id
 _symmetry_equiv_pos_as_xyz
  1  'x, y, z'
loop_
 _atom_site_type_symbol
 _atom_site_label
 _atom_site_symmetry_multiplicity
 _atom_site_fract_x
 _atom_site_fract_y
 _atom_site_fract_z
 _atom_site_occupancy
  Yb  Yb0  1  0.997995  0.498009  0.250153  1
  Yb  Yb1  1  0.499706  0.499756  0.499570  1
  Sm  Sm2  1  0.497568  0.997448  0.250434  1
  Sm  Sm3  1  0.003065  0.503188  0.749700  1
  Sm  Sm4  1  0.501910  0.002052  0.749662  1
  Er  Er5  1  0.999730  0.999556  0.000585  1
  Si  Si6  1  0.387726  0.156155  0.005586  1
  Si  Si7  1  0.654923  0.885700  0.494236  1
  Si  Si8  1  0.114225  0.345832  0.504550  1
  Si  Si9  1  0.844566  0.612270  0.995679  1
  Si  Si10  1  0.612348  0.844266  0.994346  1
  Si  Si11  1  0.345471  0.114350  0.505546  1
  Si  Si12  1  0.885713  0.653994  0.494563  1
  Si  Si13  1  0.155213  0.387650  0.005488  1
  Si  Si14  1  0.610712  0.379027  0.229649  1
  Si  Si15  1  0.878414  0.110679  0.271582  1
  Si  Si16  1  0.890218  0.122303  0.728557  1
  Si  Si17  1  0.621792  0.390309  0.770001  1
  Si  Si18  1  0.390361  0.621926  0.770218  1
  Si  Si19  1  0.122498  0.890322  0.728322  1
  Si  Si20  1  0.706935  0.297690  0.001725  1
  Si  Si21  1  0.798160  0.206903  0.498117  1
  Si  Si22  1  0.292885  0.702356  0.002729  1
  Si  Si23  1  0.201953  0.792952  0.497361  1
  Si  Si24  1  0.169389  0.166978  0.333849  1
  Si  Si25  1  0.664658  0.667015  0.168551  1
  Si  Si26  1  0.331876  0.334599  0.831508  1
  Si  Si27  1  0.832650  0.829270  0.666075  1
  Si  Si28  1  0.377359  0.609927  0.230262  1
  Si  Si29  1  0.110096  0.877117  0.271359  1
  Ru  Ru30  1  0.627135  0.626661  0.875504  1
  Ru  Ru31  1  0.123770  0.124403  0.627327  1
  Ru  Ru32  1  0.875246  0.875500  0.372578  1
  Ru  Ru33  1  0.372519  0.372570  0.124551  1
  Ru  Ru34  1  0.330970  0.670775  0.500924  1
  Ru  Ru35  1  0.169589  0.831944  0.999322  1
  Ru  Ru36  1  0.670011  0.329404  0.499756  1
  Ru  Ru37  1  0.830644  0.169143  0.000076  1
