# generated using pymatgen
data_Dy4MgCo2Bi
_symmetry_space_group_name_H-M   'P 1'
_cell_length_a   8.97890310
_cell_length_b   8.97890333
_cell_length_c   8.97890265
_cell_angle_alpha   131.77103065
_cell_angle_beta   131.77103001
_cell_angle_gamma   70.59089915
_symmetry_Int_Tables_number   1
_chemical_formula_structural   Dy4MgCo2Bi
_chemical_formula_sum   'Dy8 Mg2 Co4 Bi2'
_cell_volume   394.48629288
_cell_formula_units_Z   2
loop_
 _symmetry_equiv_pos_site_id
 _symmetry_equiv_pos_as_xyz
  1  'x, y, z'
loop_
 _atom_site_type_symbol
 _atom_site_label
 _atom_site_symmetry_multiplicity
 _atom_site_fract_x
 _atom_site_fract_y
 _atom_site_fract_z
 _atom_site_occupancy
  Dy  Dy0  1  0.800977  0.300977  0.858673  1
  Dy  Dy1  1  0.199023  0.699023  0.141328  1
  Dy  Dy2  1  0.442306  0.942306  0.141328  1
  Dy  Dy3  1  0.300977  0.442306  0.500000  1
  Dy  Dy4  1  0.057694  0.199023  0.500000  1
  Dy  Dy5  1  0.557694  0.057694  0.858672  1
  Dy  Dy6  1  0.699023  0.557694  0.500000  1
  Dy  Dy7  1  0.942306  0.800977  0.500000  1
  Mg  Mg8  1  0.000000  0.000000  0.000000  1
  Mg  Mg9  1  0.500000  0.500000  0.000000  1
  Co  Co10  1  0.110901  0.610901  0.721802  1
  Co  Co11  1  0.889099  0.389099  0.278198  1
  Co  Co12  1  0.610901  0.889099  0.500000  1
  Co  Co13  1  0.389099  0.110901  0.500000  1
  Bi  Bi14  1  0.250000  0.250000  0.000000  1
  Bi  Bi15  1  0.750000  0.750000  0.000000  1
