# generated using pymatgen
data_SrRuF6
_symmetry_space_group_name_H-M   'P 1'
_cell_length_a   6.09597325
_cell_length_b   6.09597350
_cell_length_c   6.09597256
_cell_angle_alpha   57.87799196
_cell_angle_beta   57.87799083
_cell_angle_gamma   57.87799865
_symmetry_Int_Tables_number   1
_chemical_formula_structural   SrRuF6
_chemical_formula_sum   'Sr1 Ru1 F6'
_cell_volume   152.37996199
_cell_formula_units_Z   1
loop_
 _symmetry_equiv_pos_site_id
 _symmetry_equiv_pos_as_xyz
  1  'x, y, z'
loop_
 _atom_site_type_symbol
 _atom_site_label
 _atom_site_symmetry_multiplicity
 _atom_site_fract_x
 _atom_site_fract_y
 _atom_site_fract_z
 _atom_site_occupancy
  Sr  Sr0  1  0.500000  0.500000  0.500000  1
  Ru  Ru1  1  0.000000  0.000000  0.000000  1
  F  F2  1  0.686200  0.872412  0.217732  1
  F  F3  1  0.872412  0.217732  0.686200  1
  F  F4  1  0.782268  0.313800  0.127588  1
  F  F5  1  0.127588  0.782268  0.313800  1
  F  F6  1  0.313800  0.127588  0.782268  1
  F  F7  1  0.217732  0.686200  0.872412  1
