# generated using pymatgen
data_Ce2YAlCd2Pd3
_symmetry_space_group_name_H-M   'P 1'
_cell_length_a   7.58555958
_cell_length_b   7.67110475
_cell_length_c   3.86715300
_cell_angle_alpha   90.00000000
_cell_angle_beta   90.00000000
_cell_angle_gamma   119.83141955
_symmetry_Int_Tables_number   1
_chemical_formula_structural   Ce2YAlCd2Pd3
_chemical_formula_sum   'Ce2 Y1 Al1 Cd2 Pd3'
_cell_volume   195.21031781
_cell_formula_units_Z   1
loop_
 _symmetry_equiv_pos_site_id
 _symmetry_equiv_pos_as_xyz
  1  'x, y, z'
loop_
 _atom_site_type_symbol
 _atom_site_label
 _atom_site_symmetry_multiplicity
 _atom_site_fract_x
 _atom_site_fract_y
 _atom_site_fract_z
 _atom_site_occupancy
  Ce  Ce0  1  0.408878  0.407004  0.500000  1
  Ce  Ce1  1  0.580112  0.998629  0.500000  1
  Y  Y2  1  0.001806  0.595556  0.500000  1
  Al  Al3  1  0.248015  0.994218  0.000000  1
  Cd  Cd4  1  0.996796  0.254966  0.000000  1
  Cd  Cd5  1  0.750650  0.750706  0.000000  1
  Pd  Pd6  1  0.643963  0.317428  0.000000  1
  Pd  Pd7  1  0.036906  0.002247  0.500000  1
  Pd  Pd8  1  0.332874  0.679246  0.000000  1
