# generated using pymatgen
data_Ho5Sn2Os
_symmetry_space_group_name_H-M   'P 1'
_cell_length_a   7.79023500
_cell_length_b   9.07824800
_cell_length_c   12.23383400
_cell_angle_alpha   90.00000000
_cell_angle_beta   90.00000000
_cell_angle_gamma   90.00000000
_symmetry_Int_Tables_number   1
_chemical_formula_structural   Ho5Sn2Os
_chemical_formula_sum   'Ho20 Sn8 Os4'
_cell_volume   865.19735826
_cell_formula_units_Z   4
loop_
 _symmetry_equiv_pos_site_id
 _symmetry_equiv_pos_as_xyz
  1  'x, y, z'
loop_
 _atom_site_type_symbol
 _atom_site_label
 _atom_site_symmetry_multiplicity
 _atom_site_fract_x
 _atom_site_fract_y
 _atom_site_fract_z
 _atom_site_occupancy
  Ho  Ho0  1  0.845559  0.750000  0.785356  1
  Ho  Ho1  1  0.154441  0.250000  0.214644  1
  Ho  Ho2  1  0.345559  0.250000  0.714644  1
  Ho  Ho3  1  0.654441  0.750000  0.285356  1
  Ho  Ho4  1  0.376571  0.750000  0.697016  1
  Ho  Ho5  1  0.623429  0.250000  0.302984  1
  Ho  Ho6  1  0.876571  0.250000  0.802984  1
  Ho  Ho7  1  0.123429  0.750000  0.197016  1
  Ho  Ho8  1  0.955303  0.750000  0.503032  1
  Ho  Ho9  1  0.044697  0.250000  0.496968  1
  Ho  Ho10  1  0.455303  0.250000  0.996968  1
  Ho  Ho11  1  0.544697  0.750000  0.003032  1
  Ho  Ho12  1  0.676913  0.035541  0.570080  1
  Ho  Ho13  1  0.323087  0.964459  0.429920  1
  Ho  Ho14  1  0.176913  0.964459  0.929920  1
  Ho  Ho15  1  0.323087  0.535541  0.429920  1
  Ho  Ho16  1  0.823087  0.035541  0.070080  1
  Ho  Ho17  1  0.676913  0.464459  0.570080  1
  Ho  Ho18  1  0.823087  0.464459  0.070080  1
  Ho  Ho19  1  0.176913  0.535541  0.929920  1
  Sn  Sn20  1  0.574931  0.495370  0.831152  1
  Sn  Sn21  1  0.425069  0.504630  0.168848  1
  Sn  Sn22  1  0.074931  0.504630  0.668848  1
  Sn  Sn23  1  0.425069  0.995370  0.168848  1
  Sn  Sn24  1  0.925069  0.495370  0.331152  1
  Sn  Sn25  1  0.574931  0.004630  0.831152  1
  Sn  Sn26  1  0.925069  0.004630  0.331152  1
  Sn  Sn27  1  0.074931  0.995370  0.668848  1
  Os  Os28  1  0.575597  0.750000  0.508323  1
  Os  Os29  1  0.424403  0.250000  0.491677  1
  Os  Os30  1  0.075597  0.250000  0.991677  1
  Os  Os31  1  0.924403  0.750000  0.008323  1
