# generated using pymatgen
data_ErTm9Sn5Bi
_symmetry_space_group_name_H-M   'P 1'
_cell_length_a   8.84657600
_cell_length_b   8.88095637
_cell_length_c   6.45002400
_cell_angle_alpha   90.00000000
_cell_angle_beta   90.00000000
_cell_angle_gamma   119.87202262
_symmetry_Int_Tables_number   1
_chemical_formula_structural   ErTm9Sn5Bi
_chemical_formula_sum   'Er1 Tm9 Sn5 Bi1'
_cell_volume   439.42577552
_cell_formula_units_Z   1
loop_
 _symmetry_equiv_pos_site_id
 _symmetry_equiv_pos_as_xyz
  1  'x, y, z'
loop_
 _atom_site_type_symbol
 _atom_site_label
 _atom_site_symmetry_multiplicity
 _atom_site_fract_x
 _atom_site_fract_y
 _atom_site_fract_z
 _atom_site_occupancy
  Er  Er0  1  0.236843  0.000000  0.250000  1
  Tm  Tm1  1  0.993237  0.758043  0.750000  1
  Tm  Tm2  1  0.000429  0.238338  0.250000  1
  Tm  Tm3  1  0.762091  0.761662  0.250000  1
  Tm  Tm4  1  0.766170  0.000000  0.750000  1
  Tm  Tm5  1  0.235194  0.241957  0.750000  1
  Tm  Tm6  1  0.333046  0.662436  0.498089  1
  Tm  Tm7  1  0.670611  0.337564  0.001911  1
  Tm  Tm8  1  0.670611  0.337564  0.498089  1
  Tm  Tm9  1  0.333046  0.662436  0.001911  1
  Sn  Sn10  1  0.394921  0.392842  0.250000  1
  Sn  Sn11  1  0.002080  0.607158  0.250000  1
  Sn  Sn12  1  0.999133  0.395166  0.750000  1
  Sn  Sn13  1  0.603966  0.604834  0.750000  1
  Sn  Sn14  1  0.605945  0.000000  0.250000  1
  Bi  Bi15  1  0.392675  0.000000  0.750000  1
