# generated using pymatgen
data_Zr6Al7(CuPd)8
_symmetry_space_group_name_H-M   'P 1'
_cell_length_a   8.59897766
_cell_length_b   8.59897814
_cell_length_c   8.59897800
_cell_angle_alpha   60.00000054
_cell_angle_beta   59.99999869
_cell_angle_gamma   59.99999431
_symmetry_Int_Tables_number   1
_chemical_formula_structural   Zr6Al7(CuPd)8
_chemical_formula_sum   'Zr6 Al7 Cu8 Pd8'
_cell_volume   449.59915281
_cell_formula_units_Z   1
loop_
 _symmetry_equiv_pos_site_id
 _symmetry_equiv_pos_as_xyz
  1  'x, y, z'
loop_
 _atom_site_type_symbol
 _atom_site_label
 _atom_site_symmetry_multiplicity
 _atom_site_fract_x
 _atom_site_fract_y
 _atom_site_fract_z
 _atom_site_occupancy
  Zr  Zr0  1  0.698745  0.698745  0.301255  1
  Zr  Zr1  1  0.301255  0.698745  0.301255  1
  Zr  Zr2  1  0.698745  0.301255  0.301255  1
  Zr  Zr3  1  0.301255  0.301255  0.698745  1
  Zr  Zr4  1  0.698745  0.301255  0.698745  1
  Zr  Zr5  1  0.301255  0.698745  0.698745  1
  Al  Al6  1  0.000000  0.000000  0.000000  1
  Al  Al7  1  0.000000  0.000000  0.500000  1
  Al  Al8  1  0.500000  0.000000  0.500000  1
  Al  Al9  1  0.000000  0.500000  0.500000  1
  Al  Al10  1  0.500000  0.500000  0.000000  1
  Al  Al11  1  0.000000  0.500000  0.000000  1
  Al  Al12  1  0.500000  0.000000  0.000000  1
  Cu  Cu13  1  0.668973  0.668973  0.993081  1
  Cu  Cu14  1  0.668973  0.993081  0.668973  1
  Cu  Cu15  1  0.993081  0.668973  0.668973  1
  Cu  Cu16  1  0.668973  0.668973  0.668973  1
  Cu  Cu17  1  0.331027  0.331027  0.006919  1
  Cu  Cu18  1  0.331027  0.006919  0.331027  1
  Cu  Cu19  1  0.006919  0.331027  0.331027  1
  Cu  Cu20  1  0.331027  0.331027  0.331027  1
  Pd  Pd21  1  0.880359  0.880359  0.358925  1
  Pd  Pd22  1  0.880359  0.358925  0.880359  1
  Pd  Pd23  1  0.358925  0.880359  0.880359  1
  Pd  Pd24  1  0.880359  0.880359  0.880359  1
  Pd  Pd25  1  0.119641  0.119641  0.641075  1
  Pd  Pd26  1  0.119641  0.641075  0.119641  1
  Pd  Pd27  1  0.641075  0.119641  0.119641  1
  Pd  Pd28  1  0.119641  0.119641  0.119641  1
