# generated using pymatgen
data_Pr3Sm2PdRuO12
_symmetry_space_group_name_H-M   'P 1'
_cell_length_a   7.12241396
_cell_length_b   7.12241294
_cell_length_c   7.56707499
_cell_angle_alpha   74.22499949
_cell_angle_beta   74.22500511
_cell_angle_gamma   50.51638643
_symmetry_Int_Tables_number   1
_chemical_formula_structural   Pr3Sm2PdRuO12
_chemical_formula_sum   'Pr3 Sm2 Pd1 Ru1 O12'
_cell_volume   282.56969834
_cell_formula_units_Z   1
loop_
 _symmetry_equiv_pos_site_id
 _symmetry_equiv_pos_as_xyz
  1  'x, y, z'
loop_
 _atom_site_type_symbol
 _atom_site_label
 _atom_site_symmetry_multiplicity
 _atom_site_fract_x
 _atom_site_fract_y
 _atom_site_fract_z
 _atom_site_occupancy
  Pr  Pr0  1  0.697918  0.690994  0.166356  1
  Pr  Pr1  1  0.309006  0.302082  0.833644  1
  Pr  Pr2  1  0.002061  0.997939  0.500000  1
  Sm  Sm3  1  0.309550  0.295622  0.359309  1
  Sm  Sm4  1  0.704378  0.690450  0.640691  1
  Pd  Pd5  1  0.746988  0.253012  0.000000  1
  Ru  Ru6  1  0.239558  0.760442  0.000000  1
  O  O7  1  0.098015  0.595521  0.570514  1
  O  O8  1  0.001995  0.999015  0.173771  1
  O  O9  1  0.404479  0.901985  0.429486  1
  O  O10  1  0.490583  0.506830  0.178842  1
  O  O11  1  0.104766  0.579513  0.082535  1
  O  O12  1  0.910856  0.402085  0.426223  1
  O  O13  1  0.000985  0.998005  0.826229  1
  O  O14  1  0.597915  0.089143  0.573777  1
  O  O15  1  0.493170  0.509417  0.821158  1
  O  O16  1  0.567545  0.100254  0.086281  1
  O  O17  1  0.420487  0.895234  0.917465  1
  O  O18  1  0.899746  0.432455  0.913719  1
