# generated using pymatgen
data_Er16Mg2CdInPd4
_symmetry_space_group_name_H-M   'P 1'
_cell_length_a   9.64449673
_cell_length_b   9.65016713
_cell_length_c   9.65657400
_cell_angle_alpha   59.97803553
_cell_angle_beta   59.95856742
_cell_angle_gamma   59.88637578
_symmetry_Int_Tables_number   1
_chemical_formula_structural   Er16Mg2CdInPd4
_chemical_formula_sum   'Er16 Mg2 Cd1 In1 Pd4'
_cell_volume   634.65870627
_cell_formula_units_Z   1
loop_
 _symmetry_equiv_pos_site_id
 _symmetry_equiv_pos_as_xyz
  1  'x, y, z'
loop_
 _atom_site_type_symbol
 _atom_site_label
 _atom_site_symmetry_multiplicity
 _atom_site_fract_x
 _atom_site_fract_y
 _atom_site_fract_z
 _atom_site_occupancy
  Er  Er0  1  0.352628  0.352998  0.349606  1
  Er  Er1  1  0.352628  0.352998  0.944767  1
  Er  Er2  1  0.352930  0.942194  0.352437  1
  Er  Er3  1  0.939235  0.353049  0.353857  1
  Er  Er4  1  0.810885  0.190905  0.188563  1
  Er  Er5  1  0.190488  0.811947  0.810617  1
  Er  Er6  1  0.190488  0.811947  0.186949  1
  Er  Er7  1  0.810885  0.190905  0.809647  1
  Er  Er8  1  0.193386  0.193341  0.806637  1
  Er  Er9  1  0.811843  0.812472  0.187843  1
  Er  Er10  1  0.936403  0.565172  0.564968  1
  Er  Er11  1  0.566534  0.934015  0.934064  1
  Er  Er12  1  0.566534  0.934015  0.565387  1
  Er  Er13  1  0.936403  0.565172  0.933456  1
  Er  Er14  1  0.569401  0.567909  0.931345  1
  Er  Er15  1  0.938426  0.931789  0.564892  1
  Mg  Mg16  1  0.574962  0.577272  0.583054  1
  Mg  Mg17  1  0.574962  0.577272  0.264713  1
  Cd  Cd18  1  0.251435  0.582879  0.582842  1
  In  In19  1  0.581427  0.251188  0.583692  1
  Pd  Pd20  1  0.143974  0.144228  0.145112  1
  Pd  Pd21  1  0.143974  0.144228  0.566688  1
  Pd  Pd22  1  0.141025  0.568819  0.145079  1
  Pd  Pd23  1  0.569147  0.143285  0.143784  1
