# generated using pymatgen
data_Th8Ta7Nb5Si16
_symmetry_space_group_name_H-M   'P 1'
_cell_length_a   7.17647448
_cell_length_b   7.17550406
_cell_length_c   13.38401601
_cell_angle_alpha   89.98490685
_cell_angle_beta   90.04181827
_cell_angle_gamma   90.00089700
_symmetry_Int_Tables_number   1
_chemical_formula_structural   Th8Ta7Nb5Si16
_chemical_formula_sum   'Th8 Ta7 Nb5 Si16'
_cell_volume   689.20731132
_cell_formula_units_Z   1
loop_
 _symmetry_equiv_pos_site_id
 _symmetry_equiv_pos_as_xyz
  1  'x, y, z'
loop_
 _atom_site_type_symbol
 _atom_site_label
 _atom_site_symmetry_multiplicity
 _atom_site_fract_x
 _atom_site_fract_y
 _atom_site_fract_z
 _atom_site_occupancy
  Th  Th0  1  0.999150  0.337073  0.218199  1
  Th  Th1  1  0.000763  0.662798  0.718129  1
  Th  Th2  1  0.162862  0.499187  0.468187  1
  Th  Th3  1  0.501151  0.837349  0.031835  1
  Th  Th4  1  0.837290  0.500752  0.968231  1
  Th  Th5  1  0.498861  0.162609  0.531860  1
  Th  Th6  1  0.337389  0.999072  0.781793  1
  Th  Th7  1  0.662627  0.001133  0.281811  1
  Ta  Ta8  1  0.167847  0.167642  0.000076  1
  Ta  Ta9  1  0.831914  0.832046  0.499915  1
  Ta  Ta10  1  0.332024  0.668133  0.249941  1
  Ta  Ta11  1  0.668384  0.331726  0.749680  1
  Ta  Ta12  1  0.660458  0.505213  0.375911  1
  Ta  Ta13  1  0.994734  0.160337  0.625901  1
  Ta  Ta14  1  0.005108  0.839724  0.126043  1
  Nb  Nb15  1  0.160437  0.995346  0.374021  1
  Nb  Nb16  1  0.839722  0.004748  0.874123  1
  Nb  Nb17  1  0.504705  0.660325  0.624150  1
  Nb  Nb18  1  0.339407  0.495056  0.875937  1
  Nb  Nb19  1  0.495314  0.339431  0.124179  1
  Si  Si20  1  0.288721  0.038786  0.186035  1
  Si  Si21  1  0.711314  0.961119  0.686141  1
  Si  Si22  1  0.461214  0.788701  0.436063  1
  Si  Si23  1  0.211102  0.539424  0.063822  1
  Si  Si24  1  0.538958  0.211270  0.936105  1
  Si  Si25  1  0.788833  0.460723  0.563705  1
  Si  Si26  1  0.038990  0.288681  0.813559  1
  Si  Si27  1  0.960605  0.711136  0.313663  1
  Si  Si28  1  0.376073  0.299559  0.313967  1
  Si  Si29  1  0.624256  0.700806  0.813673  1
  Si  Si30  1  0.200591  0.875972  0.563976  1
  Si  Si31  1  0.124100  0.799082  0.936537  1
  Si  Si32  1  0.799427  0.123949  0.063903  1
  Si  Si33  1  0.875708  0.201301  0.436364  1
  Si  Si34  1  0.298719  0.375521  0.686204  1
  Si  Si35  1  0.701241  0.624271  0.186360  1
