# generated using pymatgen
data_YbHo7(Si4W3)4
_symmetry_space_group_name_H-M   'P 1'
_cell_length_a   6.75335013
_cell_length_b   6.93120465
_cell_length_c   12.90808425
_cell_angle_alpha   90.06191458
_cell_angle_beta   89.98188653
_cell_angle_gamma   90.14680114
_symmetry_Int_Tables_number   1
_chemical_formula_structural   YbHo7(Si4W3)4
_chemical_formula_sum   'Yb1 Ho7 Si16 W12'
_cell_volume   604.21023764
_cell_formula_units_Z   1
loop_
 _symmetry_equiv_pos_site_id
 _symmetry_equiv_pos_as_xyz
  1  'x, y, z'
loop_
 _atom_site_type_symbol
 _atom_site_label
 _atom_site_symmetry_multiplicity
 _atom_site_fract_x
 _atom_site_fract_y
 _atom_site_fract_z
 _atom_site_occupancy
  Yb  Yb0  1  0.996658  0.166841  0.090776  1
  Ho  Ho1  1  0.497387  0.331572  0.093823  1
  Ho  Ho2  1  0.996988  0.168724  0.406267  1
  Ho  Ho3  1  0.503987  0.668210  0.593236  1
  Ho  Ho4  1  0.003389  0.833527  0.908277  1
  Ho  Ho5  1  0.503308  0.667852  0.907033  1
  Ho  Ho6  1  0.004079  0.831986  0.593396  1
  Ho  Ho7  1  0.496647  0.331663  0.405989  1
  Si  Si8  1  0.662744  0.042197  0.546080  1
  Si  Si9  1  0.160954  0.457115  0.953454  1
  Si  Si10  1  0.338699  0.958936  0.047211  1
  Si  Si11  1  0.837657  0.542886  0.454198  1
  Si  Si12  1  0.337137  0.957987  0.453585  1
  Si  Si13  1  0.838941  0.540804  0.047014  1
  Si  Si14  1  0.660744  0.042303  0.953557  1
  Si  Si15  1  0.162457  0.456670  0.545761  1
  Si  Si16  1  0.534059  0.371316  0.750123  1
  Si  Si17  1  0.034652  0.129528  0.750683  1
  Si  Si18  1  0.465339  0.628353  0.250256  1
  Si  Si19  1  0.965398  0.872461  0.249603  1
  Si  Si20  1  0.802840  0.635166  0.750502  1
  Si  Si21  1  0.302055  0.866584  0.750227  1
  Si  Si22  1  0.195793  0.364036  0.248494  1
  Si  Si23  1  0.699855  0.132768  0.248572  1
  W  W24  1  0.829432  0.338236  0.625339  1
  W  W25  1  0.331491  0.163353  0.874383  1
  W  W26  1  0.170046  0.663955  0.126448  1
  W  W27  1  0.668310  0.835883  0.374195  1
  W  W28  1  0.170394  0.661347  0.375253  1
  W  W29  1  0.667917  0.833564  0.125373  1
  W  W30  1  0.828418  0.338681  0.873730  1
  W  W31  1  0.331457  0.163830  0.625862  1
  W  W32  1  0.666288  0.000229  0.749282  1
  W  W33  1  0.164556  0.498546  0.749934  1
  W  W34  1  0.334223  0.999044  0.251189  1
  W  W35  1  0.835701  0.503850  0.250900  1
