# generated using pymatgen
data_Tm3Ag3IrPb2
_symmetry_space_group_name_H-M   'P 1'
_cell_length_a   8.25553400
_cell_length_b   8.25553559
_cell_length_c   3.53588900
_cell_angle_alpha   90.00000000
_cell_angle_beta   90.00000000
_cell_angle_gamma   119.99999364
_symmetry_Int_Tables_number   1
_chemical_formula_structural   Tm3Ag3IrPb2
_chemical_formula_sum   'Tm3 Ag3 Ir1 Pb2'
_cell_volume   208.69868223
_cell_formula_units_Z   1
loop_
 _symmetry_equiv_pos_site_id
 _symmetry_equiv_pos_as_xyz
  1  'x, y, z'
loop_
 _atom_site_type_symbol
 _atom_site_label
 _atom_site_symmetry_multiplicity
 _atom_site_fract_x
 _atom_site_fract_y
 _atom_site_fract_z
 _atom_site_occupancy
  Tm  Tm0  1  0.581822  0.949249  0.500000  1
  Tm  Tm1  1  0.367426  0.418178  0.500000  1
  Tm  Tm2  1  0.050751  0.632574  0.500000  1
  Ag  Ag3  1  0.703849  0.704349  0.000000  1
  Ag  Ag4  1  0.000499  0.296151  0.000000  1
  Ag  Ag5  1  0.295651  0.999501  0.000000  1
  Ir  Ir6  1  0.333333  0.666667  0.000000  1
  Pb  Pb7  1  0.000000  0.000000  0.500000  1
  Pb  Pb8  1  0.666667  0.333333  0.000000  1
