# generated using pymatgen
data_HoEr11(BBr3)4
_symmetry_space_group_name_H-M   'P 1'
_cell_length_a   9.65198111
_cell_length_b   9.65180620
_cell_length_c   9.65157100
_cell_angle_alpha   109.46711119
_cell_angle_beta   109.47233773
_cell_angle_gamma   109.47317014
_symmetry_Int_Tables_number   1
_chemical_formula_structural   HoEr11(BBr3)4
_chemical_formula_sum   'Ho1 Er11 B4 Br12'
_cell_volume   692.16042399
_cell_formula_units_Z   1
loop_
 _symmetry_equiv_pos_site_id
 _symmetry_equiv_pos_as_xyz
  1  'x, y, z'
loop_
 _atom_site_type_symbol
 _atom_site_label
 _atom_site_symmetry_multiplicity
 _atom_site_fract_x
 _atom_site_fract_y
 _atom_site_fract_z
 _atom_site_occupancy
  Ho  Ho0  1  0.459025  0.479509  0.229513  1
  Er  Er1  1  0.749970  0.229082  0.270899  1
  Er  Er2  1  0.749968  0.020889  0.479071  1
  Er  Er3  1  0.229092  0.458228  0.479067  1
  Er  Er4  1  0.270878  0.750008  0.229100  1
  Er  Er5  1  0.041538  0.270773  0.020767  1
  Er  Er6  1  0.020761  0.041667  0.270890  1
  Er  Er7  1  0.479126  0.750086  0.020922  1
  Er  Er8  1  0.479134  0.229048  0.458211  1
  Er  Er9  1  0.020769  0.479093  0.749874  1
  Er  Er10  1  0.270883  0.020869  0.041774  1
  Er  Er11  1  0.229090  0.270865  0.750027  1
  B  B12  1  0.249699  0.249688  0.250016  1
  B  B13  1  0.499955  0.999977  0.249977  1
  B  B14  1  0.000033  0.250015  0.500016  1
  B  B15  1  0.249702  0.500012  0.999683  1
  Br  Br16  1  0.250006  0.758149  0.741836  1
  Br  Br17  1  0.516291  0.508139  0.758137  1
  Br  Br18  1  0.983648  0.741833  0.991834  1
  Br  Br19  1  0.741887  0.249968  0.758132  1
  Br  Br20  1  0.991829  0.983715  0.741825  1
  Br  Br21  1  0.250008  0.991851  0.508170  1
  Br  Br22  1  0.758347  0.516227  0.508353  1
  Br  Br23  1  0.508141  0.249661  0.991520  1
  Br  Br24  1  0.758352  0.742127  0.249992  1
  Br  Br25  1  0.741891  0.991913  0.983757  1
  Br  Br26  1  0.991837  0.508126  0.250014  1
  Br  Br27  1  0.508138  0.758483  0.516623  1
