# generated using pymatgen
data_Tb8Ta3Ti8Si16Hg
_symmetry_space_group_name_H-M   'P 1'
_cell_length_a   7.09397144
_cell_length_b   7.09397141
_cell_length_c   12.99111127
_cell_angle_alpha   90.14193053
_cell_angle_beta   89.85807163
_cell_angle_gamma   89.53283014
_symmetry_Int_Tables_number   1
_chemical_formula_structural   Tb8Ta3Ti8Si16Hg
_chemical_formula_sum   'Tb8 Ta3 Ti8 Si16 Hg1'
_cell_volume   653.74450102
_cell_formula_units_Z   1
loop_
 _symmetry_equiv_pos_site_id
 _symmetry_equiv_pos_as_xyz
  1  'x, y, z'
loop_
 _atom_site_type_symbol
 _atom_site_label
 _atom_site_symmetry_multiplicity
 _atom_site_fract_x
 _atom_site_fract_y
 _atom_site_fract_z
 _atom_site_occupancy
  Tb  Tb0  1  0.341674  0.001702  0.467320  1
  Tb  Tb1  1  0.497644  0.839297  0.716252  1
  Tb  Tb2  1  0.500928  0.157751  0.215596  1
  Tb  Tb3  1  0.839297  0.497644  0.283748  1
  Tb  Tb4  1  0.157751  0.500928  0.784404  1
  Tb  Tb5  1  0.657159  0.000736  0.968439  1
  Tb  Tb6  1  0.001702  0.341674  0.532680  1
  Tb  Tb7  1  0.000736  0.657159  0.031561  1
  Ta  Ta8  1  0.173326  0.826484  0.250810  1
  Ta  Ta9  1  0.826484  0.173326  0.749190  1
  Ta  Ta10  1  0.673614  0.673614  0.500000  1
  Ti  Ti11  1  0.147774  0.009329  0.876864  1
  Ti  Ti12  1  0.494546  0.650951  0.124563  1
  Ti  Ti13  1  0.509127  0.350359  0.624681  1
  Ti  Ti14  1  0.650951  0.494546  0.875437  1
  Ti  Ti15  1  0.350359  0.509127  0.375319  1
  Ti  Ti16  1  0.847094  0.989923  0.374607  1
  Ti  Ti17  1  0.009329  0.147774  0.123136  1
  Ti  Ti18  1  0.989923  0.847094  0.625393  1
  Si  Si19  1  0.200998  0.130641  0.684718  1
  Si  Si20  1  0.374689  0.723955  0.928108  1
  Si  Si21  1  0.630586  0.295596  0.434052  1
  Si  Si22  1  0.723955  0.374689  0.071892  1
  Si  Si23  1  0.295596  0.630586  0.565948  1
  Si  Si24  1  0.798860  0.868410  0.183905  1
  Si  Si25  1  0.130641  0.200998  0.315282  1
  Si  Si26  1  0.868410  0.798860  0.816095  1
  Si  Si27  1  0.286703  0.933538  0.066657  1
  Si  Si28  1  0.546434  0.791869  0.314132  1
  Si  Si29  1  0.457912  0.205874  0.805334  1
  Si  Si30  1  0.791869  0.546434  0.685868  1
  Si  Si31  1  0.205874  0.457912  0.194666  1
  Si  Si32  1  0.709117  0.047085  0.563597  1
  Si  Si33  1  0.933538  0.286703  0.933343  1
  Si  Si34  1  0.047085  0.709117  0.436403  1
  Hg  Hg35  1  0.328311  0.328311  0.000000  1
