# generated using pymatgen
data_TbY7(Sc3Pt4)4
_symmetry_space_group_name_H-M   'P 1'
_cell_length_a   7.30185621
_cell_length_b   7.29821713
_cell_length_c   14.14245840
_cell_angle_alpha   90.01483869
_cell_angle_beta   90.02292734
_cell_angle_gamma   89.98429327
_symmetry_Int_Tables_number   1
_chemical_formula_structural   TbY7(Sc3Pt4)4
_chemical_formula_sum   'Tb1 Y7 Sc12 Pt16'
_cell_volume   753.65901958
_cell_formula_units_Z   1
loop_
 _symmetry_equiv_pos_site_id
 _symmetry_equiv_pos_as_xyz
  1  'x, y, z'
loop_
 _atom_site_type_symbol
 _atom_site_label
 _atom_site_symmetry_multiplicity
 _atom_site_fract_x
 _atom_site_fract_y
 _atom_site_fract_z
 _atom_site_occupancy
  Tb  Tb0  1  0.003622  0.823342  0.406843  1
  Y  Y1  1  0.503648  0.676322  0.093062  1
  Y  Y2  1  0.496341  0.323620  0.593108  1
  Y  Y3  1  0.996264  0.176475  0.906934  1
  Y  Y4  1  0.996345  0.176433  0.593183  1
  Y  Y5  1  0.496176  0.323395  0.906924  1
  Y  Y6  1  0.503887  0.676422  0.406813  1
  Y  Y7  1  0.003482  0.823648  0.092999  1
  Sc  Sc8  1  0.678611  0.998071  0.249866  1
  Sc  Sc9  1  0.178848  0.502070  0.249955  1
  Sc  Sc10  1  0.821333  0.498010  0.749990  1
  Sc  Sc11  1  0.321228  0.002007  0.750072  1
  Sc  Sc12  1  0.654843  0.832889  0.624347  1
  Sc  Sc13  1  0.154950  0.667094  0.875758  1
  Sc  Sc14  1  0.844930  0.332998  0.375754  1
  Sc  Sc15  1  0.345037  0.167247  0.124138  1
  Sc  Sc16  1  0.345224  0.167334  0.375721  1
  Sc  Sc17  1  0.844936  0.332937  0.124225  1
  Sc  Sc18  1  0.155104  0.667013  0.624442  1
  Sc  Sc19  1  0.655009  0.832932  0.875769  1
  Pt  Pt20  1  0.813984  0.642544  0.250087  1
  Pt  Pt21  1  0.313836  0.857527  0.249963  1
  Pt  Pt22  1  0.686114  0.142406  0.749963  1
  Pt  Pt23  1  0.186148  0.357566  0.749968  1
  Pt  Pt24  1  0.543085  0.377039  0.250020  1
  Pt  Pt25  1  0.043137  0.122794  0.250035  1
  Pt  Pt26  1  0.956852  0.877204  0.749972  1
  Pt  Pt27  1  0.456815  0.622804  0.749987  1
  Pt  Pt28  1  0.821226  0.542598  0.541478  1
  Pt  Pt29  1  0.321173  0.957364  0.958452  1
  Pt  Pt30  1  0.679014  0.042536  0.458419  1
  Pt  Pt31  1  0.178919  0.457397  0.041591  1
  Pt  Pt32  1  0.178714  0.457381  0.458462  1
  Pt  Pt33  1  0.678956  0.042555  0.041626  1
  Pt  Pt34  1  0.320992  0.957422  0.541610  1
  Pt  Pt35  1  0.821216  0.542602  0.958466  1
