# generated using pymatgen
data_Zr6Al13Mo3Os7
_symmetry_space_group_name_H-M   'P 1'
_cell_length_a   8.79884800
_cell_length_b   8.79884898
_cell_length_c   8.79884843
_cell_angle_alpha   59.81143165
_cell_angle_beta   59.81142569
_cell_angle_gamma   59.81142549
_symmetry_Int_Tables_number   1
_chemical_formula_structural   Zr6Al13Mo3Os7
_chemical_formula_sum   'Zr6 Al13 Mo3 Os7'
_cell_volume   479.62250374
_cell_formula_units_Z   1
loop_
 _symmetry_equiv_pos_site_id
 _symmetry_equiv_pos_as_xyz
  1  'x, y, z'
loop_
 _atom_site_type_symbol
 _atom_site_label
 _atom_site_symmetry_multiplicity
 _atom_site_fract_x
 _atom_site_fract_y
 _atom_site_fract_z
 _atom_site_occupancy
  Zr  Zr0  1  0.701455  0.701455  0.292498  1
  Zr  Zr1  1  0.298700  0.701791  0.298700  1
  Zr  Zr2  1  0.701791  0.298700  0.298700  1
  Zr  Zr3  1  0.298700  0.298700  0.701791  1
  Zr  Zr4  1  0.701455  0.292498  0.701455  1
  Zr  Zr5  1  0.292498  0.701455  0.701455  1
  Al  Al6  1  0.880436  0.880436  0.880436  1
  Al  Al7  1  0.119257  0.119257  0.638582  1
  Al  Al8  1  0.119257  0.638582  0.119257  1
  Al  Al9  1  0.638582  0.119257  0.119257  1
  Al  Al10  1  0.123009  0.123009  0.123009  1
  Al  Al11  1  0.665637  0.665637  0.007830  1
  Al  Al12  1  0.665637  0.007830  0.665637  1
  Al  Al13  1  0.007830  0.665637  0.665637  1
  Al  Al14  1  0.658653  0.658653  0.658653  1
  Al  Al15  1  0.337416  0.337416  0.992398  1
  Al  Al16  1  0.337416  0.992398  0.337416  1
  Al  Al17  1  0.992398  0.337416  0.337416  1
  Al  Al18  1  0.334746  0.334746  0.334746  1
  Mo  Mo19  1  0.877695  0.877695  0.361817  1
  Mo  Mo20  1  0.877695  0.361817  0.877695  1
  Mo  Mo21  1  0.361817  0.877695  0.877695  1
  Os  Os22  1  0.004784  0.004784  0.004784  1
  Os  Os23  1  0.999461  0.999461  0.498017  1
  Os  Os24  1  0.503386  0.999425  0.503386  1
  Os  Os25  1  0.999425  0.503386  0.503386  1
  Os  Os26  1  0.503386  0.503386  0.999425  1
  Os  Os27  1  0.999461  0.498017  0.999461  1
  Os  Os28  1  0.498017  0.999461  0.999461  1
