# generated using pymatgen
data_Tb2ThBC3
_symmetry_space_group_name_H-M   'P 1'
_cell_length_a   3.74472724
_cell_length_b   3.74472708
_cell_length_c   16.12949400
_cell_angle_alpha   90.00000000
_cell_angle_beta   90.00000000
_cell_angle_gamma   90.46625559
_symmetry_Int_Tables_number   1
_chemical_formula_structural   Tb2ThBC3
_chemical_formula_sum   'Tb4 Th2 B2 C6'
_cell_volume   226.17610714
_cell_formula_units_Z   2
loop_
 _symmetry_equiv_pos_site_id
 _symmetry_equiv_pos_as_xyz
  1  'x, y, z'
loop_
 _atom_site_type_symbol
 _atom_site_label
 _atom_site_symmetry_multiplicity
 _atom_site_fract_x
 _atom_site_fract_y
 _atom_site_fract_z
 _atom_site_occupancy
  Tb  Tb0  1  0.586919  0.413079  0.099249  1
  Tb  Tb1  1  0.586919  0.413079  0.400751  1
  Tb  Tb2  1  0.413079  0.586919  0.599249  1
  Tb  Tb3  1  0.413079  0.586919  0.900751  1
  Th  Th4  1  0.091922  0.908076  0.250000  1
  Th  Th5  1  0.908076  0.091922  0.750000  1
  B  B6  1  0.000000  0.000000  0.000000  1
  B  B7  1  0.000000  0.000000  0.500000  1
  C  C8  1  0.081437  0.918562  0.087419  1
  C  C9  1  0.597750  0.402248  0.250000  1
  C  C10  1  0.081437  0.918562  0.412581  1
  C  C11  1  0.918562  0.081437  0.587419  1
  C  C12  1  0.402248  0.597750  0.750000  1
  C  C13  1  0.918562  0.081437  0.912580  1
