# generated using pymatgen
data_Ca4Ru7RhO24
_symmetry_space_group_name_H-M   'P 1'
_cell_length_a   5.34373290
_cell_length_b   7.37357133
_cell_length_c   10.96163017
_cell_angle_alpha   89.91804108
_cell_angle_beta   89.88690343
_cell_angle_gamma   90.03929237
_symmetry_Int_Tables_number   1
_chemical_formula_structural   Ca4Ru7RhO24
_chemical_formula_sum   'Ca4 Ru7 Rh1 O24'
_cell_volume   431.91310379
_cell_formula_units_Z   1
loop_
 _symmetry_equiv_pos_site_id
 _symmetry_equiv_pos_as_xyz
  1  'x, y, z'
loop_
 _atom_site_type_symbol
 _atom_site_label
 _atom_site_symmetry_multiplicity
 _atom_site_fract_x
 _atom_site_fract_y
 _atom_site_fract_z
 _atom_site_occupancy
  Ca  Ca0  1  0.456105  0.748470  0.044798  1
  Ca  Ca1  1  0.955342  0.251137  0.455820  1
  Ca  Ca2  1  0.544370  0.251899  0.956419  1
  Ca  Ca3  1  0.041948  0.747049  0.544352  1
  Ru  Ru4  1  0.059743  0.500195  0.856747  1
  Ru  Ru5  1  0.440193  0.998622  0.359576  1
  Ru  Ru6  1  0.941846  0.999100  0.140089  1
  Ru  Ru7  1  0.059115  0.999128  0.859629  1
  Ru  Ru8  1  0.558800  0.000923  0.639897  1
  Ru  Ru9  1  0.941891  0.497761  0.139269  1
  Ru  Ru10  1  0.441333  0.499617  0.360406  1
  Rh  Rh11  1  0.555671  0.500212  0.637856  1
  O  O12  1  0.679932  0.245726  0.625924  1
  O  O13  1  0.178352  0.749792  0.874865  1
  O  O14  1  0.324491  0.750328  0.374181  1
  O  O15  1  0.824448  0.249205  0.126285  1
  O  O16  1  0.434854  0.755575  0.646438  1
  O  O17  1  0.939013  0.250282  0.854514  1
  O  O18  1  0.558635  0.249777  0.355098  1
  O  O19  1  0.059548  0.750786  0.145603  1
  O  O20  1  0.136482  0.438610  0.280149  1
  O  O21  1  0.633505  0.562544  0.217702  1
  O  O22  1  0.862673  0.936971  0.720731  1
  O  O23  1  0.363094  0.063341  0.780666  1
  O  O24  1  0.775888  0.957842  0.977874  1
  O  O25  1  0.276388  0.043917  0.521821  1
  O  O26  1  0.224829  0.459354  0.022760  1
  O  O27  1  0.727170  0.541891  0.474380  1
  O  O28  1  0.223803  0.042887  0.021609  1
  O  O29  1  0.723546  0.956314  0.477983  1
  O  O30  1  0.779509  0.543242  0.978199  1
  O  O31  1  0.268495  0.458915  0.520765  1
  O  O32  1  0.635270  0.936759  0.218904  1
  O  O33  1  0.133852  0.065103  0.281423  1
  O  O34  1  0.366916  0.428719  0.787617  1
  O  O35  1  0.872950  0.568003  0.719650  1
