# generated using pymatgen
data_Ba3LiRhO6
_symmetry_space_group_name_H-M   'P 1'
_cell_length_a   7.06926696
_cell_length_b   7.06926664
_cell_length_c   7.06926563
_cell_angle_alpha   93.17930155
_cell_angle_beta   93.17929657
_cell_angle_gamma   93.17930046
_symmetry_Int_Tables_number   1
_chemical_formula_structural   Ba3LiRhO6
_chemical_formula_sum   'Ba6 Li2 Rh2 O12'
_cell_volume   351.58892442
_cell_formula_units_Z   2
loop_
 _symmetry_equiv_pos_site_id
 _symmetry_equiv_pos_as_xyz
  1  'x, y, z'
loop_
 _atom_site_type_symbol
 _atom_site_label
 _atom_site_symmetry_multiplicity
 _atom_site_fract_x
 _atom_site_fract_y
 _atom_site_fract_z
 _atom_site_occupancy
  Ba  Ba0  1  0.391190  0.108810  0.750000  1
  Ba  Ba1  1  0.108810  0.750000  0.391190  1
  Ba  Ba2  1  0.250000  0.608810  0.891190  1
  Ba  Ba3  1  0.891190  0.250000  0.608810  1
  Ba  Ba4  1  0.608810  0.891190  0.250000  1
  Ba  Ba5  1  0.750000  0.391190  0.108810  1
  Li  Li6  1  0.750000  0.750000  0.750000  1
  Li  Li7  1  0.250000  0.250000  0.250000  1
  Rh  Rh8  1  0.500000  0.500000  0.500000  1
  Rh  Rh9  1  0.000000  0.000000  0.000000  1
  O  O10  1  0.270709  0.958137  0.086721  1
  O  O11  1  0.413279  0.541863  0.229291  1
  O  O12  1  0.229291  0.413279  0.541863  1
  O  O13  1  0.541863  0.229291  0.413279  1
  O  O14  1  0.086721  0.270709  0.958137  1
  O  O15  1  0.958137  0.086721  0.270709  1
  O  O16  1  0.913279  0.729291  0.041863  1
  O  O17  1  0.041863  0.913279  0.729291  1
  O  O18  1  0.458137  0.770709  0.586721  1
  O  O19  1  0.770709  0.586721  0.458137  1
  O  O20  1  0.586721  0.458137  0.770709  1
  O  O21  1  0.729291  0.041863  0.913279  1
