# generated using pymatgen
data_Ba3InSb2As
_symmetry_space_group_name_H-M   'P 1'
_cell_length_a   14.75165100
_cell_length_b   4.93188500
_cell_length_c   14.85494500
_cell_angle_alpha   90.00000000
_cell_angle_beta   90.00000000
_cell_angle_gamma   90.00000000
_symmetry_Int_Tables_number   1
_chemical_formula_structural   Ba3InSb2As
_chemical_formula_sum   'Ba12 In4 Sb8 As4'
_cell_volume   1080.74844323
_cell_formula_units_Z   4
loop_
 _symmetry_equiv_pos_site_id
 _symmetry_equiv_pos_as_xyz
  1  'x, y, z'
loop_
 _atom_site_type_symbol
 _atom_site_label
 _atom_site_symmetry_multiplicity
 _atom_site_fract_x
 _atom_site_fract_y
 _atom_site_fract_z
 _atom_site_occupancy
  Ba  Ba0  1  0.364612  0.250001  0.002410  1
  Ba  Ba1  1  0.135387  0.749999  0.502411  1
  Ba  Ba2  1  0.864613  0.250001  0.497589  1
  Ba  Ba3  1  0.635387  0.749999  0.997589  1
  Ba  Ba4  1  0.573319  0.250001  0.394577  1
  Ba  Ba5  1  0.926681  0.749999  0.894577  1
  Ba  Ba6  1  0.073319  0.250001  0.105422  1
  Ba  Ba7  1  0.426682  0.749999  0.605422  1
  Ba  Ba8  1  0.288560  0.250001  0.305946  1
  Ba  Ba9  1  0.211440  0.749999  0.805945  1
  Ba  Ba10  1  0.788560  0.250001  0.194055  1
  Ba  Ba11  1  0.711440  0.749999  0.694054  1
  In  In12  1  0.557018  0.250001  0.794124  1
  In  In13  1  0.942982  0.749999  0.294124  1
  In  In14  1  0.057018  0.250001  0.705876  1
  In  In15  1  0.442982  0.749999  0.205876  1
  Sb  Sb16  1  0.454325  0.749999  0.848183  1
  Sb  Sb17  1  0.045676  0.250001  0.348183  1
  Sb  Sb18  1  0.545675  0.250001  0.151817  1
  Sb  Sb19  1  0.954324  0.749999  0.651818  1
  Sb  Sb20  1  0.742223  0.250001  0.871519  1
  Sb  Sb21  1  0.757777  0.749999  0.371519  1
  Sb  Sb22  1  0.242224  0.250001  0.628481  1
  Sb  Sb23  1  0.257777  0.749999  0.128481  1
  As  As24  1  0.584577  0.250001  0.614367  1
  As  As25  1  0.915422  0.749999  0.114367  1
  As  As26  1  0.084578  0.250001  0.885634  1
  As  As27  1  0.415423  0.749999  0.385634  1
