# generated using pymatgen
data_NaEuTi2O6
_symmetry_space_group_name_H-M   'P 1'
_cell_length_a   5.44260100
_cell_length_b   5.45807900
_cell_length_c   7.69662500
_cell_angle_alpha   90.00000000
_cell_angle_beta   90.00000000
_cell_angle_gamma   90.00000000
_symmetry_Int_Tables_number   1
_chemical_formula_structural   NaEuTi2O6
_chemical_formula_sum   'Na2 Eu2 Ti4 O12'
_cell_volume   228.63706768
_cell_formula_units_Z   2
loop_
 _symmetry_equiv_pos_site_id
 _symmetry_equiv_pos_as_xyz
  1  'x, y, z'
loop_
 _atom_site_type_symbol
 _atom_site_label
 _atom_site_symmetry_multiplicity
 _atom_site_fract_x
 _atom_site_fract_y
 _atom_site_fract_z
 _atom_site_occupancy
  Na  Na0  1  0.000451  0.011850  0.250000  1
  Na  Na1  1  0.499550  0.511850  0.250000  1
  Eu  Eu2  1  0.497757  0.462904  0.750000  1
  Eu  Eu3  1  0.002244  0.962902  0.750000  1
  Ti  Ti4  1  0.504727  0.987370  0.010230  1
  Ti  Ti5  1  0.995273  0.487370  0.010230  1
  Ti  Ti6  1  0.504727  0.987370  0.489770  1
  Ti  Ti7  1  0.995273  0.487370  0.489770  1
  O  O8  1  0.706745  0.299153  0.021484  1
  O  O9  1  0.793253  0.799153  0.021484  1
  O  O10  1  0.064693  0.487953  0.250000  1
  O  O11  1  0.435309  0.987955  0.250000  1
  O  O12  1  0.706745  0.299153  0.478516  1
  O  O13  1  0.793253  0.799153  0.478516  1
  O  O14  1  0.215387  0.222376  0.546740  1
  O  O15  1  0.284611  0.722376  0.546740  1
  O  O16  1  0.571074  0.019496  0.750000  1
  O  O17  1  0.928926  0.519496  0.750000  1
  O  O18  1  0.215387  0.222376  0.953260  1
  O  O19  1  0.284611  0.722376  0.953260  1
