# generated using pymatgen
data_Er15Lu5(IrRh5)2
_symmetry_space_group_name_H-M   'P 1'
_cell_length_a   10.78456703
_cell_length_b   10.78562706
_cell_length_c   6.30766400
_cell_angle_alpha   90.00582221
_cell_angle_beta   90.00434052
_cell_angle_gamma   89.99793841
_symmetry_Int_Tables_number   1
_chemical_formula_structural   Er15Lu5(IrRh5)2
_chemical_formula_sum   'Er15 Lu5 Ir2 Rh10'
_cell_volume   733.69686080
_cell_formula_units_Z   1
loop_
 _symmetry_equiv_pos_site_id
 _symmetry_equiv_pos_as_xyz
  1  'x, y, z'
loop_
 _atom_site_type_symbol
 _atom_site_label
 _atom_site_symmetry_multiplicity
 _atom_site_fract_x
 _atom_site_fract_y
 _atom_site_fract_z
 _atom_site_occupancy
  Er  Er0  1  0.290255  0.089834  0.377951  1
  Er  Er1  1  0.290545  0.910536  0.878126  1
  Er  Er2  1  0.709190  0.087979  0.877409  1
  Er  Er3  1  0.709112  0.912087  0.377341  1
  Er  Er4  1  0.586249  0.789918  0.877825  1
  Er  Er5  1  0.586265  0.210108  0.377896  1
  Er  Er6  1  0.411110  0.790338  0.378482  1
  Er  Er7  1  0.411085  0.209707  0.878552  1
  Er  Er8  1  0.210499  0.413113  0.621457  1
  Er  Er9  1  0.210520  0.586223  0.121379  1
  Er  Er10  1  0.791192  0.411328  0.122300  1
  Er  Er11  1  0.790967  0.588514  0.622203  1
  Er  Er12  1  0.912314  0.709453  0.122134  1
  Er  Er13  1  0.912555  0.290401  0.621981  1
  Er  Er14  1  0.089752  0.709057  0.622344  1
  Lu  Lu15  1  0.089757  0.291567  0.122074  1
  Lu  Lu16  1  0.999739  0.999644  0.500014  1
  Lu  Lu17  1  0.999862  0.000803  0.000199  1
  Lu  Lu18  1  0.499950  0.499505  0.000050  1
  Lu  Lu19  1  0.499916  0.500358  0.499920  1
  Ir  Ir20  1  0.346881  0.346725  0.249682  1
  Ir  Ir21  1  0.347774  0.653184  0.750204  1
  Rh  Rh22  1  0.846561  0.153308  0.249998  1
  Rh  Rh23  1  0.846155  0.846972  0.750306  1
  Rh  Rh24  1  0.152109  0.153245  0.750528  1
  Rh  Rh25  1  0.152221  0.847001  0.249576  1
  Rh  Rh26  1  0.654347  0.346681  0.749965  1
  Rh  Rh27  1  0.654327  0.653329  0.249898  1
  Rh  Rh28  1  0.500247  0.999905  0.123499  1
  Rh  Rh29  1  0.500321  0.000121  0.623516  1
  Rh  Rh30  1  0.999097  0.499331  0.877008  1
  Rh  Rh31  1  0.999124  0.499726  0.376185  1
