# generated using pymatgen
data_Pr4Al19Ga5Pt9
_symmetry_space_group_name_H-M   'P 1'
_cell_length_a   7.55759439
_cell_length_b   7.58009691
_cell_length_c   13.41872024
_cell_angle_alpha   84.84915550
_cell_angle_beta   100.61865394
_cell_angle_gamma   119.67102776
_symmetry_Int_Tables_number   1
_chemical_formula_structural   Pr4Al19Ga5Pt9
_chemical_formula_sum   'Pr4 Al19 Ga5 Pt9'
_cell_volume   656.48991300
_cell_formula_units_Z   1
loop_
 _symmetry_equiv_pos_site_id
 _symmetry_equiv_pos_as_xyz
  1  'x, y, z'
loop_
 _atom_site_type_symbol
 _atom_site_label
 _atom_site_symmetry_multiplicity
 _atom_site_fract_x
 _atom_site_fract_y
 _atom_site_fract_z
 _atom_site_occupancy
  Pr  Pr0  1  0.735963  0.999340  0.191216  1
  Pr  Pr1  1  0.264026  0.997690  0.808686  1
  Pr  Pr2  1  0.061412  0.669162  0.189484  1
  Pr  Pr3  1  0.942138  0.334212  0.810465  1
  Al  Al4  1  0.600595  0.335248  0.184732  1
  Al  Al5  1  0.878382  0.664892  0.663295  1
  Al  Al6  1  0.120595  0.335076  0.336512  1
  Al  Al7  1  0.601957  0.459423  0.814957  1
  Al  Al8  1  0.396297  0.538709  0.185501  1
  Al  Al9  1  0.229973  0.339971  0.663936  1
  Al  Al10  1  0.769411  0.659231  0.334699  1
  Al  Al11  1  0.853902  0.332807  0.557305  1
  Al  Al12  1  0.186353  0.999731  0.558168  1
  Al  Al13  1  0.813369  0.999973  0.441493  1
  Al  Al14  1  0.352296  0.002795  0.053773  1
  Al  Al15  1  0.648108  0.997617  0.946799  1
  Al  Al16  1  0.555145  0.995046  0.664227  1
  Al  Al17  1  0.445091  0.005772  0.334793  1
  Al  Al18  1  0.519337  0.667991  0.558470  1
  Al  Al19  1  0.480138  0.331889  0.440763  1
  Al  Al20  1  0.681427  0.665084  0.045426  1
  Al  Al21  1  0.318961  0.334704  0.957056  1
  Al  Al22  1  0.145612  0.667457  0.441726  1
  Ga  Ga23  1  0.799309  0.867509  0.813535  1
  Ga  Ga24  1  0.202553  0.135366  0.186609  1
  Ga  Ga25  1  0.977906  0.665636  0.941314  1
  Ga  Ga26  1  0.020666  0.334096  0.059105  1
  Ga  Ga27  1  0.402338  0.662778  0.815519  1
  Pt  Pt28  1  0.336154  0.674154  0.003273  1
  Pt  Pt29  1  0.546736  0.328733  0.634884  1
  Pt  Pt30  1  0.452833  0.671512  0.364923  1
  Pt  Pt31  1  0.884346  0.005762  0.633672  1
  Pt  Pt32  1  0.115102  0.994272  0.366221  1
  Pt  Pt33  1  0.663761  0.326838  0.999402  1
  Pt  Pt34  1  0.205381  0.666405  0.634220  1
  Pt  Pt35  1  0.793091  0.333490  0.363626  1
  Pt  Pt36  1  0.999335  0.999632  0.000215  1
