# generated using pymatgen
data_TbTh2In3Pt2Rh
_symmetry_space_group_name_H-M   'P 1'
_cell_length_a   7.76254400
_cell_length_b   7.72898929
_cell_length_c   3.99819700
_cell_angle_alpha   90.00000000
_cell_angle_beta   90.00000000
_cell_angle_gamma   120.14372548
_symmetry_Int_Tables_number   1
_chemical_formula_structural   TbTh2In3Pt2Rh
_chemical_formula_sum   'Tb1 Th2 In3 Pt2 Rh1'
_cell_volume   207.43918627
_cell_formula_units_Z   1
loop_
 _symmetry_equiv_pos_site_id
 _symmetry_equiv_pos_as_xyz
  1  'x, y, z'
loop_
 _atom_site_type_symbol
 _atom_site_label
 _atom_site_symmetry_multiplicity
 _atom_site_fract_x
 _atom_site_fract_y
 _atom_site_fract_z
 _atom_site_occupancy
  Tb  Tb0  1  0.591882  0.000000  0.500000  1
  Th  Th1  1  0.997231  0.590582  0.500000  1
  Th  Th2  1  0.406649  0.409418  0.500000  1
  In  In3  1  0.748199  0.760821  0.000000  1
  In  In4  1  0.987377  0.239179  0.000000  1
  In  In5  1  0.261883  0.000000  0.000000  1
  Pt  Pt6  1  0.325260  0.656654  0.000000  1
  Pt  Pt7  1  0.668607  0.343346  0.000000  1
  Rh  Rh8  1  0.012913  0.000000  0.500000  1
