# generated using pymatgen
data_Cs4Na2PrGaSb4
_symmetry_space_group_name_H-M   'P 1'
_cell_length_a   10.35499163
_cell_length_b   10.35499088
_cell_length_c   10.35498954
_cell_angle_alpha   136.83473617
_cell_angle_beta   61.62288189
_cell_angle_gamma   138.23554343
_symmetry_Int_Tables_number   1
_chemical_formula_structural   Cs4Na2PrGaSb4
_chemical_formula_sum   'Cs4 Na2 Pr1 Ga1 Sb4'
_cell_volume   500.13688682
_cell_formula_units_Z   1
loop_
 _symmetry_equiv_pos_site_id
 _symmetry_equiv_pos_as_xyz
  1  'x, y, z'
loop_
 _atom_site_type_symbol
 _atom_site_label
 _atom_site_symmetry_multiplicity
 _atom_site_fract_x
 _atom_site_fract_y
 _atom_site_fract_z
 _atom_site_occupancy
  Cs  Cs0  1  0.830486  0.234790  0.060033  1
  Cs  Cs1  1  0.669515  0.729549  0.404306  1
  Cs  Cs2  1  0.325244  0.265211  0.595694  1
  Cs  Cs3  1  0.174756  0.770451  0.939966  1
  Na  Na4  1  0.250000  0.250000  0.000000  1
  Na  Na5  1  0.750000  0.750000  0.000000  1
  Pr  Pr6  1  0.749999  0.250000  0.500000  1
  Ga  Ga7  1  0.250000  0.750000  0.500001  1
  Sb  Sb8  1  0.383057  0.756511  0.187608  1
  Sb  Sb9  1  0.116943  0.304551  0.373454  1
  Sb  Sb10  1  0.931098  0.743491  0.626547  1
  Sb  Sb11  1  0.568902  0.195449  0.812392  1
