# generated using pymatgen
data_Ho6Al24Ir5PdRu2
_symmetry_space_group_name_H-M   'P 1'
_cell_length_a   8.80380250
_cell_length_b   8.80380318
_cell_length_c   9.47506838
_cell_angle_alpha   89.87417407
_cell_angle_beta   90.12582903
_cell_angle_gamma   119.86587477
_symmetry_Int_Tables_number   1
_chemical_formula_structural   Ho6Al24Ir5PdRu2
_chemical_formula_sum   'Ho6 Al24 Ir5 Pd1 Ru2'
_cell_volume   636.85062788
_cell_formula_units_Z   1
loop_
 _symmetry_equiv_pos_site_id
 _symmetry_equiv_pos_as_xyz
  1  'x, y, z'
loop_
 _atom_site_type_symbol
 _atom_site_label
 _atom_site_symmetry_multiplicity
 _atom_site_fract_x
 _atom_site_fract_y
 _atom_site_fract_z
 _atom_site_occupancy
  Ho  Ho0  1  0.189530  0.382911  0.250370  1
  Ho  Ho1  1  0.810470  0.617089  0.749630  1
  Ho  Ho2  1  0.617089  0.810470  0.250370  1
  Ho  Ho3  1  0.382911  0.189530  0.749630  1
  Ho  Ho4  1  0.191842  0.808158  0.251981  1
  Ho  Ho5  1  0.808158  0.191842  0.748019  1
  Al  Al6  1  0.331819  0.668181  0.033829  1
  Al  Al7  1  0.668181  0.331819  0.966171  1
  Al  Al8  1  0.666487  0.333513  0.531280  1
  Al  Al9  1  0.333513  0.666487  0.468720  1
  Al  Al10  1  0.163486  0.326464  0.574712  1
  Al  Al11  1  0.836514  0.673536  0.425288  1
  Al  Al12  1  0.673536  0.836514  0.574712  1
  Al  Al13  1  0.841048  0.675341  0.077837  1
  Al  Al14  1  0.326464  0.163486  0.425288  1
  Al  Al15  1  0.158952  0.324659  0.922163  1
  Al  Al16  1  0.163338  0.836662  0.575453  1
  Al  Al17  1  0.324659  0.158952  0.077837  1
  Al  Al18  1  0.836662  0.163338  0.424547  1
  Al  Al19  1  0.675341  0.841048  0.922163  1
  Al  Al20  1  0.836276  0.163724  0.075409  1
  Al  Al21  1  0.163724  0.836276  0.924591  1
  Al  Al22  1  0.562394  0.125239  0.249923  1
  Al  Al23  1  0.437606  0.874761  0.750077  1
  Al  Al24  1  0.874761  0.437606  0.249923  1
  Al  Al25  1  0.125239  0.562394  0.750077  1
  Al  Al26  1  0.562499  0.437501  0.252166  1
  Al  Al27  1  0.437501  0.562499  0.747834  1
  Al  Al28  1  0.999572  0.000428  0.250277  1
  Al  Al29  1  0.000428  0.999572  0.749723  1
  Ir  Ir30  1  0.500000  0.000000  0.000000  1
  Ir  Ir31  1  0.000000  0.500000  0.000000  1
  Ir  Ir32  1  0.500000  0.000000  0.500000  1
  Ir  Ir33  1  0.000000  0.500000  0.500000  1
  Ir  Ir34  1  0.500000  0.500000  0.500000  1
  Pd  Pd35  1  0.500000  0.500000  0.000000  1
  Ru  Ru36  1  0.000000  0.000000  0.000000  1
  Ru  Ru37  1  0.000000  0.000000  0.500000  1
