# generated using pymatgen
data_EuTm7(B6Ru)4
_symmetry_space_group_name_H-M   'P 1'
_cell_length_a   3.63101000
_cell_length_b   9.09275864
_cell_length_c   11.47516881
_cell_angle_alpha   89.95700884
_cell_angle_beta   90.00000000
_cell_angle_gamma   90.00000000
_symmetry_Int_Tables_number   1
_chemical_formula_structural   EuTm7(B6Ru)4
_chemical_formula_sum   'Eu1 Tm7 B24 Ru4'
_cell_volume   378.86289106
_cell_formula_units_Z   1
loop_
 _symmetry_equiv_pos_site_id
 _symmetry_equiv_pos_as_xyz
  1  'x, y, z'
loop_
 _atom_site_type_symbol
 _atom_site_label
 _atom_site_symmetry_multiplicity
 _atom_site_fract_x
 _atom_site_fract_y
 _atom_site_fract_z
 _atom_site_occupancy
  Eu  Eu0  1  0.000000  0.322721  0.413840  1
  Tm  Tm1  1  0.000000  0.677694  0.585522  1
  Tm  Tm2  1  0.000000  0.821808  0.085511  1
  Tm  Tm3  1  0.000000  0.178515  0.914659  1
  Tm  Tm4  1  0.000000  0.943612  0.371535  1
  Tm  Tm5  1  0.000000  0.056559  0.628548  1
  Tm  Tm6  1  0.000000  0.443409  0.127971  1
  Tm  Tm7  1  0.000000  0.556599  0.873073  1
  B  B8  1  0.500000  0.555908  0.432943  1
  B  B9  1  0.500000  0.447036  0.568871  1
  B  B10  1  0.500000  0.052824  0.065478  1
  B  B11  1  0.500000  0.945803  0.932983  1
  B  B12  1  0.500000  0.749660  0.419649  1
  B  B13  1  0.500000  0.251100  0.582848  1
  B  B14  1  0.500000  0.248151  0.079258  1
  B  B15  1  0.500000  0.751277  0.919969  1
  B  B16  1  0.500000  0.792218  0.264994  1
  B  B17  1  0.500000  0.208616  0.735868  1
  B  B18  1  0.500000  0.289649  0.232039  1
  B  B19  1  0.500000  0.708645  0.766179  1
  B  B20  1  0.500000  0.632170  0.184176  1
  B  B21  1  0.500000  0.368823  0.816561  1
  B  B22  1  0.500000  0.129409  0.313516  1
  B  B23  1  0.500000  0.868488  0.684692  1
  B  B24  1  0.500000  0.981677  0.211294  1
  B  B25  1  0.500000  0.017106  0.787587  1
  B  B26  1  0.500000  0.484899  0.286181  1
  B  B27  1  0.500000  0.517803  0.713796  1
  B  B28  1  0.500000  0.607668  0.029566  1
  B  B29  1  0.500000  0.392839  0.970775  1
  B  B30  1  0.500000  0.101947  0.471919  1
  B  B31  1  0.500000  0.894539  0.529111  1
  Ru  Ru32  1  0.000000  0.641018  0.319495  1
  Ru  Ru33  1  0.000000  0.362011  0.682026  1
  Ru  Ru34  1  0.000000  0.135680  0.176593  1
  Ru  Ru35  1  0.000000  0.862121  0.820978  1
