# generated using pymatgen
data_Ac12C6I17
_symmetry_space_group_name_H-M   'P 1'
_cell_length_a   12.39258611
_cell_length_b   12.39258698
_cell_length_c   20.18624000
_cell_angle_alpha   89.30446304
_cell_angle_beta   89.30446299
_cell_angle_gamma   64.09249518
_symmetry_Int_Tables_number   1
_chemical_formula_structural   Ac12C6I17
_chemical_formula_sum   'Ac24 C12 I34'
_cell_volume   2788.27913004
_cell_formula_units_Z   2
loop_
 _symmetry_equiv_pos_site_id
 _symmetry_equiv_pos_as_xyz
  1  'x, y, z'
loop_
 _atom_site_type_symbol
 _atom_site_label
 _atom_site_symmetry_multiplicity
 _atom_site_fract_x
 _atom_site_fract_y
 _atom_site_fract_z
 _atom_site_occupancy
  Ac  Ac0  1  0.340421  0.809975  0.290004  1
  Ac  Ac1  1  0.355272  0.358049  0.050629  1
  Ac  Ac2  1  0.358049  0.355272  0.550629  1
  Ac  Ac3  1  0.465431  0.449994  0.369131  1
  Ac  Ac4  1  0.571354  0.096869  0.883234  1
  Ac  Ac5  1  0.550006  0.534569  0.130869  1
  Ac  Ac6  1  0.706785  0.284169  0.979991  1
  Ac  Ac7  1  0.534569  0.550006  0.630869  1
  Ac  Ac8  1  0.659579  0.190025  0.709996  1
  Ac  Ac9  1  0.644728  0.641951  0.949371  1
  Ac  Ac10  1  0.072580  0.023636  0.152614  1
  Ac  Ac11  1  0.293215  0.715831  0.020009  1
  Ac  Ac12  1  0.903131  0.428646  0.616766  1
  Ac  Ac13  1  0.023636  0.072580  0.652614  1
  Ac  Ac14  1  0.428646  0.903131  0.116766  1
  Ac  Ac15  1  0.449994  0.465431  0.869131  1
  Ac  Ac16  1  0.641951  0.644728  0.449371  1
  Ac  Ac17  1  0.096869  0.571354  0.383234  1
  Ac  Ac18  1  0.927420  0.976364  0.847386  1
  Ac  Ac19  1  0.284169  0.706785  0.479991  1
  Ac  Ac20  1  0.809975  0.340421  0.790004  1
  Ac  Ac21  1  0.976364  0.927420  0.347386  1
  Ac  Ac22  1  0.715831  0.293215  0.520009  1
  Ac  Ac23  1  0.190025  0.659579  0.209996  1
  C  C24  1  0.274946  0.634813  0.349251  1
  C  C25  1  0.725054  0.365187  0.650749  1
  C  C26  1  0.365187  0.725054  0.150749  1
  C  C27  1  0.531704  0.531575  0.988727  1
  C  C28  1  0.741841  0.167319  0.846837  1
  C  C29  1  0.468296  0.468425  0.011273  1
  C  C30  1  0.258159  0.832681  0.153163  1
  C  C31  1  0.468425  0.468296  0.511273  1
  C  C32  1  0.832681  0.258159  0.653163  1
  C  C33  1  0.167319  0.741841  0.346837  1
  C  C34  1  0.634813  0.274946  0.849251  1
  C  C35  1  0.531575  0.531704  0.488727  1
  I  I36  1  0.310246  0.287676  0.398872  1
  I  I37  1  0.604512  0.100545  0.558610  1
  I  I38  1  0.500203  0.968749  0.257087  1
  I  I39  1  0.904870  0.885221  0.195774  1
  I  I40  1  0.712324  0.689754  0.101128  1
  I  I41  1  0.279936  0.808033  0.639063  1
  I  I42  1  0.114779  0.095130  0.304226  1
  I  I43  1  0.210338  0.183622  0.100554  1
  I  I44  1  0.899455  0.395488  0.941390  1
  I  I45  1  0.091533  0.600349  0.550739  1
  I  I46  1  0.600349  0.091533  0.050739  1
  I  I47  1  0.789662  0.816378  0.899446  1
  I  I48  1  0.628006  0.576824  0.291317  1
  I  I49  1  0.885221  0.904870  0.695774  1
  I  I50  1  0.031251  0.499797  0.242913  1
  I  I51  1  0.183622  0.210338  0.600554  1
  I  I52  1  0.720064  0.191967  0.360937  1
  I  I53  1  0.095130  0.114779  0.804226  1
  I  I54  1  0.576824  0.628006  0.791317  1
  I  I55  1  0.000000  0.000000  0.000000  1
  I  I56  1  0.395488  0.899455  0.441390  1
  I  I57  1  0.423176  0.371994  0.208683  1
  I  I58  1  0.287676  0.310246  0.898872  1
  I  I59  1  0.371994  0.423176  0.708683  1
  I  I60  1  0.816378  0.789662  0.399446  1
  I  I61  1  0.499797  0.031251  0.742913  1
  I  I62  1  0.689754  0.712324  0.601128  1
  I  I63  1  0.191967  0.720064  0.860937  1
  I  I64  1  0.399651  0.908467  0.949261  1
  I  I65  1  0.908467  0.399651  0.449261  1
  I  I66  1  0.100545  0.604512  0.058610  1
  I  I67  1  0.968749  0.500203  0.757087  1
  I  I68  1  0.808033  0.279936  0.139063  1
  I  I69  1  0.000000  0.000000  0.500000  1
