# generated using pymatgen
data_Dy3Lu2Bi3C
_symmetry_space_group_name_H-M   'P 1'
_cell_length_a   9.12210012
_cell_length_b   9.12209848
_cell_length_c   6.42805900
_cell_angle_alpha   90.00000000
_cell_angle_beta   90.00000000
_cell_angle_gamma   119.86728548
_symmetry_Int_Tables_number   1
_chemical_formula_structural   Dy3Lu2Bi3C
_chemical_formula_sum   'Dy6 Lu4 Bi6 C2'
_cell_volume   463.85187367
_cell_formula_units_Z   2
loop_
 _symmetry_equiv_pos_site_id
 _symmetry_equiv_pos_as_xyz
  1  'x, y, z'
loop_
 _atom_site_type_symbol
 _atom_site_label
 _atom_site_symmetry_multiplicity
 _atom_site_fract_x
 _atom_site_fract_y
 _atom_site_fract_z
 _atom_site_occupancy
  Dy  Dy0  1  0.667000  0.333560  0.001248  1
  Dy  Dy1  1  0.333560  0.667000  0.001248  1
  Dy  Dy2  1  0.333560  0.667000  0.498752  1
  Dy  Dy3  1  0.667000  0.333560  0.498752  1
  Dy  Dy4  1  0.789160  0.999604  0.250000  1
  Dy  Dy5  1  0.999604  0.789160  0.250000  1
  Lu  Lu6  1  0.800434  0.800434  0.750000  1
  Lu  Lu7  1  0.202627  0.001395  0.750000  1
  Lu  Lu8  1  0.001395  0.202627  0.750000  1
  Lu  Lu9  1  0.199615  0.199615  0.250000  1
  Bi  Bi10  1  0.399043  0.399043  0.750000  1
  Bi  Bi11  1  0.602456  0.999863  0.750000  1
  Bi  Bi12  1  0.999863  0.602456  0.750000  1
  Bi  Bi13  1  0.599672  0.599672  0.250000  1
  Bi  Bi14  1  0.398858  0.001919  0.250000  1
  Bi  Bi15  1  0.001919  0.398858  0.250000  1
  C  C16  1  0.002118  0.002118  0.996529  1
  C  C17  1  0.002118  0.002118  0.503471  1
