# generated using pymatgen
data_Y2MnPdF14
_symmetry_space_group_name_H-M   'P 1'
_cell_length_a   5.49043108
_cell_length_b   8.80035117
_cell_length_c   11.85116553
_cell_angle_alpha   62.47022523
_cell_angle_beta   90.18966104
_cell_angle_gamma   90.12273139
_symmetry_Int_Tables_number   1
_chemical_formula_structural   Y2MnPdF14
_chemical_formula_sum   'Y4 Mn2 Pd2 F28'
_cell_volume   507.78093625
_cell_formula_units_Z   2
loop_
 _symmetry_equiv_pos_site_id
 _symmetry_equiv_pos_as_xyz
  1  'x, y, z'
loop_
 _atom_site_type_symbol
 _atom_site_label
 _atom_site_symmetry_multiplicity
 _atom_site_fract_x
 _atom_site_fract_y
 _atom_site_fract_z
 _atom_site_occupancy
  Y  Y0  1  0.260966  0.814821  0.260827  1
  Y  Y1  1  0.739034  0.185179  0.739173  1
  Y  Y2  1  0.763321  0.190960  0.232243  1
  Y  Y3  1  0.236679  0.809040  0.767757  1
  Mn  Mn4  1  0.757829  0.726017  0.043172  1
  Mn  Mn5  1  0.242171  0.273983  0.956828  1
  Pd  Pd6  1  0.260343  0.273026  0.456590  1
  Pd  Pd7  1  0.739657  0.726974  0.543410  1
  F  F8  1  0.926611  0.701498  0.414202  1
  F  F9  1  0.073389  0.298502  0.585798  1
  F  F10  1  0.438115  0.293190  0.075217  1
  F  F11  1  0.561885  0.706810  0.924783  1
  F  F12  1  0.486565  0.731989  0.131986  1
  F  F13  1  0.513435  0.268011  0.868014  1
  F  F14  1  0.962785  0.279267  0.364610  1
  F  F15  1  0.037215  0.720733  0.635390  1
  F  F16  1  0.951975  0.743079  0.165316  1
  F  F17  1  0.048025  0.256921  0.834684  1
  F  F18  1  0.441997  0.256735  0.320967  1
  F  F19  1  0.558003  0.743265  0.679033  1
  F  F20  1  0.767437  0.490338  0.136159  1
  F  F21  1  0.232563  0.509662  0.863841  1
  F  F22  1  0.278324  0.521903  0.356506  1
  F  F23  1  0.721676  0.478097  0.643494  1
  F  F24  1  0.963037  0.283896  0.040929  1
  F  F25  1  0.036963  0.716104  0.959071  1
  F  F26  1  0.435640  0.722730  0.459526  1
  F  F27  1  0.564360  0.277270  0.540474  1
  F  F28  1  0.744741  0.975046  0.451319  1
  F  F29  1  0.255259  0.024954  0.548681  1
  F  F30  1  0.239909  0.039271  0.046985  1
  F  F31  1  0.760091  0.960729  0.953015  1
  F  F32  1  0.592140  0.969726  0.229326  1
  F  F33  1  0.407860  0.030274  0.770674  1
  F  F34  1  0.089773  0.031094  0.270110  1
  F  F35  1  0.910227  0.968906  0.729890  1
