# generated using pymatgen
data_Tm12Co2Ni3Sb
_symmetry_space_group_name_H-M   'P 1'
_cell_length_a   8.17570703
_cell_length_b   8.17570541
_cell_length_c   8.17570551
_cell_angle_alpha   109.37561219
_cell_angle_beta   111.29018078
_cell_angle_gamma   107.76712023
_symmetry_Int_Tables_number   1
_chemical_formula_structural   Tm12Co2Ni3Sb
_chemical_formula_sum   'Tm12 Co2 Ni3 Sb1'
_cell_volume   420.28272470
_cell_formula_units_Z   1
loop_
 _symmetry_equiv_pos_site_id
 _symmetry_equiv_pos_as_xyz
  1  'x, y, z'
loop_
 _atom_site_type_symbol
 _atom_site_label
 _atom_site_symmetry_multiplicity
 _atom_site_fract_x
 _atom_site_fract_y
 _atom_site_fract_z
 _atom_site_occupancy
  Tm  Tm0  1  0.288750  0.181058  0.469809  1
  Tm  Tm1  1  0.711250  0.818942  0.530191  1
  Tm  Tm2  1  0.288750  0.818942  0.107691  1
  Tm  Tm3  1  0.711250  0.181058  0.892309  1
  Tm  Tm4  1  0.625376  0.317291  0.308083  1
  Tm  Tm5  1  0.374624  0.682709  0.691917  1
  Tm  Tm6  1  0.009208  0.317291  0.691917  1
  Tm  Tm7  1  0.990792  0.682709  0.308083  1
  Tm  Tm8  1  0.213579  0.407484  0.193906  1
  Tm  Tm9  1  0.786421  0.592516  0.806094  1
  Tm  Tm10  1  0.213579  0.019673  0.806094  1
  Tm  Tm11  1  0.786421  0.980327  0.193906  1
  Co  Co12  1  0.384487  0.884487  0.500000  1
  Co  Co13  1  0.615513  0.115513  0.500000  1
  Ni  Ni14  1  0.000000  0.364037  0.364037  1
  Ni  Ni15  1  0.000000  0.635963  0.635963  1
  Ni  Ni16  1  0.000000  0.000000  0.000000  1
  Sb  Sb17  1  0.500000  0.500000  0.000000  1
