# generated using pymatgen
data_Dy4Al2Zn2Pt3Rh
_symmetry_space_group_name_H-M   'P 1'
_cell_length_a   4.29697100
_cell_length_b   6.89899066
_cell_length_c   7.95742791
_cell_angle_alpha   90.23591131
_cell_angle_beta   90.00000000
_cell_angle_gamma   90.00000000
_symmetry_Int_Tables_number   1
_chemical_formula_structural   Dy4Al2Zn2Pt3Rh
_chemical_formula_sum   'Dy4 Al2 Zn2 Pt3 Rh1'
_cell_volume   235.89406327
_cell_formula_units_Z   1
loop_
 _symmetry_equiv_pos_site_id
 _symmetry_equiv_pos_as_xyz
  1  'x, y, z'
loop_
 _atom_site_type_symbol
 _atom_site_label
 _atom_site_symmetry_multiplicity
 _atom_site_fract_x
 _atom_site_fract_y
 _atom_site_fract_z
 _atom_site_occupancy
  Dy  Dy0  1  0.250000  0.468723  0.181057  1
  Dy  Dy1  1  0.750000  0.532138  0.817325  1
  Dy  Dy2  1  0.750000  0.025801  0.688943  1
  Dy  Dy3  1  0.250000  0.969380  0.314471  1
  Al  Al4  1  0.750000  0.643184  0.439253  1
  Al  Al5  1  0.250000  0.361398  0.562484  1
  Zn  Zn6  1  0.250000  0.851634  0.931967  1
  Zn  Zn7  1  0.750000  0.147149  0.067056  1
  Pt  Pt8  1  0.750000  0.268737  0.392115  1
  Pt  Pt9  1  0.750000  0.758845  0.125407  1
  Pt  Pt10  1  0.250000  0.239829  0.874268  1
  Rh  Rh11  1  0.250000  0.733183  0.605654  1
