# generated using pymatgen
data_Sm4Bi2Sb4Rh7
_symmetry_space_group_name_H-M   'P 1'
_cell_length_a   7.78031014
_cell_length_b   7.78031262
_cell_length_c   7.75101800
_cell_angle_alpha   109.06859294
_cell_angle_beta   109.06858967
_cell_angle_gamma   110.42985707
_symmetry_Int_Tables_number   1
_chemical_formula_structural   Sm4Bi2Sb4Rh7
_chemical_formula_sum   'Sm4 Bi2 Sb4 Rh7'
_cell_volume   360.44958388
_cell_formula_units_Z   1
loop_
 _symmetry_equiv_pos_site_id
 _symmetry_equiv_pos_as_xyz
  1  'x, y, z'
loop_
 _atom_site_type_symbol
 _atom_site_label
 _atom_site_symmetry_multiplicity
 _atom_site_fract_x
 _atom_site_fract_y
 _atom_site_fract_z
 _atom_site_occupancy
  Sm  Sm0  1  0.473235  0.997575  0.000000  1
  Sm  Sm1  1  0.002425  0.526765  0.000000  1
  Sm  Sm2  1  0.001023  0.998977  0.500000  1
  Sm  Sm3  1  0.501023  0.498977  0.500000  1
  Bi  Bi4  1  0.992656  0.304175  0.296830  1
  Bi  Bi5  1  0.695825  0.007344  0.703170  1
  Sb  Sb6  1  0.675249  0.687260  0.000000  1
  Sb  Sb7  1  0.992898  0.665848  0.658745  1
  Sb  Sb8  1  0.334152  0.007102  0.341255  1
  Sb  Sb9  1  0.312740  0.324751  0.000000  1
  Rh  Rh10  1  0.035855  0.964145  0.000000  1
  Rh  Rh11  1  0.498670  0.751949  0.250620  1
  Rh  Rh12  1  0.740910  0.502208  0.243118  1
  Rh  Rh13  1  0.248747  0.751253  0.500000  1
  Rh  Rh14  1  0.248051  0.501330  0.749380  1
  Rh  Rh15  1  0.497792  0.259090  0.756882  1
  Rh  Rh16  1  0.748747  0.251253  0.500000  1
