# generated using pymatgen
data_Tm3LuAl17GaIr6
_symmetry_space_group_name_H-M   'P 1'
_cell_length_a   7.52080902
_cell_length_b   7.52174964
_cell_length_c   9.44422800
_cell_angle_alpha   90.00000000
_cell_angle_beta   90.00000000
_cell_angle_gamma   119.51921495
_symmetry_Int_Tables_number   1
_chemical_formula_structural   Tm3LuAl17GaIr6
_chemical_formula_sum   'Tm3 Lu1 Al17 Ga1 Ir6'
_cell_volume   464.90502252
_cell_formula_units_Z   1
loop_
 _symmetry_equiv_pos_site_id
 _symmetry_equiv_pos_as_xyz
  1  'x, y, z'
loop_
 _atom_site_type_symbol
 _atom_site_label
 _atom_site_symmetry_multiplicity
 _atom_site_fract_x
 _atom_site_fract_y
 _atom_site_fract_z
 _atom_site_occupancy
  Tm  Tm0  1  0.994427  0.673264  0.250000  1
  Tm  Tm1  1  0.004914  0.328682  0.750000  1
  Tm  Tm2  1  0.673267  0.994403  0.250000  1
  Lu  Lu3  1  0.328716  0.004897  0.750000  1
  Al  Al4  1  0.871349  0.871155  0.750000  1
  Al  Al5  1  0.000972  0.335131  0.073755  1
  Al  Al6  1  0.999218  0.665083  0.925327  1
  Al  Al7  1  0.999218  0.665083  0.574673  1
  Al  Al8  1  0.335124  0.000979  0.426544  1
  Al  Al9  1  0.000972  0.335131  0.426245  1
  Al  Al10  1  0.664473  0.998925  0.574702  1
  Al  Al11  1  0.664473  0.998925  0.925298  1
  Al  Al12  1  0.335124  0.000979  0.073456  1
  Al  Al13  1  0.333328  0.333044  0.555862  1
  Al  Al14  1  0.666095  0.666091  0.446490  1
  Al  Al15  1  0.666095  0.666091  0.053510  1
  Al  Al16  1  0.333328  0.333044  0.944138  1
  Al  Al17  1  0.338163  0.549043  0.250000  1
  Al  Al18  1  0.661012  0.451223  0.750000  1
  Al  Al19  1  0.548969  0.338086  0.250000  1
  Al  Al20  1  0.451519  0.661555  0.750000  1
  Ga  Ga21  1  0.132810  0.132791  0.250000  1
  Ir  Ir22  1  0.671339  0.327230  0.000150  1
  Ir  Ir23  1  0.327328  0.671536  0.000168  1
  Ir  Ir24  1  0.327328  0.671536  0.499832  1
  Ir  Ir25  1  0.671339  0.327230  0.499850  1
  Ir  Ir26  1  0.999549  0.999430  0.997564  1
  Ir  Ir27  1  0.999549  0.999430  0.502436  1
