# generated using pymatgen
data_Ho12CdTc2Ni2Sn
_symmetry_space_group_name_H-M   'P 1'
_cell_length_a   8.43810021
_cell_length_b   8.43810125
_cell_length_c   8.43810216
_cell_angle_alpha   113.51521128
_cell_angle_beta   110.74394095
_cell_angle_gamma   104.28915150
_symmetry_Int_Tables_number   1
_chemical_formula_structural   Ho12CdTc2Ni2Sn
_chemical_formula_sum   'Ho12 Cd1 Tc2 Ni2 Sn1'
_cell_volume   459.40050092
_cell_formula_units_Z   1
loop_
 _symmetry_equiv_pos_site_id
 _symmetry_equiv_pos_as_xyz
  1  'x, y, z'
loop_
 _atom_site_type_symbol
 _atom_site_label
 _atom_site_symmetry_multiplicity
 _atom_site_fract_x
 _atom_site_fract_y
 _atom_site_fract_z
 _atom_site_occupancy
  Ho  Ho0  1  0.436948  0.239054  0.197893  1
  Ho  Ho1  1  0.563052  0.760946  0.802107  1
  Ho  Ho2  1  0.041160  0.239054  0.802107  1
  Ho  Ho3  1  0.958840  0.760946  0.197893  1
  Ho  Ho4  1  0.183059  0.285653  0.468713  1
  Ho  Ho5  1  0.816941  0.714347  0.531287  1
  Ho  Ho6  1  0.183059  0.714347  0.897406  1
  Ho  Ho7  1  0.816941  0.285653  0.102594  1
  Ho  Ho8  1  0.332219  0.648454  0.316235  1
  Ho  Ho9  1  0.667781  0.351546  0.683765  1
  Ho  Ho10  1  0.332219  0.015983  0.683765  1
  Ho  Ho11  1  0.667781  0.984017  0.316235  1
  Cd  Cd12  1  0.000000  0.000000  0.000000  1
  Tc  Tc13  1  0.323704  0.000000  0.323704  1
  Tc  Tc14  1  0.676296  0.000000  0.676296  1
  Ni  Ni15  1  0.116566  0.616566  0.500000  1
  Ni  Ni16  1  0.883434  0.383434  0.500000  1
  Sn  Sn17  1  0.500000  0.500000  0.000000  1
