# generated using pymatgen
data_HoLuThSi2
_symmetry_space_group_name_H-M   'P 1'
_cell_length_a   7.50229142
_cell_length_b   7.50229142
_cell_length_c   4.21385100
_cell_angle_alpha   90.00000000
_cell_angle_beta   90.00000000
_cell_angle_gamma   89.96169229
_symmetry_Int_Tables_number   1
_chemical_formula_structural   HoLuThSi2
_chemical_formula_sum   'Ho2 Lu2 Th2 Si4'
_cell_volume   237.17392335
_cell_formula_units_Z   2
loop_
 _symmetry_equiv_pos_site_id
 _symmetry_equiv_pos_as_xyz
  1  'x, y, z'
loop_
 _atom_site_type_symbol
 _atom_site_label
 _atom_site_symmetry_multiplicity
 _atom_site_fract_x
 _atom_site_fract_y
 _atom_site_fract_z
 _atom_site_occupancy
  Ho  Ho0  1  0.673525  0.173525  0.500000  1
  Ho  Ho1  1  0.326475  0.826475  0.500000  1
  Lu  Lu2  1  0.500000  0.500000  0.000000  1
  Lu  Lu3  1  0.000000  0.000000  0.000000  1
  Th  Th4  1  0.178475  0.321525  0.500000  1
  Th  Th5  1  0.821525  0.678475  0.500000  1
  Si  Si6  1  0.123051  0.623051  0.000000  1
  Si  Si7  1  0.876949  0.376949  0.000000  1
  Si  Si8  1  0.614895  0.885105  0.000000  1
  Si  Si9  1  0.385105  0.114895  0.000000  1
