# generated using pymatgen
data_Nd2Er(Ga2Ni3)3
_symmetry_space_group_name_H-M   'P 1'
_cell_length_a   8.83217400
_cell_length_b   8.83217482
_cell_length_c   4.13285300
_cell_angle_alpha   90.00000000
_cell_angle_beta   90.00000000
_cell_angle_gamma   119.99999693
_symmetry_Int_Tables_number   1
_chemical_formula_structural   Nd2Er(Ga2Ni3)3
_chemical_formula_sum   'Nd2 Er1 Ga6 Ni9'
_cell_volume   279.20029731
_cell_formula_units_Z   1
loop_
 _symmetry_equiv_pos_site_id
 _symmetry_equiv_pos_as_xyz
  1  'x, y, z'
loop_
 _atom_site_type_symbol
 _atom_site_label
 _atom_site_symmetry_multiplicity
 _atom_site_fract_x
 _atom_site_fract_y
 _atom_site_fract_z
 _atom_site_occupancy
  Nd  Nd0  1  0.333333  0.666667  0.500000  1
  Nd  Nd1  1  0.666667  0.333333  0.500000  1
  Er  Er2  1  0.000000  0.000000  0.000000  1
  Ga  Ga3  1  0.479407  0.000000  0.000000  1
  Ga  Ga4  1  0.000000  0.479407  0.000000  1
  Ga  Ga5  1  0.520593  0.520593  0.000000  1
  Ga  Ga6  1  0.732685  0.000000  0.500000  1
  Ga  Ga7  1  0.000000  0.732685  0.500000  1
  Ga  Ga8  1  0.267315  0.267315  0.500000  1
  Ni  Ni9  1  0.196665  0.367111  0.000000  1
  Ni  Ni10  1  0.632889  0.829554  0.000000  1
  Ni  Ni11  1  0.170446  0.803335  0.000000  1
  Ni  Ni12  1  0.829554  0.632889  0.000000  1
  Ni  Ni13  1  0.803335  0.170446  0.000000  1
  Ni  Ni14  1  0.367111  0.196665  0.000000  1
  Ni  Ni15  1  0.287150  0.000000  0.500000  1
  Ni  Ni16  1  0.000000  0.287150  0.500000  1
  Ni  Ni17  1  0.712850  0.712850  0.500000  1
