# generated using pymatgen
data_Ac7(YbIr2)3
_symmetry_space_group_name_H-M   'P 1'
_cell_length_a   6.72209787
_cell_length_b   11.54891300
_cell_length_c   11.61088369
_cell_angle_alpha   90.00000000
_cell_angle_beta   90.39082304
_cell_angle_gamma   90.00000000
_symmetry_Int_Tables_number   1
_chemical_formula_structural   Ac7(YbIr2)3
_chemical_formula_sum   'Ac14 Yb6 Ir12'
_cell_volume   901.36587443
_cell_formula_units_Z   2
loop_
 _symmetry_equiv_pos_site_id
 _symmetry_equiv_pos_as_xyz
  1  'x, y, z'
loop_
 _atom_site_type_symbol
 _atom_site_label
 _atom_site_symmetry_multiplicity
 _atom_site_fract_x
 _atom_site_fract_y
 _atom_site_fract_z
 _atom_site_occupancy
  Ac  Ac0  1  0.376392  0.843815  0.528553  1
  Ac  Ac1  1  0.876392  0.656185  0.528553  1
  Ac  Ac2  1  0.888175  0.837973  0.961245  1
  Ac  Ac3  1  0.388175  0.662027  0.961245  1
  Ac  Ac4  1  0.885272  0.534220  0.836805  1
  Ac  Ac5  1  0.385272  0.965780  0.836805  1
  Ac  Ac6  1  0.384101  0.538427  0.658428  1
  Ac  Ac7  1  0.884101  0.961573  0.658428  1
  Ac  Ac8  1  0.616098  0.165697  0.462488  1
  Ac  Ac9  1  0.116098  0.334303  0.462488  1
  Ac  Ac10  1  0.111544  0.159981  0.044121  1
  Ac  Ac11  1  0.611544  0.340019  0.044121  1
  Ac  Ac12  1  0.109276  0.466237  0.168758  1
  Ac  Ac13  1  0.609276  0.033764  0.168758  1
  Yb  Yb14  1  0.608403  0.453927  0.338285  1
  Yb  Yb15  1  0.108403  0.046074  0.338285  1
  Yb  Yb16  1  0.509774  0.738839  0.251553  1
  Yb  Yb17  1  0.009774  0.761161  0.251553  1
  Yb  Yb18  1  0.005693  0.246895  0.752140  1
  Yb  Yb19  1  0.505693  0.253105  0.752140  1
  Ir  Ir20  1  0.256814  0.898000  0.094443  1
  Ir  Ir21  1  0.756814  0.602000  0.094443  1
  Ir  Ir22  1  0.752569  0.902052  0.403611  1
  Ir  Ir23  1  0.252569  0.597948  0.403611  1
  Ir  Ir24  1  0.751646  0.097390  0.903794  1
  Ir  Ir25  1  0.251646  0.402610  0.903794  1
  Ir  Ir26  1  0.253815  0.099606  0.598941  1
  Ir  Ir27  1  0.753815  0.400394  0.598941  1
  Ir  Ir28  1  0.116540  0.748858  0.745065  1
  Ir  Ir29  1  0.616540  0.751142  0.745065  1
  Ir  Ir30  1  0.873886  0.250755  0.251773  1
  Ir  Ir31  1  0.373886  0.249245  0.251773  1
