# generated using pymatgen
data_Ta5Tl3O14
_symmetry_space_group_name_H-M   'P 1'
_cell_length_a   7.49224000
_cell_length_b   7.53350100
_cell_length_c   26.61273200
_cell_angle_alpha   90.00000000
_cell_angle_beta   90.00000000
_cell_angle_gamma   90.00000000
_symmetry_Int_Tables_number   1
_chemical_formula_structural   Ta5Tl3O14
_chemical_formula_sum   'Ta20 Tl12 O56'
_cell_volume   1502.09704406
_cell_formula_units_Z   4
loop_
 _symmetry_equiv_pos_site_id
 _symmetry_equiv_pos_as_xyz
  1  'x, y, z'
loop_
 _atom_site_type_symbol
 _atom_site_label
 _atom_site_symmetry_multiplicity
 _atom_site_fract_x
 _atom_site_fract_y
 _atom_site_fract_z
 _atom_site_occupancy
  Ta  Ta0  1  0.747948  0.833061  0.848282  1
  Ta  Ta1  1  0.000000  0.432116  0.054171  1
  Ta  Ta2  1  0.500000  0.588963  0.747913  1
  Ta  Ta3  1  0.252052  0.166939  0.151718  1
  Ta  Ta4  1  0.000000  0.067884  0.554171  1
  Ta  Ta5  1  0.000000  0.416050  0.443155  1
  Ta  Ta6  1  0.747948  0.166939  0.151718  1
  Ta  Ta7  1  0.500000  0.911037  0.247913  1
  Ta  Ta8  1  0.500000  0.411037  0.252087  1
  Ta  Ta9  1  0.000000  0.567884  0.945829  1
  Ta  Ta10  1  0.000000  0.916050  0.056845  1
  Ta  Ta11  1  0.252052  0.666939  0.348282  1
  Ta  Ta12  1  0.000000  0.083950  0.943155  1
  Ta  Ta13  1  0.747948  0.666939  0.348282  1
  Ta  Ta14  1  0.000000  0.583950  0.556845  1
  Ta  Ta15  1  0.500000  0.088963  0.752087  1
  Ta  Ta16  1  0.000000  0.932116  0.445829  1
  Ta  Ta17  1  0.252052  0.833061  0.848282  1
  Ta  Ta18  1  0.747948  0.333061  0.651718  1
  Ta  Ta19  1  0.252052  0.333061  0.651718  1
  Tl  Tl20  1  0.000000  0.254365  0.781057  1
  Tl  Tl21  1  0.000000  0.745635  0.218943  1
  Tl  Tl22  1  0.500000  0.771368  0.626590  1
  Tl  Tl23  1  0.000000  0.245635  0.281057  1
  Tl  Tl24  1  0.500000  0.226342  0.535606  1
  Tl  Tl25  1  0.000000  0.754365  0.718943  1
  Tl  Tl26  1  0.500000  0.228632  0.373410  1
  Tl  Tl27  1  0.500000  0.273658  0.035606  1
  Tl  Tl28  1  0.500000  0.773658  0.464394  1
  Tl  Tl29  1  0.500000  0.271368  0.873410  1
  Tl  Tl30  1  0.500000  0.726342  0.964394  1
  Tl  Tl31  1  0.500000  0.728632  0.126590  1
  O  O32  1  0.189718  0.339647  0.097756  1
  O  O33  1  0.000000  0.159092  0.016228  1
  O  O34  1  0.500000  0.850828  0.725926  1
  O  O35  1  0.500000  0.660644  0.374557  1
  O  O36  1  0.000000  0.329665  0.920279  1
  O  O37  1  0.000000  0.861779  0.828565  1
  O  O38  1  0.500000  0.649172  0.225926  1
  O  O39  1  0.810282  0.660353  0.902244  1
  O  O40  1  0.000000  0.340908  0.516228  1
  O  O41  1  0.316189  0.459283  0.304148  1
  O  O42  1  0.500000  0.149172  0.274074  1
  O  O43  1  0.692292  0.335927  0.202560  1
  O  O44  1  0.826836  0.000000  0.500000  1
  O  O45  1  0.692292  0.835927  0.297440  1
  O  O46  1  0.000000  0.361779  0.671435  1
  O  O47  1  0.203939  0.976961  0.092331  1
  O  O48  1  0.826836  0.500000  0.000000  1
  O  O49  1  0.683811  0.459283  0.304148  1
  O  O50  1  0.307708  0.835927  0.297440  1
  O  O51  1  0.307708  0.164073  0.702560  1
  O  O52  1  0.810282  0.339647  0.097756  1
  O  O53  1  0.692292  0.664073  0.797440  1
  O  O54  1  0.307708  0.335927  0.202560  1
  O  O55  1  0.000000  0.840908  0.983772  1
  O  O56  1  0.203939  0.023039  0.907669  1
  O  O57  1  0.316189  0.959283  0.195852  1
  O  O58  1  0.500000  0.350828  0.774074  1
  O  O59  1  0.000000  0.138221  0.171435  1
  O  O60  1  0.189718  0.660353  0.902244  1
  O  O61  1  0.810282  0.160353  0.597756  1
  O  O62  1  0.000000  0.829665  0.579721  1
  O  O63  1  0.307708  0.664073  0.797440  1
  O  O64  1  0.500000  0.839356  0.874557  1
  O  O65  1  0.683811  0.040717  0.804148  1
  O  O66  1  0.316189  0.540717  0.695852  1
  O  O67  1  0.796061  0.476961  0.407669  1
  O  O68  1  0.796061  0.523039  0.592331  1
  O  O69  1  0.000000  0.670335  0.079721  1
  O  O70  1  0.000000  0.659092  0.483772  1
  O  O71  1  0.692292  0.164073  0.702560  1
  O  O72  1  0.683811  0.959283  0.195852  1
  O  O73  1  0.000000  0.638221  0.328565  1
  O  O74  1  0.500000  0.160644  0.125443  1
  O  O75  1  0.683811  0.540717  0.695852  1
  O  O76  1  0.173164  0.000000  0.500000  1
  O  O77  1  0.796061  0.976961  0.092331  1
  O  O78  1  0.810282  0.839647  0.402244  1
  O  O79  1  0.500000  0.339356  0.625443  1
  O  O80  1  0.796061  0.023039  0.907669  1
  O  O81  1  0.189718  0.839647  0.402244  1
  O  O82  1  0.203939  0.523039  0.592331  1
  O  O83  1  0.189718  0.160353  0.597756  1
  O  O84  1  0.000000  0.170335  0.420279  1
  O  O85  1  0.203939  0.476961  0.407669  1
  O  O86  1  0.316189  0.040717  0.804148  1
  O  O87  1  0.173164  0.500000  0.000000  1
