# generated using pymatgen
data_Ta3MnAlSiC
_symmetry_space_group_name_H-M   'P 1'
_cell_length_a   8.13756885
_cell_length_b   8.13756867
_cell_length_c   8.13756817
_cell_angle_alpha   60.09471478
_cell_angle_beta   60.09471357
_cell_angle_gamma   60.09471590
_symmetry_Int_Tables_number   1
_chemical_formula_structural   Ta3MnAlSiC
_chemical_formula_sum   'Ta12 Mn4 Al4 Si4 C4'
_cell_volume   381.85637031
_cell_formula_units_Z   4
loop_
 _symmetry_equiv_pos_site_id
 _symmetry_equiv_pos_as_xyz
  1  'x, y, z'
loop_
 _atom_site_type_symbol
 _atom_site_label
 _atom_site_symmetry_multiplicity
 _atom_site_fract_x
 _atom_site_fract_y
 _atom_site_fract_z
 _atom_site_occupancy
  Ta  Ta0  1  0.552584  0.947690  0.552584  1
  Ta  Ta1  1  0.305732  0.694578  0.694578  1
  Ta  Ta2  1  0.698360  0.304561  0.304561  1
  Ta  Ta3  1  0.304561  0.698360  0.304561  1
  Ta  Ta4  1  0.694578  0.694578  0.305732  1
  Ta  Ta5  1  0.304561  0.304561  0.698360  1
  Ta  Ta6  1  0.552584  0.552584  0.947690  1
  Ta  Ta7  1  0.947690  0.552584  0.552584  1
  Ta  Ta8  1  0.555950  0.946771  0.946771  1
  Ta  Ta9  1  0.946771  0.946771  0.555950  1
  Ta  Ta10  1  0.694578  0.305732  0.694578  1
  Ta  Ta11  1  0.946771  0.555950  0.946771  1
  Mn  Mn12  1  0.130212  0.130212  0.130212  1
  Mn  Mn13  1  0.620569  0.121170  0.121170  1
  Mn  Mn14  1  0.121170  0.620569  0.121170  1
  Mn  Mn15  1  0.121170  0.121170  0.620569  1
  Al  Al16  1  0.918783  0.246058  0.918783  1
  Al  Al17  1  0.918783  0.918783  0.246058  1
  Al  Al18  1  0.246058  0.918783  0.918783  1
  Al  Al19  1  0.331834  0.331834  0.331834  1
  Si  Si20  1  0.917676  0.917676  0.917676  1
  Si  Si21  1  0.999080  0.335021  0.335021  1
  Si  Si22  1  0.335021  0.999080  0.335021  1
  Si  Si23  1  0.335021  0.335021  0.999080  1
  C  C24  1  0.625312  0.625312  0.625312  1
  C  C25  1  0.123217  0.625687  0.625687  1
  C  C26  1  0.625687  0.123217  0.625687  1
  C  C27  1  0.625687  0.625687  0.123217  1
