# generated using pymatgen
data_Sm2Co3Tc6Ni3P7
_symmetry_space_group_name_H-M   'P 1'
_cell_length_a   9.35248900
_cell_length_b   9.35248956
_cell_length_c   3.78781600
_cell_angle_alpha   90.00000000
_cell_angle_beta   90.00000000
_cell_angle_gamma   120.00000673
_symmetry_Int_Tables_number   1
_chemical_formula_structural   Sm2Co3Tc6Ni3P7
_chemical_formula_sum   'Sm2 Co3 Tc6 Ni3 P7'
_cell_volume   286.92864981
_cell_formula_units_Z   1
loop_
 _symmetry_equiv_pos_site_id
 _symmetry_equiv_pos_as_xyz
  1  'x, y, z'
loop_
 _atom_site_type_symbol
 _atom_site_label
 _atom_site_symmetry_multiplicity
 _atom_site_fract_x
 _atom_site_fract_y
 _atom_site_fract_z
 _atom_site_occupancy
  Sm  Sm0  1  0.333333  0.666667  0.500000  1
  Sm  Sm1  1  0.000000  0.000000  0.000000  1
  Co  Co2  1  0.823257  0.602693  0.000000  1
  Co  Co3  1  0.397307  0.220565  0.000000  1
  Co  Co4  1  0.779435  0.176743  0.000000  1
  Tc  Tc5  1  0.061210  0.769763  0.500000  1
  Tc  Tc6  1  0.230237  0.291447  0.500000  1
  Tc  Tc7  1  0.708553  0.938790  0.500000  1
  Tc  Tc8  1  0.875752  0.421472  0.500000  1
  Tc  Tc9  1  0.578528  0.454279  0.500000  1
  Tc  Tc10  1  0.545721  0.124248  0.500000  1
  Ni  Ni11  1  0.089249  0.397352  0.000000  1
  Ni  Ni12  1  0.602648  0.691896  0.000000  1
  Ni  Ni13  1  0.308104  0.910751  0.000000  1
  P  P14  1  0.788007  0.731913  0.500000  1
  P  P15  1  0.268087  0.056094  0.500000  1
  P  P16  1  0.943906  0.211993  0.500000  1
  P  P17  1  0.666667  0.333333  0.000000  1
  P  P18  1  0.073679  0.630595  0.000000  1
  P  P19  1  0.369405  0.443084  0.000000  1
  P  P20  1  0.556916  0.926321  0.000000  1
