# generated using pymatgen
data_Pr3PuRe4F28
_symmetry_space_group_name_H-M   'P 1'
_cell_length_a   5.78753419
_cell_length_b   9.28252559
_cell_length_c   12.44708900
_cell_angle_alpha   62.00445155
_cell_angle_beta   90.01477059
_cell_angle_gamma   90.01754377
_symmetry_Int_Tables_number   1
_chemical_formula_structural   Pr3PuRe4F28
_chemical_formula_sum   'Pr3 Pu1 Re4 F28'
_cell_volume   590.44624088
_cell_formula_units_Z   1
loop_
 _symmetry_equiv_pos_site_id
 _symmetry_equiv_pos_as_xyz
  1  'x, y, z'
loop_
 _atom_site_type_symbol
 _atom_site_label
 _atom_site_symmetry_multiplicity
 _atom_site_fract_x
 _atom_site_fract_y
 _atom_site_fract_z
 _atom_site_occupancy
  Pr  Pr0  1  0.257986  0.188292  0.735485  1
  Pr  Pr1  1  0.241840  0.188645  0.235360  1
  Pr  Pr2  1  0.741568  0.811814  0.264611  1
  Pu  Pu3  1  0.757979  0.812737  0.764843  1
  Re  Re4  1  0.755784  0.274053  0.957085  1
  Re  Re5  1  0.255773  0.725480  0.542667  1
  Re  Re6  1  0.243884  0.726038  0.042808  1
  Re  Re7  1  0.745045  0.274525  0.457379  1
  F  F8  1  0.446404  0.708898  0.921291  1
  F  F9  1  0.947134  0.291232  0.579534  1
  F  F10  1  0.553657  0.290767  0.079176  1
  F  F11  1  0.053111  0.708759  0.420566  1
  F  F12  1  0.463632  0.284698  0.545280  1
  F  F13  1  0.961907  0.716657  0.954997  1
  F  F14  1  0.537209  0.714367  0.454984  1
  F  F15  1  0.037339  0.285263  0.044413  1
  F  F16  1  0.761936  0.514796  0.860191  1
  F  F17  1  0.263023  0.484486  0.639794  1
  F  F18  1  0.236084  0.485144  0.139670  1
  F  F19  1  0.737403  0.515165  0.360077  1
  F  F20  1  0.761169  0.033154  0.052094  1
  F  F21  1  0.260967  0.966377  0.447684  1
  F  F22  1  0.239426  0.966941  0.947776  1
  F  F23  1  0.741206  0.033804  0.552944  1
  F  F24  1  0.981455  0.731181  0.635437  1
  F  F25  1  0.481640  0.267690  0.863939  1
  F  F26  1  0.019465  0.268805  0.364442  1
  F  F27  1  0.517723  0.731091  0.136521  1
  F  F28  1  0.045403  0.742569  0.166793  1
  F  F29  1  0.547212  0.257545  0.333389  1
  F  F30  1  0.953196  0.257359  0.832843  1
  F  F31  1  0.454996  0.743313  0.665753  1
  F  F32  1  0.410995  0.968367  0.230475  1
  F  F33  1  0.911167  0.032588  0.269117  1
  F  F34  1  0.588929  0.029886  0.769385  1
  F  F35  1  0.086355  0.967515  0.731201  1
