# generated using pymatgen
data_Y8Ti9Si16Tc3
_symmetry_space_group_name_H-M   'P 1'
_cell_length_a   6.99137964
_cell_length_b   6.99138030
_cell_length_c   12.83636183
_cell_angle_alpha   90.06387547
_cell_angle_beta   89.93612451
_cell_angle_gamma   90.01785006
_symmetry_Int_Tables_number   1
_chemical_formula_structural   Y8Ti9Si16Tc3
_chemical_formula_sum   'Y8 Ti9 Si16 Tc3'
_cell_volume   627.43277577
_cell_formula_units_Z   1
loop_
 _symmetry_equiv_pos_site_id
 _symmetry_equiv_pos_as_xyz
  1  'x, y, z'
loop_
 _atom_site_type_symbol
 _atom_site_label
 _atom_site_symmetry_multiplicity
 _atom_site_fract_x
 _atom_site_fract_y
 _atom_site_fract_z
 _atom_site_occupancy
  Y  Y0  1  0.340674  0.001585  0.467331  1
  Y  Y1  1  0.498681  0.841634  0.719387  1
  Y  Y2  1  0.500329  0.158720  0.217877  1
  Y  Y3  1  0.841634  0.498681  0.280613  1
  Y  Y4  1  0.158720  0.500329  0.782123  1
  Y  Y5  1  0.658864  0.999353  0.968451  1
  Y  Y6  1  0.001585  0.340674  0.532669  1
  Y  Y7  1  0.999353  0.658864  0.031549  1
  Ti  Ti8  1  0.673886  0.673886  0.500000  1
  Ti  Ti9  1  0.152066  0.006067  0.877192  1
  Ti  Ti10  1  0.493973  0.653503  0.124608  1
  Ti  Ti11  1  0.505499  0.347822  0.627733  1
  Ti  Ti12  1  0.653503  0.493973  0.875392  1
  Ti  Ti13  1  0.347822  0.505499  0.372267  1
  Ti  Ti14  1  0.847232  0.991881  0.376011  1
  Ti  Ti15  1  0.006067  0.152066  0.122808  1
  Ti  Ti16  1  0.991881  0.847232  0.623989  1
  Si  Si17  1  0.199908  0.129077  0.684248  1
  Si  Si18  1  0.370741  0.700394  0.933370  1
  Si  Si19  1  0.631111  0.297195  0.434672  1
  Si  Si20  1  0.700394  0.370741  0.066630  1
  Si  Si21  1  0.297195  0.631111  0.565328  1
  Si  Si22  1  0.799232  0.870403  0.183907  1
  Si  Si23  1  0.129077  0.199908  0.315752  1
  Si  Si24  1  0.870403  0.799232  0.816093  1
  Si  Si25  1  0.290177  0.951968  0.066744  1
  Si  Si26  1  0.547246  0.789917  0.315751  1
  Si  Si27  1  0.452078  0.210937  0.816757  1
  Si  Si28  1  0.789917  0.547246  0.684249  1
  Si  Si29  1  0.210937  0.452078  0.183243  1
  Si  Si30  1  0.708343  0.049340  0.567458  1
  Si  Si31  1  0.951968  0.290177  0.933256  1
  Si  Si32  1  0.049340  0.708343  0.432542  1
  Tc  Tc33  1  0.327993  0.327993  0.000000  1
  Tc  Tc34  1  0.173971  0.828199  0.248625  1
  Tc  Tc35  1  0.828199  0.173971  0.751375  1
