# generated using pymatgen
data_Ba3Sr7(GeBi2)2
_symmetry_space_group_name_H-M   'P 1'
_cell_length_a   13.97996600
_cell_length_b   10.26153000
_cell_length_c   8.84651200
_cell_angle_alpha   90.00000000
_cell_angle_beta   90.00000000
_cell_angle_gamma   90.00000000
_symmetry_Int_Tables_number   1
_chemical_formula_structural   Ba3Sr7(GeBi2)2
_chemical_formula_sum   'Ba6 Sr14 Ge4 Bi8'
_cell_volume   1269.08381452
_cell_formula_units_Z   2
loop_
 _symmetry_equiv_pos_site_id
 _symmetry_equiv_pos_as_xyz
  1  'x, y, z'
loop_
 _atom_site_type_symbol
 _atom_site_label
 _atom_site_symmetry_multiplicity
 _atom_site_fract_x
 _atom_site_fract_y
 _atom_site_fract_z
 _atom_site_occupancy
  Ba  Ba0  1  0.783150  0.250000  0.828228  1
  Ba  Ba1  1  0.283150  0.250000  0.671772  1
  Ba  Ba2  1  0.300824  0.750000  0.648247  1
  Ba  Ba3  1  0.800824  0.750000  0.851753  1
  Ba  Ba4  1  0.699762  0.250000  0.348975  1
  Ba  Ba5  1  0.199762  0.250000  0.151025  1
  Sr  Sr6  1  0.075389  0.527523  0.825572  1
  Sr  Sr7  1  0.575389  0.972477  0.674428  1
  Sr  Sr8  1  0.925969  0.024830  0.175898  1
  Sr  Sr9  1  0.425969  0.475170  0.324102  1
  Sr  Sr10  1  0.925969  0.475170  0.175898  1
  Sr  Sr11  1  0.425969  0.024830  0.324102  1
  Sr  Sr12  1  0.075389  0.972477  0.825572  1
  Sr  Sr13  1  0.575389  0.527523  0.674428  1
  Sr  Sr14  1  0.999961  0.750000  0.441993  1
  Sr  Sr15  1  0.499961  0.750000  0.058007  1
  Sr  Sr16  1  0.999408  0.250000  0.555311  1
  Sr  Sr17  1  0.499408  0.250000  0.944689  1
  Sr  Sr18  1  0.213702  0.750000  0.168337  1
  Sr  Sr19  1  0.713702  0.750000  0.331663  1
  Ge  Ge20  1  0.494085  0.750000  0.442600  1
  Ge  Ge21  1  0.994085  0.750000  0.057400  1
  Ge  Ge22  1  0.509407  0.250000  0.559486  1
  Ge  Ge23  1  0.009407  0.250000  0.940514  1
  Bi  Bi24  1  0.334566  0.508449  0.949009  1
  Bi  Bi25  1  0.834566  0.991551  0.550991  1
  Bi  Bi26  1  0.663926  0.002594  0.058055  1
  Bi  Bi27  1  0.163926  0.497406  0.441945  1
  Bi  Bi28  1  0.663926  0.497406  0.058055  1
  Bi  Bi29  1  0.163926  0.002594  0.441945  1
  Bi  Bi30  1  0.334566  0.991551  0.949009  1
  Bi  Bi31  1  0.834566  0.508449  0.550991  1
