# generated using pymatgen
data_Hf16Ir3Rh5N4
_symmetry_space_group_name_H-M   'P 1'
_cell_length_a   8.71260073
_cell_length_b   8.71260012
_cell_length_c   8.71260202
_cell_angle_alpha   60.00613784
_cell_angle_beta   60.00614151
_cell_angle_gamma   60.00613585
_symmetry_Int_Tables_number   1
_chemical_formula_structural   Hf16Ir3Rh5N4
_chemical_formula_sum   'Hf16 Ir3 Rh5 N4'
_cell_volume   467.72319509
_cell_formula_units_Z   1
loop_
 _symmetry_equiv_pos_site_id
 _symmetry_equiv_pos_as_xyz
  1  'x, y, z'
loop_
 _atom_site_type_symbol
 _atom_site_label
 _atom_site_symmetry_multiplicity
 _atom_site_fract_x
 _atom_site_fract_y
 _atom_site_fract_z
 _atom_site_occupancy
  Hf  Hf0  1  0.117184  0.627019  0.627019  1
  Hf  Hf1  1  0.627019  0.117184  0.627019  1
  Hf  Hf2  1  0.627019  0.627019  0.117184  1
  Hf  Hf3  1  0.629887  0.629887  0.629887  1
  Hf  Hf4  1  0.814256  0.814256  0.184806  1
  Hf  Hf5  1  0.184050  0.184050  0.815490  1
  Hf  Hf6  1  0.814256  0.184806  0.814256  1
  Hf  Hf7  1  0.184050  0.815490  0.184050  1
  Hf  Hf8  1  0.184806  0.814256  0.814256  1
  Hf  Hf9  1  0.815490  0.184050  0.184050  1
  Hf  Hf10  1  0.432460  0.432460  0.066145  1
  Hf  Hf11  1  0.066501  0.066501  0.432948  1
  Hf  Hf12  1  0.432460  0.066145  0.432460  1
  Hf  Hf13  1  0.066501  0.432948  0.066501  1
  Hf  Hf14  1  0.066145  0.432460  0.432460  1
  Hf  Hf15  1  0.432948  0.066501  0.066501  1
  Ir  Ir16  1  0.761376  0.414474  0.414474  1
  Ir  Ir17  1  0.414474  0.761376  0.414474  1
  Ir  Ir18  1  0.414474  0.414474  0.761376  1
  Rh  Rh19  1  0.413720  0.413720  0.413720  1
  Rh  Rh20  1  0.469305  0.844988  0.844988  1
  Rh  Rh21  1  0.844988  0.469305  0.844988  1
  Rh  Rh22  1  0.844988  0.844988  0.469305  1
  Rh  Rh23  1  0.841729  0.841729  0.841729  1
  N  N24  1  0.624480  0.125037  0.125037  1
  N  N25  1  0.125037  0.624480  0.125037  1
  N  N26  1  0.125037  0.125037  0.624480  1
  N  N27  1  0.125359  0.125359  0.125359  1
