# generated using pymatgen
data_Ho7Er3In8(NiAu)2
_symmetry_space_group_name_H-M   'P 1'
_cell_length_a   8.07967534
_cell_length_b   18.11890659
_cell_length_c   3.62327300
_cell_angle_alpha   90.00000000
_cell_angle_beta   90.00000000
_cell_angle_gamma   90.01387701
_symmetry_Int_Tables_number   1
_chemical_formula_structural   Ho7Er3In8(NiAu)2
_chemical_formula_sum   'Ho7 Er3 In8 Ni2 Au2'
_cell_volume   530.42861074
_cell_formula_units_Z   1
loop_
 _symmetry_equiv_pos_site_id
 _symmetry_equiv_pos_as_xyz
  1  'x, y, z'
loop_
 _atom_site_type_symbol
 _atom_site_label
 _atom_site_symmetry_multiplicity
 _atom_site_fract_x
 _atom_site_fract_y
 _atom_site_fract_z
 _atom_site_occupancy
  Ho  Ho0  1  0.499677  0.500147  0.000000  1
  Ho  Ho1  1  0.000176  0.999984  0.000000  1
  Ho  Ho2  1  0.227310  0.224257  0.000000  1
  Ho  Ho3  1  0.620476  0.081183  0.000000  1
  Ho  Ho4  1  0.379670  0.918557  0.000000  1
  Ho  Ho5  1  0.885060  0.586569  0.000000  1
  Ho  Ho6  1  0.114966  0.413600  0.000000  1
  Er  Er7  1  0.762175  0.284331  0.000000  1
  Er  Er8  1  0.238054  0.715899  0.000000  1
  Er  Er9  1  0.772337  0.775536  0.000000  1
  In  In10  1  0.711151  0.930967  0.500000  1
  In  In11  1  0.289345  0.068409  0.500000  1
  In  In12  1  0.794512  0.433429  0.500000  1
  In  In13  1  0.205344  0.566849  0.500000  1
  In  In14  1  0.578918  0.646839  0.500000  1
  In  In15  1  0.421886  0.353087  0.500000  1
  In  In16  1  0.925495  0.151304  0.500000  1
  In  In17  1  0.073275  0.848735  0.500000  1
  Ni  Ni18  1  0.972219  0.694896  0.500000  1
  Ni  Ni19  1  0.026933  0.305332  0.500000  1
  Au  Au20  1  0.529896  0.200014  0.500000  1
  Au  Au21  1  0.471124  0.800076  0.500000  1
