# generated using pymatgen
data_Tm3Al3Ga2Ni
_symmetry_space_group_name_H-M   'P 1'
_cell_length_a   6.82986500
_cell_length_b   6.82986474
_cell_length_c   4.22120600
_cell_angle_alpha   90.00000000
_cell_angle_beta   90.00000000
_cell_angle_gamma   120.00000613
_symmetry_Int_Tables_number   1
_chemical_formula_structural   Tm3Al3Ga2Ni
_chemical_formula_sum   'Tm3 Al3 Ga2 Ni1'
_cell_volume   170.52630183
_cell_formula_units_Z   1
loop_
 _symmetry_equiv_pos_site_id
 _symmetry_equiv_pos_as_xyz
  1  'x, y, z'
loop_
 _atom_site_type_symbol
 _atom_site_label
 _atom_site_symmetry_multiplicity
 _atom_site_fract_x
 _atom_site_fract_y
 _atom_site_fract_z
 _atom_site_occupancy
  Tm  Tm0  1  0.590739  0.000000  0.000000  1
  Tm  Tm1  1  0.000000  0.590739  0.000000  1
  Tm  Tm2  1  0.409261  0.409261  0.000000  1
  Al  Al3  1  0.232866  0.000000  0.500000  1
  Al  Al4  1  0.000000  0.232866  0.500000  1
  Al  Al5  1  0.767134  0.767134  0.500000  1
  Ga  Ga6  1  0.333333  0.666667  0.500000  1
  Ga  Ga7  1  0.666667  0.333333  0.500000  1
  Ni  Ni8  1  0.000000  0.000000  0.000000  1
