# generated using pymatgen
data_Cs2ZrSi2O7
_symmetry_space_group_name_H-M   'P 1'
_cell_length_a   5.77487928
_cell_length_b   7.41717133
_cell_length_c   9.39145927
_cell_angle_alpha   71.94762497
_cell_angle_beta   90.08482767
_cell_angle_gamma   90.06946666
_symmetry_Int_Tables_number   1
_chemical_formula_structural   Cs2ZrSi2O7
_chemical_formula_sum   'Cs4 Zr2 Si4 O14'
_cell_volume   382.46422770
_cell_formula_units_Z   2
loop_
 _symmetry_equiv_pos_site_id
 _symmetry_equiv_pos_as_xyz
  1  'x, y, z'
loop_
 _atom_site_type_symbol
 _atom_site_label
 _atom_site_symmetry_multiplicity
 _atom_site_fract_x
 _atom_site_fract_y
 _atom_site_fract_z
 _atom_site_occupancy
  Cs  Cs0  1  0.750920  0.824919  0.035548  1
  Cs  Cs1  1  0.250903  0.323221  0.539690  1
  Cs  Cs2  1  0.749098  0.676778  0.460310  1
  Cs  Cs3  1  0.249079  0.175081  0.964452  1
  Zr  Zr4  1  0.749923  0.255722  0.252410  1
  Zr  Zr5  1  0.250076  0.744277  0.747590  1
  Si  Si6  1  0.251070  0.586452  0.165652  1
  Si  Si7  1  0.248811  0.922453  0.333028  1
  Si  Si8  1  0.751188  0.077547  0.666972  1
  Si  Si9  1  0.748931  0.413548  0.834348  1
  O  O10  1  0.748895  0.313001  0.016474  1
  O  O11  1  0.250006  0.766417  0.237318  1
  O  O12  1  0.014879  0.464511  0.226510  1
  O  O13  1  0.488303  0.466055  0.227225  1
  O  O14  1  0.012468  0.047696  0.280248  1
  O  O15  1  0.484651  0.048636  0.281574  1
  O  O16  1  0.247999  0.798508  0.510711  1
  O  O17  1  0.752002  0.201493  0.489289  1
  O  O18  1  0.515350  0.951365  0.718426  1
  O  O19  1  0.987531  0.952303  0.719753  1
  O  O20  1  0.511696  0.533945  0.772776  1
  O  O21  1  0.985120  0.535489  0.773490  1
  O  O22  1  0.749993  0.233582  0.762682  1
  O  O23  1  0.251104  0.686999  0.983525  1
