# generated using pymatgen
data_NdPa5Co16(P6W)2
_symmetry_space_group_name_H-M   'P 1'
_cell_length_a   3.79209400
_cell_length_b   10.60106600
_cell_length_c   12.34242500
_cell_angle_alpha   90.00000000
_cell_angle_beta   90.00000000
_cell_angle_gamma   90.00000000
_symmetry_Int_Tables_number   1
_chemical_formula_structural   NdPa5Co16(P6W)2
_chemical_formula_sum   'Nd1 Pa5 Co16 P12 W2'
_cell_volume   496.16843203
_cell_formula_units_Z   1
loop_
 _symmetry_equiv_pos_site_id
 _symmetry_equiv_pos_as_xyz
  1  'x, y, z'
loop_
 _atom_site_type_symbol
 _atom_site_label
 _atom_site_symmetry_multiplicity
 _atom_site_fract_x
 _atom_site_fract_y
 _atom_site_fract_z
 _atom_site_occupancy
  Nd  Nd0  1  0.500000  0.000000  0.478762  1
  Pa  Pa1  1  0.000000  0.500000  0.525080  1
  Pa  Pa2  1  0.500000  0.821856  0.208265  1
  Pa  Pa3  1  0.500000  0.178144  0.208265  1
  Pa  Pa4  1  0.000000  0.679194  0.791764  1
  Pa  Pa5  1  0.000000  0.320806  0.791764  1
  Co  Co6  1  0.500000  0.500000  0.700993  1
  Co  Co7  1  0.000000  0.000000  0.290530  1
  Co  Co8  1  0.000000  0.500000  0.984998  1
  Co  Co9  1  0.500000  0.000000  0.014375  1
  Co  Co10  1  0.500000  0.333173  0.989948  1
  Co  Co11  1  0.500000  0.666827  0.989948  1
  Co  Co12  1  0.000000  0.168930  0.009252  1
  Co  Co13  1  0.000000  0.831070  0.009252  1
  Co  Co14  1  0.500000  0.304780  0.428293  1
  Co  Co15  1  0.500000  0.695220  0.428293  1
  Co  Co16  1  0.000000  0.204870  0.573388  1
  Co  Co17  1  0.000000  0.795130  0.573388  1
  Co  Co18  1  0.500000  0.875751  0.715985  1
  Co  Co19  1  0.500000  0.124249  0.715985  1
  Co  Co20  1  0.000000  0.621840  0.286766  1
  Co  Co21  1  0.000000  0.378160  0.286766  1
  P  P22  1  0.500000  0.500000  0.882218  1
  P  P23  1  0.000000  0.000000  0.113369  1
  P  P24  1  0.500000  0.500000  0.345251  1
  P  P25  1  0.000000  0.000000  0.655497  1
  P  P26  1  0.500000  0.309432  0.612692  1
  P  P27  1  0.500000  0.690568  0.612692  1
  P  P28  1  0.000000  0.191665  0.387058  1
  P  P29  1  0.000000  0.808335  0.387058  1
  P  P30  1  0.500000  0.844510  0.896480  1
  P  P31  1  0.500000  0.155490  0.896480  1
  P  P32  1  0.000000  0.654827  0.104405  1
  P  P33  1  0.000000  0.345173  0.104405  1
  W  W34  1  0.500000  0.500000  0.152914  1
  W  W35  1  0.000000  0.000000  0.847416  1
