# generated using pymatgen
data_CaSmLu6(B6Ru)4
_symmetry_space_group_name_H-M   'P 1'
_cell_length_a   3.61615200
_cell_length_b   9.06828719
_cell_length_c   11.45787679
_cell_angle_alpha   89.94887198
_cell_angle_beta   90.00000000
_cell_angle_gamma   90.00000000
_symmetry_Int_Tables_number   1
_chemical_formula_structural   CaSmLu6(B6Ru)4
_chemical_formula_sum   'Ca1 Sm1 Lu6 B24 Ru4'
_cell_volume   375.73003902
_cell_formula_units_Z   1
loop_
 _symmetry_equiv_pos_site_id
 _symmetry_equiv_pos_as_xyz
  1  'x, y, z'
loop_
 _atom_site_type_symbol
 _atom_site_label
 _atom_site_symmetry_multiplicity
 _atom_site_fract_x
 _atom_site_fract_y
 _atom_site_fract_z
 _atom_site_occupancy
  Ca  Ca0  1  0.000000  0.678283  0.586009  1
  Sm  Sm1  1  0.000000  0.323283  0.414840  1
  Lu  Lu2  1  0.000000  0.820711  0.084615  1
  Lu  Lu3  1  0.000000  0.178519  0.914240  1
  Lu  Lu4  1  0.000000  0.942167  0.371178  1
  Lu  Lu5  1  0.000000  0.055518  0.629803  1
  Lu  Lu6  1  0.000000  0.444010  0.126945  1
  Lu  Lu7  1  0.000000  0.557042  0.871677  1
  B  B8  1  0.500000  0.556007  0.431415  1
  B  B9  1  0.500000  0.445343  0.569321  1
  B  B10  1  0.500000  0.053849  0.065927  1
  B  B11  1  0.500000  0.946600  0.934459  1
  B  B12  1  0.500000  0.750273  0.417562  1
  B  B13  1  0.500000  0.249536  0.583397  1
  B  B14  1  0.500000  0.249217  0.079210  1
  B  B15  1  0.500000  0.751237  0.920392  1
  B  B16  1  0.500000  0.792052  0.263450  1
  B  B17  1  0.500000  0.207207  0.736679  1
  B  B18  1  0.500000  0.290412  0.232230  1
  B  B19  1  0.500000  0.709629  0.767123  1
  B  B20  1  0.500000  0.631449  0.182554  1
  B  B21  1  0.500000  0.368634  0.816613  1
  B  B22  1  0.500000  0.128987  0.314041  1
  B  B23  1  0.500000  0.870216  0.686125  1
  B  B24  1  0.500000  0.981527  0.211441  1
  B  B25  1  0.500000  0.018034  0.789064  1
  B  B26  1  0.500000  0.484360  0.285266  1
  B  B27  1  0.500000  0.516761  0.714248  1
  B  B28  1  0.500000  0.605506  0.028506  1
  B  B29  1  0.500000  0.394477  0.970999  1
  B  B30  1  0.500000  0.099962  0.472550  1
  B  B31  1  0.500000  0.899360  0.527685  1
  Ru  Ru32  1  0.000000  0.640237  0.317020  1
  Ru  Ru33  1  0.000000  0.358996  0.682442  1
  Ru  Ru34  1  0.000000  0.137032  0.177843  1
  Ru  Ru35  1  0.000000  0.863567  0.823130  1
