# generated using pymatgen
data_Ti12Al8IrPt3N4
_symmetry_space_group_name_H-M   'P 1'
_cell_length_a   8.17270599
_cell_length_b   8.19181375
_cell_length_c   8.17270600
_cell_angle_alpha   60.07712993
_cell_angle_beta   59.99999995
_cell_angle_gamma   60.07712995
_symmetry_Int_Tables_number   1
_chemical_formula_structural   Ti12Al8IrPt3N4
_chemical_formula_sum   'Ti12 Al8 Ir1 Pt3 N4'
_cell_volume   387.34874171
_cell_formula_units_Z   1
loop_
 _symmetry_equiv_pos_site_id
 _symmetry_equiv_pos_as_xyz
  1  'x, y, z'
loop_
 _atom_site_type_symbol
 _atom_site_label
 _atom_site_symmetry_multiplicity
 _atom_site_fract_x
 _atom_site_fract_y
 _atom_site_fract_z
 _atom_site_occupancy
  Ti  Ti0  1  0.817657  0.818017  0.182163  1
  Ti  Ti1  1  0.067837  0.431983  0.432343  1
  Ti  Ti2  1  0.433150  0.068847  0.064853  1
  Ti  Ti3  1  0.064853  0.068847  0.433150  1
  Ti  Ti4  1  0.067837  0.431983  0.067837  1
  Ti  Ti5  1  0.433150  0.068847  0.433150  1
  Ti  Ti6  1  0.182163  0.818017  0.182163  1
  Ti  Ti7  1  0.182163  0.818017  0.817657  1
  Ti  Ti8  1  0.816850  0.181153  0.185147  1
  Ti  Ti9  1  0.816850  0.181153  0.816850  1
  Ti  Ti10  1  0.432343  0.431983  0.067837  1
  Ti  Ti11  1  0.185147  0.181153  0.816850  1
  Al  Al12  1  0.414125  0.757624  0.414125  1
  Al  Al13  1  0.834454  0.837609  0.493486  1
  Al  Al14  1  0.493486  0.837609  0.834454  1
  Al  Al15  1  0.834454  0.837609  0.834454  1
  Al  Al16  1  0.756514  0.412391  0.415546  1
  Al  Al17  1  0.415546  0.412391  0.415546  1
  Al  Al18  1  0.415546  0.412391  0.756514  1
  Al  Al19  1  0.835875  0.492376  0.835875  1
  Ir  Ir20  1  0.625000  0.125000  0.625000  1
  Pt  Pt21  1  0.625000  0.625000  0.125000  1
  Pt  Pt22  1  0.125000  0.625000  0.625000  1
  Pt  Pt23  1  0.625000  0.625000  0.625000  1
  N  N24  1  0.125000  0.625000  0.125000  1
  N  N25  1  0.125000  0.125000  0.625000  1
  N  N26  1  0.625000  0.125000  0.125000  1
  N  N27  1  0.125000  0.125000  0.125000  1
