# generated using pymatgen
data_Pr12Ru3PtCl12
_symmetry_space_group_name_H-M   'P 1'
_cell_length_a   10.31924866
_cell_length_b   10.31924803
_cell_length_c   10.26679400
_cell_angle_alpha   109.36828577
_cell_angle_beta   109.36828454
_cell_angle_gamma   109.57395875
_symmetry_Int_Tables_number   1
_chemical_formula_structural   Pr12Ru3PtCl12
_chemical_formula_sum   'Pr12 Ru3 Pt1 Cl12'
_cell_volume   842.67328558
_cell_formula_units_Z   1
loop_
 _symmetry_equiv_pos_site_id
 _symmetry_equiv_pos_as_xyz
  1  'x, y, z'
loop_
 _atom_site_type_symbol
 _atom_site_label
 _atom_site_symmetry_multiplicity
 _atom_site_fract_x
 _atom_site_fract_y
 _atom_site_fract_z
 _atom_site_occupancy
  Pr  Pr0  1  0.258470  0.740793  0.234559  1
  Pr  Pr1  1  0.482322  0.740793  0.006233  1
  Pr  Pr2  1  0.237951  0.475903  0.487951  1
  Pr  Pr3  1  0.010842  0.021687  0.260842  1
  Pr  Pr4  1  0.237951  0.262049  0.750000  1
  Pr  Pr5  1  0.010842  0.489158  0.750000  1
  Pr  Pr6  1  0.482322  0.241530  0.476087  1
  Pr  Pr7  1  0.258470  0.017678  0.023913  1
  Pr  Pr8  1  0.759207  0.241530  0.265441  1
  Pr  Pr9  1  0.759207  0.017678  0.493767  1
  Pr  Pr10  1  0.478313  0.489158  0.239158  1
  Pr  Pr11  1  0.024097  0.262049  0.012049  1
  Ru  Ru12  1  0.250062  0.500124  0.000062  1
  Ru  Ru13  1  0.999876  0.249938  0.499938  1
  Ru  Ru14  1  0.250062  0.249938  0.250000  1
  Pt  Pt15  1  0.500000  0.000000  0.250000  1
  Cl  Cl16  1  0.248401  0.999076  0.499158  1
  Cl  Cl17  1  0.503871  0.501935  0.751935  1
  Cl  Cl18  1  0.248401  0.749326  0.749243  1
  Cl  Cl19  1  0.999581  0.749792  0.999792  1
  Cl  Cl20  1  0.998065  0.501935  0.250000  1
  Cl  Cl21  1  0.750674  0.999076  0.999916  1
  Cl  Cl22  1  0.750208  0.749792  0.250000  1
  Cl  Cl23  1  0.500924  0.749326  0.500084  1
  Cl  Cl24  1  0.500924  0.251599  0.000842  1
  Cl  Cl25  1  0.750208  0.500419  0.500208  1
  Cl  Cl26  1  0.750674  0.251599  0.750757  1
  Cl  Cl27  1  0.998065  0.996129  0.748065  1
