# generated using pymatgen
data_Hf6Ta3Nb(Si3N)2
_symmetry_space_group_name_H-M   'P 1'
_cell_length_a   7.73156800
_cell_length_b   7.73156824
_cell_length_c   5.41695800
_cell_angle_alpha   90.00000000
_cell_angle_beta   90.00000000
_cell_angle_gamma   120.00000753
_symmetry_Int_Tables_number   1
_chemical_formula_structural   Hf6Ta3Nb(Si3N)2
_chemical_formula_sum   'Hf6 Ta3 Nb1 Si6 N2'
_cell_volume   280.42791336
_cell_formula_units_Z   1
loop_
 _symmetry_equiv_pos_site_id
 _symmetry_equiv_pos_as_xyz
  1  'x, y, z'
loop_
 _atom_site_type_symbol
 _atom_site_label
 _atom_site_symmetry_multiplicity
 _atom_site_fract_x
 _atom_site_fract_y
 _atom_site_fract_z
 _atom_site_occupancy
  Hf  Hf0  1  0.236854  0.000168  0.249738  1
  Hf  Hf1  1  0.763314  0.000168  0.750262  1
  Hf  Hf2  1  0.999832  0.236686  0.249738  1
  Hf  Hf3  1  0.999832  0.763146  0.750262  1
  Hf  Hf4  1  0.763314  0.763146  0.249738  1
  Hf  Hf5  1  0.236854  0.236686  0.750262  1
  Ta  Ta6  1  0.666667  0.333333  0.000000  1
  Ta  Ta7  1  0.666667  0.333333  0.500000  1
  Ta  Ta8  1  0.333333  0.666667  0.500000  1
  Nb  Nb9  1  0.333333  0.666667  0.000000  1
  Si  Si10  1  0.592246  0.000092  0.249904  1
  Si  Si11  1  0.407845  0.000092  0.750096  1
  Si  Si12  1  0.999908  0.592155  0.249904  1
  Si  Si13  1  0.999908  0.407754  0.750096  1
  Si  Si14  1  0.407845  0.407754  0.249904  1
  Si  Si15  1  0.592246  0.592155  0.750096  1
  N  N16  1  0.000000  0.000000  0.000000  1
  N  N17  1  0.000000  0.000000  0.500000  1
