# generated using pymatgen
data_Tb7Dy3(GePb3)2
_symmetry_space_group_name_H-M   'P 1'
_cell_length_a   9.38271700
_cell_length_b   9.38271701
_cell_length_c   6.56706900
_cell_angle_alpha   90.00000000
_cell_angle_beta   90.00000000
_cell_angle_gamma   120.00000349
_symmetry_Int_Tables_number   1
_chemical_formula_structural   Tb7Dy3(GePb3)2
_chemical_formula_sum   'Tb7 Dy3 Ge2 Pb6'
_cell_volume   500.67906329
_cell_formula_units_Z   1
loop_
 _symmetry_equiv_pos_site_id
 _symmetry_equiv_pos_as_xyz
  1  'x, y, z'
loop_
 _atom_site_type_symbol
 _atom_site_label
 _atom_site_symmetry_multiplicity
 _atom_site_fract_x
 _atom_site_fract_y
 _atom_site_fract_z
 _atom_site_occupancy
  Tb  Tb0  1  0.251592  0.000016  0.249981  1
  Tb  Tb1  1  0.748424  0.000016  0.750019  1
  Tb  Tb2  1  0.999984  0.251576  0.249981  1
  Tb  Tb3  1  0.999984  0.748408  0.750019  1
  Tb  Tb4  1  0.748424  0.748408  0.249981  1
  Tb  Tb5  1  0.251592  0.251576  0.750019  1
  Tb  Tb6  1  0.333333  0.666667  0.000000  1
  Dy  Dy7  1  0.666667  0.333333  0.000000  1
  Dy  Dy8  1  0.666667  0.333333  0.500000  1
  Dy  Dy9  1  0.333333  0.666667  0.500000  1
  Ge  Ge10  1  0.000000  0.000000  0.000000  1
  Ge  Ge11  1  0.000000  0.000000  0.500000  1
  Pb  Pb12  1  0.607901  0.000046  0.250017  1
  Pb  Pb13  1  0.392145  0.000046  0.749983  1
  Pb  Pb14  1  0.999954  0.607855  0.250017  1
  Pb  Pb15  1  0.999954  0.392099  0.749983  1
  Pb  Pb16  1  0.392145  0.392099  0.250017  1
  Pb  Pb17  1  0.607901  0.607855  0.749983  1
