# generated using pymatgen
data_YbSc6CoBr12
_symmetry_space_group_name_H-M   'P 1'
_cell_length_a   8.77839544
_cell_length_b   8.77839636
_cell_length_c   8.77839651
_cell_angle_alpha   106.54000337
_cell_angle_beta   106.54000366
_cell_angle_gamma   106.54001141
_symmetry_Int_Tables_number   1
_chemical_formula_structural   YbSc6CoBr12
_chemical_formula_sum   'Yb1 Sc6 Co1 Br12'
_cell_volume   570.28831708
_cell_formula_units_Z   1
loop_
 _symmetry_equiv_pos_site_id
 _symmetry_equiv_pos_as_xyz
  1  'x, y, z'
loop_
 _atom_site_type_symbol
 _atom_site_label
 _atom_site_symmetry_multiplicity
 _atom_site_fract_x
 _atom_site_fract_y
 _atom_site_fract_z
 _atom_site_occupancy
  Yb  Yb0  1  0.500000  0.500000  0.500000  1
  Sc  Sc1  1  0.297565  0.093071  0.019842  1
  Sc  Sc2  1  0.093071  0.019842  0.297565  1
  Sc  Sc3  1  0.019842  0.297565  0.093071  1
  Sc  Sc4  1  0.702435  0.906929  0.980158  1
  Sc  Sc5  1  0.906929  0.980158  0.702435  1
  Sc  Sc6  1  0.980158  0.702435  0.906929  1
  Co  Co7  1  0.000000  0.000000  0.000000  1
  Br  Br8  1  0.219779  0.072242  0.680926  1
  Br  Br9  1  0.072242  0.680926  0.219779  1
  Br  Br10  1  0.680926  0.219779  0.072242  1
  Br  Br11  1  0.780221  0.927758  0.319074  1
  Br  Br12  1  0.927758  0.319074  0.780221  1
  Br  Br13  1  0.319074  0.780221  0.927758  1
  Br  Br14  1  0.367051  0.442649  0.140448  1
  Br  Br15  1  0.442649  0.140448  0.367051  1
  Br  Br16  1  0.140448  0.367051  0.442649  1
  Br  Br17  1  0.632949  0.557351  0.859552  1
  Br  Br18  1  0.557351  0.859552  0.632949  1
  Br  Br19  1  0.859552  0.632949  0.557351  1
