# generated using pymatgen
data_PrNd3In2Si3Ge
_symmetry_space_group_name_H-M   'P 1'
_cell_length_a   7.52711903
_cell_length_b   7.52695456
_cell_length_c   4.33370500
_cell_angle_alpha   90.00000000
_cell_angle_beta   90.00000000
_cell_angle_gamma   90.07402905
_symmetry_Int_Tables_number   1
_chemical_formula_structural   PrNd3In2Si3Ge
_chemical_formula_sum   'Pr1 Nd3 In2 Si3 Ge1'
_cell_volume   245.53141156
_cell_formula_units_Z   1
loop_
 _symmetry_equiv_pos_site_id
 _symmetry_equiv_pos_as_xyz
  1  'x, y, z'
loop_
 _atom_site_type_symbol
 _atom_site_label
 _atom_site_symmetry_multiplicity
 _atom_site_fract_x
 _atom_site_fract_y
 _atom_site_fract_z
 _atom_site_occupancy
  Pr  Pr0  1  0.681013  0.183172  0.500000  1
  Nd  Nd1  1  0.316761  0.818967  0.500000  1
  Nd  Nd2  1  0.821064  0.679075  0.500000  1
  Nd  Nd3  1  0.180001  0.320113  0.500000  1
  In  In4  1  0.004048  0.001265  0.000000  1
  In  In5  1  0.498299  0.496647  0.000000  1
  Si  Si6  1  0.382878  0.116254  0.000000  1
  Si  Si7  1  0.888108  0.387510  0.000000  1
  Si  Si8  1  0.113164  0.612556  0.000000  1
  Ge  Ge9  1  0.614665  0.884443  0.000000  1
