# generated using pymatgen
data_Tb6TmCoBr12
_symmetry_space_group_name_H-M   'P 1'
_cell_length_a   9.23971727
_cell_length_b   9.23971757
_cell_length_c   9.23971794
_cell_angle_alpha   106.86135384
_cell_angle_beta   106.86135683
_cell_angle_gamma   106.86136668
_symmetry_Int_Tables_number   1
_chemical_formula_structural   Tb6TmCoBr12
_chemical_formula_sum   'Tb6 Tm1 Co1 Br12'
_cell_volume   659.40281939
_cell_formula_units_Z   1
loop_
 _symmetry_equiv_pos_site_id
 _symmetry_equiv_pos_as_xyz
  1  'x, y, z'
loop_
 _atom_site_type_symbol
 _atom_site_label
 _atom_site_symmetry_multiplicity
 _atom_site_fract_x
 _atom_site_fract_y
 _atom_site_fract_z
 _atom_site_occupancy
  Tb  Tb0  1  0.301604  0.097116  0.021668  1
  Tb  Tb1  1  0.097116  0.021668  0.301604  1
  Tb  Tb2  1  0.021668  0.301604  0.097116  1
  Tb  Tb3  1  0.698396  0.902884  0.978332  1
  Tb  Tb4  1  0.902884  0.978332  0.698396  1
  Tb  Tb5  1  0.978332  0.698396  0.902884  1
  Tm  Tm6  1  0.500000  0.500000  0.500000  1
  Co  Co7  1  0.000000  0.000000  0.000000  1
  Br  Br8  1  0.221866  0.070414  0.678320  1
  Br  Br9  1  0.070414  0.678320  0.221866  1
  Br  Br10  1  0.678320  0.221866  0.070414  1
  Br  Br11  1  0.778134  0.929586  0.321680  1
  Br  Br12  1  0.929586  0.321680  0.778134  1
  Br  Br13  1  0.321680  0.778134  0.929586  1
  Br  Br14  1  0.388574  0.462301  0.171395  1
  Br  Br15  1  0.462301  0.171395  0.388574  1
  Br  Br16  1  0.171395  0.388574  0.462301  1
  Br  Br17  1  0.611426  0.537699  0.828605  1
  Br  Br18  1  0.537699  0.828605  0.611426  1
  Br  Br19  1  0.828605  0.611426  0.537699  1
