# generated using pymatgen
data_Li4Gd3ThSi8
_symmetry_space_group_name_H-M   'P 1'
_cell_length_a   3.78141100
_cell_length_b   7.65972796
_cell_length_c   10.21882500
_cell_angle_alpha   89.97134361
_cell_angle_beta   90.00000000
_cell_angle_gamma   90.00000000
_symmetry_Int_Tables_number   1
_chemical_formula_structural   Li4Gd3ThSi8
_chemical_formula_sum   'Li4 Gd3 Th1 Si8'
_cell_volume   295.98393268
_cell_formula_units_Z   1
loop_
 _symmetry_equiv_pos_site_id
 _symmetry_equiv_pos_as_xyz
  1  'x, y, z'
loop_
 _atom_site_type_symbol
 _atom_site_label
 _atom_site_symmetry_multiplicity
 _atom_site_fract_x
 _atom_site_fract_y
 _atom_site_fract_z
 _atom_site_occupancy
  Li  Li0  1  0.250000  0.990681  0.393391  1
  Li  Li1  1  0.750000  0.010908  0.609106  1
  Li  Li2  1  0.250000  0.489424  0.104106  1
  Li  Li3  1  0.750000  0.510559  0.894300  1
  Gd  Gd4  1  0.250000  0.135645  0.862430  1
  Gd  Gd5  1  0.750000  0.862500  0.135730  1
  Gd  Gd6  1  0.250000  0.637342  0.636927  1
  Th  Th7  1  0.750000  0.360242  0.362564  1
  Si  Si8  1  0.750000  0.263932  0.064679  1
  Si  Si9  1  0.250000  0.732945  0.932795  1
  Si  Si10  1  0.750000  0.770940  0.432890  1
  Si  Si11  1  0.250000  0.233293  0.570723  1
  Si  Si12  1  0.750000  0.840413  0.819731  1
  Si  Si13  1  0.250000  0.156368  0.178618  1
  Si  Si14  1  0.750000  0.341916  0.684677  1
  Si  Si15  1  0.250000  0.662890  0.317334  1
