# generated using pymatgen
data_Eu9Y(Pb3Br)2
_symmetry_space_group_name_H-M   'P 1'
_cell_length_a   9.73197600
_cell_length_b   9.73197561
_cell_length_c   7.19290200
_cell_angle_alpha   90.00000000
_cell_angle_beta   90.00000000
_cell_angle_gamma   120.00000131
_symmetry_Int_Tables_number   1
_chemical_formula_structural   Eu9Y(Pb3Br)2
_chemical_formula_sum   'Eu9 Y1 Pb6 Br2'
_cell_volume   589.97934928
_cell_formula_units_Z   1
loop_
 _symmetry_equiv_pos_site_id
 _symmetry_equiv_pos_as_xyz
  1  'x, y, z'
loop_
 _atom_site_type_symbol
 _atom_site_label
 _atom_site_symmetry_multiplicity
 _atom_site_fract_x
 _atom_site_fract_y
 _atom_site_fract_z
 _atom_site_occupancy
  Eu  Eu0  1  0.258680  0.000908  0.252859  1
  Eu  Eu1  1  0.742228  0.000908  0.747141  1
  Eu  Eu2  1  0.999092  0.257772  0.252859  1
  Eu  Eu3  1  0.999092  0.741320  0.747141  1
  Eu  Eu4  1  0.742228  0.741320  0.252859  1
  Eu  Eu5  1  0.258680  0.257772  0.747141  1
  Eu  Eu6  1  0.333333  0.666667  0.000000  1
  Eu  Eu7  1  0.666667  0.333333  0.000000  1
  Eu  Eu8  1  0.666667  0.333333  0.500000  1
  Y  Y9  1  0.333333  0.666667  0.500000  1
  Pb  Pb10  1  0.594041  0.993680  0.259663  1
  Pb  Pb11  1  0.399639  0.993680  0.740337  1
  Pb  Pb12  1  0.006320  0.600361  0.259663  1
  Pb  Pb13  1  0.006320  0.405959  0.740337  1
  Pb  Pb14  1  0.399639  0.405959  0.259663  1
  Pb  Pb15  1  0.594041  0.600361  0.740337  1
  Br  Br16  1  0.000000  0.000000  0.000000  1
  Br  Br17  1  0.000000  0.000000  0.500000  1
