# generated using pymatgen
data_Na2TlCo(NO3)8
_symmetry_space_group_name_H-M   'P 1'
_cell_length_a   7.95638496
_cell_length_b   8.00289712
_cell_length_c   8.01186162
_cell_angle_alpha   91.10579956
_cell_angle_beta   88.77567063
_cell_angle_gamma   88.05258911
_symmetry_Int_Tables_number   1
_chemical_formula_structural   Na2TlCo(NO3)8
_chemical_formula_sum   'Na2 Tl1 Co1 N8 O24'
_cell_volume   509.63490450
_cell_formula_units_Z   1
loop_
 _symmetry_equiv_pos_site_id
 _symmetry_equiv_pos_as_xyz
  1  'x, y, z'
loop_
 _atom_site_type_symbol
 _atom_site_label
 _atom_site_symmetry_multiplicity
 _atom_site_fract_x
 _atom_site_fract_y
 _atom_site_fract_z
 _atom_site_occupancy
  Na  Na0  1  0.500000  0.000000  0.000000  1
  Na  Na1  1  0.000000  0.500000  0.000000  1
  Tl  Tl2  1  0.500000  0.500000  0.500000  1
  Co  Co3  1  0.000000  0.000000  0.500000  1
  N  N4  1  0.698760  0.152869  0.327701  1
  N  N5  1  0.655275  0.332385  0.818839  1
  N  N6  1  0.858811  0.828220  0.807875  1
  N  N7  1  0.821839  0.689830  0.356291  1
  N  N8  1  0.141189  0.171780  0.192125  1
  N  N9  1  0.178161  0.310170  0.643709  1
  N  N10  1  0.344725  0.667615  0.181161  1
  N  N11  1  0.301240  0.847131  0.672299  1
  O  O12  1  0.542004  0.231944  0.797052  1
  O  O13  1  0.584669  0.267988  0.315045  1
  O  O14  1  0.673969  0.458206  0.714614  1
  O  O15  1  0.711382  0.038935  0.221422  1
  O  O16  1  0.712750  0.707480  0.475732  1
  O  O17  1  0.739894  0.828177  0.910857  1
  O  O18  1  0.756970  0.326218  0.934017  1
  O  O19  1  0.797406  0.160642  0.452661  1
  O  O20  1  0.861539  0.953094  0.704733  1
  O  O21  1  0.811381  0.580313  0.246064  1
  O  O22  1  0.973169  0.718697  0.800062  1
  O  O23  1  0.945042  0.788699  0.353529  1
  O  O24  1  0.054958  0.211301  0.646471  1
  O  O25  1  0.026831  0.281303  0.199938  1
  O  O26  1  0.188619  0.419687  0.753936  1
  O  O27  1  0.138461  0.046906  0.295267  1
  O  O28  1  0.243030  0.673782  0.065983  1
  O  O29  1  0.202594  0.839358  0.547339  1
  O  O30  1  0.260106  0.171823  0.089143  1
  O  O31  1  0.287250  0.292520  0.524268  1
  O  O32  1  0.326031  0.541794  0.285386  1
  O  O33  1  0.288618  0.961065  0.778578  1
  O  O34  1  0.415331  0.732012  0.684955  1
  O  O35  1  0.457996  0.768056  0.202948  1
