# generated using pymatgen
data_K8Mn3CoP8(WO10)4
_symmetry_space_group_name_H-M   'P 1'
_cell_length_a   9.35493000
_cell_length_b   9.35493000
_cell_length_c   10.85175400
_cell_angle_alpha   90.00000000
_cell_angle_beta   90.00000000
_cell_angle_gamma   90.00000000
_symmetry_Int_Tables_number   1
_chemical_formula_structural   K8Mn3CoP8(WO10)4
_chemical_formula_sum   'K8 Mn3 Co1 P8 W4 O40'
_cell_volume   949.68816187
_cell_formula_units_Z   1
loop_
 _symmetry_equiv_pos_site_id
 _symmetry_equiv_pos_as_xyz
  1  'x, y, z'
loop_
 _atom_site_type_symbol
 _atom_site_label
 _atom_site_symmetry_multiplicity
 _atom_site_fract_x
 _atom_site_fract_y
 _atom_site_fract_z
 _atom_site_occupancy
  K  K0  1  0.712313  0.000493  0.947931  1
  K  K1  1  0.286649  0.999579  0.448922  1
  K  K2  1  0.787385  0.500950  0.302158  1
  K  K3  1  0.212369  0.501187  0.801539  1
  K  K4  1  0.999507  0.287687  0.552069  1
  K  K5  1  0.499050  0.212615  0.197842  1
  K  K6  1  0.000421  0.713351  0.051078  1
  K  K7  1  0.498813  0.787631  0.698461  1
  Mn  Mn8  1  0.866030  0.133970  0.250000  1
  Mn  Mn9  1  0.634270  0.634636  0.999855  1
  Mn  Mn10  1  0.365364  0.365730  0.500145  1
  Co  Co11  1  0.135736  0.864264  0.750000  1
  P  P12  1  0.674521  0.829772  0.254931  1
  P  P13  1  0.670637  0.174405  0.504754  1
  P  P14  1  0.825595  0.329363  0.995246  1
  P  P15  1  0.324522  0.169644  0.754402  1
  P  P16  1  0.830356  0.675478  0.745598  1
  P  P17  1  0.170228  0.325479  0.245069  1
  P  P18  1  0.328731  0.826527  0.002607  1
  P  P19  1  0.173473  0.671269  0.497393  1
  W  W20  1  0.386647  0.613353  0.250000  1
  W  W21  1  0.612976  0.387024  0.750000  1
  W  W22  1  0.887749  0.886861  0.501419  1
  W  W23  1  0.113139  0.112251  0.998581  1
  O  O24  1  0.781718  0.754457  0.625266  1
  O  O25  1  0.000920  0.955463  0.622699  1
  O  O26  1  0.255659  0.717545  0.377866  1
  O  O27  1  0.963720  0.999124  0.382455  1
  O  O28  1  0.217804  0.486258  0.222431  1
  O  O29  1  0.745154  0.282756  0.875213  1
  O  O30  1  0.536935  0.496805  0.870330  1
  O  O31  1  0.236114  0.758203  0.605052  1
  O  O32  1  0.985637  0.280482  0.971055  1
  O  O33  1  0.783043  0.514314  0.723550  1
  O  O34  1  0.319302  0.008797  0.733403  1
  O  O35  1  0.260075  0.255796  0.647570  1
  O  O36  1  0.282966  0.986958  0.028503  1
  O  O37  1  0.503195  0.463065  0.629670  1
  O  O38  1  0.717244  0.254846  0.624787  1
  O  O39  1  0.513742  0.782196  0.277569  1
  O  O40  1  0.489284  0.822314  0.980351  1
  O  O41  1  0.245543  0.218282  0.874734  1
  O  O42  1  0.216571  0.245034  0.124919  1
  O  O43  1  0.462398  0.502789  0.369827  1
  O  O44  1  0.044537  0.999080  0.877301  1
  O  O45  1  0.756464  0.239465  0.398123  1
  O  O46  1  0.177686  0.510716  0.519649  1
  O  O47  1  0.013042  0.717034  0.471497  1
  O  O48  1  0.256442  0.260714  0.351671  1
  O  O49  1  0.009745  0.322789  0.267218  1
  O  O50  1  0.719518  0.014363  0.528945  1
  O  O51  1  0.823519  0.489890  0.017340  1
  O  O52  1  0.677211  0.990255  0.232782  1
  O  O53  1  0.760535  0.243536  0.101877  1
  O  O54  1  0.754966  0.783429  0.375081  1
  O  O55  1  0.282455  0.744341  0.122134  1
  O  O56  1  0.991203  0.680698  0.766597  1
  O  O57  1  0.000876  0.036280  0.117545  1
  O  O58  1  0.241797  0.763886  0.894948  1
  O  O59  1  0.497211  0.537602  0.130173  1
  O  O60  1  0.744204  0.739925  0.852430  1
  O  O61  1  0.739286  0.743558  0.148329  1
  O  O62  1  0.510110  0.176481  0.482660  1
  O  O63  1  0.485686  0.216957  0.776450  1
