# generated using pymatgen
data_Sr2Cd3HgPd2
_symmetry_space_group_name_H-M   'P 1'
_cell_length_a   5.84699578
_cell_length_b   5.84699551
_cell_length_c   8.17002690
_cell_angle_alpha   89.73428792
_cell_angle_beta   90.26571267
_cell_angle_gamma   134.40623185
_symmetry_Int_Tables_number   1
_chemical_formula_structural   Sr2Cd3HgPd2
_chemical_formula_sum   'Sr2 Cd3 Hg1 Pd2'
_cell_volume   199.53675090
_cell_formula_units_Z   1
loop_
 _symmetry_equiv_pos_site_id
 _symmetry_equiv_pos_as_xyz
  1  'x, y, z'
loop_
 _atom_site_type_symbol
 _atom_site_label
 _atom_site_symmetry_multiplicity
 _atom_site_fract_x
 _atom_site_fract_y
 _atom_site_fract_z
 _atom_site_occupancy
  Sr  Sr0  1  0.937023  0.062977  0.252749  1
  Sr  Sr1  1  0.064357  0.935643  0.746768  1
  Cd  Cd2  1  0.350355  0.649645  0.555418  1
  Cd  Cd3  1  0.648439  0.351561  0.053053  1
  Cd  Cd4  1  0.352434  0.647566  0.945711  1
  Hg  Hg5  1  0.642903  0.357097  0.447225  1
  Pd  Pd6  1  0.223609  0.776391  0.247211  1
  Pd  Pd7  1  0.780880  0.219120  0.751866  1
