# generated using pymatgen
data_Tb3YbIr8
_symmetry_space_group_name_H-M   'P 1'
_cell_length_a   5.36100200
_cell_length_b   5.36100157
_cell_length_c   8.71861000
_cell_angle_alpha   90.00000000
_cell_angle_beta   90.00000000
_cell_angle_gamma   119.99999033
_symmetry_Int_Tables_number   1
_chemical_formula_structural   Tb3YbIr8
_chemical_formula_sum   'Tb3 Yb1 Ir8'
_cell_volume   217.00504411
_cell_formula_units_Z   1
loop_
 _symmetry_equiv_pos_site_id
 _symmetry_equiv_pos_as_xyz
  1  'x, y, z'
loop_
 _atom_site_type_symbol
 _atom_site_label
 _atom_site_symmetry_multiplicity
 _atom_site_fract_x
 _atom_site_fract_y
 _atom_site_fract_z
 _atom_site_occupancy
  Tb  Tb0  1  0.333333  0.666667  0.075387  1
  Tb  Tb1  1  0.666667  0.333333  0.561887  1
  Tb  Tb2  1  0.666667  0.333333  0.930491  1
  Yb  Yb3  1  0.333333  0.666667  0.435991  1
  Ir  Ir4  1  0.000000  0.000000  0.999344  1
  Ir  Ir5  1  0.000000  0.000000  0.498900  1
  Ir  Ir6  1  0.830308  0.660616  0.249165  1
  Ir  Ir7  1  0.169812  0.830188  0.750167  1
  Ir  Ir8  1  0.660375  0.830188  0.750167  1
  Ir  Ir9  1  0.339384  0.169692  0.249165  1
  Ir  Ir10  1  0.830308  0.169692  0.249165  1
  Ir  Ir11  1  0.169812  0.339625  0.750167  1
