# generated using pymatgen
data_Dy9Y6ErCd2(AgPt2)2
_symmetry_space_group_name_H-M   'P 1'
_cell_length_a   9.68906013
_cell_length_b   9.68905997
_cell_length_c   9.68967200
_cell_angle_alpha   59.99790359
_cell_angle_beta   59.99790416
_cell_angle_gamma   59.95718585
_symmetry_Int_Tables_number   1
_chemical_formula_structural   Dy9Y6ErCd2(AgPt2)2
_chemical_formula_sum   'Dy9 Y6 Er1 Cd2 Ag2 Pt4'
_cell_volume   642.98804940
_cell_formula_units_Z   1
loop_
 _symmetry_equiv_pos_site_id
 _symmetry_equiv_pos_as_xyz
  1  'x, y, z'
loop_
 _atom_site_type_symbol
 _atom_site_label
 _atom_site_symmetry_multiplicity
 _atom_site_fract_x
 _atom_site_fract_y
 _atom_site_fract_z
 _atom_site_occupancy
  Dy  Dy0  1  0.352299  0.352299  0.350518  1
  Dy  Dy1  1  0.352299  0.352299  0.944883  1
  Dy  Dy2  1  0.355602  0.938714  0.352842  1
  Dy  Dy3  1  0.938714  0.355602  0.352842  1
  Dy  Dy4  1  0.810735  0.189450  0.190379  1
  Dy  Dy5  1  0.189450  0.810735  0.809436  1
  Dy  Dy6  1  0.189450  0.810735  0.190379  1
  Dy  Dy7  1  0.810735  0.189450  0.809436  1
  Dy  Dy8  1  0.190627  0.190627  0.809373  1
  Y  Y9  1  0.933178  0.564430  0.564603  1
  Y  Y10  1  0.564430  0.933178  0.937790  1
  Y  Y11  1  0.564430  0.933178  0.564603  1
  Y  Y12  1  0.933178  0.564430  0.937790  1
  Y  Y13  1  0.564428  0.564428  0.935572  1
  Y  Y14  1  0.935993  0.935993  0.564007  1
  Er  Er15  1  0.810312  0.810312  0.189688  1
  Cd  Cd16  1  0.581402  0.256402  0.581099  1
  Cd  Cd17  1  0.256402  0.581402  0.581099  1
  Ag  Ag18  1  0.583281  0.583281  0.582926  1
  Ag  Ag19  1  0.583281  0.583281  0.250511  1
  Pt  Pt20  1  0.143677  0.143677  0.144487  1
  Pt  Pt21  1  0.143677  0.143677  0.568158  1
  Pt  Pt22  1  0.140896  0.571526  0.143789  1
  Pt  Pt23  1  0.571526  0.140896  0.143789  1
