# generated using pymatgen
data_Li2Er3AlZnSi2
_symmetry_space_group_name_H-M   'P 1'
_cell_length_a   6.91568141
_cell_length_b   6.91567940
_cell_length_c   4.25767300
_cell_angle_alpha   90.00000000
_cell_angle_beta   90.00000000
_cell_angle_gamma   120.33467839
_symmetry_Int_Tables_number   1
_chemical_formula_structural   Li2Er3AlZnSi2
_chemical_formula_sum   'Li2 Er3 Al1 Zn1 Si2'
_cell_volume   175.75117269
_cell_formula_units_Z   1
loop_
 _symmetry_equiv_pos_site_id
 _symmetry_equiv_pos_as_xyz
  1  'x, y, z'
loop_
 _atom_site_type_symbol
 _atom_site_label
 _atom_site_symmetry_multiplicity
 _atom_site_fract_x
 _atom_site_fract_y
 _atom_site_fract_z
 _atom_site_occupancy
  Li  Li0  1  0.759300  0.003322  0.000000  1
  Li  Li1  1  0.003322  0.759300  0.000000  1
  Er  Er2  1  0.427032  0.998193  0.500000  1
  Er  Er3  1  0.998193  0.427032  0.500000  1
  Er  Er4  1  0.575232  0.575232  0.500000  1
  Al  Al5  1  0.240759  0.240759  0.000000  1
  Zn  Zn6  1  0.003446  0.003446  0.500000  1
  Si  Si7  1  0.332535  0.660182  0.000000  1
  Si  Si8  1  0.660182  0.332535  0.000000  1
