# generated using pymatgen
data_Er7Tm(AlRh)2
_symmetry_space_group_name_H-M   'P 1'
_cell_length_a   9.48064243
_cell_length_b   9.48064363
_cell_length_c   9.48477900
_cell_angle_alpha   59.98557336
_cell_angle_beta   59.98556916
_cell_angle_gamma   59.96227511
_symmetry_Int_Tables_number   1
_chemical_formula_structural   Er7Tm(AlRh)2
_chemical_formula_sum   'Er14 Tm2 Al4 Rh4'
_cell_volume   602.51676904
_cell_formula_units_Z   2
loop_
 _symmetry_equiv_pos_site_id
 _symmetry_equiv_pos_as_xyz
  1  'x, y, z'
loop_
 _atom_site_type_symbol
 _atom_site_label
 _atom_site_symmetry_multiplicity
 _atom_site_fract_x
 _atom_site_fract_y
 _atom_site_fract_z
 _atom_site_occupancy
  Er  Er0  1  0.063338  0.063338  0.436662  1
  Er  Er1  1  0.436546  0.063114  0.436992  1
  Er  Er2  1  0.063114  0.436546  0.063346  1
  Er  Er3  1  0.058262  0.646423  0.647658  1
  Er  Er4  1  0.436837  0.436837  0.063163  1
  Er  Er5  1  0.646423  0.058262  0.647658  1
  Er  Er6  1  0.192749  0.807841  0.191773  1
  Er  Er7  1  0.191926  0.191926  0.808074  1
  Er  Er8  1  0.807403  0.807403  0.192597  1
  Er  Er9  1  0.436546  0.063114  0.063346  1
  Er  Er10  1  0.807841  0.192749  0.191773  1
  Er  Er11  1  0.063114  0.436546  0.436992  1
  Er  Er12  1  0.807841  0.192749  0.807637  1
  Er  Er13  1  0.192749  0.807841  0.807637  1
  Tm  Tm14  1  0.647562  0.647562  0.056263  1
  Tm  Tm15  1  0.647562  0.647562  0.648616  1
  Al  Al16  1  0.422229  0.422229  0.421603  1
  Al  Al17  1  0.733601  0.422465  0.421967  1
  Al  Al18  1  0.422465  0.733601  0.421967  1
  Al  Al19  1  0.422229  0.422229  0.733939  1
  Rh  Rh20  1  0.856961  0.856961  0.428584  1
  Rh  Rh21  1  0.856961  0.856961  0.857493  1
  Rh  Rh22  1  0.429031  0.856709  0.857130  1
  Rh  Rh23  1  0.856709  0.429031  0.857130  1
