# generated using pymatgen
data_TbTm3CoHg
_symmetry_space_group_name_H-M   'P 1'
_cell_length_a   9.35213396
_cell_length_b   9.35213480
_cell_length_c   9.35213400
_cell_angle_alpha   59.99999577
_cell_angle_beta   59.99999278
_cell_angle_gamma   60.00000022
_symmetry_Int_Tables_number   1
_chemical_formula_structural   TbTm3CoHg
_chemical_formula_sum   'Tb4 Tm12 Co4 Hg4'
_cell_volume   578.38518938
_cell_formula_units_Z   4
loop_
 _symmetry_equiv_pos_site_id
 _symmetry_equiv_pos_as_xyz
  1  'x, y, z'
loop_
 _atom_site_type_symbol
 _atom_site_label
 _atom_site_symmetry_multiplicity
 _atom_site_fract_x
 _atom_site_fract_y
 _atom_site_fract_z
 _atom_site_occupancy
  Tb  Tb0  1  0.348927  0.348927  0.348927  1
  Tb  Tb1  1  0.348927  0.348927  0.953218  1
  Tb  Tb2  1  0.348927  0.953218  0.348927  1
  Tb  Tb3  1  0.953218  0.348927  0.348927  1
  Tm  Tm4  1  0.812754  0.187246  0.187246  1
  Tm  Tm5  1  0.187246  0.812754  0.812754  1
  Tm  Tm6  1  0.187246  0.812754  0.187246  1
  Tm  Tm7  1  0.812754  0.187246  0.812754  1
  Tm  Tm8  1  0.187246  0.187246  0.812754  1
  Tm  Tm9  1  0.812754  0.812754  0.187246  1
  Tm  Tm10  1  0.937602  0.562398  0.562398  1
  Tm  Tm11  1  0.562398  0.937602  0.937602  1
  Tm  Tm12  1  0.562398  0.937602  0.562398  1
  Tm  Tm13  1  0.937602  0.562398  0.937602  1
  Tm  Tm14  1  0.562398  0.562398  0.937602  1
  Tm  Tm15  1  0.937602  0.937602  0.562398  1
  Co  Co16  1  0.140771  0.140771  0.140771  1
  Co  Co17  1  0.140771  0.140771  0.577688  1
  Co  Co18  1  0.140771  0.577688  0.140771  1
  Co  Co19  1  0.577688  0.140771  0.140771  1
  Hg  Hg20  1  0.584331  0.584331  0.584331  1
  Hg  Hg21  1  0.584331  0.584331  0.247008  1
  Hg  Hg22  1  0.584331  0.247008  0.584331  1
  Hg  Hg23  1  0.247008  0.584331  0.584331  1
