# generated using pymatgen
data_La4NdTa2BiO14
_symmetry_space_group_name_H-M   'P 1'
_cell_length_a   6.73600628
_cell_length_b   6.83991653
_cell_length_c   7.78231600
_cell_angle_alpha   90.00000000
_cell_angle_beta   90.00000000
_cell_angle_gamma   109.42298054
_symmetry_Int_Tables_number   1
_chemical_formula_structural   La4NdTa2BiO14
_chemical_formula_sum   'La4 Nd1 Ta2 Bi1 O14'
_cell_volume   338.15435927
_cell_formula_units_Z   1
loop_
 _symmetry_equiv_pos_site_id
 _symmetry_equiv_pos_as_xyz
  1  'x, y, z'
loop_
 _atom_site_type_symbol
 _atom_site_label
 _atom_site_symmetry_multiplicity
 _atom_site_fract_x
 _atom_site_fract_y
 _atom_site_fract_z
 _atom_site_occupancy
  La  La0  1  0.534696  0.525470  0.500728  1
  La  La1  1  0.534696  0.525470  0.999272  1
  La  La2  1  0.011050  0.469588  0.750000  1
  La  La3  1  0.454907  0.999030  0.250000  1
  Nd  Nd4  1  0.533763  0.003780  0.750000  1
  Ta  Ta5  1  0.995355  0.995433  0.501032  1
  Ta  Ta6  1  0.995355  0.995433  0.998968  1
  Bi  Bi7  1  0.012175  0.501204  0.250000  1
  O  O8  1  0.940104  0.063084  0.750000  1
  O  O9  1  0.043378  0.964143  0.250000  1
  O  O10  1  0.369953  0.631494  0.250000  1
  O  O11  1  0.644201  0.364331  0.750000  1
  O  O12  1  0.383306  0.634535  0.750000  1
  O  O13  1  0.631755  0.361736  0.250000  1
  O  O14  1  0.298986  0.055307  0.965092  1
  O  O15  1  0.678264  0.925903  0.475612  1
  O  O16  1  0.298986  0.055307  0.534908  1
  O  O17  1  0.678264  0.925903  0.024388  1
  O  O18  1  0.053923  0.307307  0.466187  1
  O  O19  1  0.926480  0.694117  0.965143  1
  O  O20  1  0.926480  0.694117  0.534857  1
  O  O21  1  0.053923  0.307307  0.033813  1
