# generated using pymatgen
data_Er7ScV2(B12Rh)2
_symmetry_space_group_name_H-M   'P 1'
_cell_length_a   3.57117500
_cell_length_b   9.10687793
_cell_length_c   11.48831221
_cell_angle_alpha   90.03508589
_cell_angle_beta   90.00000000
_cell_angle_gamma   90.00000000
_symmetry_Int_Tables_number   1
_chemical_formula_structural   Er7ScV2(B12Rh)2
_chemical_formula_sum   'Er7 Sc1 V2 B24 Rh2'
_cell_volume   373.62574678
_cell_formula_units_Z   1
loop_
 _symmetry_equiv_pos_site_id
 _symmetry_equiv_pos_as_xyz
  1  'x, y, z'
loop_
 _atom_site_type_symbol
 _atom_site_label
 _atom_site_symmetry_multiplicity
 _atom_site_fract_x
 _atom_site_fract_y
 _atom_site_fract_z
 _atom_site_occupancy
  Er  Er0  1  0.000000  0.944775  0.370750  1
  Er  Er1  1  0.000000  0.056352  0.627855  1
  Er  Er2  1  0.000000  0.554939  0.873543  1
  Er  Er3  1  0.000000  0.181315  0.915448  1
  Er  Er4  1  0.000000  0.823345  0.086313  1
  Er  Er5  1  0.000000  0.675082  0.585296  1
  Er  Er6  1  0.000000  0.320626  0.413555  1
  Sc  Sc7  1  0.000000  0.442011  0.128375  1
  V  V8  1  0.000000  0.142100  0.178872  1
  V  V9  1  0.000000  0.361396  0.680640  1
  B  B10  1  0.500000  0.369080  0.817145  1
  B  B11  1  0.500000  0.981374  0.211411  1
  B  B12  1  0.500000  0.551709  0.432260  1
  B  B13  1  0.500000  0.297036  0.234412  1
  B  B14  1  0.500000  0.205976  0.736577  1
  B  B15  1  0.500000  0.105233  0.470603  1
  B  B16  1  0.500000  0.791941  0.263618  1
  B  B17  1  0.500000  0.447576  0.565255  1
  B  B18  1  0.500000  0.250044  0.579882  1
  B  B19  1  0.500000  0.480803  0.285247  1
  B  B20  1  0.500000  0.706620  0.765473  1
  B  B21  1  0.500000  0.747865  0.419374  1
  B  B22  1  0.500000  0.519664  0.712661  1
  B  B23  1  0.500000  0.891346  0.529118  1
  B  B24  1  0.500000  0.054325  0.065269  1
  B  B25  1  0.500000  0.600744  0.031050  1
  B  B26  1  0.500000  0.750694  0.921136  1
  B  B27  1  0.500000  0.017552  0.787992  1
  B  B28  1  0.500000  0.399781  0.975231  1
  B  B29  1  0.500000  0.947725  0.934017  1
  B  B30  1  0.500000  0.629456  0.182563  1
  B  B31  1  0.500000  0.254702  0.080241  1
  B  B32  1  0.500000  0.866273  0.683999  1
  B  B33  1  0.500000  0.132712  0.315130  1
  Rh  Rh34  1  0.000000  0.859957  0.821343  1
  Rh  Rh35  1  0.000000  0.637872  0.318342  1
