# generated using pymatgen
data_Cs8Zr6BI20
_symmetry_space_group_name_H-M   'P 1'
_cell_length_a   13.30545968
_cell_length_b   13.30546020
_cell_length_c   13.30545900
_cell_angle_alpha   60.00000049
_cell_angle_beta   59.99999921
_cell_angle_gamma   60.00000219
_symmetry_Int_Tables_number   1
_chemical_formula_structural   Cs8Zr6BI20
_chemical_formula_sum   'Cs8 Zr6 B1 I20'
_cell_volume   1665.61511308
_cell_formula_units_Z   1
loop_
 _symmetry_equiv_pos_site_id
 _symmetry_equiv_pos_as_xyz
  1  'x, y, z'
loop_
 _atom_site_type_symbol
 _atom_site_label
 _atom_site_symmetry_multiplicity
 _atom_site_fract_x
 _atom_site_fract_y
 _atom_site_fract_z
 _atom_site_occupancy
  Cs  Cs0  1  0.361366  0.361366  0.361366  1
  Cs  Cs1  1  0.638634  0.638634  0.638634  1
  Cs  Cs2  1  0.361366  0.361366  0.915902  1
  Cs  Cs3  1  0.361366  0.915902  0.361366  1
  Cs  Cs4  1  0.638634  0.638634  0.084098  1
  Cs  Cs5  1  0.638634  0.084098  0.638634  1
  Cs  Cs6  1  0.915902  0.361366  0.361366  1
  Cs  Cs7  1  0.084098  0.638634  0.638634  1
  Zr  Zr8  1  0.873721  0.126279  0.126279  1
  Zr  Zr9  1  0.126279  0.873721  0.873721  1
  Zr  Zr10  1  0.126279  0.873721  0.126279  1
  Zr  Zr11  1  0.873721  0.126279  0.873721  1
  Zr  Zr12  1  0.126279  0.126279  0.873721  1
  Zr  Zr13  1  0.873721  0.873721  0.126279  1
  B  B14  1  0.000000  0.000000  0.000000  1
  I  I15  1  0.308091  0.000000  0.000000  1
  I  I16  1  0.691909  0.000000  0.000000  1
  I  I17  1  0.000000  0.308091  0.691909  1
  I  I18  1  0.000000  0.691909  0.308091  1
  I  I19  1  0.000000  0.308091  0.000000  1
  I  I20  1  0.691909  0.000000  0.308091  1
  I  I21  1  0.000000  0.691909  0.000000  1
  I  I22  1  0.308091  0.000000  0.691909  1
  I  I23  1  0.000000  0.000000  0.308091  1
  I  I24  1  0.000000  0.000000  0.691909  1
  I  I25  1  0.691909  0.308091  0.000000  1
  I  I26  1  0.308091  0.691909  0.000000  1
  I  I27  1  0.699846  0.300154  0.300154  1
  I  I28  1  0.300154  0.699846  0.699846  1
  I  I29  1  0.300154  0.699846  0.300154  1
  I  I30  1  0.699846  0.300154  0.699846  1
  I  I31  1  0.300154  0.300154  0.699846  1
  I  I32  1  0.699846  0.699846  0.300154  1
  I  I33  1  0.250000  0.250000  0.250000  1
  I  I34  1  0.750000  0.750000  0.750000  1
