# generated using pymatgen
data_Sc7Co5Sn23Os
_symmetry_space_group_name_H-M   'P 1'
_cell_length_a   9.58402177
_cell_length_b   9.58402191
_cell_length_c   9.79339816
_cell_angle_alpha   90.25658033
_cell_angle_beta   89.74342084
_cell_angle_gamma   119.98517496
_symmetry_Int_Tables_number   1
_chemical_formula_structural   Sc7Co5Sn23Os
_chemical_formula_sum   'Sc7 Co5 Sn23 Os1'
_cell_volume   779.14571040
_cell_formula_units_Z   1
loop_
 _symmetry_equiv_pos_site_id
 _symmetry_equiv_pos_as_xyz
  1  'x, y, z'
loop_
 _atom_site_type_symbol
 _atom_site_label
 _atom_site_symmetry_multiplicity
 _atom_site_fract_x
 _atom_site_fract_y
 _atom_site_fract_z
 _atom_site_occupancy
  Sc  Sc0  1  0.987052  0.012948  0.017123  1
  Sc  Sc1  1  0.484717  0.515283  0.307762  1
  Sc  Sc2  1  0.517016  0.482984  0.692886  1
  Sc  Sc3  1  0.487307  0.969306  0.304197  1
  Sc  Sc4  1  0.516232  0.033627  0.692079  1
  Sc  Sc5  1  0.030694  0.512693  0.304197  1
  Sc  Sc6  1  0.966373  0.483768  0.692079  1
  Co  Co7  1  0.171472  0.828528  0.798567  1
  Co  Co8  1  0.830523  0.659642  0.198371  1
  Co  Co9  1  0.172609  0.338929  0.799082  1
  Co  Co10  1  0.340358  0.169477  0.198371  1
  Co  Co11  1  0.661071  0.827391  0.799082  1
  Sn  Sn12  1  0.341642  0.998989  0.998713  1
  Sn  Sn13  1  0.643559  0.993919  0.992960  1
  Sn  Sn14  1  0.006081  0.356441  0.992960  1
  Sn  Sn15  1  0.001011  0.658358  0.998713  1
  Sn  Sn16  1  0.653850  0.653282  0.999186  1
  Sn  Sn17  1  0.346718  0.346150  0.999186  1
  Sn  Sn18  1  0.333919  0.666081  0.821917  1
  Sn  Sn19  1  0.665566  0.334434  0.174731  1
  Sn  Sn20  1  0.999140  0.000860  0.501963  1
  Sn  Sn21  1  0.778295  0.221705  0.461229  1
  Sn  Sn22  1  0.221578  0.778422  0.543211  1
  Sn  Sn23  1  0.780045  0.558167  0.454994  1
  Sn  Sn24  1  0.221042  0.441668  0.545739  1
  Sn  Sn25  1  0.441833  0.219955  0.454994  1
  Sn  Sn26  1  0.558332  0.778958  0.545739  1
  Sn  Sn27  1  0.333911  0.666089  0.137976  1
  Sn  Sn28  1  0.666564  0.333436  0.860546  1
  Sn  Sn29  1  0.120283  0.879717  0.274513  1
  Sn  Sn30  1  0.880024  0.119976  0.727031  1
  Sn  Sn31  1  0.130961  0.245512  0.280292  1
  Sn  Sn32  1  0.881669  0.759456  0.726027  1
  Sn  Sn33  1  0.754488  0.869039  0.280292  1
  Sn  Sn34  1  0.240544  0.118331  0.726027  1
  Os  Os35  1  0.833524  0.166476  0.197270  1
