# generated using pymatgen
data_TbYHf2(Co5P3)4
_symmetry_space_group_name_H-M   'P 1'
_cell_length_a   3.61859200
_cell_length_b   10.19959301
_cell_length_c   11.65736001
_cell_angle_alpha   89.99635648
_cell_angle_beta   90.00000000
_cell_angle_gamma   90.00000000
_symmetry_Int_Tables_number   1
_chemical_formula_structural   TbYHf2(Co5P3)4
_chemical_formula_sum   'Tb1 Y1 Hf2 Co20 P12'
_cell_volume   430.25177329
_cell_formula_units_Z   1
loop_
 _symmetry_equiv_pos_site_id
 _symmetry_equiv_pos_as_xyz
  1  'x, y, z'
loop_
 _atom_site_type_symbol
 _atom_site_label
 _atom_site_symmetry_multiplicity
 _atom_site_fract_x
 _atom_site_fract_y
 _atom_site_fract_z
 _atom_site_occupancy
  Tb  Tb0  1  0.750000  0.082521  0.796699  1
  Y  Y1  1  0.750000  0.417359  0.296713  1
  Hf  Hf2  1  0.250000  0.581777  0.701061  1
  Hf  Hf3  1  0.250000  0.918248  0.201070  1
  Co  Co4  1  0.250000  0.719096  0.993975  1
  Co  Co5  1  0.250000  0.780884  0.493781  1
  Co  Co6  1  0.750000  0.282210  0.008710  1
  Co  Co7  1  0.750000  0.217711  0.508803  1
  Co  Co8  1  0.250000  0.410224  0.491233  1
  Co  Co9  1  0.250000  0.089760  0.991427  1
  Co  Co10  1  0.750000  0.593640  0.517312  1
  Co  Co11  1  0.750000  0.906377  0.017382  1
  Co  Co12  1  0.250000  0.221416  0.177932  1
  Co  Co13  1  0.250000  0.278775  0.677824  1
  Co  Co14  1  0.750000  0.776139  0.822744  1
  Co  Co15  1  0.750000  0.723814  0.322727  1
  Co  Co16  1  0.250000  0.879607  0.698470  1
  Co  Co17  1  0.250000  0.620233  0.198628  1
  Co  Co18  1  0.750000  0.112535  0.298698  1
  Co  Co19  1  0.750000  0.387579  0.798728  1
  Co  Co20  1  0.250000  0.471259  0.927693  1
  Co  Co21  1  0.250000  0.028850  0.427530  1
  Co  Co22  1  0.750000  0.535705  0.066262  1
  Co  Co23  1  0.750000  0.964204  0.566045  1
  P  P24  1  0.250000  0.419294  0.109970  1
  P  P25  1  0.250000  0.080692  0.609710  1
  P  P26  1  0.750000  0.581962  0.883581  1
  P  P27  1  0.750000  0.918066  0.383469  1
  P  P28  1  0.250000  0.270606  0.872339  1
  P  P29  1  0.250000  0.229703  0.372306  1
  P  P30  1  0.750000  0.733205  0.132015  1
  P  P31  1  0.750000  0.766766  0.631968  1
  P  P32  1  0.250000  0.601872  0.391008  1
  P  P33  1  0.250000  0.897885  0.891068  1
  P  P34  1  0.750000  0.400798  0.610559  1
  P  P35  1  0.750000  0.099228  0.110559  1
