# generated using pymatgen
data_Tm2BiC
_symmetry_space_group_name_H-M   'P 1'
_cell_length_a   3.61211600
_cell_length_b   3.61211718
_cell_length_c   15.47404900
_cell_angle_alpha   90.00000000
_cell_angle_beta   90.00000000
_cell_angle_gamma   120.00000753
_symmetry_Int_Tables_number   1
_chemical_formula_structural   Tm2BiC
_chemical_formula_sum   'Tm4 Bi2 C2'
_cell_volume   174.84696001
_cell_formula_units_Z   2
loop_
 _symmetry_equiv_pos_site_id
 _symmetry_equiv_pos_as_xyz
  1  'x, y, z'
loop_
 _atom_site_type_symbol
 _atom_site_label
 _atom_site_symmetry_multiplicity
 _atom_site_fract_x
 _atom_site_fract_y
 _atom_site_fract_z
 _atom_site_occupancy
  Tm  Tm0  1  0.333333  0.666666  0.083001  1
  Tm  Tm1  1  0.333333  0.666666  0.416999  1
  Tm  Tm2  1  0.666668  0.333335  0.583001  1
  Tm  Tm3  1  0.666668  0.333335  0.916999  1
  Bi  Bi4  1  0.666668  0.333335  0.250000  1
  Bi  Bi5  1  0.333333  0.666666  0.750000  1
  C  C6  1  0.000000  0.000000  0.000000  1
  C  C7  1  0.000000  0.000000  0.500000  1
