# generated using pymatgen
data_Pa6Co17ReP12
_symmetry_space_group_name_H-M   'P 1'
_cell_length_a   3.78093000
_cell_length_b   10.43545900
_cell_length_c   12.26367000
_cell_angle_alpha   90.00000000
_cell_angle_beta   90.00000000
_cell_angle_gamma   90.00000000
_symmetry_Int_Tables_number   1
_chemical_formula_structural   Pa6Co17ReP12
_chemical_formula_sum   'Pa6 Co17 Re1 P12'
_cell_volume   483.87217493
_cell_formula_units_Z   1
loop_
 _symmetry_equiv_pos_site_id
 _symmetry_equiv_pos_as_xyz
  1  'x, y, z'
loop_
 _atom_site_type_symbol
 _atom_site_label
 _atom_site_symmetry_multiplicity
 _atom_site_fract_x
 _atom_site_fract_y
 _atom_site_fract_z
 _atom_site_occupancy
  Pa  Pa0  1  0.000000  0.500000  0.525843  1
  Pa  Pa1  1  0.500000  0.000000  0.477179  1
  Pa  Pa2  1  0.500000  0.818682  0.209031  1
  Pa  Pa3  1  0.500000  0.181318  0.209031  1
  Pa  Pa4  1  0.000000  0.684987  0.793173  1
  Pa  Pa5  1  0.000000  0.315013  0.793173  1
  Co  Co6  1  0.000000  0.500000  0.983336  1
  Co  Co7  1  0.500000  0.000000  0.023138  1
  Co  Co8  1  0.500000  0.303604  0.429409  1
  Co  Co9  1  0.500000  0.696396  0.429409  1
  Co  Co10  1  0.000000  0.197579  0.570993  1
  Co  Co11  1  0.000000  0.802421  0.570993  1
  Co  Co12  1  0.500000  0.878258  0.713811  1
  Co  Co13  1  0.500000  0.121742  0.713811  1
  Co  Co14  1  0.000000  0.621469  0.285713  1
  Co  Co15  1  0.000000  0.378531  0.285713  1
  Co  Co16  1  0.500000  0.330450  0.988756  1
  Co  Co17  1  0.500000  0.669550  0.988756  1
  Co  Co18  1  0.000000  0.165528  0.006402  1
  Co  Co19  1  0.000000  0.834472  0.006402  1
  Co  Co20  1  0.000000  0.000000  0.840241  1
  Co  Co21  1  0.500000  0.500000  0.700067  1
  Co  Co22  1  0.000000  0.000000  0.300960  1
  Re  Re23  1  0.500000  0.500000  0.152097  1
  P  P24  1  0.500000  0.308618  0.613691  1
  P  P25  1  0.500000  0.691382  0.613691  1
  P  P26  1  0.000000  0.191548  0.387675  1
  P  P27  1  0.000000  0.808452  0.387675  1
  P  P28  1  0.500000  0.500000  0.880045  1
  P  P29  1  0.000000  0.000000  0.119962  1
  P  P30  1  0.500000  0.853662  0.896274  1
  P  P31  1  0.500000  0.146338  0.896274  1
  P  P32  1  0.000000  0.655074  0.102360  1
  P  P33  1  0.000000  0.344926  0.102360  1
  P  P34  1  0.500000  0.500000  0.343602  1
  P  P35  1  0.000000  0.000000  0.658956  1
