# generated using pymatgen
data_CaLa3(RhO3)4
_symmetry_space_group_name_H-M   'P 1'
_cell_length_a   5.50529943
_cell_length_b   5.82876747
_cell_length_c   7.87201900
_cell_angle_alpha   90.00000000
_cell_angle_beta   90.00000000
_cell_angle_gamma   89.95426384
_symmetry_Int_Tables_number   1
_chemical_formula_structural   CaLa3(RhO3)4
_chemical_formula_sum   'Ca1 La3 Rh4 O12'
_cell_volume   252.60600509
_cell_formula_units_Z   1
loop_
 _symmetry_equiv_pos_site_id
 _symmetry_equiv_pos_as_xyz
  1  'x, y, z'
loop_
 _atom_site_type_symbol
 _atom_site_label
 _atom_site_symmetry_multiplicity
 _atom_site_fract_x
 _atom_site_fract_y
 _atom_site_fract_z
 _atom_site_occupancy
  Ca  Ca0  1  0.019115  0.934165  0.750000  1
  La  La1  1  0.518700  0.565336  0.250000  1
  La  La2  1  0.981811  0.062951  0.250000  1
  La  La3  1  0.479974  0.435149  0.750000  1
  Rh  Rh4  1  0.499349  0.000524  0.995701  1
  Rh  Rh5  1  0.000947  0.501461  0.503827  1
  Rh  Rh6  1  0.499349  0.000524  0.504299  1
  Rh  Rh7  1  0.000947  0.501461  0.996173  1
  O  O8  1  0.399003  0.968646  0.250000  1
  O  O9  1  0.099669  0.467165  0.250000  1
  O  O10  1  0.611464  0.034858  0.750000  1
  O  O11  1  0.897885  0.543514  0.750000  1
  O  O12  1  0.803132  0.797335  0.053697  1
  O  O13  1  0.693740  0.299946  0.449381  1
  O  O14  1  0.189415  0.196093  0.554728  1
  O  O15  1  0.309606  0.698749  0.949533  1
  O  O16  1  0.189415  0.196093  0.945272  1
  O  O17  1  0.309606  0.698749  0.550467  1
  O  O18  1  0.803132  0.797335  0.446303  1
  O  O19  1  0.693740  0.299946  0.050619  1
