# generated using pymatgen
data_Tb4Yb2Y5In9Pd4
_symmetry_space_group_name_H-M   'P 1'
_cell_length_a   13.18306866
_cell_length_b   13.18306813
_cell_length_c   3.73816300
_cell_angle_alpha   90.00000000
_cell_angle_beta   90.00000000
_cell_angle_gamma   111.39579166
_symmetry_Int_Tables_number   1
_chemical_formula_structural   Tb4Yb2Y5In9Pd4
_chemical_formula_sum   'Tb4 Yb2 Y5 In9 Pd4'
_cell_volume   604.89425793
_cell_formula_units_Z   1
loop_
 _symmetry_equiv_pos_site_id
 _symmetry_equiv_pos_as_xyz
  1  'x, y, z'
loop_
 _atom_site_type_symbol
 _atom_site_label
 _atom_site_symmetry_multiplicity
 _atom_site_fract_x
 _atom_site_fract_y
 _atom_site_fract_z
 _atom_site_occupancy
  Tb  Tb0  1  0.373808  0.626192  0.000000  1
  Tb  Tb1  1  0.626192  0.373808  0.000000  1
  Tb  Tb2  1  0.309492  0.309492  0.000000  1
  Tb  Tb3  1  0.690508  0.690508  0.000000  1
  Yb  Yb4  1  0.160275  0.839725  0.000000  1
  Yb  Yb5  1  0.839725  0.160275  0.000000  1
  Y  Y6  1  0.414239  0.070924  0.000000  1
  Y  Y7  1  0.585761  0.929076  0.000000  1
  Y  Y8  1  0.070924  0.414239  0.000000  1
  Y  Y9  1  0.929076  0.585761  0.000000  1
  Y  Y10  1  0.000000  0.000000  0.000000  1
  In  In11  1  0.368542  0.840070  0.500000  1
  In  In12  1  0.631458  0.159930  0.500000  1
  In  In13  1  0.840070  0.368542  0.500000  1
  In  In14  1  0.159930  0.631458  0.500000  1
  In  In15  1  0.217082  0.074286  0.500000  1
  In  In16  1  0.782918  0.925714  0.500000  1
  In  In17  1  0.074286  0.217082  0.500000  1
  In  In18  1  0.925714  0.782918  0.500000  1
  In  In19  1  0.500000  0.500000  0.500000  1
  Pd  Pd20  1  0.449858  0.247075  0.500000  1
  Pd  Pd21  1  0.550142  0.752925  0.500000  1
  Pd  Pd22  1  0.247075  0.449858  0.500000  1
  Pd  Pd23  1  0.752925  0.550142  0.500000  1
