# generated using pymatgen
data_Sc4UTaCo6
_symmetry_space_group_name_H-M   'P 1'
_cell_length_a   5.20833600
_cell_length_b   5.20833662
_cell_length_c   7.80724700
_cell_angle_alpha   90.00000000
_cell_angle_beta   90.00000000
_cell_angle_gamma   119.99999608
_symmetry_Int_Tables_number   1
_chemical_formula_structural   Sc4UTaCo6
_chemical_formula_sum   'Sc4 U1 Ta1 Co6'
_cell_volume   183.41151875
_cell_formula_units_Z   1
loop_
 _symmetry_equiv_pos_site_id
 _symmetry_equiv_pos_as_xyz
  1  'x, y, z'
loop_
 _atom_site_type_symbol
 _atom_site_label
 _atom_site_symmetry_multiplicity
 _atom_site_fract_x
 _atom_site_fract_y
 _atom_site_fract_z
 _atom_site_occupancy
  Sc  Sc0  1  0.333333  0.666667  0.583057  1
  Sc  Sc1  1  0.666667  0.333333  0.416943  1
  Sc  Sc2  1  0.666667  0.333333  0.043345  1
  Sc  Sc3  1  0.333333  0.666667  0.956655  1
  U  U4  1  0.000000  0.000000  0.500000  1
  Ta  Ta5  1  0.000000  0.000000  0.000000  1
  Co  Co6  1  0.825548  0.174452  0.740569  1
  Co  Co7  1  0.651099  0.825548  0.259431  1
  Co  Co8  1  0.174452  0.825548  0.259431  1
  Co  Co9  1  0.825548  0.651099  0.740569  1
  Co  Co10  1  0.174452  0.348901  0.259431  1
  Co  Co11  1  0.348901  0.174452  0.740569  1
