# generated using pymatgen
data_SmP6(Pd10Pb)2
_symmetry_space_group_name_H-M   'P 1'
_cell_length_a   8.72590304
_cell_length_b   8.72590271
_cell_length_c   8.72590400
_cell_angle_alpha   60.00000271
_cell_angle_beta   60.00000393
_cell_angle_gamma   60.00000359
_symmetry_Int_Tables_number   1
_chemical_formula_structural   SmP6(Pd10Pb)2
_chemical_formula_sum   'Sm1 P6 Pd20 Pb2'
_cell_volume   469.80346531
_cell_formula_units_Z   1
loop_
 _symmetry_equiv_pos_site_id
 _symmetry_equiv_pos_as_xyz
  1  'x, y, z'
loop_
 _atom_site_type_symbol
 _atom_site_label
 _atom_site_symmetry_multiplicity
 _atom_site_fract_x
 _atom_site_fract_y
 _atom_site_fract_z
 _atom_site_occupancy
  Sm  Sm0  1  0.000000  0.000000  0.000000  1
  P  P1  1  0.734627  0.265373  0.265373  1
  P  P2  1  0.265373  0.734627  0.734627  1
  P  P3  1  0.265373  0.734627  0.265373  1
  P  P4  1  0.734627  0.265373  0.734627  1
  P  P5  1  0.265373  0.265373  0.734627  1
  P  P6  1  0.734627  0.734627  0.265373  1
  Pd  Pd7  1  0.384312  0.384312  0.384312  1
  Pd  Pd8  1  0.615688  0.615688  0.615688  1
  Pd  Pd9  1  0.384312  0.384312  0.847063  1
  Pd  Pd10  1  0.384312  0.847063  0.384312  1
  Pd  Pd11  1  0.615688  0.615688  0.152937  1
  Pd  Pd12  1  0.615688  0.152937  0.615688  1
  Pd  Pd13  1  0.847063  0.384312  0.384312  1
  Pd  Pd14  1  0.152937  0.615688  0.615688  1
  Pd  Pd15  1  0.344302  0.000000  0.000000  1
  Pd  Pd16  1  0.655698  0.000000  0.000000  1
  Pd  Pd17  1  0.000000  0.344302  0.655698  1
  Pd  Pd18  1  0.000000  0.655698  0.344302  1
  Pd  Pd19  1  0.000000  0.344302  0.000000  1
  Pd  Pd20  1  0.655698  0.000000  0.344302  1
  Pd  Pd21  1  0.000000  0.655698  0.000000  1
  Pd  Pd22  1  0.344302  0.000000  0.655698  1
  Pd  Pd23  1  0.000000  0.000000  0.344302  1
  Pd  Pd24  1  0.000000  0.000000  0.655698  1
  Pd  Pd25  1  0.655698  0.344302  0.000000  1
  Pd  Pd26  1  0.344302  0.655698  0.000000  1
  Pb  Pb27  1  0.250000  0.250000  0.250000  1
  Pb  Pb28  1  0.750000  0.750000  0.750000  1
