# generated using pymatgen
data_Tb4Al18Co2Ni3Ir
_symmetry_space_group_name_H-M   'P 1'
_cell_length_a   7.44511593
_cell_length_b   7.44511570
_cell_length_c   9.31475073
_cell_angle_alpha   89.90960271
_cell_angle_beta   89.90960779
_cell_angle_gamma   119.54569639
_symmetry_Int_Tables_number   1
_chemical_formula_structural   Tb4Al18Co2Ni3Ir
_chemical_formula_sum   'Tb4 Al18 Co2 Ni3 Ir1'
_cell_volume   449.17196913
_cell_formula_units_Z   1
loop_
 _symmetry_equiv_pos_site_id
 _symmetry_equiv_pos_as_xyz
  1  'x, y, z'
loop_
 _atom_site_type_symbol
 _atom_site_label
 _atom_site_symmetry_multiplicity
 _atom_site_fract_x
 _atom_site_fract_y
 _atom_site_fract_z
 _atom_site_occupancy
  Tb  Tb0  1  0.992666  0.668470  0.249934  1
  Tb  Tb1  1  0.004600  0.329261  0.749866  1
  Tb  Tb2  1  0.670739  0.995400  0.250134  1
  Tb  Tb3  1  0.331530  0.007334  0.750066  1
  Al  Al4  1  0.123568  0.122920  0.252730  1
  Al  Al5  1  0.877080  0.876432  0.747270  1
  Al  Al6  1  0.999868  0.334451  0.073727  1
  Al  Al7  1  0.002011  0.666507  0.926452  1
  Al  Al8  1  0.007286  0.670133  0.570705  1
  Al  Al9  1  0.329867  0.992714  0.429295  1
  Al  Al10  1  0.005212  0.334756  0.428882  1
  Al  Al11  1  0.665244  0.994788  0.571118  1
  Al  Al12  1  0.665549  0.000132  0.926273  1
  Al  Al13  1  0.333493  0.997989  0.073548  1
  Al  Al14  1  0.328081  0.331699  0.545705  1
  Al  Al15  1  0.668301  0.671919  0.454295  1
  Al  Al16  1  0.666783  0.667462  0.049710  1
  Al  Al17  1  0.332538  0.333217  0.950290  1
  Al  Al18  1  0.339523  0.553767  0.253075  1
  Al  Al19  1  0.660674  0.452695  0.752862  1
  Al  Al20  1  0.547305  0.339326  0.247138  1
  Al  Al21  1  0.446233  0.660477  0.746925  1
  Co  Co22  1  0.329667  0.670333  0.500000  1
  Co  Co23  1  0.000636  0.999364  0.500000  1
  Ni  Ni24  1  0.671212  0.328788  0.000000  1
  Ni  Ni25  1  0.329003  0.670997  0.000000  1
  Ni  Ni26  1  0.999106  0.000894  0.000000  1
  Ir  Ir27  1  0.672226  0.327774  0.500000  1
