# generated using pymatgen
data_Ce6Sc2Hg3Bi7
_symmetry_space_group_name_H-M   'P 1'
_cell_length_a   9.54481500
_cell_length_b   9.54481452
_cell_length_c   6.55582200
_cell_angle_alpha   90.00000000
_cell_angle_beta   90.00000000
_cell_angle_gamma   119.99999819
_symmetry_Int_Tables_number   1
_chemical_formula_structural   Ce6Sc2Hg3Bi7
_chemical_formula_sum   'Ce6 Sc2 Hg3 Bi7'
_cell_volume   517.24083193
_cell_formula_units_Z   1
loop_
 _symmetry_equiv_pos_site_id
 _symmetry_equiv_pos_as_xyz
  1  'x, y, z'
loop_
 _atom_site_type_symbol
 _atom_site_label
 _atom_site_symmetry_multiplicity
 _atom_site_fract_x
 _atom_site_fract_y
 _atom_site_fract_z
 _atom_site_occupancy
  Ce  Ce0  1  0.990841  0.613394  0.252919  1
  Ce  Ce1  1  0.386606  0.377447  0.252919  1
  Ce  Ce2  1  0.386606  0.009159  0.747081  1
  Ce  Ce3  1  0.622553  0.613394  0.747081  1
  Ce  Ce4  1  0.622553  0.009159  0.252919  1
  Ce  Ce5  1  0.990841  0.377447  0.747081  1
  Sc  Sc6  1  0.000000  0.000000  0.000000  1
  Sc  Sc7  1  0.000000  0.000000  0.500000  1
  Hg  Hg8  1  0.333333  0.666667  0.500000  1
  Hg  Hg9  1  0.666667  0.333333  0.000000  1
  Hg  Hg10  1  0.333333  0.666667  0.000000  1
  Bi  Bi11  1  0.007059  0.276336  0.246687  1
  Bi  Bi12  1  0.269277  0.276336  0.753313  1
  Bi  Bi13  1  0.723664  0.992941  0.753313  1
  Bi  Bi14  1  0.007059  0.730723  0.753313  1
  Bi  Bi15  1  0.723664  0.730723  0.246687  1
  Bi  Bi16  1  0.269277  0.992941  0.246687  1
  Bi  Bi17  1  0.666667  0.333333  0.500000  1
