# generated using pymatgen
data_Th8Zr12Si15Bi
_symmetry_space_group_name_H-M   'P 1'
_cell_length_a   7.45374784
_cell_length_b   7.43016280
_cell_length_c   13.70102400
_cell_angle_alpha   89.99365365
_cell_angle_beta   89.50174033
_cell_angle_gamma   90.03926295
_symmetry_Int_Tables_number   1
_chemical_formula_structural   Th8Zr12Si15Bi
_chemical_formula_sum   'Th8 Zr12 Si15 Bi1'
_cell_volume   758.76890730
_cell_formula_units_Z   1
loop_
 _symmetry_equiv_pos_site_id
 _symmetry_equiv_pos_as_xyz
  1  'x, y, z'
loop_
 _atom_site_type_symbol
 _atom_site_label
 _atom_site_symmetry_multiplicity
 _atom_site_fract_x
 _atom_site_fract_y
 _atom_site_fract_z
 _atom_site_occupancy
  Th  Th0  1  0.497187  0.158390  0.534465  1
  Th  Th1  1  0.494267  0.835746  0.031187  1
  Th  Th2  1  0.655844  0.998393  0.289429  1
  Th  Th3  1  0.339350  0.996115  0.781626  1
  Th  Th4  1  0.841155  0.511552  0.962770  1
  Th  Th5  1  0.158879  0.497039  0.467352  1
  Th  Th6  1  0.000640  0.657899  0.714727  1
  Th  Th7  1  0.010142  0.351836  0.224037  1
  Zr  Zr8  1  0.672959  0.327233  0.748833  1
  Zr  Zr9  1  0.329272  0.672243  0.251217  1
  Zr  Zr10  1  0.827010  0.827124  0.500813  1
  Zr  Zr11  1  0.182447  0.172745  0.998008  1
  Zr  Zr12  1  0.489129  0.352381  0.125713  1
  Zr  Zr13  1  0.501837  0.653263  0.625561  1
  Zr  Zr14  1  0.844080  0.002382  0.868515  1
  Zr  Zr15  1  0.156047  0.996639  0.376375  1
  Zr  Zr16  1  0.655317  0.503561  0.374979  1
  Zr  Zr17  1  0.342292  0.499755  0.871475  1
  Zr  Zr18  1  0.017551  0.830133  0.129529  1
  Zr  Zr19  1  0.995697  0.154370  0.624491  1
  Si  Si20  1  0.204319  0.867584  0.566266  1
  Si  Si21  1  0.630571  0.705119  0.814410  1
  Si  Si22  1  0.371433  0.295705  0.317857  1
  Si  Si23  1  0.867566  0.204424  0.434679  1
  Si  Si24  1  0.130410  0.798945  0.932735  1
  Si  Si25  1  0.704959  0.633026  0.183257  1
  Si  Si26  1  0.293749  0.367175  0.682911  1
  Si  Si27  1  0.533957  0.211003  0.928057  1
  Si  Si28  1  0.452420  0.790573  0.438273  1
  Si  Si29  1  0.705652  0.953995  0.684037  1
  Si  Si30  1  0.295256  0.046548  0.186660  1
  Si  Si31  1  0.791618  0.453732  0.563750  1
  Si  Si32  1  0.206072  0.541219  0.062277  1
  Si  Si33  1  0.955035  0.710112  0.317847  1
  Si  Si34  1  0.044822  0.293122  0.813634  1
  Bi  Bi35  1  0.801060  0.128923  0.072252  1
