# generated using pymatgen
data_Ba3In2(SbAs)2
_symmetry_space_group_name_H-M   'P 1'
_cell_length_a   9.49276471
_cell_length_b   9.49276518
_cell_length_c   7.51650621
_cell_angle_alpha   90.18464359
_cell_angle_beta   90.18463932
_cell_angle_gamma   75.79046816
_symmetry_Int_Tables_number   1
_chemical_formula_structural   Ba3In2(SbAs)2
_chemical_formula_sum   'Ba6 In4 Sb4 As4'
_cell_volume   656.60305193
_cell_formula_units_Z   2
loop_
 _symmetry_equiv_pos_site_id
 _symmetry_equiv_pos_as_xyz
  1  'x, y, z'
loop_
 _atom_site_type_symbol
 _atom_site_label
 _atom_site_symmetry_multiplicity
 _atom_site_fract_x
 _atom_site_fract_y
 _atom_site_fract_z
 _atom_site_occupancy
  Ba  Ba0  1  0.738174  0.002563  0.971195  1
  Ba  Ba1  1  0.997437  0.261826  0.528805  1
  Ba  Ba2  1  0.261826  0.997437  0.028805  1
  Ba  Ba3  1  0.002563  0.738174  0.471195  1
  Ba  Ba4  1  0.588993  0.411007  0.250000  1
  Ba  Ba5  1  0.411007  0.588993  0.750000  1
  In  In6  1  0.588209  0.814417  0.410224  1
  In  In7  1  0.185583  0.411791  0.089776  1
  In  In8  1  0.411791  0.185583  0.589776  1
  In  In9  1  0.814417  0.588209  0.910224  1
  Sb  Sb10  1  0.712864  0.062128  0.476033  1
  Sb  Sb11  1  0.937872  0.287136  0.023967  1
  Sb  Sb12  1  0.287136  0.937872  0.523967  1
  Sb  Sb13  1  0.062128  0.712864  0.976033  1
  As  As14  1  0.565159  0.741169  0.064757  1
  As  As15  1  0.258831  0.434841  0.435243  1
  As  As16  1  0.434841  0.258831  0.935243  1
  As  As17  1  0.741169  0.565159  0.564757  1
