# generated using pymatgen
data_Na3Sr(BiPt)4
_symmetry_space_group_name_H-M   'P 1'
_cell_length_a   4.81959800
_cell_length_b   7.76692453
_cell_length_c   8.05990474
_cell_angle_alpha   90.11461949
_cell_angle_beta   90.00000000
_cell_angle_gamma   90.00000000
_symmetry_Int_Tables_number   1
_chemical_formula_structural   Na3Sr(BiPt)4
_chemical_formula_sum   'Na3 Sr1 Bi4 Pt4'
_cell_volume   301.70946900
_cell_formula_units_Z   1
loop_
 _symmetry_equiv_pos_site_id
 _symmetry_equiv_pos_as_xyz
  1  'x, y, z'
loop_
 _atom_site_type_symbol
 _atom_site_label
 _atom_site_symmetry_multiplicity
 _atom_site_fract_x
 _atom_site_fract_y
 _atom_site_fract_z
 _atom_site_occupancy
  Na  Na0  1  0.750000  0.984216  0.684552  1
  Na  Na1  1  0.250000  0.011623  0.317724  1
  Na  Na2  1  0.750000  0.489660  0.809848  1
  Sr  Sr3  1  0.250000  0.511468  0.182617  1
  Bi  Bi4  1  0.750000  0.314763  0.422610  1
  Bi  Bi5  1  0.250000  0.171810  0.908303  1
  Bi  Bi6  1  0.250000  0.676108  0.590008  1
  Bi  Bi7  1  0.750000  0.834765  0.086909  1
  Pt  Pt8  1  0.250000  0.805426  0.908511  1
  Pt  Pt9  1  0.250000  0.308150  0.590785  1
  Pt  Pt10  1  0.750000  0.688813  0.406842  1
  Pt  Pt11  1  0.750000  0.203198  0.091292  1
