# generated using pymatgen
data_YNp3(GePt)4
_symmetry_space_group_name_H-M   'P 1'
_cell_length_a   4.47640200
_cell_length_b   7.06470263
_cell_length_c   7.54702994
_cell_angle_alpha   90.13116762
_cell_angle_beta   90.00000000
_cell_angle_gamma   90.00000000
_symmetry_Int_Tables_number   1
_chemical_formula_structural   YNp3(GePt)4
_chemical_formula_sum   'Y1 Np3 Ge4 Pt4'
_cell_volume   238.67003795
_cell_formula_units_Z   1
loop_
 _symmetry_equiv_pos_site_id
 _symmetry_equiv_pos_as_xyz
  1  'x, y, z'
loop_
 _atom_site_type_symbol
 _atom_site_label
 _atom_site_symmetry_multiplicity
 _atom_site_fract_x
 _atom_site_fract_y
 _atom_site_fract_z
 _atom_site_occupancy
  Y  Y0  1  0.750000  0.003824  0.204182  1
  Np  Np1  1  0.250000  0.489211  0.702333  1
  Np  Np2  1  0.250000  0.990577  0.793315  1
  Np  Np3  1  0.750000  0.508198  0.297846  1
  Ge  Ge4  1  0.250000  0.806192  0.411968  1
  Ge  Ge5  1  0.250000  0.310292  0.088731  1
  Ge  Ge6  1  0.750000  0.192423  0.589142  1
  Ge  Ge7  1  0.750000  0.688977  0.911583  1
  Pt  Pt8  1  0.250000  0.207071  0.418949  1
  Pt  Pt9  1  0.250000  0.714341  0.081535  1
  Pt  Pt10  1  0.750000  0.790956  0.580154  1
  Pt  Pt11  1  0.750000  0.297938  0.920261  1
