# generated using pymatgen
data_Ho6Al(ZnNi4)3
_symmetry_space_group_name_H-M   'P 1'
_cell_length_a   7.65017491
_cell_length_b   7.65017516
_cell_length_c   7.70473100
_cell_angle_alpha   109.61573989
_cell_angle_beta   109.61574057
_cell_angle_gamma   109.32631046
_symmetry_Int_Tables_number   1
_chemical_formula_structural   Ho6Al(ZnNi4)3
_chemical_formula_sum   'Ho6 Al1 Zn3 Ni12'
_cell_volume   346.49793934
_cell_formula_units_Z   1
loop_
 _symmetry_equiv_pos_site_id
 _symmetry_equiv_pos_as_xyz
  1  'x, y, z'
loop_
 _atom_site_type_symbol
 _atom_site_label
 _atom_site_symmetry_multiplicity
 _atom_site_fract_x
 _atom_site_fract_y
 _atom_site_fract_z
 _atom_site_occupancy
  Ho  Ho0  1  0.705335  0.705335  0.999385  1
  Ho  Ho1  1  0.294665  0.000000  0.294050  1
  Ho  Ho2  1  0.000000  0.294665  0.294050  1
  Ho  Ho3  1  0.294665  0.294665  0.000615  1
  Ho  Ho4  1  0.705335  0.000000  0.705950  1
  Ho  Ho5  1  0.000000  0.705335  0.705950  1
  Al  Al6  1  0.000000  0.000000  0.500000  1
  Zn  Zn7  1  0.000000  0.500000  0.000000  1
  Zn  Zn8  1  0.500000  0.000000  0.000000  1
  Zn  Zn9  1  0.500000  0.500000  0.500000  1
  Ni  Ni10  1  0.337007  0.337007  0.675545  1
  Ni  Ni11  1  0.662993  0.000000  0.338537  1
  Ni  Ni12  1  0.000000  0.662993  0.338537  1
  Ni  Ni13  1  0.661021  0.338979  0.000000  1
  Ni  Ni14  1  0.338979  0.677960  0.338979  1
  Ni  Ni15  1  0.000000  0.337007  0.661463  1
  Ni  Ni16  1  0.338979  0.661021  0.000000  1
  Ni  Ni17  1  0.337007  0.000000  0.661463  1
  Ni  Ni18  1  0.677960  0.338979  0.338979  1
  Ni  Ni19  1  0.662993  0.662993  0.324455  1
  Ni  Ni20  1  0.661021  0.322040  0.661021  1
  Ni  Ni21  1  0.322040  0.661021  0.661021  1
