# generated using pymatgen
data_Th10Bi5PtPb2
_symmetry_space_group_name_H-M   'P 1'
_cell_length_a   9.75198024
_cell_length_b   9.75198024
_cell_length_c   6.67183500
_cell_angle_alpha   90.02890646
_cell_angle_beta   90.02890646
_cell_angle_gamma   120.04548346
_symmetry_Int_Tables_number   1
_chemical_formula_structural   Th10Bi5PtPb2
_chemical_formula_sum   'Th10 Bi5 Pt1 Pb2'
_cell_volume   549.23993107
_cell_formula_units_Z   1
loop_
 _symmetry_equiv_pos_site_id
 _symmetry_equiv_pos_as_xyz
  1  'x, y, z'
loop_
 _atom_site_type_symbol
 _atom_site_label
 _atom_site_symmetry_multiplicity
 _atom_site_fract_x
 _atom_site_fract_y
 _atom_site_fract_z
 _atom_site_occupancy
  Th  Th0  1  0.667528  0.332893  0.500712  1
  Th  Th1  1  0.332893  0.667528  0.500712  1
  Th  Th2  1  0.331858  0.666769  0.998437  1
  Th  Th3  1  0.666769  0.331858  0.998437  1
  Th  Th4  1  0.731551  0.731551  0.274433  1
  Th  Th5  1  0.268758  0.999356  0.272666  1
  Th  Th6  1  0.999356  0.268758  0.272666  1
  Th  Th7  1  0.270442  0.270442  0.726373  1
  Th  Th8  1  0.730491  0.001363  0.727053  1
  Th  Th9  1  0.001363  0.730491  0.727053  1
  Bi  Bi10  1  0.000110  0.000110  0.998963  1
  Bi  Bi11  1  0.384616  0.384616  0.242354  1
  Bi  Bi12  1  0.615059  0.000250  0.242389  1
  Bi  Bi13  1  0.000250  0.615059  0.242389  1
  Bi  Bi14  1  0.615605  0.615605  0.757711  1
  Pt  Pt15  1  0.999640  0.999640  0.502903  1
  Pb  Pb16  1  0.383443  0.000268  0.757376  1
  Pb  Pb17  1  0.000268  0.383443  0.757376  1
