# generated using pymatgen
data_HfZr3(InPd2)2
_symmetry_space_group_name_H-M   'P 1'
_cell_length_a   7.55700051
_cell_length_b   7.55700051
_cell_length_c   6.85601100
_cell_angle_alpha   90.00000000
_cell_angle_beta   90.00000000
_cell_angle_gamma   90.65516336
_symmetry_Int_Tables_number   1
_chemical_formula_structural   HfZr3(InPd2)2
_chemical_formula_sum   'Hf2 Zr6 In4 Pd8'
_cell_volume   391.50923945
_cell_formula_units_Z   2
loop_
 _symmetry_equiv_pos_site_id
 _symmetry_equiv_pos_as_xyz
  1  'x, y, z'
loop_
 _atom_site_type_symbol
 _atom_site_label
 _atom_site_symmetry_multiplicity
 _atom_site_fract_x
 _atom_site_fract_y
 _atom_site_fract_z
 _atom_site_occupancy
  Hf  Hf0  1  0.818498  0.818498  0.500000  1
  Hf  Hf1  1  0.181502  0.181502  0.500000  1
  Zr  Zr2  1  0.155164  0.155164  0.000000  1
  Zr  Zr3  1  0.844836  0.844836  0.000000  1
  Zr  Zr4  1  0.655070  0.344930  0.500000  1
  Zr  Zr5  1  0.344930  0.655070  0.500000  1
  Zr  Zr6  1  0.682918  0.317082  0.000000  1
  Zr  Zr7  1  0.317082  0.682918  0.000000  1
  In  In8  1  0.500000  0.000000  0.250280  1
  In  In9  1  0.500000  0.000000  0.749720  1
  In  In10  1  0.000000  0.500000  0.250280  1
  In  In11  1  0.000000  0.500000  0.749720  1
  Pd  Pd12  1  0.369529  0.369529  0.224114  1
  Pd  Pd13  1  0.630471  0.630471  0.775886  1
  Pd  Pd14  1  0.630471  0.630471  0.224114  1
  Pd  Pd15  1  0.871396  0.128604  0.719301  1
  Pd  Pd16  1  0.871396  0.128604  0.280699  1
  Pd  Pd17  1  0.369529  0.369529  0.775886  1
  Pd  Pd18  1  0.128604  0.871396  0.280699  1
  Pd  Pd19  1  0.128604  0.871396  0.719301  1
