# generated using pymatgen
data_Dy2Ga8Fe9
_symmetry_space_group_name_H-M   'P 1'
_cell_length_a   6.56855804
_cell_length_b   6.56855800
_cell_length_c   6.56855862
_cell_angle_alpha   83.78664969
_cell_angle_beta   96.21335029
_cell_angle_gamma   96.21334922
_symmetry_Int_Tables_number   1
_chemical_formula_structural   Dy2Ga8Fe9
_chemical_formula_sum   'Dy2 Ga8 Fe9'
_cell_volume   278.74803013
_cell_formula_units_Z   1
loop_
 _symmetry_equiv_pos_site_id
 _symmetry_equiv_pos_as_xyz
  1  'x, y, z'
loop_
 _atom_site_type_symbol
 _atom_site_label
 _atom_site_symmetry_multiplicity
 _atom_site_fract_x
 _atom_site_fract_y
 _atom_site_fract_z
 _atom_site_occupancy
  Dy  Dy0  1  0.636455  0.363546  0.363546  1
  Dy  Dy1  1  0.363546  0.636456  0.636455  1
  Ga  Ga2  1  0.319451  0.319451  0.000000  1
  Ga  Ga3  1  0.680549  0.680549  0.000000  1
  Ga  Ga4  1  0.871661  0.128340  0.128340  1
  Ga  Ga5  1  0.000000  0.680550  0.319450  1
  Ga  Ga6  1  0.319451  0.000000  0.319451  1
  Ga  Ga7  1  0.680549  0.000000  0.680549  1
  Ga  Ga8  1  0.000000  0.319450  0.680549  1
  Ga  Ga9  1  0.128340  0.871662  0.871661  1
  Fe  Fe10  1  0.500000  0.000000  0.000000  1
  Fe  Fe11  1  0.000000  0.500000  0.000000  1
  Fe  Fe12  1  0.336633  0.663368  0.164210  1
  Fe  Fe13  1  0.164210  0.336632  0.336632  1
  Fe  Fe14  1  0.663368  0.835789  0.336633  1
  Fe  Fe15  1  0.000000  0.000000  0.500000  1
  Fe  Fe16  1  0.835789  0.663368  0.663367  1
  Fe  Fe17  1  0.336633  0.164210  0.663368  1
  Fe  Fe18  1  0.663367  0.336632  0.835789  1
