# generated using pymatgen
data_Tb2ZnCoRu
_symmetry_space_group_name_H-M   'P 1'
_cell_length_a   4.17289980
_cell_length_b   5.39293406
_cell_length_c   5.39293279
_cell_angle_alpha   62.53258670
_cell_angle_beta   67.23914084
_cell_angle_gamma   67.23914135
_symmetry_Int_Tables_number   1
_chemical_formula_structural   Tb2ZnCoRu
_chemical_formula_sum   'Tb2 Zn1 Co1 Ru1'
_cell_volume   96.02079435
_cell_formula_units_Z   1
loop_
 _symmetry_equiv_pos_site_id
 _symmetry_equiv_pos_as_xyz
  1  'x, y, z'
loop_
 _atom_site_type_symbol
 _atom_site_label
 _atom_site_symmetry_multiplicity
 _atom_site_fract_x
 _atom_site_fract_y
 _atom_site_fract_z
 _atom_site_occupancy
  Tb  Tb0  1  0.208179  0.286130  0.297510  1
  Tb  Tb1  1  0.791821  0.702490  0.713870  1
  Zn  Zn2  1  0.000000  0.991574  0.008426  1
  Co  Co3  1  0.500000  0.727450  0.272550  1
  Ru  Ru4  1  0.500000  0.292355  0.707645  1
