# generated using pymatgen
data_Ta4B4Os3Ru
_symmetry_space_group_name_H-M   'P 1'
_cell_length_a   3.11731100
_cell_length_b   9.08143453
_cell_length_c   15.79387991
_cell_angle_alpha   89.96090143
_cell_angle_beta   90.00000000
_cell_angle_gamma   90.00000000
_symmetry_Int_Tables_number   1
_chemical_formula_structural   Ta4B4Os3Ru
_chemical_formula_sum   'Ta12 B12 Os9 Ru3'
_cell_volume   447.11919940
_cell_formula_units_Z   3
loop_
 _symmetry_equiv_pos_site_id
 _symmetry_equiv_pos_as_xyz
  1  'x, y, z'
loop_
 _atom_site_type_symbol
 _atom_site_label
 _atom_site_symmetry_multiplicity
 _atom_site_fract_x
 _atom_site_fract_y
 _atom_site_fract_z
 _atom_site_occupancy
  Ta  Ta0  1  0.000000  0.799369  0.495038  1
  Ta  Ta1  1  0.000000  0.200113  0.504731  1
  Ta  Ta2  1  0.000000  0.299850  0.005379  1
  Ta  Ta3  1  0.000000  0.700920  0.995320  1
  Ta  Ta4  1  0.000000  0.515940  0.592790  1
  Ta  Ta5  1  0.000000  0.483342  0.405907  1
  Ta  Ta6  1  0.000000  0.017217  0.906571  1
  Ta  Ta7  1  0.000000  0.983771  0.093768  1
  Ta  Ta8  1  0.000000  0.688698  0.202558  1
  Ta  Ta9  1  0.000000  0.311243  0.797902  1
  Ta  Ta10  1  0.000000  0.188387  0.297472  1
  Ta  Ta11  1  0.000000  0.811946  0.702362  1
  B  B12  1  0.500000  0.604704  0.496058  1
  B  B13  1  0.500000  0.394303  0.502588  1
  B  B14  1  0.500000  0.105378  0.003434  1
  B  B15  1  0.500000  0.895342  0.996854  1
  B  B16  1  0.000000  0.609541  0.832349  1
  B  B17  1  0.000000  0.390616  0.167948  1
  B  B18  1  0.000000  0.109165  0.668190  1
  B  B19  1  0.000000  0.890508  0.331773  1
  B  B20  1  0.500000  0.714408  0.597977  1
  B  B21  1  0.500000  0.284444  0.401937  1
  B  B22  1  0.500000  0.215627  0.902452  1
  B  B23  1  0.500000  0.785027  0.098008  1
  Os  Os24  1  0.500000  0.719443  0.354828  1
  Os  Os25  1  0.500000  0.280133  0.645144  1
  Os  Os26  1  0.500000  0.219480  0.145378  1
  Os  Os27  1  0.500000  0.781303  0.855203  1
  Os  Os28  1  0.500000  0.516658  0.094243  1
  Os  Os29  1  0.500000  0.483940  0.906492  1
  Os  Os30  1  0.500000  0.016155  0.405795  1
  Os  Os31  1  0.500000  0.983548  0.594037  1
  Os  Os32  1  0.500000  0.560415  0.734503  1
  Ru  Ru33  1  0.500000  0.439501  0.265235  1
  Ru  Ru34  1  0.500000  0.059854  0.765083  1
  Ru  Ru35  1  0.500000  0.939708  0.234692  1
