# generated using pymatgen
data_Nb8AlTe8P
_symmetry_space_group_name_H-M   'P 1'
_cell_length_a   4.84498900
_cell_length_b   11.01378800
_cell_length_c   19.37501200
_cell_angle_alpha   90.00000000
_cell_angle_beta   90.00000000
_cell_angle_gamma   90.00000000
_symmetry_Int_Tables_number   1
_chemical_formula_structural   Nb8AlTe8P
_chemical_formula_sum   'Nb16 Al2 Te16 P2'
_cell_volume   1033.88322344
_cell_formula_units_Z   2
loop_
 _symmetry_equiv_pos_site_id
 _symmetry_equiv_pos_as_xyz
  1  'x, y, z'
loop_
 _atom_site_type_symbol
 _atom_site_label
 _atom_site_symmetry_multiplicity
 _atom_site_fract_x
 _atom_site_fract_y
 _atom_site_fract_z
 _atom_site_occupancy
  Nb  Nb0  1  0.497594  0.597460  0.607653  1
  Nb  Nb1  1  0.497594  0.402540  0.392347  1
  Nb  Nb2  1  0.502406  0.097460  0.892347  1
  Nb  Nb3  1  0.502406  0.902540  0.107653  1
  Nb  Nb4  1  0.002344  0.296807  0.463043  1
  Nb  Nb5  1  0.002344  0.703193  0.536957  1
  Nb  Nb6  1  0.997656  0.796807  0.036957  1
  Nb  Nb7  1  0.997656  0.203193  0.963043  1
  Nb  Nb8  1  0.497744  0.310201  0.555438  1
  Nb  Nb9  1  0.497744  0.689799  0.444562  1
  Nb  Nb10  1  0.502256  0.810201  0.944562  1
  Nb  Nb11  1  0.502256  0.189799  0.055438  1
  Nb  Nb12  1  0.002178  0.434630  0.615235  1
  Nb  Nb13  1  0.002178  0.565370  0.384765  1
  Nb  Nb14  1  0.997822  0.934630  0.884765  1
  Nb  Nb15  1  0.997822  0.065370  0.115235  1
  Al  Al16  1  0.749957  0.500000  0.500000  1
  Al  Al17  1  0.250043  0.000000  0.000000  1
  Te  Te18  1  0.996091  0.665016  0.682761  1
  Te  Te19  1  0.996091  0.334984  0.317239  1
  Te  Te20  1  0.003909  0.165016  0.817239  1
  Te  Te21  1  0.003909  0.834984  0.182761  1
  Te  Te22  1  0.503658  0.389474  0.695763  1
  Te  Te23  1  0.503658  0.610526  0.304237  1
  Te  Te24  1  0.496342  0.889474  0.804237  1
  Te  Te25  1  0.496342  0.110526  0.195763  1
  Te  Te26  1  0.503978  0.155216  0.437104  1
  Te  Te27  1  0.503978  0.844784  0.562896  1
  Te  Te28  1  0.496022  0.655216  0.062896  1
  Te  Te29  1  0.496022  0.344784  0.937104  1
  Te  Te30  1  0.003987  0.322245  0.094128  1
  Te  Te31  1  0.003987  0.677755  0.905872  1
  Te  Te32  1  0.996013  0.822245  0.405872  1
  Te  Te33  1  0.996013  0.177755  0.594128  1
  P  P34  1  0.249973  0.500000  0.500000  1
  P  P35  1  0.750027  0.000000  0.000000  1
