# generated using pymatgen
data_LiNdY2(Co4P3)2
_symmetry_space_group_name_H-M   'P 1'
_cell_length_a   3.74881200
_cell_length_b   10.65458700
_cell_length_c   12.27414300
_cell_angle_alpha   90.00000000
_cell_angle_beta   90.00000000
_cell_angle_gamma   90.00000000
_symmetry_Int_Tables_number   1
_chemical_formula_structural   LiNdY2(Co4P3)2
_chemical_formula_sum   'Li2 Nd2 Y4 Co16 P12'
_cell_volume   490.25435487
_cell_formula_units_Z   2
loop_
 _symmetry_equiv_pos_site_id
 _symmetry_equiv_pos_as_xyz
  1  'x, y, z'
loop_
 _atom_site_type_symbol
 _atom_site_label
 _atom_site_symmetry_multiplicity
 _atom_site_fract_x
 _atom_site_fract_y
 _atom_site_fract_z
 _atom_site_occupancy
  Li  Li0  1  0.500000  0.500000  0.150456  1
  Li  Li1  1  0.000000  0.000000  0.849544  1
  Nd  Nd2  1  0.000000  0.500000  0.523706  1
  Nd  Nd3  1  0.500000  0.000000  0.476294  1
  Y  Y4  1  0.500000  0.819262  0.204939  1
  Y  Y5  1  0.500000  0.180738  0.204939  1
  Y  Y6  1  0.000000  0.680738  0.795061  1
  Y  Y7  1  0.000000  0.319262  0.795061  1
  Co  Co8  1  0.500000  0.500000  0.707358  1
  Co  Co9  1  0.000000  0.000000  0.292642  1
  Co  Co10  1  0.000000  0.500000  0.987564  1
  Co  Co11  1  0.500000  0.000000  0.012436  1
  Co  Co12  1  0.500000  0.332813  0.996983  1
  Co  Co13  1  0.500000  0.667187  0.996983  1
  Co  Co14  1  0.000000  0.167187  0.003017  1
  Co  Co15  1  0.000000  0.832813  0.003017  1
  Co  Co16  1  0.500000  0.296263  0.429821  1
  Co  Co17  1  0.500000  0.703737  0.429821  1
  Co  Co18  1  0.000000  0.203737  0.570179  1
  Co  Co19  1  0.000000  0.796263  0.570179  1
  Co  Co20  1  0.500000  0.879162  0.709247  1
  Co  Co21  1  0.500000  0.120838  0.709247  1
  Co  Co22  1  0.000000  0.620838  0.290753  1
  Co  Co23  1  0.000000  0.379162  0.290753  1
  P  P24  1  0.500000  0.500000  0.886390  1
  P  P25  1  0.000000  0.000000  0.113610  1
  P  P26  1  0.500000  0.500000  0.341668  1
  P  P27  1  0.000000  0.000000  0.658332  1
  P  P28  1  0.500000  0.306199  0.617137  1
  P  P29  1  0.500000  0.693801  0.617137  1
  P  P30  1  0.000000  0.193801  0.382863  1
  P  P31  1  0.000000  0.806199  0.382863  1
  P  P32  1  0.500000  0.843175  0.894693  1
  P  P33  1  0.500000  0.156825  0.894693  1
  P  P34  1  0.000000  0.656825  0.105307  1
  P  P35  1  0.000000  0.343175  0.105307  1
