# generated using pymatgen
data_Ho5Sn2Ru
_symmetry_space_group_name_H-M   'P 1'
_cell_length_a   7.76015900
_cell_length_b   9.06102000
_cell_length_c   12.14181700
_cell_angle_alpha   90.00000000
_cell_angle_beta   90.00000000
_cell_angle_gamma   90.00000000
_symmetry_Int_Tables_number   1
_chemical_formula_structural   Ho5Sn2Ru
_chemical_formula_sum   'Ho20 Sn8 Ru4'
_cell_volume   853.75132693
_cell_formula_units_Z   4
loop_
 _symmetry_equiv_pos_site_id
 _symmetry_equiv_pos_as_xyz
  1  'x, y, z'
loop_
 _atom_site_type_symbol
 _atom_site_label
 _atom_site_symmetry_multiplicity
 _atom_site_fract_x
 _atom_site_fract_y
 _atom_site_fract_z
 _atom_site_occupancy
  Ho  Ho0  1  0.844283  0.750000  0.786666  1
  Ho  Ho1  1  0.155717  0.250000  0.213334  1
  Ho  Ho2  1  0.344283  0.250000  0.713334  1
  Ho  Ho3  1  0.655717  0.750000  0.286666  1
  Ho  Ho4  1  0.375041  0.750000  0.696738  1
  Ho  Ho5  1  0.624959  0.250000  0.303262  1
  Ho  Ho6  1  0.875041  0.250000  0.803262  1
  Ho  Ho7  1  0.124959  0.750000  0.196738  1
  Ho  Ho8  1  0.957693  0.750000  0.502704  1
  Ho  Ho9  1  0.042307  0.250000  0.497296  1
  Ho  Ho10  1  0.457693  0.250000  0.997296  1
  Ho  Ho11  1  0.542307  0.750000  0.002704  1
  Ho  Ho12  1  0.678319  0.036114  0.570108  1
  Ho  Ho13  1  0.321681  0.963886  0.429892  1
  Ho  Ho14  1  0.178319  0.963886  0.929892  1
  Ho  Ho15  1  0.321681  0.536114  0.429892  1
  Ho  Ho16  1  0.821681  0.036114  0.070108  1
  Ho  Ho17  1  0.678319  0.463886  0.570108  1
  Ho  Ho18  1  0.821681  0.463886  0.070108  1
  Ho  Ho19  1  0.178319  0.536114  0.929892  1
  Sn  Sn20  1  0.572351  0.495138  0.829744  1
  Sn  Sn21  1  0.427649  0.504862  0.170256  1
  Sn  Sn22  1  0.072351  0.504862  0.670256  1
  Sn  Sn23  1  0.427649  0.995138  0.170256  1
  Sn  Sn24  1  0.927649  0.495138  0.329744  1
  Sn  Sn25  1  0.572351  0.004862  0.829744  1
  Sn  Sn26  1  0.927649  0.004862  0.329744  1
  Sn  Sn27  1  0.072351  0.995138  0.670256  1
  Ru  Ru28  1  0.575343  0.750000  0.509304  1
  Ru  Ru29  1  0.424657  0.250000  0.490696  1
  Ru  Ru30  1  0.075343  0.250000  0.990696  1
  Ru  Ru31  1  0.924657  0.750000  0.009304  1
