# generated using pymatgen
data_Tb17Y3Pb16
_symmetry_space_group_name_H-M   'P 1'
_cell_length_a   8.25301427
_cell_length_b   15.74659900
_cell_length_c   8.33370600
_cell_angle_alpha   90.00000000
_cell_angle_beta   90.01457211
_cell_angle_gamma   90.00000000
_symmetry_Int_Tables_number   1
_chemical_formula_structural   Tb17Y3Pb16
_chemical_formula_sum   'Tb17 Y3 Pb16'
_cell_volume   1083.02261393
_cell_formula_units_Z   1
loop_
 _symmetry_equiv_pos_site_id
 _symmetry_equiv_pos_as_xyz
  1  'x, y, z'
loop_
 _atom_site_type_symbol
 _atom_site_label
 _atom_site_symmetry_multiplicity
 _atom_site_fract_x
 _atom_site_fract_y
 _atom_site_fract_z
 _atom_site_occupancy
  Tb  Tb0  1  0.622995  0.620491  0.158708  1
  Tb  Tb1  1  0.122978  0.879403  0.341184  1
  Tb  Tb2  1  0.377257  0.120749  0.841371  1
  Tb  Tb3  1  0.876893  0.379264  0.658942  1
  Tb  Tb4  1  0.377257  0.379251  0.841371  1
  Tb  Tb5  1  0.876893  0.120736  0.658942  1
  Tb  Tb6  1  0.622995  0.879509  0.158708  1
  Tb  Tb7  1  0.122978  0.620597  0.341184  1
  Tb  Tb8  1  0.465232  0.600082  0.675949  1
  Tb  Tb9  1  0.965179  0.899957  0.824027  1
  Tb  Tb10  1  0.534937  0.100184  0.323822  1
  Tb  Tb11  1  0.034668  0.399783  0.175848  1
  Tb  Tb12  1  0.534937  0.399816  0.323822  1
  Tb  Tb13  1  0.034668  0.100217  0.175848  1
  Tb  Tb14  1  0.465232  0.899918  0.675949  1
  Tb  Tb15  1  0.965179  0.600043  0.824027  1
  Tb  Tb16  1  0.209094  0.250000  0.503503  1
  Y  Y17  1  0.790809  0.750000  0.496408  1
  Y  Y18  1  0.290821  0.750000  0.003517  1
  Y  Y19  1  0.709211  0.250000  0.996351  1
  Pb  Pb20  1  0.718851  0.456934  0.966977  1
  Pb  Pb21  1  0.218801  0.042688  0.533345  1
  Pb  Pb22  1  0.281149  0.957356  0.033222  1
  Pb  Pb23  1  0.781235  0.542629  0.466712  1
  Pb  Pb24  1  0.281149  0.542644  0.033222  1
  Pb  Pb25  1  0.781235  0.957371  0.466712  1
  Pb  Pb26  1  0.718851  0.043066  0.966977  1
  Pb  Pb27  1  0.218801  0.457312  0.533345  1
  Pb  Pb28  1  0.427483  0.750000  0.373996  1
  Pb  Pb29  1  0.927464  0.750000  0.125914  1
  Pb  Pb30  1  0.572835  0.250000  0.626471  1
  Pb  Pb31  1  0.072000  0.250000  0.874385  1
  Pb  Pb32  1  0.653428  0.750000  0.847757  1
  Pb  Pb33  1  0.153363  0.750000  0.652292  1
  Pb  Pb34  1  0.346872  0.250000  0.152148  1
  Pb  Pb35  1  0.846266  0.250000  0.347042  1
