# generated using pymatgen
data_Tm7Hf13Si15Pb
_symmetry_space_group_name_H-M   'P 1'
_cell_length_a   7.28611839
_cell_length_b   7.24893707
_cell_length_c   13.29077538
_cell_angle_alpha   89.99445172
_cell_angle_beta   89.63431556
_cell_angle_gamma   90.15485592
_symmetry_Int_Tables_number   1
_chemical_formula_structural   Tm7Hf13Si15Pb
_chemical_formula_sum   'Tm7 Hf13 Si15 Pb1'
_cell_volume   701.95688292
_cell_formula_units_Z   1
loop_
 _symmetry_equiv_pos_site_id
 _symmetry_equiv_pos_as_xyz
  1  'x, y, z'
loop_
 _atom_site_type_symbol
 _atom_site_label
 _atom_site_symmetry_multiplicity
 _atom_site_fract_x
 _atom_site_fract_y
 _atom_site_fract_z
 _atom_site_occupancy
  Tm  Tm0  1  0.495547  0.154247  0.533326  1
  Tm  Tm1  1  0.496478  0.839022  0.034031  1
  Tm  Tm2  1  0.650593  0.000599  0.289429  1
  Tm  Tm3  1  0.343125  0.994231  0.782718  1
  Tm  Tm4  1  0.846683  0.514228  0.962292  1
  Tm  Tm5  1  0.154665  0.494954  0.466493  1
  Tm  Tm6  1  0.003934  0.655337  0.714119  1
  Hf  Hf7  1  0.675755  0.324545  0.748830  1
  Hf  Hf8  1  0.323501  0.671973  0.251463  1
  Hf  Hf9  1  0.823593  0.824397  0.499304  1
  Hf  Hf10  1  0.182897  0.175653  0.998580  1
  Hf  Hf11  1  0.017077  0.361803  0.222470  1
  Hf  Hf12  1  0.485665  0.360950  0.124637  1
  Hf  Hf13  1  0.502588  0.646583  0.623950  1
  Hf  Hf14  1  0.852129  0.003389  0.869884  1
  Hf  Hf15  1  0.146303  0.996111  0.373554  1
  Hf  Hf16  1  0.648130  0.501500  0.374704  1
  Hf  Hf17  1  0.350076  0.498182  0.874082  1
  Hf  Hf18  1  0.015353  0.837584  0.130076  1
  Hf  Hf19  1  0.996112  0.147136  0.624489  1
  Si  Si20  1  0.205097  0.860273  0.567307  1
  Si  Si21  1  0.638791  0.705319  0.815933  1
  Si  Si22  1  0.357722  0.296413  0.318709  1
  Si  Si23  1  0.861368  0.206293  0.428643  1
  Si  Si24  1  0.138363  0.796906  0.932197  1
  Si  Si25  1  0.708689  0.637059  0.181756  1
  Si  Si26  1  0.295340  0.358631  0.680957  1
  Si  Si27  1  0.541157  0.203431  0.930049  1
  Si  Si28  1  0.448958  0.794414  0.436276  1
  Si  Si29  1  0.701610  0.950659  0.683546  1
  Si  Si30  1  0.296247  0.052919  0.186000  1
  Si  Si31  1  0.796255  0.450131  0.563728  1
  Si  Si32  1  0.197892  0.544792  0.064265  1
  Si  Si33  1  0.951513  0.699402  0.316789  1
  Si  Si34  1  0.049251  0.297516  0.814311  1
  Pb  Pb35  1  0.801546  0.143419  0.081102  1
