# generated using pymatgen
data_U4Cr5(TcP3)2
_symmetry_space_group_name_H-M   'P 1'
_cell_length_a   6.89871992
_cell_length_b   6.89872005
_cell_length_c   6.89871984
_cell_angle_alpha   109.56304905
_cell_angle_beta   109.56304307
_cell_angle_gamma   109.28772504
_symmetry_Int_Tables_number   1
_chemical_formula_structural   U4Cr5(TcP3)2
_chemical_formula_sum   'U4 Cr5 Tc2 P6'
_cell_volume   252.74368648
_cell_formula_units_Z   1
loop_
 _symmetry_equiv_pos_site_id
 _symmetry_equiv_pos_as_xyz
  1  'x, y, z'
loop_
 _atom_site_type_symbol
 _atom_site_label
 _atom_site_symmetry_multiplicity
 _atom_site_fract_x
 _atom_site_fract_y
 _atom_site_fract_z
 _atom_site_occupancy
  U  U0  1  0.501728  0.498272  0.500000  1
  U  U1  1  0.998272  0.001728  0.500000  1
  U  U2  1  0.501728  0.001728  0.003456  1
  U  U3  1  0.998272  0.498272  0.996544  1
  Cr  Cr4  1  0.750000  0.250000  0.500000  1
  Cr  Cr5  1  0.500905  0.251109  0.750204  1
  Cr  Cr6  1  0.500905  0.750701  0.249796  1
  Cr  Cr7  1  0.249299  0.499095  0.750204  1
  Cr  Cr8  1  0.748891  0.499095  0.249796  1
  Tc  Tc9  1  0.250000  0.750000  0.500000  1
  Tc  Tc10  1  0.000000  0.000000  0.000000  1
  P  P11  1  0.323459  0.323459  0.000000  1
  P  P12  1  0.995291  0.314816  0.319525  1
  P  P13  1  0.995291  0.675767  0.680475  1
  P  P14  1  0.685184  0.004709  0.680475  1
  P  P15  1  0.324233  0.004709  0.319525  1
  P  P16  1  0.676541  0.676541  0.000000  1
