# generated using pymatgen
data_Sc7Nb(Si4Tc3)4
_symmetry_space_group_name_H-M   'P 1'
_cell_length_a   6.62591075
_cell_length_b   6.62415179
_cell_length_c   12.35922003
_cell_angle_alpha   90.06307804
_cell_angle_beta   90.40014672
_cell_angle_gamma   90.16793947
_symmetry_Int_Tables_number   1
_chemical_formula_structural   Sc7Nb(Si4Tc3)4
_chemical_formula_sum   'Sc7 Nb1 Si16 Tc12'
_cell_volume   542.44310272
_cell_formula_units_Z   1
loop_
 _symmetry_equiv_pos_site_id
 _symmetry_equiv_pos_as_xyz
  1  'x, y, z'
loop_
 _atom_site_type_symbol
 _atom_site_label
 _atom_site_symmetry_multiplicity
 _atom_site_fract_x
 _atom_site_fract_y
 _atom_site_fract_z
 _atom_site_occupancy
  Sc  Sc0  1  0.840118  0.503480  0.280758  1
  Sc  Sc1  1  0.158067  0.494131  0.780960  1
  Sc  Sc2  1  0.505600  0.841114  0.720985  1
  Sc  Sc3  1  0.493710  0.157996  0.216978  1
  Sc  Sc4  1  0.996040  0.342292  0.530774  1
  Sc  Sc5  1  0.660820  0.997540  0.970081  1
  Sc  Sc6  1  0.341822  0.996720  0.469797  1
  Nb  Nb7  1  0.010267  0.657919  0.039130  1
  Si  Si8  1  0.273033  0.969672  0.061129  1
  Si  Si9  1  0.527109  0.780615  0.314378  1
  Si  Si10  1  0.473996  0.217153  0.814821  1
  Si  Si11  1  0.783484  0.529632  0.685388  1
  Si  Si12  1  0.218854  0.471989  0.186002  1
  Si  Si13  1  0.720838  0.027483  0.564792  1
  Si  Si14  1  0.971803  0.279113  0.936067  1
  Si  Si15  1  0.027486  0.720928  0.435962  1
  Si  Si16  1  0.694711  0.380813  0.063974  1
  Si  Si17  1  0.121863  0.194461  0.317701  1
  Si  Si18  1  0.880932  0.804943  0.821390  1
  Si  Si19  1  0.195746  0.124696  0.681537  1
  Si  Si20  1  0.803971  0.876872  0.180597  1
  Si  Si21  1  0.307110  0.623583  0.567382  1
  Si  Si22  1  0.374776  0.694424  0.932313  1
  Si  Si23  1  0.621682  0.305674  0.432280  1
  Tc  Tc24  1  0.326909  0.328088  0.000213  1
  Tc  Tc25  1  0.169442  0.836173  0.252264  1
  Tc  Tc26  1  0.831639  0.168245  0.750710  1
  Tc  Tc27  1  0.668807  0.669218  0.499335  1
  Tc  Tc28  1  0.978326  0.183261  0.131026  1
  Tc  Tc29  1  0.318131  0.481047  0.380663  1
  Tc  Tc30  1  0.676552  0.520384  0.877495  1
  Tc  Tc31  1  0.484003  0.322529  0.619751  1
  Tc  Tc32  1  0.511439  0.679123  0.119480  1
  Tc  Tc33  1  0.022660  0.819766  0.630906  1
  Tc  Tc34  1  0.190138  0.979275  0.863988  1
  Tc  Tc35  1  0.818118  0.019650  0.368995  1
