# generated using pymatgen
data_YLu9Cd3Ir
_symmetry_space_group_name_H-M   'P 1'
_cell_length_a   9.40179200
_cell_length_b   9.40179197
_cell_length_c   9.69195900
_cell_angle_alpha   90.00000000
_cell_angle_beta   90.00000000
_cell_angle_gamma   119.97646446
_symmetry_Int_Tables_number   1
_chemical_formula_structural   YLu9Cd3Ir
_chemical_formula_sum   'Y2 Lu18 Cd6 Ir2'
_cell_volume   742.10682315
_cell_formula_units_Z   2
loop_
 _symmetry_equiv_pos_site_id
 _symmetry_equiv_pos_as_xyz
  1  'x, y, z'
loop_
 _atom_site_type_symbol
 _atom_site_label
 _atom_site_symmetry_multiplicity
 _atom_site_fract_x
 _atom_site_fract_y
 _atom_site_fract_z
 _atom_site_occupancy
  Y  Y0  1  0.460031  0.918863  0.750000  1
  Y  Y1  1  0.081137  0.539969  0.750000  1
  Lu  Lu2  1  0.999720  0.000280  0.499864  1
  Lu  Lu3  1  0.999720  0.000280  0.000136  1
  Lu  Lu4  1  0.209186  0.790814  0.440540  1
  Lu  Lu5  1  0.210630  0.419074  0.440936  1
  Lu  Lu6  1  0.580926  0.789370  0.440936  1
  Lu  Lu7  1  0.789659  0.210341  0.556914  1
  Lu  Lu8  1  0.788955  0.580208  0.557024  1
  Lu  Lu9  1  0.419792  0.211045  0.557024  1
  Lu  Lu10  1  0.789659  0.210341  0.943086  1
  Lu  Lu11  1  0.788955  0.580208  0.942976  1
  Lu  Lu12  1  0.419792  0.211045  0.942976  1
  Lu  Lu13  1  0.209186  0.790814  0.059460  1
  Lu  Lu14  1  0.210630  0.419074  0.059064  1
  Lu  Lu15  1  0.580926  0.789370  0.059064  1
  Lu  Lu16  1  0.541464  0.458536  0.250000  1
  Lu  Lu17  1  0.540962  0.081045  0.250000  1
  Lu  Lu18  1  0.918955  0.459038  0.250000  1
  Lu  Lu19  1  0.461062  0.538938  0.750000  1
  Cd  Cd20  1  0.886526  0.113474  0.250000  1
  Cd  Cd21  1  0.885566  0.773228  0.250000  1
  Cd  Cd22  1  0.226772  0.114434  0.250000  1
  Cd  Cd23  1  0.112691  0.887309  0.750000  1
  Cd  Cd24  1  0.114674  0.226103  0.750000  1
  Cd  Cd25  1  0.773897  0.885326  0.750000  1
  Ir  Ir26  1  0.332602  0.667398  0.250000  1
  Ir  Ir27  1  0.665925  0.334075  0.750000  1
