# generated using pymatgen
data_Ti2CuPd3
_symmetry_space_group_name_H-M   'P 1'
_cell_length_a   4.81128930
_cell_length_b   4.79280202
_cell_length_c   4.60280300
_cell_angle_alpha   90.00000000
_cell_angle_beta   90.00000000
_cell_angle_gamma   121.72572693
_symmetry_Int_Tables_number   1
_chemical_formula_structural   Ti2CuPd3
_chemical_formula_sum   'Ti2 Cu1 Pd3'
_cell_volume   90.27884653
_cell_formula_units_Z   1
loop_
 _symmetry_equiv_pos_site_id
 _symmetry_equiv_pos_as_xyz
  1  'x, y, z'
loop_
 _atom_site_type_symbol
 _atom_site_label
 _atom_site_symmetry_multiplicity
 _atom_site_fract_x
 _atom_site_fract_y
 _atom_site_fract_z
 _atom_site_occupancy
  Ti  Ti0  1  0.769990  0.766270  0.250000  1
  Ti  Ti1  1  0.230281  0.234672  0.750000  1
  Cu  Cu2  1  0.452737  0.113503  0.250000  1
  Pd  Pd3  1  0.126610  0.433888  0.250000  1
  Pd  Pd4  1  0.546425  0.888654  0.750000  1
  Pd  Pd5  1  0.873957  0.563013  0.750000  1
