# generated using pymatgen
data_HfScSb4
_symmetry_space_group_name_H-M   'P 1'
_cell_length_a   3.91630200
_cell_length_b   10.18120000
_cell_length_c   14.97703800
_cell_angle_alpha   90.00000000
_cell_angle_beta   90.00000000
_cell_angle_gamma   90.00000000
_symmetry_Int_Tables_number   1
_chemical_formula_structural   HfScSb4
_chemical_formula_sum   'Hf4 Sc4 Sb16'
_cell_volume   597.17425296
_cell_formula_units_Z   4
loop_
 _symmetry_equiv_pos_site_id
 _symmetry_equiv_pos_as_xyz
  1  'x, y, z'
loop_
 _atom_site_type_symbol
 _atom_site_label
 _atom_site_symmetry_multiplicity
 _atom_site_fract_x
 _atom_site_fract_y
 _atom_site_fract_z
 _atom_site_occupancy
  Hf  Hf0  1  0.000000  0.833775  0.493386  1
  Hf  Hf1  1  0.000000  0.166225  0.506614  1
  Hf  Hf2  1  0.500000  0.333775  0.006614  1
  Hf  Hf3  1  0.500000  0.666225  0.993386  1
  Sc  Sc4  1  0.500000  0.522629  0.250458  1
  Sc  Sc5  1  0.500000  0.477371  0.749542  1
  Sc  Sc6  1  0.000000  0.022629  0.249542  1
  Sc  Sc7  1  0.000000  0.977371  0.750458  1
  Sb  Sb8  1  0.000000  0.513613  0.103406  1
  Sb  Sb9  1  0.000000  0.486387  0.896594  1
  Sb  Sb10  1  0.500000  0.013613  0.396594  1
  Sb  Sb11  1  0.500000  0.986387  0.603406  1
  Sb  Sb12  1  0.000000  0.734961  0.299366  1
  Sb  Sb13  1  0.000000  0.265039  0.700634  1
  Sb  Sb14  1  0.500000  0.234961  0.200634  1
  Sb  Sb15  1  0.500000  0.765039  0.799366  1
  Sb  Sb16  1  0.000000  0.877870  0.944781  1
  Sb  Sb17  1  0.000000  0.122130  0.055219  1
  Sb  Sb18  1  0.500000  0.377870  0.555219  1
  Sb  Sb19  1  0.500000  0.622130  0.444781  1
  Sb  Sb20  1  0.000000  0.664230  0.656055  1
  Sb  Sb21  1  0.000000  0.335770  0.343945  1
  Sb  Sb22  1  0.500000  0.164230  0.843945  1
  Sb  Sb23  1  0.500000  0.835770  0.156055  1
