# generated using pymatgen
data_Be5Nb6AsOs6
_symmetry_space_group_name_H-M   'P 1'
_cell_length_a   7.40009770
_cell_length_b   7.39805928
_cell_length_c   7.39924000
_cell_angle_alpha   126.23670186
_cell_angle_beta   129.59115979
_cell_angle_gamma   76.78661576
_symmetry_Int_Tables_number   1
_chemical_formula_structural   Be5Nb6AsOs6
_chemical_formula_sum   'Be5 Nb6 As1 Os6'
_cell_volume   244.52661203
_cell_formula_units_Z   1
loop_
 _symmetry_equiv_pos_site_id
 _symmetry_equiv_pos_as_xyz
  1  'x, y, z'
loop_
 _atom_site_type_symbol
 _atom_site_label
 _atom_site_symmetry_multiplicity
 _atom_site_fract_x
 _atom_site_fract_y
 _atom_site_fract_z
 _atom_site_occupancy
  Be  Be0  1  0.749734  0.497032  0.246360  1
  Be  Be1  1  0.250499  0.496732  0.747421  1
  Be  Be2  1  0.331272  0.830066  0.499219  1
  Be  Be3  1  0.666015  0.163473  0.496160  1
  Be  Be4  1  0.835379  0.829879  0.994006  1
  Nb  Nb5  1  0.557889  0.087231  0.041492  1
  Nb  Nb6  1  0.461072  0.509657  0.561305  1
  Nb  Nb7  1  0.948377  0.509294  0.048152  1
  Nb  Nb8  1  0.045392  0.087057  0.529417  1
  Nb  Nb9  1  0.736725  0.893800  0.643052  1
  Nb  Nb10  1  0.250091  0.893179  0.156819  1
  As  As11  1  0.167240  0.163484  0.997256  1
  Os  Os12  1  0.500315  0.245699  0.745289  1
  Os  Os13  1  0.997356  0.246601  0.249496  1
  Os  Os14  1  0.124926  0.742381  0.617839  1
  Os  Os15  1  0.873833  0.495194  0.621068  1
  Os  Os16  1  0.625875  0.747993  0.121950  1
  Os  Os17  1  0.378008  0.503447  0.125900  1
