# generated using pymatgen
data_Nd5ZnTe4
_symmetry_space_group_name_H-M   'P 1'
_cell_length_a   7.81593839
_cell_length_b   7.81593868
_cell_length_c   11.11998010
_cell_angle_alpha   60.89789275
_cell_angle_beta   60.89789177
_cell_angle_gamma   32.47585568
_symmetry_Int_Tables_number   1
_chemical_formula_structural   Nd5ZnTe4
_chemical_formula_sum   'Nd5 Zn1 Te4'
_cell_volume   314.48593629
_cell_formula_units_Z   1
loop_
 _symmetry_equiv_pos_site_id
 _symmetry_equiv_pos_as_xyz
  1  'x, y, z'
loop_
 _atom_site_type_symbol
 _atom_site_label
 _atom_site_symmetry_multiplicity
 _atom_site_fract_x
 _atom_site_fract_y
 _atom_site_fract_z
 _atom_site_occupancy
  Nd  Nd0  1  0.000000  0.000000  0.500000  1
  Nd  Nd1  1  0.592715  0.592715  0.096049  1
  Nd  Nd2  1  0.191146  0.191146  0.717668  1
  Nd  Nd3  1  0.808854  0.808854  0.282332  1
  Nd  Nd4  1  0.407285  0.407285  0.903951  1
  Zn  Zn5  1  0.000000  0.000000  0.000000  1
  Te  Te6  1  0.607075  0.607075  0.591534  1
  Te  Te7  1  0.196601  0.196601  0.195987  1
  Te  Te8  1  0.803399  0.803399  0.804013  1
  Te  Te9  1  0.392925  0.392925  0.408466  1
