# generated using pymatgen
data_Ta2Nb2VSiB2
_symmetry_space_group_name_H-M   'P 1'
_cell_length_a   7.24513108
_cell_length_b   7.24494551
_cell_length_c   7.24364507
_cell_angle_alpha   129.85293056
_cell_angle_beta   129.85174815
_cell_angle_gamma   73.65527847
_symmetry_Int_Tables_number   1
_chemical_formula_structural   Ta2Nb2VSiB2
_chemical_formula_sum   'Ta4 Nb4 V2 Si2 B4'
_cell_volume   218.63579073
_cell_formula_units_Z   2
loop_
 _symmetry_equiv_pos_site_id
 _symmetry_equiv_pos_as_xyz
  1  'x, y, z'
loop_
 _atom_site_type_symbol
 _atom_site_label
 _atom_site_symmetry_multiplicity
 _atom_site_fract_x
 _atom_site_fract_y
 _atom_site_fract_z
 _atom_site_occupancy
  Ta  Ta0  1  0.805595  0.305955  0.840323  1
  Ta  Ta1  1  0.194504  0.694356  0.160345  1
  Ta  Ta2  1  0.465214  0.965547  0.159340  1
  Ta  Ta3  1  0.305786  0.465809  0.499906  1
  Nb  Nb4  1  0.033895  0.194029  0.500337  1
  Nb  Nb5  1  0.534186  0.034056  0.840197  1
  Nb  Nb6  1  0.694254  0.533796  0.500330  1
  Nb  Nb7  1  0.965742  0.806231  0.499883  1
  V  V8  1  0.999336  0.999431  0.999382  1
  V  V9  1  0.500027  0.499390  0.000090  1
  Si  Si10  1  0.249766  0.250082  0.000281  1
  Si  Si11  1  0.749797  0.749612  0.999818  1
  B  B12  1  0.120914  0.619601  0.739934  1
  B  B13  1  0.882495  0.381184  0.262353  1
  B  B14  1  0.617023  0.882355  0.498745  1
  B  B15  1  0.381468  0.118565  0.498736  1
