# generated using pymatgen
data_Y2Er4ReB14Os
_symmetry_space_group_name_H-M   'P 1'
_cell_length_a   8.01293614
_cell_length_b   8.01293575
_cell_length_c   9.32092500
_cell_angle_alpha   90.00000000
_cell_angle_beta   90.00000000
_cell_angle_gamma   154.60688075
_symmetry_Int_Tables_number   1
_chemical_formula_structural   Y2Er4ReB14Os
_chemical_formula_sum   'Y2 Er4 Re1 B14 Os1'
_cell_volume   256.63986607
_cell_formula_units_Z   1
loop_
 _symmetry_equiv_pos_site_id
 _symmetry_equiv_pos_as_xyz
  1  'x, y, z'
loop_
 _atom_site_type_symbol
 _atom_site_label
 _atom_site_symmetry_multiplicity
 _atom_site_fract_x
 _atom_site_fract_y
 _atom_site_fract_z
 _atom_site_occupancy
  Y  Y0  1  0.245099  0.754901  0.250000  1
  Y  Y1  1  0.755619  0.244381  0.750000  1
  Er  Er2  1  0.894679  0.105321  0.441280  1
  Er  Er3  1  0.105552  0.894448  0.559817  1
  Er  Er4  1  0.894679  0.105321  0.058720  1
  Er  Er5  1  0.105552  0.894448  0.940183  1
  Re  Re6  1  0.947658  0.052342  0.750000  1
  B  B7  1  0.726832  0.273168  0.465474  1
  B  B8  1  0.272498  0.727502  0.533329  1
  B  B9  1  0.726832  0.273168  0.034526  1
  B  B10  1  0.272498  0.727502  0.966671  1
  B  B11  1  0.631493  0.368507  0.151083  1
  B  B12  1  0.367998  0.632002  0.849228  1
  B  B13  1  0.631493  0.368507  0.348917  1
  B  B14  1  0.367998  0.632002  0.650772  1
  B  B15  1  0.519986  0.480014  0.096059  1
  B  B16  1  0.480059  0.519941  0.904798  1
  B  B17  1  0.519986  0.480014  0.403941  1
  B  B18  1  0.480059  0.519941  0.595202  1
  B  B19  1  0.454933  0.545067  0.250000  1
  B  B20  1  0.545590  0.454410  0.750000  1
  Os  Os21  1  0.052905  0.947095  0.250000  1
