# generated using pymatgen
data_La3PrNd8(Si7Br3)2
_symmetry_space_group_name_H-M   'P 1'
_cell_length_a   4.08685300
_cell_length_b   11.83553987
_cell_length_c   16.61892531
_cell_angle_alpha   90.21590652
_cell_angle_beta   90.00000000
_cell_angle_gamma   90.00000000
_symmetry_Int_Tables_number   1
_chemical_formula_structural   La3PrNd8(Si7Br3)2
_chemical_formula_sum   'La3 Pr1 Nd8 Si14 Br6'
_cell_volume   803.85356516
_cell_formula_units_Z   1
loop_
 _symmetry_equiv_pos_site_id
 _symmetry_equiv_pos_as_xyz
  1  'x, y, z'
loop_
 _atom_site_type_symbol
 _atom_site_label
 _atom_site_symmetry_multiplicity
 _atom_site_fract_x
 _atom_site_fract_y
 _atom_site_fract_z
 _atom_site_occupancy
  La  La0  1  0.000000  0.935124  0.621823  1
  La  La1  1  0.500000  0.063845  0.120103  1
  La  La2  1  0.000000  0.934802  0.379658  1
  Pr  Pr3  1  0.000000  0.658209  0.000286  1
  Nd  Nd4  1  0.500000  0.343743  0.499512  1
  Nd  Nd5  1  0.500000  0.360174  0.756832  1
  Nd  Nd6  1  0.000000  0.639535  0.742898  1
  Nd  Nd7  1  0.500000  0.360641  0.242176  1
  Nd  Nd8  1  0.000000  0.638235  0.258006  1
  Nd  Nd9  1  0.500000  0.067451  0.879776  1
  Nd  Nd10  1  0.500000  0.357175  0.999240  1
  Nd  Nd11  1  0.000000  0.642064  0.500262  1
  Si  Si12  1  0.000000  0.153566  0.998963  1
  Si  Si13  1  0.500000  0.844939  0.500505  1
  Si  Si14  1  0.500000  0.567366  0.875933  1
  Si  Si15  1  0.000000  0.432102  0.623658  1
  Si  Si16  1  0.500000  0.567689  0.123967  1
  Si  Si17  1  0.000000  0.431143  0.376060  1
  Si  Si18  1  0.000000  0.254506  0.872981  1
  Si  Si19  1  0.500000  0.744338  0.626382  1
  Si  Si20  1  0.000000  0.255187  0.124985  1
  Si  Si21  1  0.500000  0.744068  0.374383  1
  Si  Si22  1  0.000000  0.458125  0.876437  1
  Si  Si23  1  0.500000  0.541273  0.623130  1
  Si  Si24  1  0.500000  0.540650  0.377355  1
  Si  Si25  1  0.000000  0.458406  0.122417  1
  Br  Br26  1  0.500000  0.112349  0.694621  1
  Br  Br27  1  0.000000  0.890820  0.809059  1
  Br  Br28  1  0.000000  0.141864  0.501125  1
  Br  Br29  1  0.500000  0.861515  0.997863  1
  Br  Br30  1  0.500000  0.113571  0.307440  1
  Br  Br31  1  0.000000  0.885523  0.192167  1
