# generated using pymatgen
data_Sc4Tc7W
_symmetry_space_group_name_H-M   'P 1'
_cell_length_a   5.26129002
_cell_length_b   5.26128991
_cell_length_c   8.65057100
_cell_angle_alpha   90.00000000
_cell_angle_beta   90.00000000
_cell_angle_gamma   119.85830368
_symmetry_Int_Tables_number   1
_chemical_formula_structural   Sc4Tc7W
_chemical_formula_sum   'Sc4 Tc7 W1'
_cell_volume   207.67212677
_cell_formula_units_Z   1
loop_
 _symmetry_equiv_pos_site_id
 _symmetry_equiv_pos_as_xyz
  1  'x, y, z'
loop_
 _atom_site_type_symbol
 _atom_site_label
 _atom_site_symmetry_multiplicity
 _atom_site_fract_x
 _atom_site_fract_y
 _atom_site_fract_z
 _atom_site_occupancy
  Sc  Sc0  1  0.332696  0.667304  0.440899  1
  Sc  Sc1  1  0.666840  0.333160  0.563366  1
  Sc  Sc2  1  0.666840  0.333160  0.936634  1
  Sc  Sc3  1  0.332696  0.667304  0.059101  1
  Tc  Tc4  1  0.000874  0.999126  0.502568  1
  Tc  Tc5  1  0.000874  0.999126  0.997432  1
  Tc  Tc6  1  0.826062  0.655805  0.250000  1
  Tc  Tc7  1  0.344195  0.173938  0.250000  1
  Tc  Tc8  1  0.171222  0.828778  0.750000  1
  Tc  Tc9  1  0.172355  0.345417  0.750000  1
  Tc  Tc10  1  0.654583  0.827645  0.750000  1
  W  W11  1  0.830762  0.169238  0.250000  1
