# generated using pymatgen
data_MoHO2
_symmetry_space_group_name_H-M   'P 1'
_cell_length_a   3.35717826
_cell_length_b   3.35717781
_cell_length_c   5.83222201
_cell_angle_alpha   56.07048429
_cell_angle_beta   56.07049349
_cell_angle_gamma   59.83155560
_symmetry_Int_Tables_number   1
_chemical_formula_structural   MoHO2
_chemical_formula_sum   'Mo1 H1 O2'
_cell_volume   43.47714268
_cell_formula_units_Z   1
loop_
 _symmetry_equiv_pos_site_id
 _symmetry_equiv_pos_as_xyz
  1  'x, y, z'
loop_
 _atom_site_type_symbol
 _atom_site_label
 _atom_site_symmetry_multiplicity
 _atom_site_fract_x
 _atom_site_fract_y
 _atom_site_fract_z
 _atom_site_occupancy
  Mo  Mo0  1  0.000000  0.000000  0.000000  1
  H  H1  1  0.000000  0.000000  0.500000  1
  O  O2  1  0.814045  0.814045  0.771857  1
  O  O3  1  0.185955  0.185955  0.228143  1
