# generated using pymatgen
data_CaPr3Tm4(B6Ru)4
_symmetry_space_group_name_H-M   'P 1'
_cell_length_a   3.68999700
_cell_length_b   9.18914193
_cell_length_c   11.62588710
_cell_angle_alpha   89.92782556
_cell_angle_beta   90.00000000
_cell_angle_gamma   90.00000000
_symmetry_Int_Tables_number   1
_chemical_formula_structural   CaPr3Tm4(B6Ru)4
_chemical_formula_sum   'Ca1 Pr3 Tm4 B24 Ru4'
_cell_volume   394.20917610
_cell_formula_units_Z   1
loop_
 _symmetry_equiv_pos_site_id
 _symmetry_equiv_pos_as_xyz
  1  'x, y, z'
loop_
 _atom_site_type_symbol
 _atom_site_label
 _atom_site_symmetry_multiplicity
 _atom_site_fract_x
 _atom_site_fract_y
 _atom_site_fract_z
 _atom_site_occupancy
  Ca  Ca0  1  0.000000  0.322023  0.414531  1
  Pr  Pr1  1  0.000000  0.675633  0.584150  1
  Pr  Pr2  1  0.000000  0.822811  0.086375  1
  Pr  Pr3  1  0.000000  0.177622  0.914891  1
  Tm  Tm4  1  0.000000  0.944989  0.371262  1
  Tm  Tm5  1  0.000000  0.058198  0.627408  1
  Tm  Tm6  1  0.000000  0.443062  0.130751  1
  Tm  Tm7  1  0.000000  0.555557  0.870999  1
  B  B8  1  0.500000  0.554457  0.429917  1
  B  B9  1  0.500000  0.442692  0.568476  1
  B  B10  1  0.500000  0.056961  0.070784  1
  B  B11  1  0.500000  0.943000  0.929205  1
  B  B12  1  0.500000  0.749596  0.416093  1
  B  B13  1  0.500000  0.250503  0.581435  1
  B  B14  1  0.500000  0.250310  0.084496  1
  B  B15  1  0.500000  0.749284  0.916425  1
  B  B16  1  0.500000  0.790652  0.266997  1
  B  B17  1  0.500000  0.210074  0.732511  1
  B  B18  1  0.500000  0.291237  0.235320  1
  B  B19  1  0.500000  0.709500  0.766250  1
  B  B20  1  0.500000  0.629277  0.186466  1
  B  B21  1  0.500000  0.370135  0.814564  1
  B  B22  1  0.500000  0.131374  0.315808  1
  B  B23  1  0.500000  0.870415  0.684646  1
  B  B24  1  0.500000  0.986536  0.214426  1
  B  B25  1  0.500000  0.014550  0.785193  1
  B  B26  1  0.500000  0.483422  0.287420  1
  B  B27  1  0.500000  0.513873  0.713423  1
  B  B28  1  0.500000  0.599949  0.027632  1
  B  B29  1  0.500000  0.399703  0.973260  1
  B  B30  1  0.500000  0.102186  0.472080  1
  B  B31  1  0.500000  0.900293  0.527038  1
  Ru  Ru32  1  0.000000  0.640049  0.318731  1
  Ru  Ru33  1  0.000000  0.359936  0.681213  1
  Ru  Ru34  1  0.000000  0.140032  0.181438  1
  Ru  Ru35  1  0.000000  0.860110  0.818382  1
