# generated using pymatgen
data_Tb2Tm2Al17GeIr6
_symmetry_space_group_name_H-M   'P 1'
_cell_length_a   7.54888000
_cell_length_b   7.54887897
_cell_length_c   9.45337900
_cell_angle_alpha   90.00000000
_cell_angle_beta   90.00000000
_cell_angle_gamma   119.58567734
_symmetry_Int_Tables_number   1
_chemical_formula_structural   Tb2Tm2Al17GeIr6
_chemical_formula_sum   'Tb2 Tm2 Al17 Ge1 Ir6'
_cell_volume   468.46889736
_cell_formula_units_Z   1
loop_
 _symmetry_equiv_pos_site_id
 _symmetry_equiv_pos_as_xyz
  1  'x, y, z'
loop_
 _atom_site_type_symbol
 _atom_site_label
 _atom_site_symmetry_multiplicity
 _atom_site_fract_x
 _atom_site_fract_y
 _atom_site_fract_z
 _atom_site_occupancy
  Tb  Tb0  1  0.994580  0.676957  0.250000  1
  Tb  Tb1  1  0.676957  0.994580  0.250000  1
  Tm  Tm2  1  0.003267  0.328350  0.750000  1
  Tm  Tm3  1  0.328350  0.003267  0.750000  1
  Al  Al4  1  0.872488  0.872488  0.750000  1
  Al  Al5  1  0.000672  0.338064  0.072880  1
  Al  Al6  1  0.998653  0.664592  0.923405  1
  Al  Al7  1  0.998653  0.664592  0.576595  1
  Al  Al8  1  0.338064  0.000672  0.427120  1
  Al  Al9  1  0.000672  0.338064  0.427120  1
  Al  Al10  1  0.664592  0.998653  0.576595  1
  Al  Al11  1  0.664592  0.998653  0.923405  1
  Al  Al12  1  0.338064  0.000672  0.072880  1
  Al  Al13  1  0.331755  0.331755  0.560913  1
  Al  Al14  1  0.663280  0.663280  0.450064  1
  Al  Al15  1  0.663280  0.663280  0.049936  1
  Al  Al16  1  0.331755  0.331755  0.939087  1
  Al  Al17  1  0.337349  0.553968  0.250000  1
  Al  Al18  1  0.660711  0.450188  0.750000  1
  Al  Al19  1  0.553968  0.337349  0.250000  1
  Al  Al20  1  0.450188  0.660711  0.750000  1
  Ge  Ge21  1  0.136947  0.136947  0.250000  1
  Ir  Ir22  1  0.669517  0.326276  0.999237  1
  Ir  Ir23  1  0.326276  0.669517  0.999237  1
  Ir  Ir24  1  0.326276  0.669517  0.500763  1
  Ir  Ir25  1  0.669517  0.326276  0.500763  1
  Ir  Ir26  1  0.999787  0.999787  0.000167  1
  Ir  Ir27  1  0.999787  0.999787  0.499833  1
