# generated using pymatgen
data_Y3Er3Al24(IrOs3)2
_symmetry_space_group_name_H-M   'P 1'
_cell_length_a   8.81506901
_cell_length_b   8.81165229
_cell_length_c   9.53764200
_cell_angle_alpha   90.00024862
_cell_angle_beta   89.99974385
_cell_angle_gamma   119.66544601
_symmetry_Int_Tables_number   1
_chemical_formula_structural   Y3Er3Al24(IrOs3)2
_chemical_formula_sum   'Y3 Er3 Al24 Ir2 Os6'
_cell_volume   643.73771679
_cell_formula_units_Z   1
loop_
 _symmetry_equiv_pos_site_id
 _symmetry_equiv_pos_as_xyz
  1  'x, y, z'
loop_
 _atom_site_type_symbol
 _atom_site_label
 _atom_site_symmetry_multiplicity
 _atom_site_fract_x
 _atom_site_fract_y
 _atom_site_fract_z
 _atom_site_occupancy
  Y  Y0  1  0.189001  0.386138  0.250010  1
  Y  Y1  1  0.810679  0.613649  0.749991  1
  Y  Y2  1  0.613812  0.810930  0.250010  1
  Er  Er3  1  0.388151  0.189783  0.749983  1
  Er  Er4  1  0.195319  0.804532  0.250020  1
  Er  Er5  1  0.804302  0.195404  0.749980  1
  Al  Al6  1  0.332421  0.667383  0.019356  1
  Al  Al7  1  0.667034  0.332437  0.980102  1
  Al  Al8  1  0.667034  0.332437  0.519902  1
  Al  Al9  1  0.332416  0.667384  0.480640  1
  Al  Al10  1  0.162274  0.325088  0.577197  1
  Al  Al11  1  0.837988  0.674552  0.423198  1
  Al  Al12  1  0.674640  0.837935  0.577023  1
  Al  Al13  1  0.837984  0.674558  0.076821  1
  Al  Al14  1  0.325255  0.161952  0.423693  1
  Al  Al15  1  0.162281  0.325081  0.922782  1
  Al  Al16  1  0.164065  0.836600  0.574742  1
  Al  Al17  1  0.325250  0.161956  0.076323  1
  Al  Al18  1  0.836074  0.163912  0.425686  1
  Al  Al19  1  0.674646  0.837929  0.922956  1
  Al  Al20  1  0.836079  0.163910  0.074336  1
  Al  Al21  1  0.164064  0.836607  0.925237  1
  Al  Al22  1  0.559420  0.122640  0.250023  1
  Al  Al23  1  0.440214  0.877849  0.749985  1
  Al  Al24  1  0.877291  0.440471  0.250020  1
  Al  Al25  1  0.122691  0.559499  0.749981  1
  Al  Al26  1  0.560839  0.439035  0.250015  1
  Al  Al27  1  0.438897  0.560071  0.749984  1
  Al  Al28  1  0.000303  0.999704  0.250009  1
  Al  Al29  1  0.001329  0.001047  0.749989  1
  Ir  Ir30  1  0.499811  0.499637  0.999754  1
  Ir  Ir31  1  0.499809  0.499641  0.500244  1
  Os  Os32  1  0.499744  0.000368  0.999481  1
  Os  Os33  1  0.999757  0.499849  0.999868  1
  Os  Os34  1  0.499746  0.000368  0.500524  1
  Os  Os35  1  0.999754  0.499846  0.500138  1
  Os  Os36  1  0.999812  0.999909  0.000001  1
  Os  Os37  1  0.999810  0.999909  0.499999  1
