# generated using pymatgen
data_Pr12Ga3PBr12
_symmetry_space_group_name_H-M   'P 1'
_cell_length_a   10.60796237
_cell_length_b   10.48630856
_cell_length_c   10.48630834
_cell_angle_alpha   109.23502070
_cell_angle_beta   109.70639438
_cell_angle_gamma   109.70639962
_symmetry_Int_Tables_number   1
_chemical_formula_structural   Pr12Ga3PBr12
_chemical_formula_sum   'Pr12 Ga3 P1 Br12'
_cell_volume   895.33718253
_cell_formula_units_Z   1
loop_
 _symmetry_equiv_pos_site_id
 _symmetry_equiv_pos_as_xyz
  1  'x, y, z'
loop_
 _atom_site_type_symbol
 _atom_site_label
 _atom_site_symmetry_multiplicity
 _atom_site_fract_x
 _atom_site_fract_y
 _atom_site_fract_z
 _atom_site_occupancy
  Pr  Pr0  1  0.476815  0.493189  0.234248  1
  Pr  Pr1  1  0.750000  0.241716  0.258284  1
  Pr  Pr2  1  0.750000  0.007194  0.492806  1
  Pr  Pr3  1  0.242806  0.485611  0.492806  1
  Pr  Pr4  1  0.257433  0.741059  0.234248  1
  Pr  Pr5  1  0.023185  0.265752  0.006811  1
  Pr  Pr6  1  0.008284  0.016568  0.258284  1
  Pr  Pr7  1  0.483626  0.741059  0.006811  1
  Pr  Pr8  1  0.491716  0.241716  0.483432  1
  Pr  Pr9  1  0.016374  0.493189  0.758941  1
  Pr  Pr10  1  0.257194  0.007194  0.014389  1
  Pr  Pr11  1  0.242567  0.265752  0.758941  1
  Ga  Ga12  1  0.250000  0.249497  0.250503  1
  Ga  Ga13  1  0.500503  0.001007  0.250503  1
  Ga  Ga14  1  0.999497  0.249497  0.498993  1
  P  P15  1  0.250000  0.500000  0.000000  1
  Br  Br16  1  0.250000  0.754420  0.745580  1
  Br  Br17  1  0.510976  0.505833  0.756480  1
  Br  Br18  1  0.989024  0.743520  0.994167  1
  Br  Br19  1  0.745503  0.250646  0.756480  1
  Br  Br20  1  0.995580  0.991160  0.745580  1
  Br  Br21  1  0.250000  0.994763  0.505237  1
  Br  Br22  1  0.755237  0.510472  0.505237  1
  Br  Br23  1  0.505143  0.250646  0.994167  1
  Br  Br24  1  0.754497  0.743520  0.249354  1
  Br  Br25  1  0.744763  0.994763  0.989528  1
  Br  Br26  1  0.994857  0.505833  0.249354  1
  Br  Br27  1  0.504420  0.754420  0.508840  1
