# generated using pymatgen
data_Tb8CdHgPdPt
_symmetry_space_group_name_H-M   'P 1'
_cell_length_a   9.71010014
_cell_length_b   9.71010020
_cell_length_c   9.69422300
_cell_angle_alpha   60.05407129
_cell_angle_beta   60.05407109
_cell_angle_gamma   60.21478885
_symmetry_Int_Tables_number   1
_chemical_formula_structural   Tb8CdHgPdPt
_chemical_formula_sum   'Tb16 Cd2 Hg2 Pd2 Pt2'
_cell_volume   647.88968094
_cell_formula_units_Z   2
loop_
 _symmetry_equiv_pos_site_id
 _symmetry_equiv_pos_as_xyz
  1  'x, y, z'
loop_
 _atom_site_type_symbol
 _atom_site_label
 _atom_site_symmetry_multiplicity
 _atom_site_fract_x
 _atom_site_fract_y
 _atom_site_fract_z
 _atom_site_occupancy
  Tb  Tb0  1  0.353475  0.353475  0.348816  1
  Tb  Tb1  1  0.353475  0.353475  0.944234  1
  Tb  Tb2  1  0.358725  0.934509  0.353383  1
  Tb  Tb3  1  0.934509  0.358725  0.353383  1
  Tb  Tb4  1  0.809036  0.189655  0.190605  1
  Tb  Tb5  1  0.189655  0.809036  0.810703  1
  Tb  Tb6  1  0.189655  0.809036  0.190605  1
  Tb  Tb7  1  0.809036  0.189655  0.810703  1
  Tb  Tb8  1  0.190601  0.190601  0.809399  1
  Tb  Tb9  1  0.809521  0.809521  0.190479  1
  Tb  Tb10  1  0.935040  0.564999  0.564832  1
  Tb  Tb11  1  0.564999  0.935040  0.935130  1
  Tb  Tb12  1  0.564999  0.935040  0.564832  1
  Tb  Tb13  1  0.935040  0.564999  0.935130  1
  Tb  Tb14  1  0.564599  0.564599  0.935401  1
  Tb  Tb15  1  0.934605  0.934605  0.565395  1
  Cd  Cd16  1  0.579476  0.255769  0.582376  1
  Cd  Cd17  1  0.255769  0.579476  0.582376  1
  Hg  Hg18  1  0.584924  0.584924  0.588297  1
  Hg  Hg19  1  0.584924  0.584924  0.241853  1
  Pd  Pd20  1  0.143588  0.143588  0.147231  1
  Pd  Pd21  1  0.143588  0.143588  0.565593  1
  Pt  Pt22  1  0.141494  0.569265  0.144622  1
  Pt  Pt23  1  0.569265  0.141494  0.144622  1
