# generated using pymatgen
data_Tm3Mg2ScPt3
_symmetry_space_group_name_H-M   'P 1'
_cell_length_a   7.28386200
_cell_length_b   7.35598730
_cell_length_c   4.12576900
_cell_angle_alpha   90.00000000
_cell_angle_beta   90.00000000
_cell_angle_gamma   119.67618048
_symmetry_Int_Tables_number   1
_chemical_formula_structural   Tm3Mg2ScPt3
_chemical_formula_sum   'Tm3 Mg2 Sc1 Pt3'
_cell_volume   192.06405936
_cell_formula_units_Z   1
loop_
 _symmetry_equiv_pos_site_id
 _symmetry_equiv_pos_as_xyz
  1  'x, y, z'
loop_
 _atom_site_type_symbol
 _atom_site_label
 _atom_site_symmetry_multiplicity
 _atom_site_fract_x
 _atom_site_fract_y
 _atom_site_fract_z
 _atom_site_occupancy
  Tm  Tm0  1  0.398243  0.000000  0.499999  1
  Tm  Tm1  1  0.006186  0.419950  0.499999  1
  Tm  Tm2  1  0.586234  0.580050  0.499999  1
  Mg  Mg3  1  0.250736  0.249832  0.000000  1
  Mg  Mg4  1  0.000904  0.750168  0.000000  1
  Sc  Sc5  1  0.755342  0.000000  0.000000  1
  Pt  Pt6  1  0.669124  0.326507  0.000000  1
  Pt  Pt7  1  0.342619  0.673494  0.000000  1
  Pt  Pt8  1  0.990612  0.000000  0.499999  1
