# generated using pymatgen
data_Np(S4F3)2
_symmetry_space_group_name_H-M   'P 1'
_cell_length_a   7.99264169
_cell_length_b   8.01273611
_cell_length_c   12.26583100
_cell_angle_alpha   98.57374009
_cell_angle_beta   100.86697452
_cell_angle_gamma   90.45094397
_symmetry_Int_Tables_number   1
_chemical_formula_structural   Np(S4F3)2
_chemical_formula_sum   'Np2 S16 F12'
_cell_volume   762.30826573
_cell_formula_units_Z   2
loop_
 _symmetry_equiv_pos_site_id
 _symmetry_equiv_pos_as_xyz
  1  'x, y, z'
loop_
 _atom_site_type_symbol
 _atom_site_label
 _atom_site_symmetry_multiplicity
 _atom_site_fract_x
 _atom_site_fract_y
 _atom_site_fract_z
 _atom_site_occupancy
  Np  Np0  1  0.711318  0.219300  0.903095  1
  Np  Np1  1  0.288682  0.780700  0.096905  1
  S  S2  1  0.451575  0.750830  0.656814  1
  S  S3  1  0.548425  0.249170  0.343186  1
  S  S4  1  0.279331  0.904006  0.579264  1
  S  S5  1  0.720669  0.095994  0.420736  1
  S  S6  1  0.094695  0.979176  0.670372  1
  S  S7  1  0.905305  0.020824  0.329628  1
  S  S8  1  0.880091  0.822924  0.625525  1
  S  S9  1  0.119909  0.177076  0.374475  1
  S  S10  1  0.885238  0.630877  0.718870  1
  S  S11  1  0.114762  0.369123  0.281130  1
  S  S12  1  0.982202  0.414610  0.646835  1
  S  S13  1  0.017798  0.585390  0.353165  1
  S  S14  1  0.239512  0.406121  0.707851  1
  S  S15  1  0.760488  0.593879  0.292149  1
  S  S16  1  0.614936  0.502106  0.391393  1
  S  S17  1  0.385064  0.497894  0.608607  1
  F  F18  1  0.756142  0.253236  0.073700  1
  F  F19  1  0.243858  0.746764  0.926300  1
  F  F20  1  0.665662  0.185816  0.731038  1
  F  F21  1  0.334338  0.814184  0.268962  1
  F  F22  1  0.467909  0.139483  0.895202  1
  F  F23  1  0.532091  0.860517  0.104798  1
  F  F24  1  0.635115  0.460005  0.902279  1
  F  F25  1  0.364885  0.539995  0.097721  1
  F  F26  1  0.953787  0.298886  0.907121  1
  F  F27  1  0.046213  0.701114  0.092879  1
  F  F28  1  0.787742  0.978134  0.898917  1
  F  F29  1  0.212258  0.021866  0.101083  1
