# generated using pymatgen
data_Y3ThAl15(GaIr2)3
_symmetry_space_group_name_H-M   'P 1'
_cell_length_a   7.56923944
_cell_length_b   7.57832134
_cell_length_c   9.53037000
_cell_angle_alpha   90.00000000
_cell_angle_beta   90.00000000
_cell_angle_gamma   119.55494777
_symmetry_Int_Tables_number   1
_chemical_formula_structural   Y3ThAl15(GaIr2)3
_chemical_formula_sum   'Y3 Th1 Al15 Ga3 Ir6'
_cell_volume   475.54967770
_cell_formula_units_Z   1
loop_
 _symmetry_equiv_pos_site_id
 _symmetry_equiv_pos_as_xyz
  1  'x, y, z'
loop_
 _atom_site_type_symbol
 _atom_site_label
 _atom_site_symmetry_multiplicity
 _atom_site_fract_x
 _atom_site_fract_y
 _atom_site_fract_z
 _atom_site_occupancy
  Y  Y0  1  0.001457  0.328339  0.750000  1
  Y  Y1  1  0.671377  0.994663  0.250000  1
  Y  Y2  1  0.328135  0.002641  0.750000  1
  Th  Th3  1  0.994391  0.670380  0.250000  1
  Al  Al4  1  0.871422  0.873438  0.750000  1
  Al  Al5  1  0.002797  0.331112  0.070798  1
  Al  Al6  1  0.999673  0.664536  0.919643  1
  Al  Al7  1  0.999673  0.664536  0.580357  1
  Al  Al8  1  0.339357  0.005984  0.429353  1
  Al  Al9  1  0.002797  0.331112  0.429202  1
  Al  Al10  1  0.664765  0.000678  0.575779  1
  Al  Al11  1  0.664765  0.000678  0.924221  1
  Al  Al12  1  0.339357  0.005984  0.070647  1
  Al  Al13  1  0.331964  0.332106  0.561766  1
  Al  Al14  1  0.662923  0.665920  0.459518  1
  Al  Al15  1  0.662923  0.665920  0.040482  1
  Al  Al16  1  0.331964  0.332106  0.938234  1
  Al  Al17  1  0.660120  0.449868  0.750000  1
  Al  Al18  1  0.449937  0.662334  0.750000  1
  Ga  Ga19  1  0.131432  0.133654  0.250000  1
  Ga  Ga20  1  0.345990  0.548238  0.250000  1
  Ga  Ga21  1  0.542585  0.336752  0.250000  1
  Ir  Ir22  1  0.673401  0.330067  0.998809  1
  Ir  Ir23  1  0.326816  0.671527  0.998754  1
  Ir  Ir24  1  0.326816  0.671527  0.501246  1
  Ir  Ir25  1  0.673401  0.330067  0.501191  1
  Ir  Ir26  1  0.999881  0.997917  0.998534  1
  Ir  Ir27  1  0.999881  0.997917  0.501466  1
