# generated using pymatgen
data_Ac4Cd3In
_symmetry_space_group_name_H-M   'P 1'
_cell_length_a   4.05495200
_cell_length_b   4.05495200
_cell_length_c   16.55142600
_cell_angle_alpha   90.00000000
_cell_angle_beta   90.00000000
_cell_angle_gamma   90.00000000
_symmetry_Int_Tables_number   1
_chemical_formula_structural   Ac4Cd3In
_chemical_formula_sum   'Ac4 Cd3 In1'
_cell_volume   272.14906840
_cell_formula_units_Z   1
loop_
 _symmetry_equiv_pos_site_id
 _symmetry_equiv_pos_as_xyz
  1  'x, y, z'
loop_
 _atom_site_type_symbol
 _atom_site_label
 _atom_site_symmetry_multiplicity
 _atom_site_fract_x
 _atom_site_fract_y
 _atom_site_fract_z
 _atom_site_occupancy
  Ac  Ac0  1  0.500000  0.500000  0.123535  1
  Ac  Ac1  1  0.500000  0.500000  0.374732  1
  Ac  Ac2  1  0.500000  0.500000  0.625268  1
  Ac  Ac3  1  0.500000  0.500000  0.876465  1
  Cd  Cd4  1  0.000000  0.000000  0.249407  1
  Cd  Cd5  1  0.000000  0.000000  0.500000  1
  Cd  Cd6  1  0.000000  0.000000  0.750593  1
  In  In7  1  0.000000  0.000000  0.000000  1
