# generated using pymatgen
data_NaTb6Co3Sn23Rh3
_symmetry_space_group_name_H-M   'P 1'
_cell_length_a   9.80080730
_cell_length_b   9.79592214
_cell_length_c   10.03092954
_cell_angle_alpha   90.02264967
_cell_angle_beta   89.97689788
_cell_angle_gamma   119.93843182
_symmetry_Int_Tables_number   1
_chemical_formula_structural   NaTb6Co3Sn23Rh3
_chemical_formula_sum   'Na1 Tb6 Co3 Sn23 Rh3'
_cell_volume   834.54170222
_cell_formula_units_Z   1
loop_
 _symmetry_equiv_pos_site_id
 _symmetry_equiv_pos_as_xyz
  1  'x, y, z'
loop_
 _atom_site_type_symbol
 _atom_site_label
 _atom_site_symmetry_multiplicity
 _atom_site_fract_x
 _atom_site_fract_y
 _atom_site_fract_z
 _atom_site_occupancy
  Na  Na0  1  0.998849  0.997729  0.001213  1
  Tb  Tb1  1  0.478082  0.520874  0.306932  1
  Tb  Tb2  1  0.520014  0.478608  0.693884  1
  Tb  Tb3  1  0.479511  0.958763  0.306416  1
  Tb  Tb4  1  0.520820  0.042252  0.693875  1
  Tb  Tb5  1  0.041916  0.520208  0.306144  1
  Tb  Tb6  1  0.959292  0.479173  0.694365  1
  Co  Co7  1  0.171760  0.341576  0.798569  1
  Co  Co8  1  0.342548  0.172900  0.201054  1
  Co  Co9  1  0.658454  0.829934  0.797197  1
  Sn  Sn10  1  0.348469  0.004626  0.004243  1
  Sn  Sn11  1  0.651696  0.995638  0.995315  1
  Sn  Sn12  1  0.005413  0.347312  0.995183  1
  Sn  Sn13  1  0.000706  0.650613  0.999877  1
  Sn  Sn14  1  0.650445  0.655492  0.995631  1
  Sn  Sn15  1  0.343072  0.343795  0.999953  1
  Sn  Sn16  1  0.336202  0.664232  0.815299  1
  Sn  Sn17  1  0.660687  0.330693  0.183016  1
  Sn  Sn18  1  0.999439  0.998836  0.500475  1
  Sn  Sn19  1  0.778915  0.220658  0.457941  1
  Sn  Sn20  1  0.221157  0.779089  0.541876  1
  Sn  Sn21  1  0.778110  0.556902  0.458289  1
  Sn  Sn22  1  0.218873  0.437067  0.547784  1
  Sn  Sn23  1  0.437995  0.219176  0.452554  1
  Sn  Sn24  1  0.561647  0.780660  0.547855  1
  Sn  Sn25  1  0.333561  0.667502  0.115889  1
  Sn  Sn26  1  0.667294  0.334094  0.883480  1
  Sn  Sn27  1  0.121868  0.889037  0.274695  1
  Sn  Sn28  1  0.884835  0.115891  0.727905  1
  Sn  Sn29  1  0.121731  0.233362  0.274971  1
  Sn  Sn30  1  0.878208  0.766404  0.724739  1
  Sn  Sn31  1  0.763809  0.882556  0.279623  1
  Sn  Sn32  1  0.233893  0.122609  0.724406  1
  Rh  Rh33  1  0.830256  0.171593  0.199617  1
  Rh  Rh34  1  0.171904  0.831480  0.798244  1
  Rh  Rh35  1  0.828569  0.658666  0.201491  1
