# generated using pymatgen
data_YbCeSc2(ReB6)2
_symmetry_space_group_name_H-M   'P 1'
_cell_length_a   3.61279800
_cell_length_b   9.04211501
_cell_length_c   11.42050402
_cell_angle_alpha   90.00626345
_cell_angle_beta   90.00000000
_cell_angle_gamma   90.00000000
_symmetry_Int_Tables_number   1
_chemical_formula_structural   YbCeSc2(ReB6)2
_chemical_formula_sum   'Yb2 Ce2 Sc4 Re4 B24'
_cell_volume   373.07742878
_cell_formula_units_Z   2
loop_
 _symmetry_equiv_pos_site_id
 _symmetry_equiv_pos_as_xyz
  1  'x, y, z'
loop_
 _atom_site_type_symbol
 _atom_site_label
 _atom_site_symmetry_multiplicity
 _atom_site_fract_x
 _atom_site_fract_y
 _atom_site_fract_z
 _atom_site_occupancy
  Yb  Yb0  1  0.000000  0.324016  0.414995  1
  Yb  Yb1  1  0.000000  0.675984  0.585005  1
  Ce  Ce2  1  0.000000  0.820737  0.086106  1
  Ce  Ce3  1  0.000000  0.179263  0.913894  1
  Sc  Sc4  1  0.000000  0.942951  0.369191  1
  Sc  Sc5  1  0.000000  0.057049  0.630809  1
  Sc  Sc6  1  0.000000  0.444595  0.132324  1
  Sc  Sc7  1  0.000000  0.555405  0.867676  1
  Re  Re8  1  0.000000  0.643518  0.317680  1
  Re  Re9  1  0.000000  0.356482  0.682320  1
  Re  Re10  1  0.000000  0.140164  0.182125  1
  Re  Re11  1  0.000000  0.859836  0.817875  1
  B  B12  1  0.500000  0.554281  0.432560  1
  B  B13  1  0.500000  0.445719  0.567440  1
  B  B14  1  0.500000  0.055819  0.068842  1
  B  B15  1  0.500000  0.944181  0.931158  1
  B  B16  1  0.500000  0.754320  0.418960  1
  B  B17  1  0.500000  0.245680  0.581040  1
  B  B18  1  0.500000  0.254168  0.083712  1
  B  B19  1  0.500000  0.745832  0.916288  1
  B  B20  1  0.500000  0.794979  0.265146  1
  B  B21  1  0.500000  0.205021  0.734854  1
  B  B22  1  0.500000  0.295185  0.236444  1
  B  B23  1  0.500000  0.704815  0.763556  1
  B  B24  1  0.500000  0.629020  0.183834  1
  B  B25  1  0.500000  0.370980  0.816166  1
  B  B26  1  0.500000  0.129789  0.318521  1
  B  B27  1  0.500000  0.870211  0.681479  1
  B  B28  1  0.500000  0.982520  0.214871  1
  B  B29  1  0.500000  0.017480  0.785129  1
  B  B30  1  0.500000  0.482081  0.287440  1
  B  B31  1  0.500000  0.517919  0.712560  1
  B  B32  1  0.500000  0.595030  0.025753  1
  B  B33  1  0.500000  0.404970  0.974247  1
  B  B34  1  0.500000  0.093041  0.474930  1
  B  B35  1  0.500000  0.906959  0.525070  1
