# generated using pymatgen
data_Lu12AlTcTe4
_symmetry_space_group_name_H-M   'P 1'
_cell_length_a   4.05208300
_cell_length_b   11.30256900
_cell_length_c   21.02256800
_cell_angle_alpha   90.00000000
_cell_angle_beta   90.00000000
_cell_angle_gamma   90.00000000
_symmetry_Int_Tables_number   1
_chemical_formula_structural   Lu12AlTcTe4
_chemical_formula_sum   'Lu24 Al2 Tc2 Te8'
_cell_volume   962.81149238
_cell_formula_units_Z   2
loop_
 _symmetry_equiv_pos_site_id
 _symmetry_equiv_pos_as_xyz
  1  'x, y, z'
loop_
 _atom_site_type_symbol
 _atom_site_label
 _atom_site_symmetry_multiplicity
 _atom_site_fract_x
 _atom_site_fract_y
 _atom_site_fract_z
 _atom_site_occupancy
  Lu  Lu0  1  0.750000  0.684132  0.891702  1
  Lu  Lu1  1  0.250000  0.391498  0.467251  1
  Lu  Lu2  1  0.750000  0.891498  0.032749  1
  Lu  Lu3  1  0.750000  0.973216  0.840113  1
  Lu  Lu4  1  0.250000  0.184132  0.608298  1
  Lu  Lu5  1  0.250000  0.730184  0.271319  1
  Lu  Lu6  1  0.750000  0.104175  0.493700  1
  Lu  Lu7  1  0.750000  0.560872  0.141013  1
  Lu  Lu8  1  0.250000  0.314703  0.110314  1
  Lu  Lu9  1  0.250000  0.033750  0.151732  1
  Lu  Lu10  1  0.250000  0.473216  0.659887  1
  Lu  Lu11  1  0.250000  0.758743  0.770740  1
  Lu  Lu12  1  0.750000  0.533750  0.348268  1
  Lu  Lu13  1  0.750000  0.938442  0.637929  1
  Lu  Lu14  1  0.250000  0.604175  0.006300  1
  Lu  Lu15  1  0.750000  0.258743  0.729260  1
  Lu  Lu16  1  0.750000  0.230184  0.228681  1
  Lu  Lu17  1  0.750000  0.626527  0.515137  1
  Lu  Lu18  1  0.750000  0.814703  0.389686  1
  Lu  Lu19  1  0.250000  0.126527  0.984863  1
  Lu  Lu20  1  0.250000  0.875638  0.503463  1
  Lu  Lu21  1  0.750000  0.375638  0.996537  1
  Lu  Lu22  1  0.250000  0.438442  0.862071  1
  Lu  Lu23  1  0.250000  0.060872  0.358987  1
  Al  Al24  1  0.250000  0.868822  0.926202  1
  Al  Al25  1  0.750000  0.368822  0.573798  1
  Tc  Tc26  1  0.750000  0.149980  0.081765  1
  Tc  Tc27  1  0.250000  0.649980  0.418235  1
  Te  Te28  1  0.250000  0.764070  0.126960  1
  Te  Te29  1  0.250000  0.730799  0.626607  1
  Te  Te30  1  0.250000  0.042002  0.736495  1
  Te  Te31  1  0.750000  0.264070  0.373040  1
  Te  Te32  1  0.750000  0.542002  0.763505  1
  Te  Te33  1  0.250000  0.452449  0.238597  1
  Te  Te34  1  0.750000  0.952449  0.261403  1
  Te  Te35  1  0.750000  0.230799  0.873393  1
