# generated using pymatgen
data_CeEr3(InPd2)2
_symmetry_space_group_name_H-M   'P 1'
_cell_length_a   7.74957355
_cell_length_b   7.74957355
_cell_length_c   3.69541500
_cell_angle_alpha   90.00000000
_cell_angle_beta   90.00000000
_cell_angle_gamma   90.49241745
_symmetry_Int_Tables_number   1
_chemical_formula_structural   CeEr3(InPd2)2
_chemical_formula_sum   'Ce1 Er3 In2 Pd4'
_cell_volume   221.92324139
_cell_formula_units_Z   1
loop_
 _symmetry_equiv_pos_site_id
 _symmetry_equiv_pos_as_xyz
  1  'x, y, z'
loop_
 _atom_site_type_symbol
 _atom_site_label
 _atom_site_symmetry_multiplicity
 _atom_site_fract_x
 _atom_site_fract_y
 _atom_site_fract_z
 _atom_site_occupancy
  Ce  Ce0  1  0.327344  0.827344  0.500000  1
  Er  Er1  1  0.826724  0.670232  0.500000  1
  Er  Er2  1  0.170232  0.326724  0.500000  1
  Er  Er3  1  0.673435  0.173435  0.500000  1
  In  In4  1  0.997216  0.001845  0.000000  1
  In  In5  1  0.501845  0.497216  0.000000  1
  Pd  Pd6  1  0.372078  0.128721  0.000000  1
  Pd  Pd7  1  0.872923  0.372923  0.000000  1
  Pd  Pd8  1  0.129482  0.629482  0.000000  1
  Pd  Pd9  1  0.628721  0.872078  0.000000  1
