# generated using pymatgen
data_Ce4Si10(OsPt)3
_symmetry_space_group_name_H-M   'P 1'
_cell_length_a   8.21258643
_cell_length_b   8.24521144
_cell_length_c   8.24521054
_cell_angle_alpha   137.46684552
_cell_angle_beta   104.99702606
_cell_angle_gamma   90.30882161
_symmetry_Int_Tables_number   1
_chemical_formula_structural   Ce4Si10(OsPt)3
_chemical_formula_sum   'Ce4 Si10 Os3 Pt3'
_cell_volume   347.75459309
_cell_formula_units_Z   1
loop_
 _symmetry_equiv_pos_site_id
 _symmetry_equiv_pos_as_xyz
  1  'x, y, z'
loop_
 _atom_site_type_symbol
 _atom_site_label
 _atom_site_symmetry_multiplicity
 _atom_site_fract_x
 _atom_site_fract_y
 _atom_site_fract_z
 _atom_site_occupancy
  Ce  Ce0  1  0.865458  0.630355  0.235103  1
  Ce  Ce1  1  0.139665  0.371247  0.768418  1
  Ce  Ce2  1  0.395628  0.129833  0.265795  1
  Ce  Ce3  1  0.603074  0.870125  0.732949  1
  Si  Si4  1  0.494230  0.752659  0.253764  1
  Si  Si5  1  0.494230  0.240466  0.741571  1
  Si  Si6  1  0.222824  0.972276  0.745075  1
  Si  Si7  1  0.777234  0.525757  0.748310  1
  Si  Si8  1  0.777234  0.028924  0.251477  1
  Si  Si9  1  0.222824  0.477748  0.250547  1
  Si  Si10  1  0.047663  0.895550  0.152112  1
  Si  Si11  1  0.957644  0.105774  0.851870  1
  Si  Si12  1  0.745462  0.393707  0.351755  1
  Si  Si13  1  0.256091  0.605715  0.650376  1
  Os  Os14  1  0.000464  0.750866  0.750466  1
  Os  Os15  1  0.000464  0.249998  0.249598  1
  Os  Os16  1  0.243317  0.858966  0.384352  1
  Pt  Pt17  1  0.751537  0.138904  0.612632  1
  Pt  Pt18  1  0.475953  0.361928  0.114025  1
  Pt  Pt19  1  0.529006  0.639204  0.889804  1
