# generated using pymatgen
data_Nd5Er3(LuSb)12
_symmetry_space_group_name_H-M   'P 1'
_cell_length_a   8.13152778
_cell_length_b   9.18627800
_cell_length_c   11.89365600
_cell_angle_alpha   90.00000000
_cell_angle_beta   90.17694263
_cell_angle_gamma   90.00000000
_symmetry_Int_Tables_number   1
_chemical_formula_structural   Nd5Er3(LuSb)12
_chemical_formula_sum   'Nd5 Er3 Lu12 Sb12'
_cell_volume   888.43372538
_cell_formula_units_Z   1
loop_
 _symmetry_equiv_pos_site_id
 _symmetry_equiv_pos_as_xyz
  1  'x, y, z'
loop_
 _atom_site_type_symbol
 _atom_site_label
 _atom_site_symmetry_multiplicity
 _atom_site_fract_x
 _atom_site_fract_y
 _atom_site_fract_z
 _atom_site_occupancy
  Nd  Nd0  1  0.174548  0.750000  0.225687  1
  Nd  Nd1  1  0.674526  0.250000  0.274432  1
  Nd  Nd2  1  0.825968  0.250000  0.774523  1
  Nd  Nd3  1  0.323710  0.750000  0.728300  1
  Nd  Nd4  1  0.662575  0.750000  0.289806  1
  Er  Er5  1  0.165489  0.250000  0.210701  1
  Er  Er6  1  0.335306  0.250000  0.710410  1
  Er  Er7  1  0.834393  0.750000  0.789413  1
  Lu  Lu8  1  0.811064  0.938422  0.063296  1
  Lu  Lu9  1  0.312579  0.062562  0.434264  1
  Lu  Lu10  1  0.189171  0.437794  0.934189  1
  Lu  Lu11  1  0.687371  0.562413  0.567358  1
  Lu  Lu12  1  0.189171  0.062206  0.934189  1
  Lu  Lu13  1  0.687371  0.937587  0.567358  1
  Lu  Lu14  1  0.811064  0.561578  0.063296  1
  Lu  Lu15  1  0.312579  0.437438  0.434264  1
  Lu  Lu16  1  0.525985  0.250000  0.995348  1
  Lu  Lu17  1  0.024330  0.750000  0.504655  1
  Lu  Lu18  1  0.473332  0.750000  0.001267  1
  Lu  Lu19  1  0.975511  0.250000  0.497618  1
  Sb  Sb20  1  0.943459  0.995409  0.329977  1
  Sb  Sb21  1  0.435313  0.009893  0.166763  1
  Sb  Sb22  1  0.062606  0.491728  0.670545  1
  Sb  Sb23  1  0.562917  0.507430  0.829895  1
  Sb  Sb24  1  0.062606  0.008272  0.670545  1
  Sb  Sb25  1  0.562917  0.992570  0.829895  1
  Sb  Sb26  1  0.943459  0.504591  0.329977  1
  Sb  Sb27  1  0.435313  0.490107  0.166763  1
  Sb  Sb28  1  0.905616  0.250000  0.032411  1
  Sb  Sb29  1  0.398338  0.750000  0.472569  1
  Sb  Sb30  1  0.095089  0.750000  0.967282  1
  Sb  Sb31  1  0.596320  0.250000  0.533006  1
