# generated using pymatgen
data_RbSb2PtRh
_symmetry_space_group_name_H-M   'P 1'
_cell_length_a   4.73757244
_cell_length_b   4.73757107
_cell_length_c   7.01393524
_cell_angle_alpha   102.30842887
_cell_angle_beta   102.30842286
_cell_angle_gamma   102.87327660
_symmetry_Int_Tables_number   1
_chemical_formula_structural   RbSb2PtRh
_chemical_formula_sum   'Rb1 Sb2 Pt1 Rh1'
_cell_volume   144.21585644
_cell_formula_units_Z   1
loop_
 _symmetry_equiv_pos_site_id
 _symmetry_equiv_pos_as_xyz
  1  'x, y, z'
loop_
 _atom_site_type_symbol
 _atom_site_label
 _atom_site_symmetry_multiplicity
 _atom_site_fract_x
 _atom_site_fract_y
 _atom_site_fract_z
 _atom_site_occupancy
  Rb  Rb0  1  0.000483  0.999517  0.000000  1
  Sb  Sb1  1  0.625557  0.625053  0.333959  1
  Sb  Sb2  1  0.374947  0.374443  0.666041  1
  Pt  Pt3  1  0.208498  0.791502  0.499999  1
  Rh  Rh4  1  0.790515  0.209485  0.499999  1
