# generated using pymatgen
data_Na3Nd2Ge5P7Ir19
_symmetry_space_group_name_H-M   'P 1'
_cell_length_a   12.90175949
_cell_length_b   12.84801492
_cell_length_c   3.97078600
_cell_angle_alpha   90.00000000
_cell_angle_beta   90.00000000
_cell_angle_gamma   119.52931716
_symmetry_Int_Tables_number   1
_chemical_formula_structural   Na3Nd2Ge5P7Ir19
_chemical_formula_sum   'Na3 Nd2 Ge5 P7 Ir19'
_cell_volume   572.70691994
_cell_formula_units_Z   1
loop_
 _symmetry_equiv_pos_site_id
 _symmetry_equiv_pos_as_xyz
  1  'x, y, z'
loop_
 _atom_site_type_symbol
 _atom_site_label
 _atom_site_symmetry_multiplicity
 _atom_site_fract_x
 _atom_site_fract_y
 _atom_site_fract_z
 _atom_site_occupancy
  Na  Na0  1  0.999759  0.815881  0.500000  1
  Na  Na1  1  0.339292  0.670241  0.000000  1
  Na  Na2  1  0.662296  0.330288  0.000000  1
  Nd  Nd3  1  0.178357  0.181087  0.500000  1
  Nd  Nd4  1  0.820977  0.001559  0.500000  1
  Ge  Ge5  1  0.515565  0.678758  0.500000  1
  Ge  Ge6  1  0.316890  0.829471  0.500000  1
  Ge  Ge7  1  0.172223  0.495027  0.500000  1
  Ge  Ge8  1  0.485350  0.164835  0.500000  1
  Ge  Ge9  1  0.683302  0.509273  0.500000  1
  P  P10  1  0.999894  0.187411  0.000000  1
  P  P11  1  0.825880  0.816564  0.000000  1
  P  P12  1  0.176020  0.996517  0.000000  1
  P  P13  1  0.821777  0.309663  0.500000  1
  P  P14  1  0.002397  0.636770  0.000000  1
  P  P15  1  0.368417  0.367553  0.000000  1
  P  P16  1  0.630931  0.996962  0.000000  1
  Ir  Ir17  1  0.995445  0.288764  0.500000  1
  Ir  Ir18  1  0.724403  0.719119  0.500000  1
  Ir  Ir19  1  0.277418  0.999958  0.500000  1
  Ir  Ir20  1  0.636763  0.813465  0.000000  1
  Ir  Ir21  1  0.187516  0.819743  0.000000  1
  Ir  Ir22  1  0.179903  0.370635  0.000000  1
  Ir  Ir23  1  0.364733  0.179719  0.000000  1
  Ir  Ir24  1  0.817444  0.626868  0.000000  1
  Ir  Ir25  1  0.820853  0.201914  0.000000  1
  Ir  Ir26  1  0.522893  0.875544  0.500000  1
  Ir  Ir27  1  0.115956  0.647681  0.500000  1
  Ir  Ir28  1  0.353093  0.474324  0.500000  1
  Ir  Ir29  1  0.477193  0.352978  0.500000  1
  Ir  Ir30  1  0.871546  0.504218  0.500000  1
  Ir  Ir31  1  0.648862  0.122245  0.500000  1
  Ir  Ir32  1  0.998894  0.005628  0.000000  1
  Ir  Ir33  1  0.004585  0.456537  0.000000  1
  Ir  Ir34  1  0.548637  0.548907  0.000000  1
  Ir  Ir35  1  0.454535  0.003892  0.000000  1
