# generated using pymatgen
data_Cs13TaTi(In3P5)2
_symmetry_space_group_name_H-M   'P 1'
_cell_length_a   9.65004189
_cell_length_b   9.73862882
_cell_length_c   13.85951659
_cell_angle_alpha   84.29723004
_cell_angle_beta   80.16615514
_cell_angle_gamma   64.94661479
_symmetry_Int_Tables_number   1
_chemical_formula_structural   Cs13TaTi(In3P5)2
_chemical_formula_sum   'Cs13 Ta1 Ti1 In6 P10'
_cell_volume   1162.07486453
_cell_formula_units_Z   1
loop_
 _symmetry_equiv_pos_site_id
 _symmetry_equiv_pos_as_xyz
  1  'x, y, z'
loop_
 _atom_site_type_symbol
 _atom_site_label
 _atom_site_symmetry_multiplicity
 _atom_site_fract_x
 _atom_site_fract_y
 _atom_site_fract_z
 _atom_site_occupancy
  Cs  Cs0  1  0.499678  0.871289  0.359439  1
  Cs  Cs1  1  0.498253  0.128021  0.645538  1
  Cs  Cs2  1  0.849846  0.590306  0.877352  1
  Cs  Cs3  1  0.153847  0.410944  0.117496  1
  Cs  Cs4  1  0.086041  0.781408  0.431494  1
  Cs  Cs5  1  0.911295  0.218532  0.576025  1
  Cs  Cs6  1  0.746238  0.677711  0.598679  1
  Cs  Cs7  1  0.246998  0.324635  0.408901  1
  Cs  Cs8  1  0.501765  0.503212  0.995039  1
  Cs  Cs9  1  0.322919  0.922064  0.084472  1
  Cs  Cs10  1  0.676073  0.076632  0.908264  1
  Cs  Cs11  1  0.898864  0.857311  0.159382  1
  Cs  Cs12  1  0.109121  0.135174  0.834813  1
  Ta  Ta13  1  0.621798  0.262517  0.226650  1
  Ti  Ti14  1  0.377486  0.737033  0.773835  1
  In  In15  1  0.036290  0.806890  0.708356  1
  In  In16  1  0.965304  0.196384  0.293606  1
  In  In17  1  0.601899  0.449354  0.410133  1
  In  In18  1  0.396725  0.555216  0.593326  1
  In  In19  1  0.726085  0.554902  0.174598  1
  In  In20  1  0.273871  0.446953  0.825678  1
  P  P21  1  0.448898  0.532141  0.253050  1
  P  P22  1  0.551395  0.464417  0.745005  1
  P  P23  1  0.148837  0.744304  0.885232  1
  P  P24  1  0.849620  0.255036  0.116311  1
  P  P25  1  0.706860  0.145513  0.382759  1
  P  P26  1  0.292779  0.855317  0.616042  1
  P  P27  1  0.850765  0.504140  0.351001  1
  P  P28  1  0.150333  0.496929  0.646878  1
  P  P29  1  0.494817  0.861703  0.838624  1
  P  P30  1  0.505299  0.134012  0.162021  1
