# generated using pymatgen
data_CeNi4P3Ru
_symmetry_space_group_name_H-M   'P 1'
_cell_length_a   3.75324700
_cell_length_b   10.58155000
_cell_length_c   11.92340400
_cell_angle_alpha   90.00000000
_cell_angle_beta   90.00000000
_cell_angle_gamma   90.00000000
_symmetry_Int_Tables_number   1
_chemical_formula_structural   CeNi4P3Ru
_chemical_formula_sum   'Ce4 Ni16 P12 Ru4'
_cell_volume   473.54002629
_cell_formula_units_Z   4
loop_
 _symmetry_equiv_pos_site_id
 _symmetry_equiv_pos_as_xyz
  1  'x, y, z'
loop_
 _atom_site_type_symbol
 _atom_site_label
 _atom_site_symmetry_multiplicity
 _atom_site_fract_x
 _atom_site_fract_y
 _atom_site_fract_z
 _atom_site_occupancy
  Ce  Ce0  1  0.250000  0.591866  0.706579  1
  Ce  Ce1  1  0.250000  0.908134  0.206579  1
  Ce  Ce2  1  0.750000  0.408134  0.293421  1
  Ce  Ce3  1  0.750000  0.091866  0.793421  1
  Ni  Ni4  1  0.250000  0.410281  0.488511  1
  Ni  Ni5  1  0.250000  0.089719  0.988511  1
  Ni  Ni6  1  0.750000  0.589719  0.511489  1
  Ni  Ni7  1  0.750000  0.910281  0.011489  1
  Ni  Ni8  1  0.250000  0.210763  0.178394  1
  Ni  Ni9  1  0.250000  0.289237  0.678394  1
  Ni  Ni10  1  0.750000  0.789237  0.821606  1
  Ni  Ni11  1  0.750000  0.710763  0.321606  1
  Ni  Ni12  1  0.250000  0.889763  0.699224  1
  Ni  Ni13  1  0.250000  0.610237  0.199224  1
  Ni  Ni14  1  0.750000  0.110237  0.300776  1
  Ni  Ni15  1  0.750000  0.389763  0.800776  1
  Ni  Ni16  1  0.250000  0.467285  0.930787  1
  Ni  Ni17  1  0.250000  0.032715  0.430787  1
  Ni  Ni18  1  0.750000  0.532715  0.069213  1
  Ni  Ni19  1  0.750000  0.967285  0.569213  1
  P  P20  1  0.250000  0.409787  0.110093  1
  P  P21  1  0.250000  0.090213  0.610093  1
  P  P22  1  0.750000  0.590213  0.889907  1
  P  P23  1  0.750000  0.909787  0.389907  1
  P  P24  1  0.250000  0.272477  0.872970  1
  P  P25  1  0.250000  0.227523  0.372970  1
  P  P26  1  0.750000  0.727523  0.127030  1
  P  P27  1  0.750000  0.772477  0.627030  1
  P  P28  1  0.250000  0.596332  0.389097  1
  P  P29  1  0.250000  0.903668  0.889097  1
  P  P30  1  0.750000  0.403668  0.610903  1
  P  P31  1  0.750000  0.096332  0.110903  1
  Ru  Ru32  1  0.250000  0.713255  0.985089  1
  Ru  Ru33  1  0.250000  0.786745  0.485089  1
  Ru  Ru34  1  0.750000  0.286745  0.014911  1
  Ru  Ru35  1  0.750000  0.213255  0.514911  1
