# generated using pymatgen
data_Ca4YCr3(Ni4As3)4
_symmetry_space_group_name_H-M   'P 1'
_cell_length_a   12.62569903
_cell_length_b   12.62726278
_cell_length_c   3.87375600
_cell_angle_alpha   90.00000000
_cell_angle_beta   90.00000000
_cell_angle_gamma   120.00410556
_symmetry_Int_Tables_number   1
_chemical_formula_structural   Ca4YCr3(Ni4As3)4
_chemical_formula_sum   'Ca4 Y1 Cr3 Ni16 As12'
_cell_volume   534.82238494
_cell_formula_units_Z   1
loop_
 _symmetry_equiv_pos_site_id
 _symmetry_equiv_pos_as_xyz
  1  'x, y, z'
loop_
 _atom_site_type_symbol
 _atom_site_label
 _atom_site_symmetry_multiplicity
 _atom_site_fract_x
 _atom_site_fract_y
 _atom_site_fract_z
 _atom_site_occupancy
  Ca  Ca0  1  0.186816  0.186858  0.500000  1
  Ca  Ca1  1  0.813184  0.000042  0.500000  1
  Ca  Ca2  1  0.333273  0.666665  0.000000  1
  Ca  Ca3  1  0.666727  0.333391  0.000000  1
  Y  Y4  1  0.000000  0.812561  0.500000  1
  Cr  Cr5  1  0.561716  0.561827  0.000000  1
  Cr  Cr6  1  0.438284  0.000111  0.000000  1
  Cr  Cr7  1  0.000000  0.437977  0.000000  1
  Ni  Ni8  1  0.718223  0.717886  0.500000  1
  Ni  Ni9  1  0.281777  0.999663  0.500000  1
  Ni  Ni10  1  0.000000  0.282532  0.500000  1
  Ni  Ni11  1  0.182797  0.378887  0.000000  1
  Ni  Ni12  1  0.620766  0.804052  0.000000  1
  Ni  Ni13  1  0.195234  0.816937  0.000000  1
  Ni  Ni14  1  0.804766  0.621702  0.000000  1
  Ni  Ni15  1  0.817203  0.196089  0.000000  1
  Ni  Ni16  1  0.379234  0.183285  0.000000  1
  Ni  Ni17  1  0.359709  0.482143  0.500000  1
  Ni  Ni18  1  0.517930  0.877531  0.500000  1
  Ni  Ni19  1  0.122230  0.640423  0.500000  1
  Ni  Ni20  1  0.877770  0.518192  0.500000  1
  Ni  Ni21  1  0.640291  0.122433  0.500000  1
  Ni  Ni22  1  0.482070  0.359601  0.500000  1
  Ni  Ni23  1  0.000000  0.999230  0.000000  1
  As  As24  1  0.820857  0.820588  0.000000  1
  As  As25  1  0.179143  0.999732  0.000000  1
  As  As26  1  0.000000  0.178764  0.000000  1
  As  As27  1  0.166124  0.480096  0.500000  1
  As  As28  1  0.520176  0.686020  0.500000  1
  As  As29  1  0.313960  0.834180  0.500000  1
  As  As30  1  0.686040  0.520219  0.500000  1
  As  As31  1  0.833876  0.313972  0.500000  1
  As  As32  1  0.479824  0.165844  0.500000  1
  As  As33  1  0.365143  0.365217  0.000000  1
  As  As34  1  0.634857  0.000074  0.000000  1
  As  As35  1  0.000000  0.635275  0.000000  1
