# generated using pymatgen
data_Zr12SiSe3
_symmetry_space_group_name_H-M   'P 1'
_cell_length_a   10.98259242
_cell_length_b   11.03493042
_cell_length_c   5.49253500
_cell_angle_alpha   90.00000000
_cell_angle_beta   90.00000000
_cell_angle_gamma   89.96834071
_symmetry_Int_Tables_number   1
_chemical_formula_structural   Zr12SiSe3
_chemical_formula_sum   'Zr24 Si2 Se6'
_cell_volume   665.65198657
_cell_formula_units_Z   2
loop_
 _symmetry_equiv_pos_site_id
 _symmetry_equiv_pos_as_xyz
  1  'x, y, z'
loop_
 _atom_site_type_symbol
 _atom_site_label
 _atom_site_symmetry_multiplicity
 _atom_site_fract_x
 _atom_site_fract_y
 _atom_site_fract_z
 _atom_site_occupancy
  Zr  Zr0  1  0.916546  0.606074  0.546447  1
  Zr  Zr1  1  0.083454  0.393926  0.546447  1
  Zr  Zr2  1  0.897811  0.412849  0.036449  1
  Zr  Zr3  1  0.102189  0.587151  0.036449  1
  Zr  Zr4  1  0.584760  0.897653  0.958514  1
  Zr  Zr5  1  0.415240  0.102347  0.958514  1
  Zr  Zr6  1  0.603848  0.084661  0.459074  1
  Zr  Zr7  1  0.396152  0.915339  0.459074  1
  Zr  Zr8  1  0.861888  0.974301  0.719241  1
  Zr  Zr9  1  0.138112  0.025699  0.719241  1
  Zr  Zr10  1  0.526884  0.360726  0.216795  1
  Zr  Zr11  1  0.473116  0.639274  0.216795  1
  Zr  Zr12  1  0.639437  0.525758  0.782824  1
  Zr  Zr13  1  0.360563  0.474242  0.782824  1
  Zr  Zr14  1  0.972623  0.141777  0.281880  1
  Zr  Zr15  1  0.027377  0.858223  0.281880  1
  Zr  Zr16  1  0.819244  0.715533  0.011918  1
  Zr  Zr17  1  0.180756  0.284467  0.011918  1
  Zr  Zr18  1  0.787162  0.319208  0.515340  1
  Zr  Zr19  1  0.212838  0.680792  0.515340  1
  Zr  Zr20  1  0.681414  0.785607  0.487434  1
  Zr  Zr21  1  0.318586  0.214393  0.487434  1
  Zr  Zr22  1  0.716549  0.181347  0.984183  1
  Zr  Zr23  1  0.283451  0.818653  0.984183  1
  Si  Si24  1  0.960753  0.204603  0.788692  1
  Si  Si25  1  0.039247  0.795397  0.788692  1
  Se  Se26  1  0.793899  0.961079  0.212187  1
  Se  Se27  1  0.206101  0.038921  0.212187  1
  Se  Se28  1  0.538423  0.292000  0.711203  1
  Se  Se29  1  0.461577  0.708000  0.711203  1
  Se  Se30  1  0.708733  0.538989  0.287819  1
  Se  Se31  1  0.291267  0.461011  0.287819  1
