# generated using pymatgen
data_Dy2Y8InSb5
_symmetry_space_group_name_H-M   'P 1'
_cell_length_a   6.40906501
_cell_length_b   9.01807449
_cell_length_c   8.99913797
_cell_angle_alpha   120.06963708
_cell_angle_beta   90.00309895
_cell_angle_gamma   89.99381228
_symmetry_Int_Tables_number   1
_chemical_formula_structural   Dy2Y8InSb5
_chemical_formula_sum   'Dy2 Y8 In1 Sb5'
_cell_volume   450.12678630
_cell_formula_units_Z   1
loop_
 _symmetry_equiv_pos_site_id
 _symmetry_equiv_pos_as_xyz
  1  'x, y, z'
loop_
 _atom_site_type_symbol
 _atom_site_label
 _atom_site_symmetry_multiplicity
 _atom_site_fract_x
 _atom_site_fract_y
 _atom_site_fract_z
 _atom_site_occupancy
  Dy  Dy0  1  0.499141  0.334507  0.668336  1
  Dy  Dy1  1  0.499141  0.666170  0.331664  1
  Y  Y2  1  0.000906  0.666177  0.331838  1
  Y  Y3  1  0.000906  0.334339  0.668162  1
  Y  Y4  1  0.749959  0.244410  0.000000  1
  Y  Y5  1  0.749924  0.753928  0.757269  1
  Y  Y6  1  0.749924  0.996658  0.242731  1
  Y  Y7  1  0.249981  0.756826  0.000000  1
  Y  Y8  1  0.250018  0.246993  0.245271  1
  Y  Y9  1  0.250018  0.001722  0.754729  1
  In  In10  1  0.749672  0.606438  0.000000  1
  Sb  Sb11  1  0.749753  0.388627  0.389467  1
  Sb  Sb12  1  0.749753  0.999158  0.610533  1
  Sb  Sb13  1  0.250332  0.390922  0.000000  1
  Sb  Sb14  1  0.250288  0.611924  0.610724  1
  Sb  Sb15  1  0.250288  0.001201  0.389276  1
