# generated using pymatgen
data_Ba3CeCrS6
_symmetry_space_group_name_H-M   'P 1'
_cell_length_a   8.35722893
_cell_length_b   8.35722847
_cell_length_c   8.35722900
_cell_angle_alpha   93.84149374
_cell_angle_beta   93.84149353
_cell_angle_gamma   93.84149401
_symmetry_Int_Tables_number   1
_chemical_formula_structural   Ba3CeCrS6
_chemical_formula_sum   'Ba6 Ce2 Cr2 S12'
_cell_volume   579.57624003
_cell_formula_units_Z   2
loop_
 _symmetry_equiv_pos_site_id
 _symmetry_equiv_pos_as_xyz
  1  'x, y, z'
loop_
 _atom_site_type_symbol
 _atom_site_label
 _atom_site_symmetry_multiplicity
 _atom_site_fract_x
 _atom_site_fract_y
 _atom_site_fract_z
 _atom_site_occupancy
  Ba  Ba0  1  0.375225  0.750000  0.124775  1
  Ba  Ba1  1  0.124775  0.375225  0.750000  1
  Ba  Ba2  1  0.750000  0.124775  0.375225  1
  Ba  Ba3  1  0.624775  0.250000  0.875225  1
  Ba  Ba4  1  0.875225  0.624775  0.250000  1
  Ba  Ba5  1  0.250000  0.875225  0.624775  1
  Ce  Ce6  1  0.250000  0.250000  0.250000  1
  Ce  Ce7  1  0.750000  0.750000  0.750000  1
  Cr  Cr8  1  0.500000  0.500000  0.500000  1
  Cr  Cr9  1  0.000000  0.000000  0.000000  1
  S  S10  1  0.542503  0.415494  0.215339  1
  S  S11  1  0.215339  0.542503  0.415494  1
  S  S12  1  0.415494  0.215339  0.542503  1
  S  S13  1  0.957497  0.284661  0.084506  1
  S  S14  1  0.084506  0.957497  0.284661  1
  S  S15  1  0.284661  0.084506  0.957497  1
  S  S16  1  0.457497  0.584506  0.784661  1
  S  S17  1  0.784661  0.457497  0.584506  1
  S  S18  1  0.584506  0.784661  0.457497  1
  S  S19  1  0.042503  0.715339  0.915494  1
  S  S20  1  0.715339  0.915494  0.042503  1
  S  S21  1  0.915494  0.042503  0.715339  1
