# generated using pymatgen
data_Zr6Zn16Cu7S
_symmetry_space_group_name_H-M   'P 1'
_cell_length_a   8.63152532
_cell_length_b   8.63152564
_cell_length_c   8.63152500
_cell_angle_alpha   59.99999862
_cell_angle_beta   59.99999738
_cell_angle_gamma   59.99999728
_symmetry_Int_Tables_number   1
_chemical_formula_structural   Zr6Zn16Cu7S
_chemical_formula_sum   'Zr6 Zn16 Cu7 S1'
_cell_volume   454.72373806
_cell_formula_units_Z   1
loop_
 _symmetry_equiv_pos_site_id
 _symmetry_equiv_pos_as_xyz
  1  'x, y, z'
loop_
 _atom_site_type_symbol
 _atom_site_label
 _atom_site_symmetry_multiplicity
 _atom_site_fract_x
 _atom_site_fract_y
 _atom_site_fract_z
 _atom_site_occupancy
  Zr  Zr0  1  0.705917  0.294083  0.294083  1
  Zr  Zr1  1  0.294083  0.705917  0.705917  1
  Zr  Zr2  1  0.294083  0.705917  0.294083  1
  Zr  Zr3  1  0.705917  0.294083  0.705917  1
  Zr  Zr4  1  0.294083  0.294083  0.705917  1
  Zr  Zr5  1  0.705917  0.705917  0.294083  1
  Zn  Zn6  1  0.121040  0.121040  0.121040  1
  Zn  Zn7  1  0.878960  0.878960  0.878960  1
  Zn  Zn8  1  0.121040  0.121040  0.636879  1
  Zn  Zn9  1  0.121040  0.636879  0.121040  1
  Zn  Zn10  1  0.878960  0.878960  0.363121  1
  Zn  Zn11  1  0.878960  0.363121  0.878960  1
  Zn  Zn12  1  0.636879  0.121040  0.121040  1
  Zn  Zn13  1  0.363121  0.878960  0.878960  1
  Zn  Zn14  1  0.332518  0.332518  0.332518  1
  Zn  Zn15  1  0.667482  0.667482  0.667482  1
  Zn  Zn16  1  0.332518  0.332518  0.002447  1
  Zn  Zn17  1  0.332518  0.002447  0.332518  1
  Zn  Zn18  1  0.667482  0.667482  0.997553  1
  Zn  Zn19  1  0.667482  0.997553  0.667482  1
  Zn  Zn20  1  0.002447  0.332518  0.332518  1
  Zn  Zn21  1  0.997553  0.667482  0.667482  1
  Cu  Cu22  1  0.500000  0.000000  0.000000  1
  Cu  Cu23  1  0.000000  0.500000  0.500000  1
  Cu  Cu24  1  0.000000  0.500000  0.000000  1
  Cu  Cu25  1  0.500000  0.000000  0.500000  1
  Cu  Cu26  1  0.000000  0.000000  0.500000  1
  Cu  Cu27  1  0.500000  0.500000  0.000000  1
  Cu  Cu28  1  0.000000  0.000000  0.000000  1
  S  S29  1  0.500000  0.500000  0.500000  1
