# generated using pymatgen
data_Dy2Ho3FeRuO12
_symmetry_space_group_name_H-M   'P 1'
_cell_length_a   6.80225402
_cell_length_b   6.80294137
_cell_length_c   7.26344047
_cell_angle_alpha   74.41379190
_cell_angle_beta   74.41411822
_cell_angle_gamma   51.21697624
_symmetry_Int_Tables_number   1
_chemical_formula_structural   Dy2Ho3FeRuO12
_chemical_formula_sum   'Dy2 Ho3 Fe1 Ru1 O12'
_cell_volume   250.11152335
_cell_formula_units_Z   1
loop_
 _symmetry_equiv_pos_site_id
 _symmetry_equiv_pos_as_xyz
  1  'x, y, z'
loop_
 _atom_site_type_symbol
 _atom_site_label
 _atom_site_symmetry_multiplicity
 _atom_site_fract_x
 _atom_site_fract_y
 _atom_site_fract_z
 _atom_site_occupancy
  Dy  Dy0  1  0.692182  0.691511  0.669436  1
  Dy  Dy1  1  0.695510  0.699434  0.140225  1
  Ho  Ho2  1  0.999124  0.001039  0.999983  1
  Ho  Ho3  1  0.300537  0.304518  0.859932  1
  Ho  Ho4  1  0.308701  0.307913  0.330211  1
  Fe  Fe5  1  0.248445  0.751430  0.500030  1
  Ru  Ru6  1  0.759736  0.240107  0.500040  1
  O  O7  1  0.399463  0.904891  0.926026  1
  O  O8  1  0.569547  0.096881  0.582690  1
  O  O9  1  0.905061  0.428757  0.417201  1
  O  O10  1  0.097413  0.598884  0.073831  1
  O  O11  1  0.992737  0.008272  0.314337  1
  O  O12  1  0.508361  0.490372  0.687633  1
  O  O13  1  0.903879  0.403309  0.924357  1
  O  O14  1  0.102478  0.577047  0.580686  1
  O  O15  1  0.421466  0.899157  0.419328  1
  O  O16  1  0.594916  0.098462  0.075587  1
  O  O17  1  0.508904  0.490913  0.312676  1
  O  O18  1  0.991541  0.007104  0.685789  1
