# generated using pymatgen
data_CsLuF4
_symmetry_space_group_name_H-M   'P 1'
_cell_length_a   4.32743800
_cell_length_b   7.38238025
_cell_length_c   8.46297400
_cell_angle_alpha   90.00000000
_cell_angle_beta   90.00000000
_cell_angle_gamma   107.04317198
_symmetry_Int_Tables_number   1
_chemical_formula_structural   CsLuF4
_chemical_formula_sum   'Cs2 Lu2 F8'
_cell_volume   258.49158296
_cell_formula_units_Z   2
loop_
 _symmetry_equiv_pos_site_id
 _symmetry_equiv_pos_as_xyz
  1  'x, y, z'
loop_
 _atom_site_type_symbol
 _atom_site_label
 _atom_site_symmetry_multiplicity
 _atom_site_fract_x
 _atom_site_fract_y
 _atom_site_fract_z
 _atom_site_occupancy
  Cs  Cs0  1  0.269914  0.539828  0.250000  1
  Cs  Cs1  1  0.730086  0.460172  0.750000  1
  Lu  Lu2  1  0.000000  0.000000  0.000000  1
  Lu  Lu3  1  0.000000  0.000000  0.500000  1
  F  F4  1  0.500000  0.000000  0.000000  1
  F  F5  1  0.500000  0.000000  0.500000  1
  F  F6  1  0.145540  0.291080  0.545786  1
  F  F7  1  0.854460  0.708920  0.454214  1
  F  F8  1  0.854460  0.708920  0.045786  1
  F  F9  1  0.145540  0.291080  0.954214  1
  F  F10  1  0.031470  0.062938  0.250000  1
  F  F11  1  0.968530  0.937062  0.750000  1
