# generated using pymatgen
data_YbDy3B16
_symmetry_space_group_name_H-M   'P 1'
_cell_length_a   7.10920965
_cell_length_b   7.10920965
_cell_length_c   4.02440300
_cell_angle_alpha   90.00000000
_cell_angle_beta   90.00000000
_cell_angle_gamma   89.95098289
_symmetry_Int_Tables_number   1
_chemical_formula_structural   YbDy3B16
_chemical_formula_sum   'Yb1 Dy3 B16'
_cell_volume   203.39672163
_cell_formula_units_Z   1
loop_
 _symmetry_equiv_pos_site_id
 _symmetry_equiv_pos_as_xyz
  1  'x, y, z'
loop_
 _atom_site_type_symbol
 _atom_site_label
 _atom_site_symmetry_multiplicity
 _atom_site_fract_x
 _atom_site_fract_y
 _atom_site_fract_z
 _atom_site_occupancy
  Yb  Yb0  1  0.682997  0.817003  0.000000  1
  Dy  Dy1  1  0.817233  0.317444  0.000000  1
  Dy  Dy2  1  0.182556  0.682767  0.000000  1
  Dy  Dy3  1  0.318580  0.181420  0.000000  1
  B  B4  1  0.500515  0.501609  0.797175  1
  B  B5  1  0.998391  0.999485  0.797175  1
  B  B6  1  0.500515  0.501609  0.202825  1
  B  B7  1  0.998391  0.999485  0.202825  1
  B  B8  1  0.913311  0.586689  0.500000  1
  B  B9  1  0.087119  0.412881  0.500000  1
  B  B10  1  0.412870  0.913503  0.500000  1
  B  B11  1  0.586497  0.087130  0.500000  1
  B  B12  1  0.676064  0.538164  0.500000  1
  B  B13  1  0.324456  0.461149  0.500000  1
  B  B14  1  0.176706  0.962075  0.500000  1
  B  B15  1  0.823443  0.038255  0.500000  1
  B  B16  1  0.461745  0.676557  0.500000  1
  B  B17  1  0.537925  0.323294  0.500000  1
  B  B18  1  0.038851  0.175544  0.500000  1
  B  B19  1  0.961836  0.823936  0.500000  1
