# generated using pymatgen
data_Ca12Ti9Ge3(MoO6)8
_symmetry_space_group_name_H-M   'P 1'
_cell_length_a   11.10814851
_cell_length_b   11.11020344
_cell_length_c   11.10818601
_cell_angle_alpha   109.47041005
_cell_angle_beta   109.47194995
_cell_angle_gamma   109.47521915
_symmetry_Int_Tables_number   1
_chemical_formula_structural   Ca12Ti9Ge3(MoO6)8
_chemical_formula_sum   'Ca12 Ti9 Ge3 Mo8 O48'
_cell_volume   1055.27085405
_cell_formula_units_Z   1
loop_
 _symmetry_equiv_pos_site_id
 _symmetry_equiv_pos_as_xyz
  1  'x, y, z'
loop_
 _atom_site_type_symbol
 _atom_site_label
 _atom_site_symmetry_multiplicity
 _atom_site_fract_x
 _atom_site_fract_y
 _atom_site_fract_z
 _atom_site_occupancy
  Ca  Ca0  1  0.249441  0.874754  0.624740  1
  Ca  Ca1  1  0.749246  0.624637  0.874560  1
  Ca  Ca2  1  0.624426  0.874841  0.749667  1
  Ca  Ca3  1  0.874390  0.624780  0.249687  1
  Ca  Ca4  1  0.624474  0.249894  0.874494  1
  Ca  Ca5  1  0.874439  0.749986  0.624501  1
  Ca  Ca6  1  0.750416  0.124816  0.375187  1
  Ca  Ca7  1  0.250381  0.375274  0.125528  1
  Ca  Ca8  1  0.375157  0.124820  0.250374  1
  Ca  Ca9  1  0.126065  0.375660  0.750290  1
  Ca  Ca10  1  0.375586  0.750312  0.125279  1
  Ca  Ca11  1  0.126031  0.250400  0.375823  1
  Ti  Ti12  1  0.125069  0.749880  0.874928  1
  Ti  Ti13  1  0.874951  0.249911  0.125140  1
  Ti  Ti14  1  0.624814  0.375130  0.250021  1
  Ti  Ti15  1  0.749866  0.874729  0.124958  1
  Ti  Ti16  1  0.874891  0.124861  0.749684  1
  Ti  Ti17  1  0.250430  0.625248  0.375357  1
  Ti  Ti18  1  0.749750  0.375038  0.624813  1
  Ti  Ti19  1  0.250238  0.125284  0.874848  1
  Ti  Ti20  1  0.125106  0.875133  0.250306  1
  Ge  Ge21  1  0.375086  0.624908  0.749932  1
  Ge  Ge22  1  0.624772  0.749875  0.374855  1
  Ge  Ge23  1  0.374921  0.250133  0.625060  1
  Mo  Mo24  1  0.498624  0.499808  0.500232  1
  Mo  Mo25  1  0.500024  0.000030  0.500003  1
  Mo  Mo26  1  0.001636  0.501377  0.501200  1
  Mo  Mo27  1  0.500194  0.500371  0.998796  1
  Mo  Mo28  1  0.999956  0.999973  0.499987  1
  Mo  Mo29  1  0.999993  0.499972  0.000019  1
  Mo  Mo30  1  0.499592  0.998392  0.999755  1
  Mo  Mo31  1  0.000032  0.000010  0.999989  1
  O  O32  1  0.411081  0.807180  0.788984  1
  O  O33  1  0.877605  0.399452  0.087566  1
  O  O34  1  0.100159  0.978019  0.687925  1
  O  O35  1  0.518912  0.623056  0.710865  1
  O  O36  1  0.687779  0.087740  0.709995  1
  O  O37  1  0.621230  0.709978  0.517791  1
  O  O38  1  0.621663  0.412570  0.100039  1
  O  O39  1  0.709167  0.522378  0.622706  1
  O  O40  1  0.812323  0.521243  0.399436  1
  O  O41  1  0.978174  0.790130  0.877734  1
  O  O42  1  0.790315  0.877799  0.978366  1
  O  O43  1  0.709922  0.687137  0.086219  1
  O  O44  1  0.411341  0.103784  0.621612  1
  O  O45  1  0.399179  0.813146  0.522573  1
  O  O46  1  0.087442  0.710387  0.687944  1
  O  O47  1  0.100650  0.622503  0.412332  1
  O  O48  1  0.518221  0.395972  0.807466  1
  O  O49  1  0.086184  0.876625  0.399183  1
  O  O50  1  0.978390  0.688191  0.100562  1
  O  O51  1  0.192787  0.481655  0.603930  1
  O  O52  1  0.687658  0.099954  0.978022  1
  O  O53  1  0.790248  0.412566  0.811879  1
  O  O54  1  0.399146  0.086185  0.877162  1
  O  O55  1  0.877585  0.978144  0.790176  1
  O  O56  1  0.587339  0.187955  0.208944  1
  O  O57  1  0.122367  0.600360  0.912613  1
  O  O58  1  0.899872  0.022057  0.312082  1
  O  O59  1  0.478016  0.377174  0.291328  1
  O  O60  1  0.312219  0.912274  0.290015  1
  O  O61  1  0.378085  0.289402  0.481911  1
  O  O62  1  0.377974  0.589100  0.896474  1
  O  O63  1  0.289523  0.477370  0.377149  1
  O  O64  1  0.122411  0.021850  0.209815  1
  O  O65  1  0.600723  0.912700  0.123015  1
  O  O66  1  0.209820  0.587478  0.188121  1
  O  O67  1  0.192263  0.210163  0.588534  1
  O  O68  1  0.311988  0.899571  0.022240  1
  O  O69  1  0.021612  0.311812  0.899445  1
  O  O70  1  0.913808  0.123377  0.600803  1
  O  O71  1  0.481922  0.603889  0.191488  1
  O  O72  1  0.899830  0.378243  0.587788  1
  O  O73  1  0.913691  0.290921  0.313058  1
  O  O74  1  0.601013  0.187232  0.477586  1
  O  O75  1  0.588580  0.896132  0.378382  1
  O  O76  1  0.290700  0.313279  0.913683  1
  O  O77  1  0.209887  0.122238  0.021461  1
  O  O78  1  0.021777  0.209805  0.122231  1
  O  O79  1  0.807423  0.789585  0.411354  1
