# generated using pymatgen
data_Yb3As4
_symmetry_space_group_name_H-M   'P 1'
_cell_length_a   7.68607681
_cell_length_b   7.68607680
_cell_length_c   8.93979916
_cell_angle_alpha   83.25293636
_cell_angle_beta   83.25294002
_cell_angle_gamma   136.62456408
_symmetry_Int_Tables_number   1
_chemical_formula_structural   Yb3As4
_chemical_formula_sum   'Yb6 As8'
_cell_volume   343.88600378
_cell_formula_units_Z   2
loop_
 _symmetry_equiv_pos_site_id
 _symmetry_equiv_pos_as_xyz
  1  'x, y, z'
loop_
 _atom_site_type_symbol
 _atom_site_label
 _atom_site_symmetry_multiplicity
 _atom_site_fract_x
 _atom_site_fract_y
 _atom_site_fract_z
 _atom_site_occupancy
  Yb  Yb0  1  0.881365  0.621350  0.166311  1
  Yb  Yb1  1  0.536784  0.296513  0.833978  1
  Yb  Yb2  1  0.296513  0.536784  0.333978  1
  Yb  Yb3  1  0.621350  0.881365  0.666311  1
  Yb  Yb4  1  0.006444  0.255196  0.001127  1
  Yb  Yb5  1  0.255196  0.006444  0.501127  1
  As  As6  1  0.604927  0.675286  0.988983  1
  As  As7  1  0.129287  0.713720  0.836309  1
  As  As8  1  0.675286  0.604927  0.488983  1
  As  As9  1  0.302680  0.215556  0.164575  1
  As  As10  1  0.713720  0.129287  0.336309  1
  As  As11  1  0.842884  0.414719  0.511185  1
  As  As12  1  0.414719  0.842884  0.011185  1
  As  As13  1  0.215556  0.302680  0.664575  1
