# generated using pymatgen
data_Pr4Ho6BiPb7
_symmetry_space_group_name_H-M   'P 1'
_cell_length_a   8.32054300
_cell_length_b   8.40579857
_cell_length_c   15.81440599
_cell_angle_alpha   90.07022275
_cell_angle_beta   90.00000000
_cell_angle_gamma   90.00000000
_symmetry_Int_Tables_number   1
_chemical_formula_structural   Pr4Ho6BiPb7
_chemical_formula_sum   'Pr8 Ho12 Bi2 Pb14'
_cell_volume   1106.07150904
_cell_formula_units_Z   2
loop_
 _symmetry_equiv_pos_site_id
 _symmetry_equiv_pos_as_xyz
  1  'x, y, z'
loop_
 _atom_site_type_symbol
 _atom_site_label
 _atom_site_symmetry_multiplicity
 _atom_site_fract_x
 _atom_site_fract_y
 _atom_site_fract_z
 _atom_site_occupancy
  Pr  Pr0  1  0.474185  0.676316  0.598368  1
  Pr  Pr1  1  0.974185  0.823684  0.901632  1
  Pr  Pr2  1  0.527877  0.321836  0.098485  1
  Pr  Pr3  1  0.027877  0.178164  0.401515  1
  Pr  Pr4  1  0.524547  0.324700  0.402109  1
  Pr  Pr5  1  0.024547  0.175300  0.097891  1
  Pr  Pr6  1  0.477231  0.678409  0.901206  1
  Pr  Pr7  1  0.977231  0.821591  0.598794  1
  Ho  Ho8  1  0.632971  0.159218  0.623398  1
  Ho  Ho9  1  0.132971  0.340782  0.876602  1
  Ho  Ho10  1  0.368072  0.844485  0.123002  1
  Ho  Ho11  1  0.868072  0.655515  0.376998  1
  Ho  Ho12  1  0.363330  0.841105  0.377435  1
  Ho  Ho13  1  0.863330  0.658895  0.122565  1
  Ho  Ho14  1  0.633645  0.157836  0.877428  1
  Ho  Ho15  1  0.133645  0.342164  0.622572  1
  Ho  Ho16  1  0.799939  0.495589  0.750520  1
  Ho  Ho17  1  0.299939  0.004411  0.749480  1
  Ho  Ho18  1  0.200496  0.503918  0.251349  1
  Ho  Ho19  1  0.700496  0.996082  0.248651  1
  Bi  Bi20  1  0.706166  0.959444  0.455919  1
  Bi  Bi21  1  0.206166  0.540556  0.044081  1
  Pb  Pb22  1  0.293379  0.040259  0.956395  1
  Pb  Pb23  1  0.793379  0.459741  0.543605  1
  Pb  Pb24  1  0.292099  0.040309  0.543745  1
  Pb  Pb25  1  0.792099  0.459691  0.956255  1
  Pb  Pb26  1  0.705873  0.960054  0.043757  1
  Pb  Pb27  1  0.205873  0.539946  0.456243  1
  Pb  Pb28  1  0.437422  0.369974  0.750461  1
  Pb  Pb29  1  0.937422  0.130026  0.749539  1
  Pb  Pb30  1  0.561949  0.630254  0.250367  1
  Pb  Pb31  1  0.061949  0.869746  0.249633  1
  Pb  Pb32  1  0.662683  0.850192  0.749681  1
  Pb  Pb33  1  0.162683  0.649808  0.750319  1
  Pb  Pb34  1  0.338135  0.150250  0.250027  1
  Pb  Pb35  1  0.838135  0.349750  0.249973  1
