# generated using pymatgen
data_ErLu19(SiBi2)4
_symmetry_space_group_name_H-M   'P 1'
_cell_length_a   11.77147954
_cell_length_b   9.04073100
_cell_length_c   7.90478836
_cell_angle_alpha   90.00000000
_cell_angle_beta   89.96543380
_cell_angle_gamma   90.00000000
_symmetry_Int_Tables_number   1
_chemical_formula_structural   ErLu19(SiBi2)4
_chemical_formula_sum   'Er1 Lu19 Si4 Bi8'
_cell_volume   841.24939908
_cell_formula_units_Z   1
loop_
 _symmetry_equiv_pos_site_id
 _symmetry_equiv_pos_as_xyz
  1  'x, y, z'
loop_
 _atom_site_type_symbol
 _atom_site_label
 _atom_site_symmetry_multiplicity
 _atom_site_fract_x
 _atom_site_fract_y
 _atom_site_fract_z
 _atom_site_occupancy
  Er  Er0  1  0.206013  0.250000  0.139195  1
  Lu  Lu1  1  0.061271  0.555898  0.821069  1
  Lu  Lu2  1  0.561257  0.944080  0.679014  1
  Lu  Lu3  1  0.938532  0.055891  0.178929  1
  Lu  Lu4  1  0.438895  0.444262  0.321128  1
  Lu  Lu5  1  0.938532  0.444109  0.178929  1
  Lu  Lu6  1  0.438895  0.055738  0.321128  1
  Lu  Lu7  1  0.061271  0.944102  0.821069  1
  Lu  Lu8  1  0.561257  0.555920  0.679014  1
  Lu  Lu9  1  0.001237  0.750000  0.460597  1
  Lu  Lu10  1  0.501347  0.750000  0.039299  1
  Lu  Lu11  1  0.998663  0.250000  0.539419  1
  Lu  Lu12  1  0.498978  0.250000  0.960463  1
  Lu  Lu13  1  0.210800  0.750000  0.165825  1
  Lu  Lu14  1  0.710842  0.750000  0.334139  1
  Lu  Lu15  1  0.789092  0.250000  0.834093  1
  Lu  Lu16  1  0.289226  0.250000  0.665657  1
  Lu  Lu17  1  0.294172  0.750000  0.639323  1
  Lu  Lu18  1  0.794181  0.750000  0.860854  1
  Lu  Lu19  1  0.705791  0.250000  0.360922  1
  Si  Si20  1  0.476493  0.750000  0.409481  1
  Si  Si21  1  0.976449  0.750000  0.090575  1
  Si  Si22  1  0.523566  0.250000  0.590545  1
  Si  Si23  1  0.022731  0.250000  0.908788  1
  Bi  Bi24  1  0.325148  0.511162  0.933123  1
  Bi  Bi25  1  0.824871  0.989150  0.566574  1
  Bi  Bi26  1  0.675114  0.010754  0.066609  1
  Bi  Bi27  1  0.175122  0.489561  0.433965  1
  Bi  Bi28  1  0.675114  0.489246  0.066609  1
  Bi  Bi29  1  0.175122  0.010439  0.433965  1
  Bi  Bi30  1  0.325148  0.988838  0.933123  1
  Bi  Bi31  1  0.824871  0.510850  0.566574  1
