# generated using pymatgen
data_CaSc5Ta4Al12Os7
_symmetry_space_group_name_H-M   'P 1'
_cell_length_a   8.90203547
_cell_length_b   8.90203587
_cell_length_c   8.93682100
_cell_angle_alpha   59.87065868
_cell_angle_beta   59.87065719
_cell_angle_gamma   60.22653931
_symmetry_Int_Tables_number   1
_chemical_formula_structural   CaSc5Ta4Al12Os7
_chemical_formula_sum   'Ca1 Sc5 Ta4 Al12 Os7'
_cell_volume   500.64513026
_cell_formula_units_Z   1
loop_
 _symmetry_equiv_pos_site_id
 _symmetry_equiv_pos_as_xyz
  1  'x, y, z'
loop_
 _atom_site_type_symbol
 _atom_site_label
 _atom_site_symmetry_multiplicity
 _atom_site_fract_x
 _atom_site_fract_y
 _atom_site_fract_z
 _atom_site_occupancy
  Ca  Ca0  1  0.695069  0.695069  0.304931  1
  Sc  Sc1  1  0.285442  0.714032  0.286214  1
  Sc  Sc2  1  0.714032  0.285442  0.286214  1
  Sc  Sc3  1  0.291091  0.291091  0.708909  1
  Sc  Sc4  1  0.714032  0.285442  0.714311  1
  Sc  Sc5  1  0.285442  0.714032  0.714311  1
  Ta  Ta6  1  0.878472  0.878472  0.362689  1
  Ta  Ta7  1  0.880625  0.362035  0.878669  1
  Ta  Ta8  1  0.362035  0.880625  0.878669  1
  Ta  Ta9  1  0.878472  0.878472  0.880365  1
  Al  Al10  1  0.121313  0.121313  0.637506  1
  Al  Al11  1  0.120239  0.636063  0.121849  1
  Al  Al12  1  0.636063  0.120239  0.121849  1
  Al  Al13  1  0.121313  0.121313  0.119868  1
  Al  Al14  1  0.664068  0.664068  0.005638  1
  Al  Al15  1  0.664367  0.014235  0.660700  1
  Al  Al16  1  0.014235  0.664367  0.660700  1
  Al  Al17  1  0.664068  0.664068  0.666229  1
  Al  Al18  1  0.336389  0.336389  0.992305  1
  Al  Al19  1  0.332324  0.000912  0.333382  1
  Al  Al20  1  0.000912  0.332324  0.333382  1
  Al  Al21  1  0.336389  0.336389  0.334918  1
  Os  Os22  1  0.999700  0.999700  0.000300  1
  Os  Os23  1  0.998017  0.998017  0.501983  1
  Os  Os24  1  0.501607  0.999857  0.505348  1
  Os  Os25  1  0.999857  0.501607  0.505348  1
  Os  Os26  1  0.502962  0.502962  0.997038  1
  Os  Os27  1  0.999857  0.501607  0.993187  1
  Os  Os28  1  0.501607  0.999857  0.993187  1
