# generated using pymatgen
data_LaZnCu5
_symmetry_space_group_name_H-M   'P 1'
_cell_length_a   5.14090700
_cell_length_b   8.23906400
_cell_length_c   10.30061500
_cell_angle_alpha   90.00000000
_cell_angle_beta   90.00000000
_cell_angle_gamma   90.00000000
_symmetry_Int_Tables_number   1
_chemical_formula_structural   LaZnCu5
_chemical_formula_sum   'La4 Zn4 Cu20'
_cell_volume   436.29554555
_cell_formula_units_Z   4
loop_
 _symmetry_equiv_pos_site_id
 _symmetry_equiv_pos_as_xyz
  1  'x, y, z'
loop_
 _atom_site_type_symbol
 _atom_site_label
 _atom_site_symmetry_multiplicity
 _atom_site_fract_x
 _atom_site_fract_y
 _atom_site_fract_z
 _atom_site_occupancy
  La  La0  1  0.250000  0.760363  0.061946  1
  La  La1  1  0.750000  0.239637  0.938054  1
  La  La2  1  0.750000  0.739637  0.561946  1
  La  La3  1  0.250000  0.260363  0.438054  1
  Zn  Zn4  1  0.250000  0.644232  0.361340  1
  Zn  Zn5  1  0.750000  0.355768  0.638660  1
  Zn  Zn6  1  0.750000  0.855768  0.861340  1
  Zn  Zn7  1  0.250000  0.144232  0.138660  1
  Cu  Cu8  1  0.250000  0.817982  0.750710  1
  Cu  Cu9  1  0.750000  0.182018  0.249290  1
  Cu  Cu10  1  0.750000  0.682018  0.250710  1
  Cu  Cu11  1  0.250000  0.317982  0.749290  1
  Cu  Cu12  1  0.503436  0.566206  0.809541  1
  Cu  Cu13  1  0.496564  0.433794  0.190459  1
  Cu  Cu14  1  0.496564  0.933794  0.309541  1
  Cu  Cu15  1  0.003436  0.433794  0.190459  1
  Cu  Cu16  1  0.503436  0.066206  0.690459  1
  Cu  Cu17  1  0.996564  0.566206  0.809541  1
  Cu  Cu18  1  0.996564  0.066206  0.690459  1
  Cu  Cu19  1  0.003436  0.933794  0.309541  1
  Cu  Cu20  1  0.250000  0.909429  0.515018  1
  Cu  Cu21  1  0.750000  0.090571  0.484982  1
  Cu  Cu22  1  0.750000  0.590571  0.015018  1
  Cu  Cu23  1  0.250000  0.409429  0.984982  1
  Cu  Cu24  1  0.250000  0.560560  0.601964  1
  Cu  Cu25  1  0.750000  0.439440  0.398036  1
  Cu  Cu26  1  0.750000  0.939440  0.101964  1
  Cu  Cu27  1  0.250000  0.060560  0.898036  1
