# generated using pymatgen
data_CsK3Ce2Br12
_symmetry_space_group_name_H-M   'P 1'
_cell_length_a   8.03851408
_cell_length_b   7.79052075
_cell_length_c   13.60180800
_cell_angle_alpha   54.99635591
_cell_angle_beta   90.02976510
_cell_angle_gamma   89.66185475
_symmetry_Int_Tables_number   1
_chemical_formula_structural   CsK3Ce2Br12
_chemical_formula_sum   'Cs1 K3 Ce2 Br12'
_cell_volume   697.70459696
_cell_formula_units_Z   1
loop_
 _symmetry_equiv_pos_site_id
 _symmetry_equiv_pos_as_xyz
  1  'x, y, z'
loop_
 _atom_site_type_symbol
 _atom_site_label
 _atom_site_symmetry_multiplicity
 _atom_site_fract_x
 _atom_site_fract_y
 _atom_site_fract_z
 _atom_site_occupancy
  Cs  Cs0  1  0.554972  0.265589  0.750237  1
  K  K1  1  0.438211  0.737185  0.250492  1
  K  K2  1  0.938143  0.263884  0.249350  1
  K  K3  1  0.062571  0.735604  0.750737  1
  Ce  Ce4  1  0.999723  0.996449  0.002279  1
  Ce  Ce5  1  0.499611  0.003359  0.497176  1
  Br  Br6  1  0.812079  0.335613  0.962207  1
  Br  Br7  1  0.513066  0.175714  0.252407  1
  Br  Br8  1  0.486341  0.805990  0.745677  1
  Br  Br9  1  0.283810  0.223352  0.974787  1
  Br  Br10  1  0.296466  0.686928  0.527675  1
  Br  Br11  1  0.207468  0.226313  0.465924  1
  Br  Br12  1  0.191208  0.662511  0.040237  1
  Br  Br13  1  0.795612  0.782787  0.531682  1
  Br  Br14  1  0.709839  0.767004  0.040243  1
  Br  Br15  1  0.014754  0.823145  0.246973  1
  Br  Br16  1  0.004667  0.170095  0.755968  1
  Br  Br17  1  0.691459  0.338474  0.455949  1
