# generated using pymatgen
data_Lu2Cr3Ni9P7
_symmetry_space_group_name_H-M   'P 1'
_cell_length_a   9.08342442
_cell_length_b   9.08315739
_cell_length_c   3.62144700
_cell_angle_alpha   90.00000000
_cell_angle_beta   90.00000000
_cell_angle_gamma   119.96810513
_symmetry_Int_Tables_number   1
_chemical_formula_structural   Lu2Cr3Ni9P7
_chemical_formula_sum   'Lu2 Cr3 Ni9 P7'
_cell_volume   258.84435720
_cell_formula_units_Z   1
loop_
 _symmetry_equiv_pos_site_id
 _symmetry_equiv_pos_as_xyz
  1  'x, y, z'
loop_
 _atom_site_type_symbol
 _atom_site_label
 _atom_site_symmetry_multiplicity
 _atom_site_fract_x
 _atom_site_fract_y
 _atom_site_fract_z
 _atom_site_occupancy
  Lu  Lu0  1  0.666547  0.333080  0.000000  1
  Lu  Lu1  1  0.000110  0.000123  0.500000  1
  Cr  Cr2  1  0.553242  0.766031  0.500000  1
  Cr  Cr3  1  0.234015  0.787205  0.500000  1
  Cr  Cr4  1  0.212783  0.446848  0.500000  1
  Ni  Ni5  1  0.769760  0.729588  0.000000  1
  Ni  Ni6  1  0.270424  0.040208  0.000000  1
  Ni  Ni7  1  0.959928  0.230323  0.000000  1
  Ni  Ni8  1  0.489150  0.946849  0.000000  1
  Ni  Ni9  1  0.053109  0.542173  0.000000  1
  Ni  Ni10  1  0.457752  0.511016  0.000000  1
  Ni  Ni11  1  0.718066  0.106600  0.500000  1
  Ni  Ni12  1  0.893246  0.611410  0.500000  1
  Ni  Ni13  1  0.388522  0.281856  0.500000  1
  P  P14  1  0.448289  0.071846  0.500000  1
  P  P15  1  0.927997  0.376285  0.500000  1
  P  P16  1  0.623583  0.551550  0.500000  1
  P  P17  1  0.740851  0.958490  0.000000  1
  P  P18  1  0.041613  0.782425  0.000000  1
  P  P19  1  0.217726  0.259383  0.000000  1
  P  P20  1  0.333284  0.666713  0.000000  1
