# generated using pymatgen
data_BaTc(PO4)2
_symmetry_space_group_name_H-M   'P 1'
_cell_length_a   4.93625976
_cell_length_b   4.93626035
_cell_length_c   7.91278321
_cell_angle_alpha   86.45961062
_cell_angle_beta   86.45960747
_cell_angle_gamma   64.88767215
_symmetry_Int_Tables_number   1
_chemical_formula_structural   BaTc(PO4)2
_chemical_formula_sum   'Ba1 Tc1 P2 O8'
_cell_volume   174.11540499
_cell_formula_units_Z   1
loop_
 _symmetry_equiv_pos_site_id
 _symmetry_equiv_pos_as_xyz
  1  'x, y, z'
loop_
 _atom_site_type_symbol
 _atom_site_label
 _atom_site_symmetry_multiplicity
 _atom_site_fract_x
 _atom_site_fract_y
 _atom_site_fract_z
 _atom_site_occupancy
  Ba  Ba0  1  0.000000  0.000000  0.000000  1
  Tc  Tc1  1  0.000000  0.000000  0.500000  1
  P  P2  1  0.368060  0.368060  0.293874  1
  P  P3  1  0.631940  0.631940  0.706126  1
  O  O4  1  0.716361  0.236819  0.313997  1
  O  O5  1  0.236819  0.716361  0.313997  1
  O  O6  1  0.283639  0.763181  0.686003  1
  O  O7  1  0.763181  0.283639  0.686003  1
  O  O8  1  0.235493  0.235493  0.439931  1
  O  O9  1  0.764507  0.764507  0.560069  1
  O  O10  1  0.313118  0.313118  0.114123  1
  O  O11  1  0.686882  0.686882  0.885877  1
