# generated using pymatgen
data_LiPr3CoP6Rh7
_symmetry_space_group_name_H-M   'P 1'
_cell_length_a   3.94130200
_cell_length_b   11.30024100
_cell_length_c   13.01718400
_cell_angle_alpha   90.00000000
_cell_angle_beta   90.00000000
_cell_angle_gamma   90.00000000
_symmetry_Int_Tables_number   1
_chemical_formula_structural   LiPr3CoP6Rh7
_chemical_formula_sum   'Li2 Pr6 Co2 P12 Rh14'
_cell_volume   579.75494709
_cell_formula_units_Z   2
loop_
 _symmetry_equiv_pos_site_id
 _symmetry_equiv_pos_as_xyz
  1  'x, y, z'
loop_
 _atom_site_type_symbol
 _atom_site_label
 _atom_site_symmetry_multiplicity
 _atom_site_fract_x
 _atom_site_fract_y
 _atom_site_fract_z
 _atom_site_occupancy
  Li  Li0  1  0.500000  0.500000  0.154618  1
  Li  Li1  1  0.000000  0.000000  0.845382  1
  Pr  Pr2  1  0.000000  0.500000  0.516966  1
  Pr  Pr3  1  0.500000  0.000000  0.483034  1
  Pr  Pr4  1  0.500000  0.820155  0.201729  1
  Pr  Pr5  1  0.500000  0.179845  0.201729  1
  Pr  Pr6  1  0.000000  0.679845  0.798271  1
  Pr  Pr7  1  0.000000  0.320155  0.798271  1
  Co  Co8  1  0.000000  0.500000  0.988251  1
  Co  Co9  1  0.500000  0.000000  0.011749  1
  P  P10  1  0.500000  0.500000  0.888719  1
  P  P11  1  0.000000  0.000000  0.111281  1
  P  P12  1  0.500000  0.500000  0.340429  1
  P  P13  1  0.000000  0.000000  0.659571  1
  P  P14  1  0.500000  0.309978  0.617616  1
  P  P15  1  0.500000  0.690022  0.617616  1
  P  P16  1  0.000000  0.190022  0.382384  1
  P  P17  1  0.000000  0.809978  0.382384  1
  P  P18  1  0.500000  0.849941  0.897016  1
  P  P19  1  0.500000  0.150059  0.897016  1
  P  P20  1  0.000000  0.650059  0.102984  1
  P  P21  1  0.000000  0.349941  0.102984  1
  Rh  Rh22  1  0.500000  0.500000  0.704309  1
  Rh  Rh23  1  0.000000  0.000000  0.295691  1
  Rh  Rh24  1  0.500000  0.335791  0.999005  1
  Rh  Rh25  1  0.500000  0.664209  0.999005  1
  Rh  Rh26  1  0.000000  0.164209  0.000995  1
  Rh  Rh27  1  0.000000  0.835791  0.000995  1
  Rh  Rh28  1  0.500000  0.291570  0.430485  1
  Rh  Rh29  1  0.500000  0.708430  0.430485  1
  Rh  Rh30  1  0.000000  0.208430  0.569515  1
  Rh  Rh31  1  0.000000  0.791570  0.569515  1
  Rh  Rh32  1  0.500000  0.876305  0.710878  1
  Rh  Rh33  1  0.500000  0.123695  0.710878  1
  Rh  Rh34  1  0.000000  0.623695  0.289122  1
  Rh  Rh35  1  0.000000  0.376305  0.289122  1
