# generated using pymatgen
data_NaCa2NdB24
_symmetry_space_group_name_H-M   'P 1'
_cell_length_a   7.18731738
_cell_length_b   7.18731642
_cell_length_c   5.86782800
_cell_angle_alpha   90.00000000
_cell_angle_beta   90.00000000
_cell_angle_gamma   109.48562833
_symmetry_Int_Tables_number   1
_chemical_formula_structural   NaCa2NdB24
_chemical_formula_sum   'Na1 Ca2 Nd1 B24'
_cell_volume   285.75647207
_cell_formula_units_Z   1
loop_
 _symmetry_equiv_pos_site_id
 _symmetry_equiv_pos_as_xyz
  1  'x, y, z'
loop_
 _atom_site_type_symbol
 _atom_site_label
 _atom_site_symmetry_multiplicity
 _atom_site_fract_x
 _atom_site_fract_y
 _atom_site_fract_z
 _atom_site_occupancy
  Na  Na0  1  0.999232  0.000768  0.000000  1
  Ca  Ca1  1  0.751652  0.248348  0.500000  1
  Ca  Ca2  1  0.501446  0.498554  0.000000  1
  Nd  Nd3  1  0.247625  0.752375  0.500000  1
  B  B4  1  0.176141  0.324915  0.649681  1
  B  B5  1  0.925310  0.574931  0.148828  1
  B  B6  1  0.675085  0.823859  0.649681  1
  B  B7  1  0.425069  0.074690  0.148828  1
  B  B8  1  0.176141  0.324915  0.350319  1
  B  B9  1  0.925310  0.574931  0.851172  1
  B  B10  1  0.675085  0.823859  0.350319  1
  B  B11  1  0.425069  0.074690  0.851172  1
  B  B12  1  0.400473  0.398796  0.500000  1
  B  B13  1  0.148573  0.650267  0.000000  1
  B  B14  1  0.898236  0.899752  0.500000  1
  B  B15  1  0.649955  0.148374  0.000000  1
  B  B16  1  0.324789  0.176111  0.649773  1
  B  B17  1  0.075235  0.425519  0.148765  1
  B  B18  1  0.823889  0.675211  0.649773  1
  B  B19  1  0.574481  0.924765  0.148765  1
  B  B20  1  0.100248  0.101764  0.500000  1
  B  B21  1  0.851626  0.350045  0.000000  1
  B  B22  1  0.601204  0.599527  0.500000  1
  B  B23  1  0.349733  0.851427  0.000000  1
  B  B24  1  0.324789  0.176111  0.350227  1
  B  B25  1  0.075235  0.425519  0.851235  1
  B  B26  1  0.823889  0.675211  0.350227  1
  B  B27  1  0.574481  0.924765  0.851235  1
