# generated using pymatgen
data_Hf3ZrNbSi3N
_symmetry_space_group_name_H-M   'P 1'
_cell_length_a   7.83537300
_cell_length_b   7.80824062
_cell_length_c   5.48419800
_cell_angle_alpha   89.99827447
_cell_angle_beta   90.00343912
_cell_angle_gamma   120.11500075
_symmetry_Int_Tables_number   1
_chemical_formula_structural   Hf3ZrNbSi3N
_chemical_formula_sum   'Hf6 Zr2 Nb2 Si6 N2'
_cell_volume   290.23660366
_cell_formula_units_Z   2
loop_
 _symmetry_equiv_pos_site_id
 _symmetry_equiv_pos_as_xyz
  1  'x, y, z'
loop_
 _atom_site_type_symbol
 _atom_site_label
 _atom_site_symmetry_multiplicity
 _atom_site_fract_x
 _atom_site_fract_y
 _atom_site_fract_z
 _atom_site_occupancy
  Hf  Hf0  1  0.001390  0.233775  0.250326  1
  Hf  Hf1  1  0.998610  0.766225  0.749674  1
  Hf  Hf2  1  0.767615  0.766225  0.250326  1
  Hf  Hf3  1  0.232385  0.233775  0.749674  1
  Hf  Hf4  1  0.332795  0.665591  0.000000  1
  Hf  Hf5  1  0.667205  0.334409  0.000000  1
  Zr  Zr6  1  0.240204  0.000000  0.249045  1
  Zr  Zr7  1  0.759796  0.000000  0.750955  1
  Nb  Nb8  1  0.667259  0.334518  0.500000  1
  Nb  Nb9  1  0.332741  0.665482  0.500000  1
  Si  Si10  1  0.595304  0.000000  0.259330  1
  Si  Si11  1  0.404696  0.000000  0.740670  1
  Si  Si12  1  0.999644  0.590873  0.260563  1
  Si  Si13  1  0.000356  0.409127  0.739437  1
  Si  Si14  1  0.408771  0.409127  0.260563  1
  Si  Si15  1  0.591229  0.590873  0.739437  1
  N  N16  1  0.000000  0.000000  0.000000  1
  N  N17  1  0.000000  0.000000  0.500000  1
