# generated using pymatgen
data_HoSb5(BrO4)2
_symmetry_space_group_name_H-M   'P 1'
_cell_length_a   5.66089100
_cell_length_b   5.65005009
_cell_length_c   8.99823200
_cell_angle_alpha   87.29444486
_cell_angle_beta   90.00000000
_cell_angle_gamma   90.00000000
_symmetry_Int_Tables_number   1
_chemical_formula_structural   HoSb5(BrO4)2
_chemical_formula_sum   'Ho1 Sb5 Br2 O8'
_cell_volume   287.48149889
_cell_formula_units_Z   1
loop_
 _symmetry_equiv_pos_site_id
 _symmetry_equiv_pos_as_xyz
  1  'x, y, z'
loop_
 _atom_site_type_symbol
 _atom_site_label
 _atom_site_symmetry_multiplicity
 _atom_site_fract_x
 _atom_site_fract_y
 _atom_site_fract_z
 _atom_site_occupancy
  Ho  Ho0  1  0.770714  0.750000  0.500000  1
  Sb  Sb1  1  0.691036  0.293545  0.784515  1
  Sb  Sb2  1  0.168537  0.250000  0.500000  1
  Sb  Sb3  1  0.691036  0.206455  0.215485  1
  Sb  Sb4  1  0.308379  0.699365  0.216632  1
  Sb  Sb5  1  0.308379  0.800635  0.783368  1
  Br  Br6  1  0.777725  0.750000  0.000000  1
  Br  Br7  1  0.232699  0.250000  0.000000  1
  O  O8  1  0.070782  0.914029  0.632429  1
  O  O9  1  0.070782  0.585971  0.367571  1
  O  O10  1  0.916968  0.091049  0.374853  1
  O  O11  1  0.916968  0.408951  0.625147  1
  O  O12  1  0.486451  0.547743  0.668752  1
  O  O13  1  0.551548  0.480080  0.326709  1
  O  O14  1  0.486451  0.952257  0.331248  1
  O  O15  1  0.551548  0.019920  0.673291  1
