# generated using pymatgen
data_NaIn3(GaI4)4
_symmetry_space_group_name_H-M   'P 1'
_cell_length_a   8.55424700
_cell_length_b   8.79321600
_cell_length_c   15.69199401
_cell_angle_alpha   90.00315813
_cell_angle_beta   90.00000000
_cell_angle_gamma   90.00000000
_symmetry_Int_Tables_number   1
_chemical_formula_structural   NaIn3(GaI4)4
_chemical_formula_sum   'Na1 In3 Ga4 I16'
_cell_volume   1180.34145599
_cell_formula_units_Z   1
loop_
 _symmetry_equiv_pos_site_id
 _symmetry_equiv_pos_as_xyz
  1  'x, y, z'
loop_
 _atom_site_type_symbol
 _atom_site_label
 _atom_site_symmetry_multiplicity
 _atom_site_fract_x
 _atom_site_fract_y
 _atom_site_fract_z
 _atom_site_occupancy
  Na  Na0  1  0.250000  0.053970  0.650798  1
  In  In1  1  0.750000  0.552105  0.847677  1
  In  In2  1  0.750000  0.946068  0.348662  1
  In  In3  1  0.250000  0.444025  0.151822  1
  Ga  Ga4  1  0.250000  0.201751  0.400266  1
  Ga  Ga5  1  0.750000  0.704197  0.103003  1
  Ga  Ga6  1  0.750000  0.802122  0.602372  1
  Ga  Ga7  1  0.250000  0.293827  0.894630  1
  I  I8  1  0.250000  0.363609  0.536888  1
  I  I9  1  0.750000  0.874935  0.969571  1
  I  I10  1  0.750000  0.624476  0.471654  1
  I  I11  1  0.250000  0.123731  0.028705  1
  I  I12  1  0.250000  0.918088  0.444418  1
  I  I13  1  0.750000  0.418712  0.061497  1
  I  I14  1  0.750000  0.086505  0.559863  1
  I  I15  1  0.250000  0.579170  0.936228  1
  I  I16  1  0.010370  0.229678  0.798932  1
  I  I17  1  0.996316  0.746579  0.695284  1
  I  I18  1  0.506509  0.765086  0.196459  1
  I  I19  1  0.491679  0.265013  0.305299  1
  I  I20  1  0.993491  0.765086  0.196459  1
  I  I21  1  0.008321  0.265013  0.305299  1
  I  I22  1  0.489630  0.229678  0.798932  1
  I  I23  1  0.503684  0.746579  0.695284  1
