# generated using pymatgen
data_Nd4ErIr3
_symmetry_space_group_name_H-M   'P 1'
_cell_length_a   11.18763900
_cell_length_b   11.18763900
_cell_length_c   6.49939600
_cell_angle_alpha   90.00000000
_cell_angle_beta   90.00000000
_cell_angle_gamma   90.00000000
_symmetry_Int_Tables_number   1
_chemical_formula_structural   Nd4ErIr3
_chemical_formula_sum   'Nd16 Er4 Ir12'
_cell_volume   813.48563295
_cell_formula_units_Z   4
loop_
 _symmetry_equiv_pos_site_id
 _symmetry_equiv_pos_as_xyz
  1  'x, y, z'
loop_
 _atom_site_type_symbol
 _atom_site_label
 _atom_site_symmetry_multiplicity
 _atom_site_fract_x
 _atom_site_fract_y
 _atom_site_fract_z
 _atom_site_occupancy
  Nd  Nd0  1  0.288862  0.087711  0.379164  1
  Nd  Nd1  1  0.288862  0.912289  0.879164  1
  Nd  Nd2  1  0.711138  0.087711  0.879164  1
  Nd  Nd3  1  0.711138  0.912289  0.379164  1
  Nd  Nd4  1  0.587711  0.788862  0.879164  1
  Nd  Nd5  1  0.587711  0.211138  0.379164  1
  Nd  Nd6  1  0.412289  0.788862  0.379164  1
  Nd  Nd7  1  0.412289  0.211138  0.879164  1
  Nd  Nd8  1  0.211138  0.412289  0.620836  1
  Nd  Nd9  1  0.211138  0.587711  0.120836  1
  Nd  Nd10  1  0.788862  0.412289  0.120836  1
  Nd  Nd11  1  0.788862  0.587711  0.620836  1
  Nd  Nd12  1  0.912289  0.711138  0.120836  1
  Nd  Nd13  1  0.912289  0.288862  0.620836  1
  Nd  Nd14  1  0.087711  0.711138  0.620836  1
  Nd  Nd15  1  0.087711  0.288862  0.120836  1
  Er  Er16  1  0.000000  0.000000  0.500000  1
  Er  Er17  1  0.000000  0.000000  0.000000  1
  Er  Er18  1  0.500000  0.500000  0.000000  1
  Er  Er19  1  0.500000  0.500000  0.500000  1
  Ir  Ir20  1  0.850978  0.149022  0.250000  1
  Ir  Ir21  1  0.850978  0.850978  0.750000  1
  Ir  Ir22  1  0.149022  0.149022  0.750000  1
  Ir  Ir23  1  0.149022  0.850978  0.250000  1
  Ir  Ir24  1  0.649022  0.350978  0.750000  1
  Ir  Ir25  1  0.649022  0.649022  0.250000  1
  Ir  Ir26  1  0.350978  0.350978  0.250000  1
  Ir  Ir27  1  0.350978  0.649022  0.750000  1
  Ir  Ir28  1  0.500000  0.000000  0.118930  1
  Ir  Ir29  1  0.500000  0.000000  0.618930  1
  Ir  Ir30  1  0.000000  0.500000  0.881070  1
  Ir  Ir31  1  0.000000  0.500000  0.381070  1
