# generated using pymatgen
data_Zn11CoPt
_symmetry_space_group_name_H-M   'P 1'
_cell_length_a   7.87407484
_cell_length_b   7.87407544
_cell_length_c   7.86464814
_cell_angle_alpha   109.52414567
_cell_angle_beta   109.52414637
_cell_angle_gamma   109.41403534
_symmetry_Int_Tables_number   1
_chemical_formula_structural   Zn11CoPt
_chemical_formula_sum   'Zn22 Co2 Pt2'
_cell_volume   375.14140886
_cell_formula_units_Z   2
loop_
 _symmetry_equiv_pos_site_id
 _symmetry_equiv_pos_as_xyz
  1  'x, y, z'
loop_
 _atom_site_type_symbol
 _atom_site_label
 _atom_site_symmetry_multiplicity
 _atom_site_fract_x
 _atom_site_fract_y
 _atom_site_fract_z
 _atom_site_occupancy
  Zn  Zn0  1  0.357229  0.357229  0.000000  1
  Zn  Zn1  1  0.996058  0.639940  0.642212  1
  Zn  Zn2  1  0.353846  0.997728  0.357788  1
  Zn  Zn3  1  0.997728  0.353846  0.357788  1
  Zn  Zn4  1  0.639940  0.996058  0.642212  1
  Zn  Zn5  1  0.643316  0.643316  0.000000  1
  Zn  Zn6  1  0.207340  0.207340  0.216539  1
  Zn  Zn7  1  0.990801  0.990801  0.783461  1
  Zn  Zn8  1  0.992823  0.786730  0.000000  1
  Zn  Zn9  1  0.786730  0.992823  0.000000  1
  Zn  Zn10  1  0.385714  0.729145  0.727306  1
  Zn  Zn11  1  0.658408  0.001839  0.272694  1
  Zn  Zn12  1  0.651043  0.271003  0.000000  1
  Zn  Zn13  1  0.001839  0.658408  0.272694  1
  Zn  Zn14  1  0.729145  0.385714  0.727306  1
  Zn  Zn15  1  0.271003  0.651043  0.000000  1
  Zn  Zn16  1  0.004037  0.255357  0.642704  1
  Zn  Zn17  1  0.255357  0.004037  0.642704  1
  Zn  Zn18  1  0.739165  0.739165  0.385933  1
  Zn  Zn19  1  0.612653  0.361333  0.357296  1
  Zn  Zn20  1  0.361333  0.612653  0.357296  1
  Zn  Zn21  1  0.353232  0.353232  0.614067  1
  Co  Co22  1  0.000676  0.000676  0.341772  1
  Co  Co23  1  0.658904  0.658904  0.658228  1
  Pt  Pt24  1  0.349599  0.002078  0.000000  1
  Pt  Pt25  1  0.002078  0.349599  0.000000  1
