# generated using pymatgen
data_K4MnZnI8
_symmetry_space_group_name_H-M   'P 1'
_cell_length_a   8.02945930
_cell_length_b   8.31823400
_cell_length_c   9.81432245
_cell_angle_alpha   90.00000000
_cell_angle_beta   107.99648412
_cell_angle_gamma   90.00000000
_symmetry_Int_Tables_number   1
_chemical_formula_structural   K4MnZnI8
_chemical_formula_sum   'K4 Mn1 Zn1 I8'
_cell_volume   623.43724053
_cell_formula_units_Z   1
loop_
 _symmetry_equiv_pos_site_id
 _symmetry_equiv_pos_as_xyz
  1  'x, y, z'
loop_
 _atom_site_type_symbol
 _atom_site_label
 _atom_site_symmetry_multiplicity
 _atom_site_fract_x
 _atom_site_fract_y
 _atom_site_fract_z
 _atom_site_occupancy
  K  K0  1  0.218894  0.250000  0.551711  1
  K  K1  1  0.781783  0.750000  0.448782  1
  K  K2  1  0.261725  0.250000  0.066969  1
  K  K3  1  0.738458  0.750000  0.932571  1
  Mn  Mn4  1  0.225216  0.750000  0.300331  1
  Zn  Zn5  1  0.776030  0.250000  0.700053  1
  I  I6  1  0.596435  0.250000  0.425470  1
  I  I7  1  0.406573  0.750000  0.580362  1
  I  I8  1  0.002546  0.002332  0.239678  1
  I  I9  1  0.993078  0.000643  0.759273  1
  I  I10  1  0.993078  0.499357  0.759273  1
  I  I11  1  0.002546  0.497668  0.239678  1
  I  I12  1  0.578716  0.250000  0.870638  1
  I  I13  1  0.424921  0.750000  0.125211  1
