# generated using pymatgen
data_Tm3Cd13Hg2
_symmetry_space_group_name_H-M   'P 1'
_cell_length_a   16.27635107
_cell_length_b   16.27635130
_cell_length_c   6.96763542
_cell_angle_alpha   93.04304406
_cell_angle_beta   93.04304447
_cell_angle_gamma   13.22373323
_symmetry_Int_Tables_number   1
_chemical_formula_structural   Tm3Cd13Hg2
_chemical_formula_sum   'Tm3 Cd13 Hg2'
_cell_volume   421.64543511
_cell_formula_units_Z   1
loop_
 _symmetry_equiv_pos_site_id
 _symmetry_equiv_pos_as_xyz
  1  'x, y, z'
loop_
 _atom_site_type_symbol
 _atom_site_label
 _atom_site_symmetry_multiplicity
 _atom_site_fract_x
 _atom_site_fract_y
 _atom_site_fract_z
 _atom_site_occupancy
  Tm  Tm0  1  0.000986  0.000986  0.989990  1
  Tm  Tm1  1  0.666864  0.666864  0.336340  1
  Tm  Tm2  1  0.883756  0.883756  0.456624  1
  Cd  Cd3  1  0.106528  0.106528  0.034407  1
  Cd  Cd4  1  0.228733  0.228733  0.114675  1
  Cd  Cd5  1  0.330798  0.330798  0.162805  1
  Cd  Cd6  1  0.443288  0.443288  0.226355  1
  Cd  Cd7  1  0.556216  0.556216  0.275587  1
  Cd  Cd8  1  0.778937  0.778937  0.396910  1
  Cd  Cd9  1  0.996753  0.996753  0.478539  1
  Cd  Cd10  1  0.222558  0.222558  0.611182  1
  Cd  Cd11  1  0.445143  0.445143  0.714711  1
  Cd  Cd12  1  0.555449  0.555449  0.740391  1
  Cd  Cd13  1  0.669569  0.669569  0.867330  1
  Cd  Cd14  1  0.775285  0.775285  0.878205  1
  Cd  Cd15  1  0.893301  0.893301  0.960911  1
  Hg  Hg16  1  0.112829  0.112829  0.558386  1
  Hg  Hg17  1  0.333007  0.333007  0.696650  1
