# generated using pymatgen
data_Co(Cu3O4)2
_symmetry_space_group_name_H-M   'P 1'
_cell_length_a   6.43161117
_cell_length_b   6.43161038
_cell_length_c   6.43161100
_cell_angle_alpha   60.00000196
_cell_angle_beta   60.00000603
_cell_angle_gamma   60.00000292
_symmetry_Int_Tables_number   1
_chemical_formula_structural   Co(Cu3O4)2
_chemical_formula_sum   'Co1 Cu6 O8'
_cell_volume   188.12404821
_cell_formula_units_Z   1
loop_
 _symmetry_equiv_pos_site_id
 _symmetry_equiv_pos_as_xyz
  1  'x, y, z'
loop_
 _atom_site_type_symbol
 _atom_site_label
 _atom_site_symmetry_multiplicity
 _atom_site_fract_x
 _atom_site_fract_y
 _atom_site_fract_z
 _atom_site_occupancy
  Co  Co0  1  0.000000  0.000000  0.000000  1
  Cu  Cu1  1  0.000000  0.000000  0.500000  1
  Cu  Cu2  1  0.500000  0.000000  0.000000  1
  Cu  Cu3  1  0.000000  0.500000  0.000000  1
  Cu  Cu4  1  0.500000  0.500000  0.000000  1
  Cu  Cu5  1  0.000000  0.500000  0.500000  1
  Cu  Cu6  1  0.500000  0.000000  0.500000  1
  O  O7  1  0.140079  0.140079  0.579764  1
  O  O8  1  0.140079  0.579764  0.140079  1
  O  O9  1  0.579764  0.140079  0.140079  1
  O  O10  1  0.859921  0.420236  0.859921  1
  O  O11  1  0.140079  0.140079  0.140079  1
  O  O12  1  0.859921  0.859921  0.859921  1
  O  O13  1  0.859921  0.859921  0.420236  1
  O  O14  1  0.420236  0.859921  0.859921  1
