# generated using pymatgen
data_Sc3Pd4
_symmetry_space_group_name_H-M   'P 1'
_cell_length_a   7.43382254
_cell_length_b   7.43382238
_cell_length_c   7.43382329
_cell_angle_alpha   113.95476934
_cell_angle_beta   113.95477629
_cell_angle_gamma   113.95476357
_symmetry_Int_Tables_number   1
_chemical_formula_structural   Sc3Pd4
_chemical_formula_sum   'Sc6 Pd8'
_cell_volume   250.42064568
_cell_formula_units_Z   2
loop_
 _symmetry_equiv_pos_site_id
 _symmetry_equiv_pos_as_xyz
  1  'x, y, z'
loop_
 _atom_site_type_symbol
 _atom_site_label
 _atom_site_symmetry_multiplicity
 _atom_site_fract_x
 _atom_site_fract_y
 _atom_site_fract_z
 _atom_site_occupancy
  Sc  Sc0  1  0.267613  0.399770  0.010593  1
  Sc  Sc1  1  0.399770  0.010593  0.267613  1
  Sc  Sc2  1  0.010593  0.267613  0.399770  1
  Sc  Sc3  1  0.732387  0.600230  0.989407  1
  Sc  Sc4  1  0.600230  0.989407  0.732387  1
  Sc  Sc5  1  0.989407  0.732387  0.600230  1
  Pd  Pd6  1  0.000000  0.000000  0.000000  1
  Pd  Pd7  1  0.500000  0.500000  0.500000  1
  Pd  Pd8  1  0.550106  0.240068  0.077960  1
  Pd  Pd9  1  0.240068  0.077960  0.550106  1
  Pd  Pd10  1  0.077960  0.550106  0.240068  1
  Pd  Pd11  1  0.449894  0.759932  0.922040  1
  Pd  Pd12  1  0.759932  0.922040  0.449894  1
  Pd  Pd13  1  0.922040  0.449894  0.759932  1
