# generated using pymatgen
data_Rb8NdNp3Br20
_symmetry_space_group_name_H-M   'P 1'
_cell_length_a   8.80961591
_cell_length_b   9.39776200
_cell_length_c   14.18196348
_cell_angle_alpha   90.00000000
_cell_angle_beta   90.21535615
_cell_angle_gamma   90.00000000
_symmetry_Int_Tables_number   1
_chemical_formula_structural   Rb8NdNp3Br20
_chemical_formula_sum   'Rb8 Nd1 Np3 Br20'
_cell_volume   1174.12601638
_cell_formula_units_Z   1
loop_
 _symmetry_equiv_pos_site_id
 _symmetry_equiv_pos_as_xyz
  1  'x, y, z'
loop_
 _atom_site_type_symbol
 _atom_site_label
 _atom_site_symmetry_multiplicity
 _atom_site_fract_x
 _atom_site_fract_y
 _atom_site_fract_z
 _atom_site_occupancy
  Rb  Rb0  1  0.947165  0.004957  0.827386  1
  Rb  Rb1  1  0.053256  0.995632  0.172399  1
  Rb  Rb2  1  0.446738  0.995493  0.672130  1
  Rb  Rb3  1  0.053256  0.504368  0.172399  1
  Rb  Rb4  1  0.553165  0.004739  0.328029  1
  Rb  Rb5  1  0.947165  0.495043  0.827386  1
  Rb  Rb6  1  0.553165  0.495261  0.328029  1
  Rb  Rb7  1  0.446738  0.504507  0.672130  1
  Nd  Nd8  1  0.574025  0.750000  0.003742  1
  Np  Np9  1  0.927805  0.750000  0.503578  1
  Np  Np10  1  0.072860  0.250000  0.495891  1
  Np  Np11  1  0.428026  0.250000  0.996488  1
  Br  Br12  1  0.119386  0.750000  0.673271  1
  Br  Br13  1  0.880265  0.250000  0.326380  1
  Br  Br14  1  0.620008  0.250000  0.826444  1
  Br  Br15  1  0.379888  0.750000  0.173595  1
  Br  Br16  1  0.839907  0.042625  0.573855  1
  Br  Br17  1  0.160103  0.957659  0.426463  1
  Br  Br18  1  0.338998  0.958073  0.926365  1
  Br  Br19  1  0.160103  0.542341  0.426463  1
  Br  Br20  1  0.659924  0.042454  0.073560  1
  Br  Br21  1  0.839907  0.457375  0.573855  1
  Br  Br22  1  0.659924  0.457546  0.073560  1
  Br  Br23  1  0.338998  0.541927  0.926365  1
  Br  Br24  1  0.587728  0.750000  0.509722  1
  Br  Br25  1  0.412679  0.250000  0.490304  1
  Br  Br26  1  0.088050  0.250000  0.990153  1
  Br  Br27  1  0.912099  0.750000  0.010166  1
  Br  Br28  1  0.657957  0.750000  0.802466  1
  Br  Br29  1  0.341655  0.250000  0.197294  1
  Br  Br30  1  0.157860  0.250000  0.697194  1
  Br  Br31  1  0.841197  0.750000  0.302937  1
