# generated using pymatgen
data_La7Tb3(InSb)4
_symmetry_space_group_name_H-M   'P 1'
_cell_length_a   9.21023801
_cell_length_b   9.09939070
_cell_length_c   8.46129666
_cell_angle_alpha   90.10714439
_cell_angle_beta   90.25522512
_cell_angle_gamma   124.83804435
_symmetry_Int_Tables_number   1
_chemical_formula_structural   La7Tb3(InSb)4
_chemical_formula_sum   'La7 Tb3 In4 Sb4'
_cell_volume   582.01075546
_cell_formula_units_Z   1
loop_
 _symmetry_equiv_pos_site_id
 _symmetry_equiv_pos_as_xyz
  1  'x, y, z'
loop_
 _atom_site_type_symbol
 _atom_site_label
 _atom_site_symmetry_multiplicity
 _atom_site_fract_x
 _atom_site_fract_y
 _atom_site_fract_z
 _atom_site_occupancy
  La  La0  1  0.033724  0.314635  0.330821  1
  La  La1  1  0.964879  0.682281  0.669315  1
  La  La2  1  0.466132  0.183393  0.830354  1
  La  La3  1  0.812183  0.530940  0.167907  1
  La  La4  1  0.536532  0.817953  0.169937  1
  La  La5  1  0.191843  0.471900  0.832346  1
  La  La6  1  0.691642  0.968738  0.665887  1
  Tb  Tb7  1  0.301314  0.030812  0.337507  1
  Tb  Tb8  1  0.002865  0.001127  0.001527  1
  Tb  Tb9  1  0.497624  0.498484  0.497968  1
  In  In10  1  0.373466  0.371002  0.129504  1
  In  In11  1  0.625659  0.624216  0.874092  1
  In  In12  1  0.128785  0.126212  0.624961  1
  In  In13  1  0.877325  0.873942  0.372935  1
  Sb  Sb14  1  0.806744  0.201030  0.994753  1
  Sb  Sb15  1  0.200400  0.804710  0.010018  1
  Sb  Sb16  1  0.687473  0.291824  0.491599  1
  Sb  Sb17  1  0.301410  0.706801  0.498571  1
