# generated using pymatgen
data_Eu3TmSb3
_symmetry_space_group_name_H-M   'P 1'
_cell_length_a   8.31667400
_cell_length_b   8.31667462
_cell_length_c   8.37940152
_cell_angle_alpha   70.57668131
_cell_angle_beta   70.57667745
_cell_angle_gamma   108.99076993
_symmetry_Int_Tables_number   1
_chemical_formula_structural   Eu3TmSb3
_chemical_formula_sum   'Eu6 Tm2 Sb6'
_cell_volume   449.29840055
_cell_formula_units_Z   2
loop_
 _symmetry_equiv_pos_site_id
 _symmetry_equiv_pos_as_xyz
  1  'x, y, z'
loop_
 _atom_site_type_symbol
 _atom_site_label
 _atom_site_symmetry_multiplicity
 _atom_site_fract_x
 _atom_site_fract_y
 _atom_site_fract_z
 _atom_site_occupancy
  Eu  Eu0  1  0.000815  0.361619  0.494983  1
  Eu  Eu1  1  0.495675  0.496245  0.146680  1
  Eu  Eu2  1  0.642464  0.145619  0.359153  1
  Eu  Eu3  1  0.361619  0.000815  0.994983  1
  Eu  Eu4  1  0.496245  0.495675  0.646680  1
  Eu  Eu5  1  0.145619  0.642464  0.859153  1
  Tm  Tm6  1  0.859246  0.001904  0.997540  1
  Tm  Tm7  1  0.001904  0.859246  0.497540  1
  Sb  Sb8  1  0.643344  0.875342  0.747929  1
  Sb  Sb9  1  0.875342  0.643344  0.247929  1
  Sb  Sb10  1  0.229430  0.112338  0.633206  1
  Sb  Sb11  1  0.758744  0.377214  0.870507  1
  Sb  Sb12  1  0.377214  0.758744  0.370507  1
  Sb  Sb13  1  0.112338  0.229430  0.133206  1
