# generated using pymatgen
data_Zr3Pa5(Pd2Pb)4
_symmetry_space_group_name_H-M   'P 1'
_cell_length_a   7.66287185
_cell_length_b   7.66287203
_cell_length_c   7.33905500
_cell_angle_alpha   90.00000000
_cell_angle_beta   90.00000000
_cell_angle_gamma   89.92869834
_symmetry_Int_Tables_number   1
_chemical_formula_structural   Zr3Pa5(Pd2Pb)4
_chemical_formula_sum   'Zr3 Pa5 Pd8 Pb4'
_cell_volume   430.94608676
_cell_formula_units_Z   1
loop_
 _symmetry_equiv_pos_site_id
 _symmetry_equiv_pos_as_xyz
  1  'x, y, z'
loop_
 _atom_site_type_symbol
 _atom_site_label
 _atom_site_symmetry_multiplicity
 _atom_site_fract_x
 _atom_site_fract_y
 _atom_site_fract_z
 _atom_site_occupancy
  Zr  Zr0  1  0.689424  0.684882  0.000000  1
  Zr  Zr1  1  0.188875  0.811125  0.500000  1
  Zr  Zr2  1  0.315118  0.310576  0.000000  1
  Pa  Pa3  1  0.633661  0.638514  0.500000  1
  Pa  Pa4  1  0.812365  0.187635  0.500000  1
  Pa  Pa5  1  0.864427  0.135573  0.000000  1
  Pa  Pa6  1  0.137687  0.862313  0.000000  1
  Pa  Pa7  1  0.361486  0.366339  0.500000  1
  Pd  Pd8  1  0.631890  0.368110  0.200499  1
  Pd  Pd9  1  0.367928  0.632072  0.800359  1
  Pd  Pd10  1  0.867175  0.866727  0.700320  1
  Pd  Pd11  1  0.631890  0.368110  0.799501  1
  Pd  Pd12  1  0.367928  0.632072  0.199641  1
  Pd  Pd13  1  0.133273  0.132825  0.299680  1
  Pd  Pd14  1  0.867175  0.866727  0.299680  1
  Pd  Pd15  1  0.133273  0.132825  0.700320  1
  Pb  Pb16  1  0.002854  0.504641  0.244018  1
  Pb  Pb17  1  0.495359  0.997146  0.755982  1
  Pb  Pb18  1  0.495359  0.997146  0.244018  1
  Pb  Pb19  1  0.002854  0.504641  0.755982  1
