# generated using pymatgen
data_Ce2Lu2BeRh12
_symmetry_space_group_name_H-M   'P 1'
_cell_length_a   7.09818139
_cell_length_b   7.08683388
_cell_length_c   7.08683472
_cell_angle_alpha   109.41948205
_cell_angle_beta   109.46466908
_cell_angle_gamma   109.46466724
_symmetry_Int_Tables_number   1
_chemical_formula_structural   Ce2Lu2BeRh12
_chemical_formula_sum   'Ce2 Lu2 Be1 Rh12'
_cell_volume   274.64819754
_cell_formula_units_Z   1
loop_
 _symmetry_equiv_pos_site_id
 _symmetry_equiv_pos_as_xyz
  1  'x, y, z'
loop_
 _atom_site_type_symbol
 _atom_site_label
 _atom_site_symmetry_multiplicity
 _atom_site_fract_x
 _atom_site_fract_y
 _atom_site_fract_z
 _atom_site_occupancy
  Ce  Ce0  1  0.500000  0.000000  0.000000  1
  Ce  Ce1  1  0.500000  0.500000  0.500000  1
  Lu  Lu2  1  0.000000  0.000000  0.500000  1
  Lu  Lu3  1  0.000000  0.500000  0.000000  1
  Be  Be4  1  0.000000  0.000000  0.000000  1
  Rh  Rh5  1  0.751366  0.249982  0.501384  1
  Rh  Rh6  1  0.751366  0.501384  0.249982  1
  Rh  Rh7  1  0.500000  0.250000  0.750000  1
  Rh  Rh8  1  0.248634  0.498616  0.750018  1
  Rh  Rh9  1  0.248634  0.750018  0.498616  1
  Rh  Rh10  1  0.500000  0.750000  0.250000  1
  Rh  Rh11  1  0.732949  0.731238  0.001711  1
  Rh  Rh12  1  0.267051  0.998289  0.268762  1
  Rh  Rh13  1  0.000000  0.268983  0.268983  1
  Rh  Rh14  1  0.267051  0.268762  0.998289  1
  Rh  Rh15  1  0.732949  0.001711  0.731238  1
  Rh  Rh16  1  0.000000  0.731017  0.731017  1
