# generated using pymatgen
data_Eu3FeN3
_symmetry_space_group_name_H-M   'P 1'
_cell_length_a   7.39766800
_cell_length_b   7.39766764
_cell_length_c   5.09017500
_cell_angle_alpha   90.00000000
_cell_angle_beta   90.00000000
_cell_angle_gamma   120.00000161
_symmetry_Int_Tables_number   1
_chemical_formula_structural   Eu3FeN3
_chemical_formula_sum   'Eu6 Fe2 N6'
_cell_volume   241.24203899
_cell_formula_units_Z   2
loop_
 _symmetry_equiv_pos_site_id
 _symmetry_equiv_pos_as_xyz
  1  'x, y, z'
loop_
 _atom_site_type_symbol
 _atom_site_label
 _atom_site_symmetry_multiplicity
 _atom_site_fract_x
 _atom_site_fract_y
 _atom_site_fract_z
 _atom_site_occupancy
  Eu  Eu0  1  0.279185  0.915551  0.750000  1
  Eu  Eu1  1  0.636365  0.720815  0.750000  1
  Eu  Eu2  1  0.084449  0.363635  0.750000  1
  Eu  Eu3  1  0.720815  0.084449  0.250000  1
  Eu  Eu4  1  0.363635  0.279185  0.250000  1
  Eu  Eu5  1  0.915551  0.636365  0.250000  1
  Fe  Fe6  1  0.333333  0.666667  0.250000  1
  Fe  Fe7  1  0.666667  0.333333  0.750000  1
  N  N8  1  0.308541  0.893666  0.250000  1
  N  N9  1  0.585124  0.691459  0.250000  1
  N  N10  1  0.106334  0.414876  0.250000  1
  N  N11  1  0.691459  0.106334  0.750000  1
  N  N12  1  0.414876  0.308541  0.750000  1
  N  N13  1  0.893666  0.585124  0.750000  1
