# generated using pymatgen
data_Pr3Y(B2Ir5)2
_symmetry_space_group_name_H-M   'P 1'
_cell_length_a   11.14887939
_cell_length_b   11.14887931
_cell_length_c   11.14888105
_cell_angle_alpha   28.75566143
_cell_angle_beta   28.75566163
_cell_angle_gamma   28.75566161
_symmetry_Int_Tables_number   1
_chemical_formula_structural   Pr3Y(B2Ir5)2
_chemical_formula_sum   'Pr3 Y1 B4 Ir10'
_cell_volume   283.57069037
_cell_formula_units_Z   1
loop_
 _symmetry_equiv_pos_site_id
 _symmetry_equiv_pos_as_xyz
  1  'x, y, z'
loop_
 _atom_site_type_symbol
 _atom_site_label
 _atom_site_symmetry_multiplicity
 _atom_site_fract_x
 _atom_site_fract_y
 _atom_site_fract_z
 _atom_site_occupancy
  Pr  Pr0  1  0.151430  0.151430  0.151430  1
  Pr  Pr1  1  0.950552  0.950552  0.950552  1
  Pr  Pr2  1  0.848406  0.848406  0.848406  1
  Y  Y3  1  0.049526  0.049526  0.049526  1
  B  B4  1  0.618499  0.618499  0.618499  1
  B  B5  1  0.716215  0.716215  0.716215  1
  B  B6  1  0.381633  0.381633  0.381633  1
  B  B7  1  0.284029  0.284029  0.284029  1
  Ir  Ir8  1  0.408483  0.898338  0.408483  1
  Ir  Ir9  1  0.898338  0.408483  0.408483  1
  Ir  Ir10  1  0.500622  0.500622  0.000328  1
  Ir  Ir11  1  0.500622  0.000328  0.500622  1
  Ir  Ir12  1  0.000328  0.500622  0.500622  1
  Ir  Ir13  1  0.499783  0.499783  0.499783  1
  Ir  Ir14  1  0.590875  0.101299  0.590875  1
  Ir  Ir15  1  0.590875  0.590875  0.101299  1
  Ir  Ir16  1  0.101299  0.590875  0.590875  1
  Ir  Ir17  1  0.408483  0.408483  0.898338  1
