# generated using pymatgen
data_La8Er9Sc3Sn16
_symmetry_space_group_name_H-M   'P 1'
_cell_length_a   7.94945000
_cell_length_b   8.28065993
_cell_length_c   15.41953200
_cell_angle_alpha   90.00000000
_cell_angle_beta   90.00000000
_cell_angle_gamma   89.96085100
_symmetry_Int_Tables_number   1
_chemical_formula_structural   La8Er9Sc3Sn16
_chemical_formula_sum   'La8 Er9 Sc3 Sn16'
_cell_volume   1015.01654842
_cell_formula_units_Z   1
loop_
 _symmetry_equiv_pos_site_id
 _symmetry_equiv_pos_as_xyz
  1  'x, y, z'
loop_
 _atom_site_type_symbol
 _atom_site_label
 _atom_site_symmetry_multiplicity
 _atom_site_fract_x
 _atom_site_fract_y
 _atom_site_fract_z
 _atom_site_occupancy
  La  La0  1  0.998991  0.176044  0.404271  1
  La  La1  1  0.498806  0.324220  0.404231  1
  La  La2  1  0.499996  0.675474  0.904924  1
  La  La3  1  0.499996  0.675474  0.595076  1
  La  La4  1  0.000313  0.823486  0.595036  1
  La  La5  1  0.000313  0.823486  0.904964  1
  La  La6  1  0.498806  0.324220  0.095769  1
  La  La7  1  0.998991  0.176044  0.095729  1
  Er  Er8  1  0.328864  0.162358  0.626347  1
  Er  Er9  1  0.671249  0.838289  0.371749  1
  Er  Er10  1  0.661203  0.000204  0.750000  1
  Er  Er11  1  0.171110  0.661422  0.372436  1
  Er  Er12  1  0.829296  0.338441  0.873229  1
  Er  Er13  1  0.829296  0.338441  0.626771  1
  Er  Er14  1  0.328864  0.162358  0.873653  1
  Er  Er15  1  0.171110  0.661422  0.127564  1
  Er  Er16  1  0.671249  0.838289  0.128251  1
  Sc  Sc17  1  0.840167  0.500954  0.250000  1
  Sc  Sc18  1  0.339928  0.999504  0.250000  1
  Sc  Sc19  1  0.160318  0.498639  0.750000  1
  Sn  Sn20  1  0.300165  0.848928  0.750000  1
  Sn  Sn21  1  0.481472  0.621804  0.250000  1
  Sn  Sn22  1  0.024377  0.126576  0.750000  1
  Sn  Sn23  1  0.517307  0.378706  0.750000  1
  Sn  Sn24  1  0.171024  0.459875  0.543952  1
  Sn  Sn25  1  0.982189  0.877853  0.250000  1
  Sn  Sn26  1  0.694879  0.149658  0.250000  1
  Sn  Sn27  1  0.828274  0.540266  0.044658  1
  Sn  Sn28  1  0.328661  0.959748  0.044903  1
  Sn  Sn29  1  0.171024  0.459875  0.956048  1
  Sn  Sn30  1  0.671853  0.041174  0.541302  1
  Sn  Sn31  1  0.328661  0.959748  0.455097  1
  Sn  Sn32  1  0.828274  0.540266  0.455342  1
  Sn  Sn33  1  0.806431  0.644513  0.750000  1
  Sn  Sn34  1  0.194678  0.351067  0.250000  1
  Sn  Sn35  1  0.671853  0.041174  0.958698  1
