# generated using pymatgen
data_HoScFeSi2Rh
_symmetry_space_group_name_H-M   'P 1'
_cell_length_a   4.16249300
_cell_length_b   6.75307500
_cell_length_c   6.99878100
_cell_angle_alpha   90.00000000
_cell_angle_beta   90.00000000
_cell_angle_gamma   90.00000000
_symmetry_Int_Tables_number   1
_chemical_formula_structural   HoScFeSi2Rh
_chemical_formula_sum   'Ho2 Sc2 Fe2 Si4 Rh2'
_cell_volume   196.73312628
_cell_formula_units_Z   2
loop_
 _symmetry_equiv_pos_site_id
 _symmetry_equiv_pos_as_xyz
  1  'x, y, z'
loop_
 _atom_site_type_symbol
 _atom_site_label
 _atom_site_symmetry_multiplicity
 _atom_site_fract_x
 _atom_site_fract_y
 _atom_site_fract_z
 _atom_site_occupancy
  Ho  Ho0  1  0.250000  0.998022  0.320401  1
  Ho  Ho1  1  0.250000  0.498022  0.179599  1
  Sc  Sc2  1  0.750000  0.518577  0.800647  1
  Sc  Sc3  1  0.750000  0.018577  0.699353  1
  Fe  Fe4  1  0.250000  0.642060  0.571338  1
  Fe  Fe5  1  0.250000  0.142060  0.928662  1
  Si  Si6  1  0.250000  0.803704  0.865967  1
  Si  Si7  1  0.250000  0.303704  0.634033  1
  Si  Si8  1  0.750000  0.202426  0.084606  1
  Si  Si9  1  0.750000  0.702426  0.415394  1
  Rh  Rh10  1  0.750000  0.835211  0.056490  1
  Rh  Rh11  1  0.750000  0.335211  0.443510  1
