# generated using pymatgen
data_CeThHgPt2
_symmetry_space_group_name_H-M   'P 1'
_cell_length_a   7.96751900
_cell_length_b   7.98190900
_cell_length_c   3.75006800
_cell_angle_alpha   90.00000000
_cell_angle_beta   90.00000000
_cell_angle_gamma   90.00000000
_symmetry_Int_Tables_number   1
_chemical_formula_structural   CeThHgPt2
_chemical_formula_sum   'Ce2 Th2 Hg2 Pt4'
_cell_volume   238.48936808
_cell_formula_units_Z   2
loop_
 _symmetry_equiv_pos_site_id
 _symmetry_equiv_pos_as_xyz
  1  'x, y, z'
loop_
 _atom_site_type_symbol
 _atom_site_label
 _atom_site_symmetry_multiplicity
 _atom_site_fract_x
 _atom_site_fract_y
 _atom_site_fract_z
 _atom_site_occupancy
  Ce  Ce0  1  0.827066  0.671962  0.500000  1
  Ce  Ce1  1  0.672934  0.171962  0.500000  1
  Th  Th2  1  0.169018  0.328478  0.500000  1
  Th  Th3  1  0.330982  0.828478  0.500000  1
  Hg  Hg4  1  0.504873  0.498049  0.000000  1
  Hg  Hg5  1  0.995127  0.998049  0.000000  1
  Pt  Pt6  1  0.628250  0.871529  0.000000  1
  Pt  Pt7  1  0.129906  0.629982  0.000000  1
  Pt  Pt8  1  0.871750  0.371529  0.000000  1
  Pt  Pt9  1  0.370094  0.129982  0.000000  1
