# generated using pymatgen
data_TmHfSn2IrRh
_symmetry_space_group_name_H-M   'P 1'
_cell_length_a   7.46392400
_cell_length_b   7.46392418
_cell_length_c   7.47754300
_cell_angle_alpha   90.00000000
_cell_angle_beta   90.00000000
_cell_angle_gamma   119.99999922
_symmetry_Int_Tables_number   1
_chemical_formula_structural   TmHfSn2IrRh
_chemical_formula_sum   'Tm3 Hf3 Sn6 Ir3 Rh3'
_cell_volume   360.76465481
_cell_formula_units_Z   3
loop_
 _symmetry_equiv_pos_site_id
 _symmetry_equiv_pos_as_xyz
  1  'x, y, z'
loop_
 _atom_site_type_symbol
 _atom_site_label
 _atom_site_symmetry_multiplicity
 _atom_site_fract_x
 _atom_site_fract_y
 _atom_site_fract_z
 _atom_site_occupancy
  Tm  Tm0  1  0.001561  0.407786  0.749282  1
  Tm  Tm1  1  0.592214  0.593777  0.749282  1
  Tm  Tm2  1  0.406223  0.998439  0.749282  1
  Hf  Hf3  1  0.999672  0.393711  0.250476  1
  Hf  Hf4  1  0.606289  0.605963  0.250476  1
  Hf  Hf5  1  0.394037  0.000328  0.250476  1
  Sn  Sn6  1  0.265704  0.266149  0.495246  1
  Sn  Sn7  1  0.000445  0.734296  0.495246  1
  Sn  Sn8  1  0.998160  0.732666  0.004738  1
  Sn  Sn9  1  0.733851  0.999555  0.495246  1
  Sn  Sn10  1  0.734506  0.001840  0.004738  1
  Sn  Sn11  1  0.267334  0.265494  0.004738  1
  Ir  Ir12  1  0.333333  0.666667  0.463493  1
  Ir  Ir13  1  0.666667  0.333333  0.466506  1
  Ir  Ir14  1  0.333333  0.666667  0.036238  1
  Rh  Rh15  1  0.000000  0.000000  0.749943  1
  Rh  Rh16  1  0.000000  0.000000  0.250152  1
  Rh  Rh17  1  0.666667  0.333333  0.034439  1
