# generated using pymatgen
data_Ti20Ga8SiSe3
_symmetry_space_group_name_H-M   'P 1'
_cell_length_a   6.71134500
_cell_length_b   7.94957700
_cell_length_c   9.87844657
_cell_angle_alpha   89.99735918
_cell_angle_beta   90.05569594
_cell_angle_gamma   89.99884289
_symmetry_Int_Tables_number   1
_chemical_formula_structural   Ti20Ga8SiSe3
_chemical_formula_sum   'Ti20 Ga8 Si1 Se3'
_cell_volume   527.03812769
_cell_formula_units_Z   1
loop_
 _symmetry_equiv_pos_site_id
 _symmetry_equiv_pos_as_xyz
  1  'x, y, z'
loop_
 _atom_site_type_symbol
 _atom_site_label
 _atom_site_symmetry_multiplicity
 _atom_site_fract_x
 _atom_site_fract_y
 _atom_site_fract_z
 _atom_site_occupancy
  Ti  Ti0  1  0.834335  0.749981  0.214356  1
  Ti  Ti1  1  0.665284  0.750009  0.715097  1
  Ti  Ti2  1  0.165997  0.250020  0.783035  1
  Ti  Ti3  1  0.332761  0.249996  0.285388  1
  Ti  Ti4  1  0.327730  0.750002  0.273134  1
  Ti  Ti5  1  0.167671  0.749953  0.779852  1
  Ti  Ti6  1  0.670446  0.249979  0.723900  1
  Ti  Ti7  1  0.828359  0.250015  0.224970  1
  Ti  Ti8  1  0.684152  0.942378  0.438272  1
  Ti  Ti9  1  0.817970  0.561837  0.939778  1
  Ti  Ti10  1  0.315706  0.442126  0.561712  1
  Ti  Ti11  1  0.187919  0.054938  0.060653  1
  Ti  Ti12  1  0.315725  0.057888  0.561733  1
  Ti  Ti13  1  0.187923  0.445092  0.060638  1
  Ti  Ti14  1  0.684147  0.557609  0.438298  1
  Ti  Ti15  1  0.817936  0.938136  0.939767  1
  Ti  Ti16  1  0.012574  0.750021  0.495640  1
  Ti  Ti17  1  0.482470  0.750014  0.997219  1
  Ti  Ti18  1  0.987483  0.250003  0.502910  1
  Ti  Ti19  1  0.516173  0.250005  0.004044  1
  Ga  Ga20  1  0.560846  0.505403  0.175448  1
  Ga  Ga21  1  0.937493  0.994418  0.673767  1
  Ga  Ga22  1  0.437022  0.005351  0.825941  1
  Ga  Ga23  1  0.060925  0.495630  0.322737  1
  Ga  Ga24  1  0.437029  0.494649  0.825945  1
  Ga  Ga25  1  0.060930  0.004376  0.322731  1
  Ga  Ga26  1  0.560842  0.994603  0.175437  1
  Ga  Ga27  1  0.937483  0.505565  0.673772  1
  Si  Si28  1  0.104990  0.750011  0.035609  1
  Se  Se29  1  0.396668  0.749994  0.530067  1
  Se  Se30  1  0.900169  0.249992  0.969472  1
  Se  Se31  1  0.602839  0.250005  0.468675  1
