# generated using pymatgen
data_Tm3CrB7
_symmetry_space_group_name_H-M   'P 1'
_cell_length_a   7.98418528
_cell_length_b   7.98418577
_cell_length_c   9.25517900
_cell_angle_alpha   90.00000000
_cell_angle_beta   90.00000000
_cell_angle_gamma   155.42646075
_symmetry_Int_Tables_number   1
_chemical_formula_structural   Tm3CrB7
_chemical_formula_sum   'Tm6 Cr2 B14'
_cell_volume   245.35453332
_cell_formula_units_Z   2
loop_
 _symmetry_equiv_pos_site_id
 _symmetry_equiv_pos_as_xyz
  1  'x, y, z'
loop_
 _atom_site_type_symbol
 _atom_site_label
 _atom_site_symmetry_multiplicity
 _atom_site_fract_x
 _atom_site_fract_y
 _atom_site_fract_z
 _atom_site_occupancy
  Tm  Tm0  1  0.104918  0.895082  0.059582  1
  Tm  Tm1  1  0.895082  0.104918  0.940418  1
  Tm  Tm2  1  0.758629  0.241371  0.250000  1
  Tm  Tm3  1  0.241371  0.758629  0.750000  1
  Tm  Tm4  1  0.104918  0.895082  0.440418  1
  Tm  Tm5  1  0.895082  0.104918  0.559582  1
  Cr  Cr6  1  0.052779  0.947221  0.750000  1
  Cr  Cr7  1  0.947221  0.052779  0.250000  1
  B  B8  1  0.727414  0.272586  0.531972  1
  B  B9  1  0.272586  0.727414  0.468028  1
  B  B10  1  0.272586  0.727414  0.031972  1
  B  B11  1  0.727414  0.272586  0.968028  1
  B  B12  1  0.520719  0.479281  0.904466  1
  B  B13  1  0.479281  0.520719  0.095534  1
  B  B14  1  0.479281  0.520719  0.404466  1
  B  B15  1  0.520719  0.479281  0.595534  1
  B  B16  1  0.457335  0.542665  0.750000  1
  B  B17  1  0.542665  0.457335  0.250000  1
  B  B18  1  0.631296  0.368704  0.650898  1
  B  B19  1  0.368704  0.631296  0.349102  1
  B  B20  1  0.368704  0.631296  0.150898  1
  B  B21  1  0.631296  0.368704  0.849102  1
