# generated using pymatgen
data_Pr2EuHo4FeI12
_symmetry_space_group_name_H-M   'P 1'
_cell_length_a   9.94163991
_cell_length_b   9.78351003
_cell_length_c   9.92249683
_cell_angle_alpha   106.05371240
_cell_angle_beta   106.52965912
_cell_angle_gamma   107.19950410
_symmetry_Int_Tables_number   1
_chemical_formula_structural   Pr2EuHo4FeI12
_chemical_formula_sum   'Pr2 Eu1 Ho4 Fe1 I12'
_cell_volume   812.41440437
_cell_formula_units_Z   1
loop_
 _symmetry_equiv_pos_site_id
 _symmetry_equiv_pos_as_xyz
  1  'x, y, z'
loop_
 _atom_site_type_symbol
 _atom_site_label
 _atom_site_symmetry_multiplicity
 _atom_site_fract_x
 _atom_site_fract_y
 _atom_site_fract_z
 _atom_site_occupancy
  Pr  Pr0  1  0.588714  0.773880  0.521257  1
  Pr  Pr1  1  0.411286  0.226120  0.478743  1
  Eu  Eu2  1  0.000000  0.000000  0.000000  1
  Ho  Ho3  1  0.797123  0.523971  0.595784  1
  Ho  Ho4  1  0.523630  0.595295  0.796666  1
  Ho  Ho5  1  0.202877  0.476029  0.404216  1
  Ho  Ho6  1  0.476370  0.404705  0.203334  1
  Fe  Fe7  1  0.500000  0.500000  0.500000  1
  I  I8  1  0.732085  0.191449  0.577386  1
  I  I9  1  0.958026  0.871203  0.646167  1
  I  I10  1  0.572765  0.718665  0.174791  1
  I  I11  1  0.131804  0.363778  0.052728  1
  I  I12  1  0.642817  0.950031  0.878048  1
  I  I13  1  0.868196  0.636222  0.947272  1
  I  I14  1  0.041974  0.128797  0.353833  1
  I  I15  1  0.816776  0.428063  0.280382  1
  I  I16  1  0.357183  0.049969  0.121952  1
  I  I17  1  0.267915  0.808551  0.422614  1
  I  I18  1  0.183224  0.571937  0.719618  1
  I  I19  1  0.427235  0.281335  0.825209  1
