# generated using pymatgen
data_Zr7CrCo16(As5P)2
_symmetry_space_group_name_H-M   'P 1'
_cell_length_a   12.43660897
_cell_length_b   12.41868114
_cell_length_c   3.74480600
_cell_angle_alpha   90.00000000
_cell_angle_beta   90.00000000
_cell_angle_gamma   120.06264127
_symmetry_Int_Tables_number   1
_chemical_formula_structural   Zr7CrCo16(As5P)2
_chemical_formula_sum   'Zr7 Cr1 Co16 As10 P2'
_cell_volume   500.56782654
_cell_formula_units_Z   1
loop_
 _symmetry_equiv_pos_site_id
 _symmetry_equiv_pos_as_xyz
  1  'x, y, z'
loop_
 _atom_site_type_symbol
 _atom_site_label
 _atom_site_symmetry_multiplicity
 _atom_site_fract_x
 _atom_site_fract_y
 _atom_site_fract_z
 _atom_site_occupancy
  Zr  Zr0  1  0.556143  0.000131  0.000000  1
  Zr  Zr1  1  0.999814  0.557735  0.000000  1
  Zr  Zr2  1  0.665557  0.333863  0.000000  1
  Zr  Zr3  1  0.332735  0.664466  0.000000  1
  Zr  Zr4  1  0.824913  0.819385  0.500000  1
  Zr  Zr5  1  0.168364  0.999342  0.500000  1
  Zr  Zr6  1  0.005051  0.173570  0.500000  1
  Cr  Cr7  1  0.441695  0.442026  0.000000  1
  Co  Co8  1  0.198318  0.367277  0.000000  1
  Co  Co9  1  0.172835  0.808228  0.000000  1
  Co  Co10  1  0.825503  0.635221  0.000000  1
  Co  Co11  1  0.807169  0.177623  0.000000  1
  Co  Co12  1  0.368121  0.198962  0.000000  1
  Co  Co13  1  0.128405  0.479115  0.500000  1
  Co  Co14  1  0.355285  0.878207  0.500000  1
  Co  Co15  1  0.518762  0.641196  0.500000  1
  Co  Co16  1  0.642197  0.519047  0.500000  1
  Co  Co17  1  0.878893  0.356682  0.500000  1
  Co  Co18  1  0.478698  0.128241  0.500000  1
  Co  Co19  1  0.008259  0.001013  0.000000  1
  Co  Co20  1  0.721155  0.999769  0.500000  1
  Co  Co21  1  0.000171  0.727916  0.500000  1
  Co  Co22  1  0.627968  0.819099  0.000000  1
  Co  Co23  1  0.274665  0.274679  0.500000  1
  As  As24  1  0.642411  0.641455  0.000000  1
  As  As25  1  0.344904  0.004381  0.000000  1
  As  As26  1  0.004569  0.346581  0.000000  1
  As  As27  1  0.480412  0.317501  0.500000  1
  As  As28  1  0.690607  0.175960  0.500000  1
  As  As29  1  0.824889  0.516859  0.500000  1
  As  As30  1  0.515102  0.824054  0.500000  1
  As  As31  1  0.174645  0.691158  0.500000  1
  As  As32  1  0.827611  0.997879  0.000000  1
  As  As33  1  0.317110  0.480282  0.500000  1
  P  P34  1  0.999255  0.824403  0.000000  1
  P  P35  1  0.177804  0.176694  0.000000  1
