# generated using pymatgen
data_Er3In3AgIrRh
_symmetry_space_group_name_H-M   'P 1'
_cell_length_a   7.75608600
_cell_length_b   7.75608679
_cell_length_c   3.78277400
_cell_angle_alpha   90.00000000
_cell_angle_beta   90.00000000
_cell_angle_gamma   119.99998810
_symmetry_Int_Tables_number   1
_chemical_formula_structural   Er3In3AgIrRh
_chemical_formula_sum   'Er3 In3 Ag1 Ir1 Rh1'
_cell_volume   197.07264942
_cell_formula_units_Z   1
loop_
 _symmetry_equiv_pos_site_id
 _symmetry_equiv_pos_as_xyz
  1  'x, y, z'
loop_
 _atom_site_type_symbol
 _atom_site_label
 _atom_site_symmetry_multiplicity
 _atom_site_fract_x
 _atom_site_fract_y
 _atom_site_fract_z
 _atom_site_occupancy
  Er  Er0  1  0.029951  0.614945  0.500000  1
  Er  Er1  1  0.385055  0.415006  0.500000  1
  Er  Er2  1  0.584994  0.970049  0.500000  1
  In  In3  1  0.261698  0.004089  0.000000  1
  In  In4  1  0.742391  0.738302  0.000000  1
  In  In5  1  0.995911  0.257609  0.000000  1
  Ag  Ag6  1  0.666667  0.333333  0.000000  1
  Ir  Ir7  1  0.333333  0.666667  0.000000  1
  Rh  Rh8  1  0.000000  0.000000  0.500000  1
