# generated using pymatgen
data_Sr13Si14F
_symmetry_space_group_name_H-M   'P 1'
_cell_length_a   11.34849475
_cell_length_b   11.34849494
_cell_length_c   16.84880862
_cell_angle_alpha   55.96650376
_cell_angle_beta   55.96650384
_cell_angle_gamma   24.67172403
_symmetry_Int_Tables_number   1
_chemical_formula_structural   Sr13Si14F
_chemical_formula_sum   'Sr13 Si14 F1'
_cell_volume   742.38844298
_cell_formula_units_Z   1
loop_
 _symmetry_equiv_pos_site_id
 _symmetry_equiv_pos_as_xyz
  1  'x, y, z'
loop_
 _atom_site_type_symbol
 _atom_site_label
 _atom_site_symmetry_multiplicity
 _atom_site_fract_x
 _atom_site_fract_y
 _atom_site_fract_z
 _atom_site_occupancy
  Sr  Sr0  1  0.189754  0.189754  0.858573  1
  Sr  Sr1  1  0.997200  0.997200  0.344536  1
  Sr  Sr2  1  0.998572  0.998572  0.120347  1
  Sr  Sr3  1  0.188559  0.188559  0.611187  1
  Sr  Sr4  1  0.181693  0.181693  0.111316  1
  Sr  Sr5  1  0.169047  0.169047  0.371002  1
  Sr  Sr6  1  0.500000  0.500000  0.500000  1
  Sr  Sr7  1  0.830953  0.830953  0.628998  1
  Sr  Sr8  1  0.811441  0.811441  0.388813  1
  Sr  Sr9  1  0.818307  0.818307  0.888684  1
  Sr  Sr10  1  0.810246  0.810246  0.141427  1
  Sr  Sr11  1  0.001428  0.001428  0.879653  1
  Sr  Sr12  1  0.002800  0.002800  0.655464  1
  Si  Si13  1  0.436108  0.436108  0.809799  1
  Si  Si14  1  0.566895  0.566895  0.949392  1
  Si  Si15  1  0.429930  0.429930  0.290718  1
  Si  Si16  1  0.563892  0.563892  0.190201  1
  Si  Si17  1  0.570070  0.570070  0.709282  1
  Si  Si18  1  0.433105  0.433105  0.050608  1
  Si  Si19  1  0.637615  0.637615  0.015355  1
  Si  Si20  1  0.643254  0.643254  0.774829  1
  Si  Si21  1  0.356746  0.356746  0.225171  1
  Si  Si22  1  0.371979  0.371979  0.732346  1
  Si  Si23  1  0.369129  0.369129  0.463617  1
  Si  Si24  1  0.630871  0.630871  0.536383  1
  Si  Si25  1  0.628021  0.628021  0.267654  1
  Si  Si26  1  0.362385  0.362385  0.984645  1
  F  F27  1  0.000000  0.000000  0.500000  1
