# generated using pymatgen
data_Lu11ScMn3Si12Ru
_symmetry_space_group_name_H-M   'P 1'
_cell_length_a   4.09698400
_cell_length_b   10.61047337
_cell_length_c   12.10208803
_cell_angle_alpha   89.90828455
_cell_angle_beta   90.00000000
_cell_angle_gamma   90.00000000
_symmetry_Int_Tables_number   1
_chemical_formula_structural   Lu11ScMn3Si12Ru
_chemical_formula_sum   'Lu11 Sc1 Mn3 Si12 Ru1'
_cell_volume   526.08846404
_cell_formula_units_Z   1
loop_
 _symmetry_equiv_pos_site_id
 _symmetry_equiv_pos_as_xyz
  1  'x, y, z'
loop_
 _atom_site_type_symbol
 _atom_site_label
 _atom_site_symmetry_multiplicity
 _atom_site_fract_x
 _atom_site_fract_y
 _atom_site_fract_z
 _atom_site_occupancy
  Lu  Lu0  1  0.250000  0.879992  0.019022  1
  Lu  Lu1  1  0.250000  0.619919  0.522804  1
  Lu  Lu2  1  0.750000  0.119948  0.975669  1
  Lu  Lu3  1  0.750000  0.377192  0.481262  1
  Lu  Lu4  1  0.250000  0.923610  0.602852  1
  Lu  Lu5  1  0.250000  0.577641  0.101093  1
  Lu  Lu6  1  0.750000  0.076831  0.400049  1
  Lu  Lu7  1  0.750000  0.421224  0.896992  1
  Lu  Lu8  1  0.250000  0.662689  0.799668  1
  Lu  Lu9  1  0.250000  0.839820  0.299150  1
  Lu  Lu10  1  0.750000  0.337979  0.200492  1
  Sc  Sc11  1  0.750000  0.161006  0.701937  1
  Mn  Mn12  1  0.250000  0.388267  0.680974  1
  Mn  Mn13  1  0.250000  0.112222  0.181443  1
  Mn  Mn14  1  0.750000  0.611934  0.318500  1
  Si  Si15  1  0.250000  0.014882  0.819418  1
  Si  Si16  1  0.250000  0.483624  0.324149  1
  Si  Si17  1  0.750000  0.984755  0.176331  1
  Si  Si18  1  0.750000  0.517176  0.677261  1
  Si  Si19  1  0.250000  0.248417  0.839058  1
  Si  Si20  1  0.250000  0.248554  0.344744  1
  Si  Si21  1  0.750000  0.749503  0.156766  1
  Si  Si22  1  0.750000  0.751818  0.657680  1
  Si  Si23  1  0.250000  0.196660  0.549407  1
  Si  Si24  1  0.250000  0.300632  0.041251  1
  Si  Si25  1  0.750000  0.801006  0.457137  1
  Si  Si26  1  0.750000  0.701013  0.956094  1
  Ru  Ru27  1  0.750000  0.891686  0.818792  1
