# generated using pymatgen
data_HfZr5Co15Si7Rh
_symmetry_space_group_name_H-M   'P 1'
_cell_length_a   8.08869699
_cell_length_b   8.08706071
_cell_length_c   8.10416506
_cell_angle_alpha   60.06979639
_cell_angle_beta   60.03374933
_cell_angle_gamma   60.00669829
_symmetry_Int_Tables_number   1
_chemical_formula_structural   HfZr5Co15Si7Rh
_chemical_formula_sum   'Hf1 Zr5 Co15 Si7 Rh1'
_cell_volume   375.16636147
_cell_formula_units_Z   1
loop_
 _symmetry_equiv_pos_site_id
 _symmetry_equiv_pos_as_xyz
  1  'x, y, z'
loop_
 _atom_site_type_symbol
 _atom_site_label
 _atom_site_symmetry_multiplicity
 _atom_site_fract_x
 _atom_site_fract_y
 _atom_site_fract_z
 _atom_site_occupancy
  Hf  Hf0  1  0.203591  0.794480  0.207449  1
  Zr  Zr1  1  0.206708  0.794863  0.792258  1
  Zr  Zr2  1  0.796560  0.795826  0.205839  1
  Zr  Zr3  1  0.796560  0.201775  0.205839  1
  Zr  Zr4  1  0.206708  0.206170  0.792258  1
  Zr  Zr5  1  0.794392  0.207281  0.791047  1
  Co  Co6  1  0.172268  0.482858  0.173490  1
  Co  Co7  1  0.860291  0.378215  0.383279  1
  Co  Co8  1  0.512308  0.830788  0.826113  1
  Co  Co9  1  0.481907  0.172302  0.173488  1
  Co  Co10  1  0.829257  0.828101  0.514539  1
  Co  Co11  1  0.172992  0.173191  0.480627  1
  Co  Co12  1  0.139388  0.620905  0.618801  1
  Co  Co13  1  0.172268  0.171384  0.173490  1
  Co  Co14  1  0.378914  0.379291  0.862504  1
  Co  Co15  1  0.620343  0.620666  0.619910  1
  Co  Co16  1  0.377359  0.860269  0.383262  1
  Co  Co17  1  0.377359  0.379110  0.383262  1
  Co  Co18  1  0.830688  0.830597  0.825237  1
  Co  Co19  1  0.620343  0.139081  0.619910  1
  Co  Co20  1  0.830688  0.513476  0.825237  1
  Si  Si21  1  0.500651  0.000184  0.498980  1
  Si  Si22  1  0.499115  0.499513  0.995582  1
  Si  Si23  1  0.495950  0.495631  0.512789  1
  Si  Si24  1  0.000884  0.999597  0.498729  1
  Si  Si25  1  0.006168  0.499300  0.995232  1
  Si  Si26  1  0.000884  0.500789  0.498729  1
  Si  Si27  1  0.499115  0.005790  0.995582  1
  Rh  Rh28  1  0.616335  0.618565  0.146537  1
