# generated using pymatgen
data_Eu4Zn4Pd3Rh
_symmetry_space_group_name_H-M   'P 1'
_cell_length_a   4.49788500
_cell_length_b   7.29763990
_cell_length_c   7.80926061
_cell_angle_alpha   89.46391273
_cell_angle_beta   90.00000000
_cell_angle_gamma   90.00000000
_symmetry_Int_Tables_number   1
_chemical_formula_structural   Eu4Zn4Pd3Rh
_chemical_formula_sum   'Eu4 Zn4 Pd3 Rh1'
_cell_volume   256.31952107
_cell_formula_units_Z   1
loop_
 _symmetry_equiv_pos_site_id
 _symmetry_equiv_pos_as_xyz
  1  'x, y, z'
loop_
 _atom_site_type_symbol
 _atom_site_label
 _atom_site_symmetry_multiplicity
 _atom_site_fract_x
 _atom_site_fract_y
 _atom_site_fract_z
 _atom_site_occupancy
  Eu  Eu0  1  0.250000  0.014918  0.307902  1
  Eu  Eu1  1  0.250000  0.510424  0.197454  1
  Eu  Eu2  1  0.750000  0.992602  0.694923  1
  Eu  Eu3  1  0.750000  0.486396  0.798972  1
  Zn  Zn4  1  0.250000  0.663784  0.579718  1
  Zn  Zn5  1  0.250000  0.172099  0.916483  1
  Zn  Zn6  1  0.750000  0.327108  0.425014  1
  Zn  Zn7  1  0.750000  0.831046  0.078746  1
  Pd  Pd8  1  0.250000  0.794037  0.901506  1
  Pd  Pd9  1  0.750000  0.705992  0.402259  1
  Pd  Pd10  1  0.750000  0.207364  0.097835  1
  Rh  Rh11  1  0.250000  0.294231  0.599188  1
