# generated using pymatgen
data_Zr5InSb2
_symmetry_space_group_name_H-M   'P 1'
_cell_length_a   5.70800021
_cell_length_b   8.45738109
_cell_length_c   8.45738250
_cell_angle_alpha   83.46114344
_cell_angle_beta   70.27799650
_cell_angle_gamma   70.27800179
_symmetry_Int_Tables_number   1
_chemical_formula_structural   Zr5InSb2
_chemical_formula_sum   'Zr10 In2 Sb4'
_cell_volume   361.78439892
_cell_formula_units_Z   2
loop_
 _symmetry_equiv_pos_site_id
 _symmetry_equiv_pos_as_xyz
  1  'x, y, z'
loop_
 _atom_site_type_symbol
 _atom_site_label
 _atom_site_symmetry_multiplicity
 _atom_site_fract_x
 _atom_site_fract_y
 _atom_site_fract_z
 _atom_site_occupancy
  Zr  Zr0  1  0.250000  0.500000  0.500000  1
  Zr  Zr1  1  0.750000  0.500000  0.500000  1
  Zr  Zr2  1  0.077751  0.145956  0.698543  1
  Zr  Zr3  1  0.922249  0.854044  0.301457  1
  Zr  Zr4  1  0.776293  0.301457  0.145956  1
  Zr  Zr5  1  0.422249  0.301457  0.854044  1
  Zr  Zr6  1  0.223707  0.698543  0.854044  1
  Zr  Zr7  1  0.577751  0.698543  0.145956  1
  Zr  Zr8  1  0.723707  0.854044  0.698543  1
  Zr  Zr9  1  0.276293  0.145956  0.301457  1
  In  In10  1  0.250000  0.000000  0.000000  1
  In  In11  1  0.750000  0.000000  0.000000  1
  Sb  Sb12  1  0.163403  0.500000  0.173194  1
  Sb  Sb13  1  0.836597  0.500000  0.826806  1
  Sb  Sb14  1  0.336597  0.826806  0.500000  1
  Sb  Sb15  1  0.663403  0.173194  0.500000  1
