# generated using pymatgen
data_DyEr2(In2Ru)2
_symmetry_space_group_name_H-M   'P 1'
_cell_length_a   8.03255005
_cell_length_b   8.02482272
_cell_length_c   3.61967800
_cell_angle_alpha   90.00000000
_cell_angle_beta   90.00000000
_cell_angle_gamma   120.01849379
_symmetry_Int_Tables_number   1
_chemical_formula_structural   DyEr2(In2Ru)2
_chemical_formula_sum   'Dy1 Er2 In4 Ru2'
_cell_volume   202.02657164
_cell_formula_units_Z   1
loop_
 _symmetry_equiv_pos_site_id
 _symmetry_equiv_pos_as_xyz
  1  'x, y, z'
loop_
 _atom_site_type_symbol
 _atom_site_label
 _atom_site_symmetry_multiplicity
 _atom_site_fract_x
 _atom_site_fract_y
 _atom_site_fract_z
 _atom_site_occupancy
  Dy  Dy0  1  0.706302  0.960162  0.500000  1
  Er  Er1  1  0.253883  0.292731  0.500000  1
  Er  Er2  1  0.038991  0.746368  0.500000  1
  In  In3  1  0.933855  0.336482  0.000000  1
  In  In4  1  0.402203  0.066649  0.000000  1
  In  In5  1  0.664186  0.597295  0.000000  1
  In  In6  1  0.332838  0.666408  0.000000  1
  Ru  Ru7  1  0.666720  0.333658  0.500000  1
  Ru  Ru8  1  0.001022  0.000246  0.000000  1
