# generated using pymatgen
data_Zn4Cd13Hg
_symmetry_space_group_name_H-M   'P 1'
_cell_length_a   18.13843953
_cell_length_b   18.13843915
_cell_length_c   5.72882026
_cell_angle_alpha   94.57685476
_cell_angle_beta   94.57685478
_cell_angle_gamma   11.81780492
_symmetry_Int_Tables_number   1
_chemical_formula_structural   Zn4Cd13Hg
_chemical_formula_sum   'Zn4 Cd13 Hg1'
_cell_volume   384.76314858
_cell_formula_units_Z   1
loop_
 _symmetry_equiv_pos_site_id
 _symmetry_equiv_pos_as_xyz
  1  'x, y, z'
loop_
 _atom_site_type_symbol
 _atom_site_label
 _atom_site_symmetry_multiplicity
 _atom_site_fract_x
 _atom_site_fract_y
 _atom_site_fract_z
 _atom_site_occupancy
  Zn  Zn0  1  0.002070  0.002070  0.002871  1
  Zn  Zn1  1  0.664725  0.664725  0.329963  1
  Zn  Zn2  1  0.892361  0.892361  0.436553  1
  Zn  Zn3  1  0.109627  0.109627  0.562528  1
  Cd  Cd4  1  0.112773  0.112773  0.076500  1
  Cd  Cd5  1  0.217341  0.217341  0.106153  1
  Cd  Cd6  1  0.337189  0.337189  0.177703  1
  Cd  Cd7  1  0.447848  0.447848  0.213941  1
  Cd  Cd8  1  0.556469  0.556469  0.287362  1
  Cd  Cd9  1  0.776619  0.776619  0.387278  1
  Cd  Cd10  1  0.001604  0.001604  0.504421  1
  Cd  Cd11  1  0.218425  0.218425  0.602657  1
  Cd  Cd12  1  0.445251  0.445251  0.712538  1
  Cd  Cd13  1  0.556435  0.556435  0.788493  1
  Cd  Cd14  1  0.661403  0.661403  0.815367  1
  Cd  Cd15  1  0.775532  0.775532  0.889728  1
  Cd  Cd16  1  0.890859  0.890859  0.935181  1
  Hg  Hg17  1  0.333468  0.333468  0.670764  1
