# generated using pymatgen
data_LiZnGaF6
_symmetry_space_group_name_H-M   'P 1'
_cell_length_a   8.68902700
_cell_length_b   8.68902715
_cell_length_c   4.66537800
_cell_angle_alpha   90.00000000
_cell_angle_beta   90.00000000
_cell_angle_gamma   120.00000324
_symmetry_Int_Tables_number   1
_chemical_formula_structural   LiZnGaF6
_chemical_formula_sum   'Li3 Zn3 Ga3 F18'
_cell_volume   305.04208136
_cell_formula_units_Z   3
loop_
 _symmetry_equiv_pos_site_id
 _symmetry_equiv_pos_as_xyz
  1  'x, y, z'
loop_
 _atom_site_type_symbol
 _atom_site_label
 _atom_site_symmetry_multiplicity
 _atom_site_fract_x
 _atom_site_fract_y
 _atom_site_fract_z
 _atom_site_occupancy
  Li  Li0  1  0.298484  0.298484  0.500000  1
  Li  Li1  1  0.000000  0.701516  0.500000  1
  Li  Li2  1  0.701516  0.000000  0.500000  1
  Zn  Zn3  1  0.641192  0.641192  0.000000  1
  Zn  Zn4  1  0.000000  0.358808  0.000000  1
  Zn  Zn5  1  0.358808  0.000000  0.000000  1
  Ga  Ga6  1  0.000000  0.000000  0.000000  1
  Ga  Ga7  1  0.333333  0.666667  0.495415  1
  Ga  Ga8  1  0.666667  0.333333  0.504585  1
  F  F9  1  0.099033  0.214134  0.224529  1
  F  F10  1  0.115101  0.900967  0.224529  1
  F  F11  1  0.785866  0.884899  0.224529  1
  F  F12  1  0.884899  0.785866  0.775471  1
  F  F13  1  0.900967  0.115101  0.775471  1
  F  F14  1  0.214134  0.099033  0.775471  1
  F  F15  1  0.452553  0.878710  0.263567  1
  F  F16  1  0.426158  0.547447  0.263567  1
  F  F17  1  0.121290  0.573842  0.263567  1
  F  F18  1  0.573842  0.121290  0.736433  1
  F  F19  1  0.547447  0.426158  0.736433  1
  F  F20  1  0.878710  0.452553  0.736433  1
  F  F21  1  0.219466  0.452905  0.721230  1
  F  F22  1  0.233438  0.780534  0.721230  1
  F  F23  1  0.547095  0.766562  0.721230  1
  F  F24  1  0.766562  0.547095  0.278770  1
  F  F25  1  0.780534  0.233438  0.278770  1
  F  F26  1  0.452905  0.219466  0.278770  1
