# generated using pymatgen
data_Ho5RuWC7
_symmetry_space_group_name_H-M   'P 1'
_cell_length_a   8.27158412
_cell_length_b   8.27158449
_cell_length_c   3.45950300
_cell_angle_alpha   90.00000000
_cell_angle_beta   90.00000000
_cell_angle_gamma   122.14053430
_symmetry_Int_Tables_number   1
_chemical_formula_structural   Ho5RuWC7
_chemical_formula_sum   'Ho5 Ru1 W1 C7'
_cell_volume   200.42142563
_cell_formula_units_Z   1
loop_
 _symmetry_equiv_pos_site_id
 _symmetry_equiv_pos_as_xyz
  1  'x, y, z'
loop_
 _atom_site_type_symbol
 _atom_site_label
 _atom_site_symmetry_multiplicity
 _atom_site_fract_x
 _atom_site_fract_y
 _atom_site_fract_z
 _atom_site_occupancy
  Ho  Ho0  1  0.502061  0.497939  0.000000  1
  Ho  Ho1  1  0.073294  0.334293  0.500000  1
  Ho  Ho2  1  0.921222  0.660968  0.500000  1
  Ho  Ho3  1  0.665707  0.926706  0.500000  1
  Ho  Ho4  1  0.339032  0.078778  0.500000  1
  Ru  Ru5  1  0.710820  0.289180  0.000000  1
  W  W6  1  0.286880  0.713120  0.000000  1
  C  C7  1  0.629341  0.370659  0.500000  1
  C  C8  1  0.376442  0.623558  0.500000  1
  C  C9  1  0.999101  0.000899  0.000000  1
  C  C10  1  0.169018  0.170167  0.000000  1
  C  C11  1  0.829833  0.830982  0.000000  1
  C  C12  1  0.001270  0.504020  0.000000  1
  C  C13  1  0.495980  0.998730  0.000000  1
