# generated using pymatgen
data_Y6Fe5Co18
_symmetry_space_group_name_H-M   'P 1'
_cell_length_a   8.38975942
_cell_length_b   8.39109238
_cell_length_c   8.41257861
_cell_angle_alpha   59.89831399
_cell_angle_beta   59.89350753
_cell_angle_gamma   60.14699545
_symmetry_Int_Tables_number   1
_chemical_formula_structural   Y6Fe5Co18
_chemical_formula_sum   'Y6 Fe5 Co18'
_cell_volume   418.57731380
_cell_formula_units_Z   1
loop_
 _symmetry_equiv_pos_site_id
 _symmetry_equiv_pos_as_xyz
  1  'x, y, z'
loop_
 _atom_site_type_symbol
 _atom_site_label
 _atom_site_symmetry_multiplicity
 _atom_site_fract_x
 _atom_site_fract_y
 _atom_site_fract_z
 _atom_site_occupancy
  Y  Y0  1  0.786771  0.211453  0.213152  1
  Y  Y1  1  0.786185  0.786189  0.215440  1
  Y  Y2  1  0.213815  0.213811  0.784560  1
  Y  Y3  1  0.788538  0.213234  0.786843  1
  Y  Y4  1  0.211462  0.786766  0.213157  1
  Y  Y5  1  0.213229  0.788547  0.786848  1
  Fe  Fe6  1  0.500000  0.500000  0.500000  1
  Fe  Fe7  1  0.500000  0.000000  0.000000  1
  Fe  Fe8  1  0.000000  0.000000  0.500000  1
  Fe  Fe9  1  0.500000  0.500000  0.000000  1
  Fe  Fe10  1  0.000000  0.500000  0.000000  1
  Co  Co11  1  0.000000  0.500000  0.500000  1
  Co  Co12  1  0.500000  0.000000  0.500000  1
  Co  Co13  1  0.375385  0.375334  0.375612  1
  Co  Co14  1  0.622633  0.622556  0.131600  1
  Co  Co15  1  0.128917  0.623769  0.623131  1
  Co  Co16  1  0.623779  0.128916  0.623068  1
  Co  Co17  1  0.871083  0.376231  0.376869  1
  Co  Co18  1  0.376221  0.871084  0.376932  1
  Co  Co19  1  0.377367  0.377444  0.868400  1
  Co  Co20  1  0.624615  0.624666  0.624388  1
  Co  Co21  1  0.177425  0.177467  0.176276  1
  Co  Co22  1  0.821955  0.821963  0.533067  1
  Co  Co23  1  0.532380  0.823498  0.821803  1
  Co  Co24  1  0.823521  0.532343  0.821836  1
  Co  Co25  1  0.467620  0.176502  0.178197  1
  Co  Co26  1  0.176479  0.467657  0.178164  1
  Co  Co27  1  0.178045  0.178037  0.466933  1
  Co  Co28  1  0.822575  0.822533  0.823724  1
