# generated using pymatgen
data_TbMn4CoP3
_symmetry_space_group_name_H-M   'P 1'
_cell_length_a   3.60957800
_cell_length_b   10.55954900
_cell_length_c   12.19107200
_cell_angle_alpha   90.00000000
_cell_angle_beta   90.00000000
_cell_angle_gamma   90.00000000
_symmetry_Int_Tables_number   1
_chemical_formula_structural   TbMn4CoP3
_chemical_formula_sum   'Tb4 Mn16 Co4 P12'
_cell_volume   464.66899695
_cell_formula_units_Z   4
loop_
 _symmetry_equiv_pos_site_id
 _symmetry_equiv_pos_as_xyz
  1  'x, y, z'
loop_
 _atom_site_type_symbol
 _atom_site_label
 _atom_site_symmetry_multiplicity
 _atom_site_fract_x
 _atom_site_fract_y
 _atom_site_fract_z
 _atom_site_occupancy
  Tb  Tb0  1  0.250000  0.584267  0.707775  1
  Tb  Tb1  1  0.250000  0.915733  0.207775  1
  Tb  Tb2  1  0.750000  0.415733  0.292225  1
  Tb  Tb3  1  0.750000  0.084267  0.792225  1
  Mn  Mn4  1  0.250000  0.712002  0.988378  1
  Mn  Mn5  1  0.250000  0.787998  0.488378  1
  Mn  Mn6  1  0.750000  0.287998  0.011622  1
  Mn  Mn7  1  0.750000  0.212002  0.511622  1
  Mn  Mn8  1  0.250000  0.406975  0.492904  1
  Mn  Mn9  1  0.250000  0.093025  0.992904  1
  Mn  Mn10  1  0.750000  0.593025  0.507096  1
  Mn  Mn11  1  0.750000  0.906975  0.007096  1
  Mn  Mn12  1  0.250000  0.216541  0.176104  1
  Mn  Mn13  1  0.250000  0.283459  0.676104  1
  Mn  Mn14  1  0.750000  0.783459  0.823896  1
  Mn  Mn15  1  0.750000  0.716541  0.323896  1
  Mn  Mn16  1  0.250000  0.878401  0.697769  1
  Mn  Mn17  1  0.250000  0.621599  0.197769  1
  Mn  Mn18  1  0.750000  0.121599  0.302231  1
  Mn  Mn19  1  0.750000  0.378401  0.802231  1
  Co  Co20  1  0.250000  0.464681  0.933954  1
  Co  Co21  1  0.250000  0.035319  0.433954  1
  Co  Co22  1  0.750000  0.535319  0.066046  1
  Co  Co23  1  0.750000  0.964681  0.566046  1
  P  P24  1  0.250000  0.420430  0.111351  1
  P  P25  1  0.250000  0.079570  0.611351  1
  P  P26  1  0.750000  0.579570  0.888649  1
  P  P27  1  0.750000  0.920430  0.388649  1
  P  P28  1  0.250000  0.267085  0.871905  1
  P  P29  1  0.250000  0.232915  0.371905  1
  P  P30  1  0.750000  0.732915  0.128095  1
  P  P31  1  0.750000  0.767085  0.628095  1
  P  P32  1  0.250000  0.593713  0.386939  1
  P  P33  1  0.250000  0.906287  0.886939  1
  P  P34  1  0.750000  0.406287  0.613061  1
  P  P35  1  0.750000  0.093713  0.113061  1
