# generated using pymatgen
data_Yb10In2Ag3Pd
_symmetry_space_group_name_H-M   'P 1'
_cell_length_a   9.26152597
_cell_length_b   9.26152584
_cell_length_c   9.26523500
_cell_angle_alpha   128.74876721
_cell_angle_beta   128.74871898
_cell_angle_gamma   75.38550443
_symmetry_Int_Tables_number   1
_chemical_formula_structural   Yb10In2Ag3Pd
_chemical_formula_sum   'Yb10 In2 Ag3 Pd1'
_cell_volume   470.51485746
_cell_formula_units_Z   1
loop_
 _symmetry_equiv_pos_site_id
 _symmetry_equiv_pos_as_xyz
  1  'x, y, z'
loop_
 _atom_site_type_symbol
 _atom_site_label
 _atom_site_symmetry_multiplicity
 _atom_site_fract_x
 _atom_site_fract_y
 _atom_site_fract_z
 _atom_site_occupancy
  Yb  Yb0  1  0.493503  0.502478  0.995981  1
  Yb  Yb1  1  0.002477  0.993503  0.995980  1
  Yb  Yb2  1  0.527273  0.027272  0.837141  1
  Yb  Yb3  1  0.185925  0.685925  0.148394  1
  Yb  Yb4  1  0.029004  0.199645  0.506913  1
  Yb  Yb5  1  0.699645  0.529004  0.506912  1
  Yb  Yb6  1  0.462470  0.962470  0.148394  1
  Yb  Yb7  1  0.809868  0.309867  0.837141  1
  Yb  Yb8  1  0.977908  0.807268  0.506912  1
  Yb  Yb9  1  0.307268  0.477908  0.506913  1
  In  In10  1  0.251204  0.251204  0.002409  1
  In  In11  1  0.751204  0.751204  0.002409  1
  Ag  Ag12  1  0.873323  0.373322  0.246645  1
  Ag  Ag13  1  0.627445  0.872603  0.500048  1
  Ag  Ag14  1  0.372601  0.127446  0.500048  1
  Pd  Pd15  1  0.128881  0.628880  0.757760  1
