# generated using pymatgen
data_La16Ir15
_symmetry_space_group_name_H-M   'P 1'
_cell_length_a   8.91484100
_cell_length_b   9.72974202
_cell_length_c   9.75571435
_cell_angle_alpha   74.38445274
_cell_angle_beta   90.00000000
_cell_angle_gamma   90.00000000
_symmetry_Int_Tables_number   1
_chemical_formula_structural   La16Ir15
_chemical_formula_sum   'La16 Ir15'
_cell_volume   814.96822821
_cell_formula_units_Z   1
loop_
 _symmetry_equiv_pos_site_id
 _symmetry_equiv_pos_as_xyz
  1  'x, y, z'
loop_
 _atom_site_type_symbol
 _atom_site_label
 _atom_site_symmetry_multiplicity
 _atom_site_fract_x
 _atom_site_fract_y
 _atom_site_fract_z
 _atom_site_occupancy
  La  La0  1  0.246344  0.547481  0.284927  1
  La  La1  1  0.000000  0.291518  0.047272  1
  La  La2  1  0.750519  0.039530  0.791621  1
  La  La3  1  0.500000  0.794503  0.536394  1
  La  La4  1  0.000000  0.708482  0.952728  1
  La  La5  1  0.753656  0.452519  0.715073  1
  La  La6  1  0.500000  0.205497  0.463606  1
  La  La7  1  0.249481  0.960470  0.208379  1
  La  La8  1  0.500000  0.292515  0.046583  1
  La  La9  1  0.249481  0.039530  0.791621  1
  La  La10  1  0.000000  0.790747  0.539302  1
  La  La11  1  0.753656  0.547481  0.284927  1
  La  La12  1  0.750519  0.960470  0.208379  1
  La  La13  1  0.500000  0.707485  0.953417  1
  La  La14  1  0.246344  0.452519  0.715073  1
  La  La15  1  0.000000  0.209253  0.460698  1
  Ir  Ir16  1  0.250289  0.500000  0.000000  1
  Ir  Ir17  1  0.000000  0.249512  0.753085  1
  Ir  Ir18  1  0.746289  0.000000  0.500000  1
  Ir  Ir19  1  0.500000  0.754103  0.243786  1
  Ir  Ir20  1  0.000000  0.750488  0.246915  1
  Ir  Ir21  1  0.749711  0.500000  0.000000  1
  Ir  Ir22  1  0.500000  0.245897  0.756214  1
  Ir  Ir23  1  0.253711  0.000000  0.500000  1
  Ir  Ir24  1  0.000000  0.500000  0.500000  1
  Ir  Ir25  1  0.746981  0.253080  0.255530  1
  Ir  Ir26  1  0.500000  0.000000  0.000000  1
  Ir  Ir27  1  0.253019  0.746920  0.744470  1
  Ir  Ir28  1  0.253019  0.253080  0.255530  1
  Ir  Ir29  1  0.000000  0.000000  0.000000  1
  Ir  Ir30  1  0.746981  0.746920  0.744470  1
