# generated using pymatgen
data_Tb4Tm4Sc12Si15Hg
_symmetry_space_group_name_H-M   'P 1'
_cell_length_a   7.11405580
_cell_length_b   7.37910629
_cell_length_c   14.05706658
_cell_angle_alpha   89.95653275
_cell_angle_beta   89.62221140
_cell_angle_gamma   90.25115520
_symmetry_Int_Tables_number   1
_chemical_formula_structural   Tb4Tm4Sc12Si15Hg
_chemical_formula_sum   'Tb4 Tm4 Sc12 Si15 Hg1'
_cell_volume   737.90760667
_cell_formula_units_Z   1
loop_
 _symmetry_equiv_pos_site_id
 _symmetry_equiv_pos_as_xyz
  1  'x, y, z'
loop_
 _atom_site_type_symbol
 _atom_site_label
 _atom_site_symmetry_multiplicity
 _atom_site_fract_x
 _atom_site_fract_y
 _atom_site_fract_z
 _atom_site_occupancy
  Tb  Tb0  1  0.011848  0.175760  0.097192  1
  Tb  Tb1  1  0.987848  0.825569  0.904654  1
  Tb  Tb2  1  0.488061  0.675939  0.904989  1
  Tb  Tb3  1  0.988735  0.830966  0.597219  1
  Tm  Tm4  1  0.511793  0.322967  0.097251  1
  Tm  Tm5  1  0.007674  0.172459  0.397529  1
  Tm  Tm6  1  0.511238  0.321659  0.399175  1
  Tm  Tm7  1  0.496677  0.682079  0.599814  1
  Sc  Sc8  1  0.162510  0.501160  0.753738  1
  Sc  Sc9  1  0.836827  0.497834  0.250417  1
  Sc  Sc10  1  0.337866  0.001866  0.249235  1
  Sc  Sc11  1  0.664376  0.996824  0.751287  1
  Sc  Sc12  1  0.342116  0.168563  0.628549  1
  Sc  Sc13  1  0.664308  0.824548  0.372749  1
  Sc  Sc14  1  0.167340  0.677318  0.370599  1
  Sc  Sc15  1  0.669305  0.823614  0.125118  1
  Sc  Sc16  1  0.825540  0.325159  0.625642  1
  Sc  Sc17  1  0.329797  0.175551  0.876010  1
  Sc  Sc18  1  0.829448  0.323246  0.876143  1
  Sc  Sc19  1  0.169580  0.675833  0.125551  1
  Si  Si20  1  0.035457  0.121051  0.751392  1
  Si  Si21  1  0.964729  0.884403  0.248670  1
  Si  Si22  1  0.466713  0.613237  0.248151  1
  Si  Si23  1  0.533748  0.386199  0.751516  1
  Si  Si24  1  0.285957  0.872226  0.750766  1
  Si  Si25  1  0.711666  0.129240  0.248822  1
  Si  Si26  1  0.214586  0.370555  0.248898  1
  Si  Si27  1  0.787441  0.627275  0.751659  1
  Si  Si28  1  0.831043  0.536374  0.458447  1
  Si  Si29  1  0.339016  0.963635  0.459386  1
  Si  Si30  1  0.841922  0.534644  0.039512  1
  Si  Si31  1  0.658267  0.037710  0.536883  1
  Si  Si32  1  0.155973  0.463565  0.962536  1
  Si  Si33  1  0.655245  0.037069  0.961629  1
  Si  Si34  1  0.344431  0.966053  0.040357  1
  Hg  Hg35  1  0.170919  0.457851  0.538517  1
