# generated using pymatgen
data_LaTbYRh9
_symmetry_space_group_name_H-M   'P 1'
_cell_length_a   5.31234802
_cell_length_b   5.31318578
_cell_length_c   17.59432700
_cell_angle_alpha   89.99758546
_cell_angle_beta   90.00119675
_cell_angle_gamma   120.00188473
_symmetry_Int_Tables_number   1
_chemical_formula_structural   LaTbYRh9
_chemical_formula_sum   'La2 Tb2 Y2 Rh18'
_cell_volume   430.06743864
_cell_formula_units_Z   2
loop_
 _symmetry_equiv_pos_site_id
 _symmetry_equiv_pos_as_xyz
  1  'x, y, z'
loop_
 _atom_site_type_symbol
 _atom_site_label
 _atom_site_symmetry_multiplicity
 _atom_site_fract_x
 _atom_site_fract_y
 _atom_site_fract_z
 _atom_site_occupancy
  La  La0  1  0.333342  0.666674  0.750018  1
  La  La1  1  0.666658  0.333326  0.249982  1
  Tb  Tb2  1  0.333341  0.666671  0.958414  1
  Tb  Tb3  1  0.666659  0.333329  0.041586  1
  Y  Y4  1  0.666663  0.333333  0.458461  1
  Y  Y5  1  0.333337  0.666667  0.541539  1
  Rh  Rh6  1  0.167167  0.832828  0.375154  1
  Rh  Rh7  1  0.167171  0.334372  0.375145  1
  Rh  Rh8  1  0.665625  0.832823  0.375151  1
  Rh  Rh9  1  0.832833  0.167172  0.624846  1
  Rh  Rh10  1  0.832829  0.665628  0.624855  1
  Rh  Rh11  1  0.334375  0.167177  0.624849  1
  Rh  Rh12  1  0.832824  0.167179  0.875176  1
  Rh  Rh13  1  0.832825  0.665624  0.875159  1
  Rh  Rh14  1  0.334380  0.167184  0.875170  1
  Rh  Rh15  1  0.167176  0.832821  0.124824  1
  Rh  Rh16  1  0.167175  0.334376  0.124841  1
  Rh  Rh17  1  0.665620  0.832816  0.124830  1
  Rh  Rh18  1  0.333317  0.666747  0.250047  1
  Rh  Rh19  1  0.666683  0.333253  0.749953  1
  Rh  Rh20  1  0.000014  0.999935  0.250062  1
  Rh  Rh21  1  0.999986  0.000065  0.749938  1
  Rh  Rh22  1  0.000000  0.000000  0.500000  1
  Rh  Rh23  1  0.000000  0.000000  0.000000  1
