# generated using pymatgen
data_SrCaFe4P8(PbO8)4
_symmetry_space_group_name_H-M   'P 1'
_cell_length_a   9.15148563
_cell_length_b   9.10237000
_cell_length_c   9.41590263
_cell_angle_alpha   62.83794662
_cell_angle_beta   90.11323854
_cell_angle_gamma   89.92423680
_symmetry_Int_Tables_number   1
_chemical_formula_structural   SrCaFe4P8(PbO8)4
_chemical_formula_sum   'Sr1 Ca1 Fe4 P8 Pb4 O32'
_cell_volume   697.84450309
_cell_formula_units_Z   1
loop_
 _symmetry_equiv_pos_site_id
 _symmetry_equiv_pos_as_xyz
  1  'x, y, z'
loop_
 _atom_site_type_symbol
 _atom_site_label
 _atom_site_symmetry_multiplicity
 _atom_site_fract_x
 _atom_site_fract_y
 _atom_site_fract_z
 _atom_site_occupancy
  Sr  Sr0  1  0.000000  0.000000  0.000000  1
  Ca  Ca1  1  0.500000  0.000000  0.500000  1
  Fe  Fe2  1  0.368075  0.753048  0.242012  1
  Fe  Fe3  1  0.868311  0.246087  0.258470  1
  Fe  Fe4  1  0.631925  0.246952  0.757988  1
  Fe  Fe5  1  0.131689  0.753913  0.741530  1
  P  P6  1  0.090275  0.575383  0.139227  1
  P  P7  1  0.636626  0.018842  0.162071  1
  P  P8  1  0.363374  0.981158  0.837929  1
  P  P9  1  0.409186  0.580358  0.637682  1
  P  P10  1  0.909725  0.424617  0.860773  1
  P  P11  1  0.590814  0.419642  0.362318  1
  P  P12  1  0.859208  0.020674  0.658253  1
  P  P13  1  0.140792  0.979326  0.341747  1
  Pb  Pb14  1  0.212055  0.295163  0.466616  1
  Pb  Pb15  1  0.708280  0.700824  0.035265  1
  Pb  Pb16  1  0.787945  0.704837  0.533384  1
  Pb  Pb17  1  0.291720  0.299176  0.964735  1
  O  O18  1  0.912428  0.158247  0.496014  1
  O  O19  1  0.796581  0.092613  0.768341  1
  O  O20  1  0.953874  0.609644  0.757230  1
  O  O21  1  0.701564  0.091090  0.271306  1
  O  O22  1  0.496347  0.082271  0.736981  1
  O  O23  1  0.540511  0.602759  0.257311  1
  O  O24  1  0.586626  0.156507  0.997463  1
  O  O25  1  0.008502  0.083817  0.241011  1
  O  O26  1  0.719655  0.408370  0.259683  1
  O  O27  1  0.459489  0.397241  0.742689  1
  O  O28  1  0.257555  0.087411  0.369528  1
  O  O29  1  0.413374  0.843493  0.002537  1
  O  O30  1  0.850410  0.395509  0.023768  1
  O  O31  1  0.087572  0.841753  0.503986  1
  O  O32  1  0.503653  0.917729  0.263019  1
  O  O33  1  0.350050  0.603776  0.476330  1
  O  O34  1  0.649950  0.396224  0.523670  1
  O  O35  1  0.742445  0.912589  0.630472  1
  O  O36  1  0.963053  0.692635  0.123864  1
  O  O37  1  0.280345  0.591630  0.740317  1
  O  O38  1  0.249962  0.095022  0.861660  1
  O  O39  1  0.781414  0.408786  0.759579  1
  O  O40  1  0.298436  0.908910  0.728694  1
  O  O41  1  0.750038  0.904978  0.138340  1
  O  O42  1  0.218586  0.591214  0.240421  1
  O  O43  1  0.149590  0.604491  0.976232  1
  O  O44  1  0.468854  0.295031  0.381393  1
  O  O45  1  0.036947  0.307365  0.876136  1
  O  O46  1  0.046126  0.390356  0.242770  1
  O  O47  1  0.203419  0.907387  0.231659  1
  O  O48  1  0.531146  0.704969  0.618607  1
  O  O49  1  0.991498  0.916183  0.758989  1
