# generated using pymatgen
data_HoEr2Lu5Au4
_symmetry_space_group_name_H-M   'P 1'
_cell_length_a   4.83773800
_cell_length_b   7.06503781
_cell_length_c   8.80140835
_cell_angle_alpha   89.85519570
_cell_angle_beta   90.00000000
_cell_angle_gamma   90.00000000
_symmetry_Int_Tables_number   1
_chemical_formula_structural   HoEr2Lu5Au4
_chemical_formula_sum   'Ho1 Er2 Lu5 Au4'
_cell_volume   300.82063160
_cell_formula_units_Z   1
loop_
 _symmetry_equiv_pos_site_id
 _symmetry_equiv_pos_as_xyz
  1  'x, y, z'
loop_
 _atom_site_type_symbol
 _atom_site_label
 _atom_site_symmetry_multiplicity
 _atom_site_fract_x
 _atom_site_fract_y
 _atom_site_fract_z
 _atom_site_occupancy
  Ho  Ho0  1  0.750000  0.515517  0.822709  1
  Er  Er1  1  0.250000  0.984015  0.322763  1
  Er  Er2  1  0.750000  0.015565  0.676930  1
  Lu  Lu3  1  0.250000  0.851580  0.923134  1
  Lu  Lu4  1  0.250000  0.351465  0.576966  1
  Lu  Lu5  1  0.750000  0.149198  0.078280  1
  Lu  Lu6  1  0.750000  0.648613  0.420917  1
  Lu  Lu7  1  0.250000  0.483860  0.176498  1
  Au  Au8  1  0.250000  0.254548  0.899747  1
  Au  Au9  1  0.250000  0.753102  0.602238  1
  Au  Au10  1  0.750000  0.745425  0.101708  1
  Au  Au11  1  0.750000  0.247112  0.398111  1
