# generated using pymatgen
data_GeMo12Pt7N4
_symmetry_space_group_name_H-M   'P 1'
_cell_length_a   6.90422129
_cell_length_b   6.90422129
_cell_length_c   6.90422129
_cell_angle_alpha   90.14641080
_cell_angle_beta   90.14641080
_cell_angle_gamma   90.14641080
_symmetry_Int_Tables_number   1
_chemical_formula_structural   GeMo12Pt7N4
_chemical_formula_sum   'Ge1 Mo12 Pt7 N4'
_cell_volume   329.10906604
_cell_formula_units_Z   1
loop_
 _symmetry_equiv_pos_site_id
 _symmetry_equiv_pos_as_xyz
  1  'x, y, z'
loop_
 _atom_site_type_symbol
 _atom_site_label
 _atom_site_symmetry_multiplicity
 _atom_site_fract_x
 _atom_site_fract_y
 _atom_site_fract_z
 _atom_site_occupancy
  Ge  Ge0  1  0.187860  0.187860  0.187860  1
  Mo  Mo1  1  0.619899  0.706238  0.951734  1
  Mo  Mo2  1  0.465349  0.868863  0.306587  1
  Mo  Mo3  1  0.706238  0.951734  0.619899  1
  Mo  Mo4  1  0.547337  0.374452  0.202718  1
  Mo  Mo5  1  0.374452  0.202718  0.547337  1
  Mo  Mo6  1  0.202718  0.547337  0.374452  1
  Mo  Mo7  1  0.868863  0.306587  0.465349  1
  Mo  Mo8  1  0.043649  0.120051  0.792276  1
  Mo  Mo9  1  0.306587  0.465349  0.868863  1
  Mo  Mo10  1  0.120051  0.792276  0.043649  1
  Mo  Mo11  1  0.792276  0.043649  0.120051  1
  Mo  Mo12  1  0.951734  0.619899  0.706238  1
  Pt  Pt13  1  0.306263  0.815330  0.685746  1
  Pt  Pt14  1  0.422456  0.065360  0.954367  1
  Pt  Pt15  1  0.815330  0.685746  0.306263  1
  Pt  Pt16  1  0.685746  0.306263  0.815330  1
  Pt  Pt17  1  0.558469  0.558469  0.558469  1
  Pt  Pt18  1  0.065360  0.954367  0.422456  1
  Pt  Pt19  1  0.954367  0.422456  0.065360  1
  N  N20  1  0.376650  0.628294  0.127869  1
  N  N21  1  0.872186  0.872186  0.872186  1
  N  N22  1  0.127869  0.376650  0.628294  1
  N  N23  1  0.628294  0.127869  0.376650  1
