# generated using pymatgen
data_Rb2LiPSe4
_symmetry_space_group_name_H-M   'P 1'
_cell_length_a   13.77773491
_cell_length_b   12.31497597
_cell_length_c   7.61315379
_cell_angle_alpha   83.94086659
_cell_angle_beta   62.72762490
_cell_angle_gamma   33.33151297
_symmetry_Int_Tables_number   1
_chemical_formula_structural   Rb2LiPSe4
_chemical_formula_sum   'Rb4 Li2 P2 Se8'
_cell_volume   519.34656096
_cell_formula_units_Z   2
loop_
 _symmetry_equiv_pos_site_id
 _symmetry_equiv_pos_as_xyz
  1  'x, y, z'
loop_
 _atom_site_type_symbol
 _atom_site_label
 _atom_site_symmetry_multiplicity
 _atom_site_fract_x
 _atom_site_fract_y
 _atom_site_fract_z
 _atom_site_occupancy
  Rb  Rb0  1  0.681612  0.681612  0.318388  1
  Rb  Rb1  1  0.931612  0.931612  0.568388  1
  Rb  Rb2  1  0.568388  0.568388  0.931612  1
  Rb  Rb3  1  0.318388  0.318388  0.681612  1
  Li  Li4  1  0.000000  0.000000  0.000000  1
  Li  Li5  1  0.250000  0.250000  0.250000  1
  P  P6  1  0.500000  0.500000  0.500000  1
  P  P7  1  0.750000  0.750000  0.750000  1
  Se  Se8  1  0.918194  0.689381  0.396079  1
  Se  Se9  1  0.331806  0.560619  0.853921  1
  Se  Se10  1  0.689381  0.918194  0.996345  1
  Se  Se11  1  0.853921  0.253655  0.331806  1
  Se  Se12  1  0.560619  0.331806  0.253655  1
  Se  Se13  1  0.253655  0.853921  0.560619  1
  Se  Se14  1  0.396079  0.996345  0.918194  1
  Se  Se15  1  0.996345  0.396079  0.689381  1
