# generated using pymatgen
data_Cd2Bi2IrRh3O14
_symmetry_space_group_name_H-M   'P 1'
_cell_length_a   7.26625908
_cell_length_b   7.25867385
_cell_length_c   7.13224600
_cell_angle_alpha   60.57450340
_cell_angle_beta   60.60823462
_cell_angle_gamma   60.97096921
_symmetry_Int_Tables_number   1
_chemical_formula_structural   Cd2Bi2IrRh3O14
_chemical_formula_sum   'Cd2 Bi2 Ir1 Rh3 O14'
_cell_volume   270.30038516
_cell_formula_units_Z   1
loop_
 _symmetry_equiv_pos_site_id
 _symmetry_equiv_pos_as_xyz
  1  'x, y, z'
loop_
 _atom_site_type_symbol
 _atom_site_label
 _atom_site_symmetry_multiplicity
 _atom_site_fract_x
 _atom_site_fract_y
 _atom_site_fract_z
 _atom_site_occupancy
  Cd  Cd0  1  0.125000  0.125000  0.125000  1
  Cd  Cd1  1  0.125000  0.125000  0.625000  1
  Bi  Bi2  1  0.125000  0.625000  0.125000  1
  Bi  Bi3  1  0.625000  0.125000  0.125000  1
  Ir  Ir4  1  0.125000  0.625000  0.625000  1
  Rh  Rh5  1  0.625000  0.625000  0.625000  1
  Rh  Rh6  1  0.625000  0.625000  0.125000  1
  Rh  Rh7  1  0.625000  0.125000  0.625000  1
  O  O8  1  0.248470  0.249703  0.250913  1
  O  O9  1  0.293944  0.699915  0.295207  1
  O  O10  1  0.949707  0.941858  0.554218  1
  O  O11  1  0.542020  0.957845  0.538899  1
  O  O12  1  0.711250  0.707669  0.290540  1
  O  O13  1  0.956056  0.550085  0.539067  1
  O  O14  1  0.707980  0.292155  0.711101  1
  O  O15  1  0.300293  0.308142  0.695782  1
  O  O16  1  0.707980  0.292155  0.288764  1
  O  O17  1  0.293944  0.699915  0.710933  1
  O  O18  1  0.956056  0.550085  0.954793  1
  O  O19  1  0.538750  0.542331  0.959460  1
  O  O20  1  0.001530  0.000297  0.999087  1
  O  O21  1  0.542020  0.957845  0.961236  1
