# generated using pymatgen
data_DyHo(Al3Ir)3
_symmetry_space_group_name_H-M   'P 1'
_cell_length_a   7.55327249
_cell_length_b   7.55479416
_cell_length_c   9.47453700
_cell_angle_alpha   90.00000000
_cell_angle_beta   90.00000000
_cell_angle_gamma   119.53225307
_symmetry_Int_Tables_number   1
_chemical_formula_structural   DyHo(Al3Ir)3
_chemical_formula_sum   'Dy2 Ho2 Al18 Ir6'
_cell_volume   470.40740817
_cell_formula_units_Z   2
loop_
 _symmetry_equiv_pos_site_id
 _symmetry_equiv_pos_as_xyz
  1  'x, y, z'
loop_
 _atom_site_type_symbol
 _atom_site_label
 _atom_site_symmetry_multiplicity
 _atom_site_fract_x
 _atom_site_fract_y
 _atom_site_fract_z
 _atom_site_occupancy
  Dy  Dy0  1  0.994921  0.670218  0.250000  1
  Dy  Dy1  1  0.005079  0.329782  0.750000  1
  Ho  Ho2  1  0.670311  0.994890  0.250000  1
  Ho  Ho3  1  0.329689  0.005110  0.750000  1
  Al  Al4  1  0.128156  0.128237  0.250000  1
  Al  Al5  1  0.871844  0.871763  0.750000  1
  Al  Al6  1  0.000959  0.334604  0.073835  1
  Al  Al7  1  0.999041  0.665396  0.926165  1
  Al  Al8  1  0.999041  0.665396  0.573835  1
  Al  Al9  1  0.334927  0.001102  0.426347  1
  Al  Al10  1  0.000959  0.334604  0.426165  1
  Al  Al11  1  0.665073  0.998898  0.573653  1
  Al  Al12  1  0.665073  0.998898  0.926347  1
  Al  Al13  1  0.334927  0.001102  0.073653  1
  Al  Al14  1  0.333561  0.333447  0.552568  1
  Al  Al15  1  0.666439  0.666553  0.447432  1
  Al  Al16  1  0.666439  0.666553  0.052568  1
  Al  Al17  1  0.333561  0.333447  0.947432  1
  Al  Al18  1  0.339069  0.547725  0.250000  1
  Al  Al19  1  0.660931  0.452275  0.750000  1
  Al  Al20  1  0.547466  0.338586  0.250000  1
  Al  Al21  1  0.452534  0.661414  0.750000  1
  Ir  Ir22  1  0.671906  0.327897  0.999981  1
  Ir  Ir23  1  0.328094  0.672103  0.000019  1
  Ir  Ir24  1  0.328094  0.672103  0.499981  1
  Ir  Ir25  1  0.671906  0.327897  0.500019  1
  Ir  Ir26  1  0.000000  0.000000  0.000000  1
  Ir  Ir27  1  0.000000  0.000000  0.500000  1
