# generated using pymatgen
data_CaLa4GaGe2
_symmetry_space_group_name_H-M   'P 1'
_cell_length_a   9.17193365
_cell_length_b   9.17193367
_cell_length_c   9.17193200
_cell_angle_alpha   127.99117563
_cell_angle_beta   127.92151176
_cell_angle_gamma   76.69577209
_symmetry_Int_Tables_number   1
_chemical_formula_structural   CaLa4GaGe2
_chemical_formula_sum   'Ca2 La8 Ga2 Ge4'
_cell_volume   465.86865789
_cell_formula_units_Z   2
loop_
 _symmetry_equiv_pos_site_id
 _symmetry_equiv_pos_as_xyz
  1  'x, y, z'
loop_
 _atom_site_type_symbol
 _atom_site_label
 _atom_site_symmetry_multiplicity
 _atom_site_fract_x
 _atom_site_fract_y
 _atom_site_fract_z
 _atom_site_occupancy
  Ca  Ca0  1  0.497385  0.500807  0.998192  1
  Ca  Ca1  1  0.002615  0.000807  0.003422  1
  La  La2  1  0.678684  0.176337  0.151831  1
  La  La3  1  0.524507  0.676337  0.497653  1
  La  La4  1  0.028064  0.526330  0.850925  1
  La  La5  1  0.821316  0.973146  0.497653  1
  La  La6  1  0.324596  0.822861  0.850925  1
  La  La7  1  0.175404  0.026330  0.498266  1
  La  La8  1  0.471936  0.322861  0.498266  1
  La  La9  1  0.975493  0.473146  0.151831  1
  Ga  Ga10  1  0.882192  0.619408  0.501600  1
  Ga  Ga11  1  0.617808  0.119408  0.737216  1
  Ge  Ge12  1  0.381356  0.882835  0.264190  1
  Ge  Ge13  1  0.118644  0.382835  0.501479  1
  Ge  Ge14  1  0.750000  0.748275  0.998275  1
  Ge  Ge15  1  0.250000  0.248275  0.998275  1
