# generated using pymatgen
data_Ca(Tl2Au3)2
_symmetry_space_group_name_H-M   'P 1'
_cell_length_a   15.80438600
_cell_length_b   15.80438678
_cell_length_c   4.07225500
_cell_angle_alpha   90.00000000
_cell_angle_beta   90.00000000
_cell_angle_gamma   165.31750130
_symmetry_Int_Tables_number   1
_chemical_formula_structural   Ca(Tl2Au3)2
_chemical_formula_sum   'Ca1 Tl4 Au6'
_cell_volume   257.81246751
_cell_formula_units_Z   1
loop_
 _symmetry_equiv_pos_site_id
 _symmetry_equiv_pos_as_xyz
  1  'x, y, z'
loop_
 _atom_site_type_symbol
 _atom_site_label
 _atom_site_symmetry_multiplicity
 _atom_site_fract_x
 _atom_site_fract_y
 _atom_site_fract_z
 _atom_site_occupancy
  Ca  Ca0  1  0.000000  0.000000  0.000000  1
  Tl  Tl1  1  0.623095  0.376905  0.000000  1
  Tl  Tl2  1  0.376905  0.623095  0.000000  1
  Tl  Tl3  1  0.803468  0.196531  0.500000  1
  Tl  Tl4  1  0.196531  0.803468  0.500000  1
  Au  Au5  1  0.717692  0.282308  0.000000  1
  Au  Au6  1  0.282308  0.717692  0.000000  1
  Au  Au7  1  0.898306  0.101694  0.500000  1
  Au  Au8  1  0.542085  0.457914  0.500000  1
  Au  Au9  1  0.457914  0.542085  0.500000  1
  Au  Au10  1  0.101694  0.898306  0.500000  1
