# generated using pymatgen
data_Er3Sc3Sn6PtRh5
_symmetry_space_group_name_H-M   'P 1'
_cell_length_a   7.60148300
_cell_length_b   7.60148269
_cell_length_c   7.24654300
_cell_angle_alpha   90.00000000
_cell_angle_beta   90.00000000
_cell_angle_gamma   120.00000922
_symmetry_Int_Tables_number   1
_chemical_formula_structural   Er3Sc3Sn6PtRh5
_chemical_formula_sum   'Er3 Sc3 Sn6 Pt1 Rh5'
_cell_volume   362.62530251
_cell_formula_units_Z   1
loop_
 _symmetry_equiv_pos_site_id
 _symmetry_equiv_pos_as_xyz
  1  'x, y, z'
loop_
 _atom_site_type_symbol
 _atom_site_label
 _atom_site_symmetry_multiplicity
 _atom_site_fract_x
 _atom_site_fract_y
 _atom_site_fract_z
 _atom_site_occupancy
  Er  Er0  1  0.401733  0.998514  0.250200  1
  Er  Er1  1  0.596781  0.598267  0.250200  1
  Er  Er2  1  0.001486  0.403219  0.250200  1
  Sc  Sc3  1  0.395363  0.996834  0.750882  1
  Sc  Sc4  1  0.601471  0.604637  0.750882  1
  Sc  Sc5  1  0.003166  0.398529  0.750882  1
  Sn  Sn6  1  0.277830  0.276795  0.991392  1
  Sn  Sn7  1  0.998966  0.722170  0.991392  1
  Sn  Sn8  1  0.004592  0.739553  0.508360  1
  Sn  Sn9  1  0.734959  0.995408  0.508360  1
  Sn  Sn10  1  0.260447  0.265041  0.508360  1
  Sn  Sn11  1  0.723205  0.001034  0.991392  1
  Pt  Pt12  1  0.666667  0.333333  0.518262  1
  Rh  Rh13  1  0.000000  0.000000  0.765709  1
  Rh  Rh14  1  0.000000  0.000000  0.234610  1
  Rh  Rh15  1  0.666667  0.333333  0.980994  1
  Rh  Rh16  1  0.333333  0.666667  0.519485  1
  Rh  Rh17  1  0.333333  0.666667  0.978436  1
