# generated using pymatgen
data_Ho4CoTc2Ru5
_symmetry_space_group_name_H-M   'P 1'
_cell_length_a   5.29137000
_cell_length_b   5.29136937
_cell_length_c   8.99020100
_cell_angle_alpha   90.00000000
_cell_angle_beta   90.00000000
_cell_angle_gamma   122.40453687
_symmetry_Int_Tables_number   1
_chemical_formula_structural   Ho4CoTc2Ru5
_chemical_formula_sum   'Ho4 Co1 Tc2 Ru5'
_cell_volume   212.51761794
_cell_formula_units_Z   1
loop_
 _symmetry_equiv_pos_site_id
 _symmetry_equiv_pos_as_xyz
  1  'x, y, z'
loop_
 _atom_site_type_symbol
 _atom_site_label
 _atom_site_symmetry_multiplicity
 _atom_site_fract_x
 _atom_site_fract_y
 _atom_site_fract_z
 _atom_site_occupancy
  Ho  Ho0  1  0.334849  0.665151  0.430314  1
  Ho  Ho1  1  0.664159  0.335841  0.561778  1
  Ho  Ho2  1  0.664159  0.335841  0.938222  1
  Ho  Ho3  1  0.334849  0.665151  0.069686  1
  Co  Co4  1  0.833284  0.166716  0.250000  1
  Tc  Tc5  1  0.173708  0.337401  0.750000  1
  Tc  Tc6  1  0.662599  0.826292  0.750000  1
  Ru  Ru7  1  0.991859  0.008141  0.495247  1
  Ru  Ru8  1  0.991859  0.008141  0.004753  1
  Ru  Ru9  1  0.831370  0.657045  0.250000  1
  Ru  Ru10  1  0.342955  0.168630  0.250000  1
  Ru  Ru11  1  0.174353  0.825647  0.750000  1
