# generated using pymatgen
data_Mn3Sb2(ClO)4
_symmetry_space_group_name_H-M   'P 1'
_cell_length_a   6.59316570
_cell_length_b   7.12391179
_cell_length_c   14.74642101
_cell_angle_alpha   90.00354049
_cell_angle_beta   90.00352989
_cell_angle_gamma   62.32528086
_symmetry_Int_Tables_number   1
_chemical_formula_structural   Mn3Sb2(ClO)4
_chemical_formula_sum   'Mn6 Sb4 Cl8 O8'
_cell_volume   613.38915703
_cell_formula_units_Z   2
loop_
 _symmetry_equiv_pos_site_id
 _symmetry_equiv_pos_as_xyz
  1  'x, y, z'
loop_
 _atom_site_type_symbol
 _atom_site_label
 _atom_site_symmetry_multiplicity
 _atom_site_fract_x
 _atom_site_fract_y
 _atom_site_fract_z
 _atom_site_occupancy
  Mn  Mn0  1  0.748763  0.002134  0.749902  1
  Mn  Mn1  1  0.751263  0.997922  0.249893  1
  Mn  Mn2  1  0.000115  0.999998  0.000004  1
  Mn  Mn3  1  0.499813  0.999983  0.500027  1
  Mn  Mn4  1  0.251631  0.997203  0.250114  1
  Mn  Mn5  1  0.248563  0.002545  0.750093  1
  Sb  Sb6  1  0.611684  0.778874  0.055389  1
  Sb  Sb7  1  0.388384  0.221183  0.944594  1
  Sb  Sb8  1  0.888273  0.221161  0.555407  1
  Sb  Sb9  1  0.111512  0.778833  0.444606  1
  Cl  Cl10  1  0.116641  0.766926  0.836597  1
  Cl  Cl11  1  0.883632  0.233063  0.163410  1
  Cl  Cl12  1  0.383368  0.233084  0.336604  1
  Cl  Cl13  1  0.616459  0.766939  0.663389  1
  Cl  Cl14  1  0.153148  0.692417  0.111393  1
  Cl  Cl15  1  0.847630  0.307612  0.888634  1
  Cl  Cl16  1  0.346852  0.307631  0.611370  1
  Cl  Cl17  1  0.652293  0.692443  0.388584  1
  O  O18  1  0.309511  0.999558  0.000017  1
  O  O19  1  0.809253  0.999566  0.499964  1
  O  O20  1  0.690650  0.000499  0.999967  1
  O  O21  1  0.190428  0.000445  0.500040  1
  O  O22  1  0.544378  0.911893  0.175743  1
  O  O23  1  0.455870  0.088118  0.824236  1
  O  O24  1  0.955692  0.088124  0.675764  1
  O  O25  1  0.044197  0.911845  0.324259  1
