# generated using pymatgen
data_Lu(BiO2)7
_symmetry_space_group_name_H-M   'P 1'
_cell_length_a   6.69275209
_cell_length_b   6.89027110
_cell_length_c   7.88372639
_cell_angle_alpha   106.87509284
_cell_angle_beta   89.34674612
_cell_angle_gamma   99.70282430
_symmetry_Int_Tables_number   1
_chemical_formula_structural   Lu(BiO2)7
_chemical_formula_sum   'Lu1 Bi7 O14'
_cell_volume   342.65411981
_cell_formula_units_Z   1
loop_
 _symmetry_equiv_pos_site_id
 _symmetry_equiv_pos_as_xyz
  1  'x, y, z'
loop_
 _atom_site_type_symbol
 _atom_site_label
 _atom_site_symmetry_multiplicity
 _atom_site_fract_x
 _atom_site_fract_y
 _atom_site_fract_z
 _atom_site_occupancy
  Lu  Lu0  1  0.464553  0.003034  0.252231  1
  Bi  Bi1  1  0.999975  0.000951  0.498993  1
  Bi  Bi2  1  0.532696  0.995335  0.749743  1
  Bi  Bi3  1  0.000711  0.000453  0.005294  1
  Bi  Bi4  1  0.254641  0.520185  0.878942  1
  Bi  Bi5  1  0.734250  0.486629  0.119202  1
  Bi  Bi6  1  0.720891  0.465522  0.603519  1
  Bi  Bi7  1  0.273212  0.527103  0.381390  1
  O  O8  1  0.463643  0.664244  0.187144  1
  O  O9  1  0.535258  0.361118  0.818051  1
  O  O10  1  0.306215  0.942230  0.963564  1
  O  O11  1  0.701717  0.051813  0.063086  1
  O  O12  1  0.298670  0.919373  0.504739  1
  O  O13  1  0.706950  0.084957  0.476918  1
  O  O14  1  0.523178  0.343157  0.349494  1
  O  O15  1  0.462019  0.645524  0.640691  1
  O  O16  1  0.918836  0.675346  0.965724  1
  O  O17  1  0.086774  0.324025  0.041039  1
  O  O18  1  0.092145  0.324830  0.625466  1
  O  O19  1  0.897063  0.677309  0.374294  1
  O  O20  1  0.895080  0.918800  0.731089  1
  O  O21  1  0.131522  0.068058  0.269386  1
