# generated using pymatgen
data_Ba(RhO2)6
_symmetry_space_group_name_H-M   'P 1'
_cell_length_a   8.43100799
_cell_length_b   8.43100767
_cell_length_c   8.68239965
_cell_angle_alpha   110.16990820
_cell_angle_beta   104.87086725
_cell_angle_gamma   112.37207815
_symmetry_Int_Tables_number   1
_chemical_formula_structural   Ba(RhO2)6
_chemical_formula_sum   'Ba2 Rh12 O24'
_cell_volume   479.24879522
_cell_formula_units_Z   2
loop_
 _symmetry_equiv_pos_site_id
 _symmetry_equiv_pos_as_xyz
  1  'x, y, z'
loop_
 _atom_site_type_symbol
 _atom_site_label
 _atom_site_symmetry_multiplicity
 _atom_site_fract_x
 _atom_site_fract_y
 _atom_site_fract_z
 _atom_site_occupancy
  Ba  Ba0  1  0.051240  0.051240  0.000000  1
  Ba  Ba1  1  0.615427  0.615427  0.000000  1
  Rh  Rh2  1  0.811845  0.999023  0.476030  1
  Rh  Rh3  1  0.476072  0.664006  0.473412  1
  Rh  Rh4  1  0.143675  0.330853  0.476030  1
  Rh  Rh5  1  0.854822  0.667644  0.523970  1
  Rh  Rh6  1  0.522992  0.335814  0.523970  1
  Rh  Rh7  1  0.190594  0.002660  0.526588  1
  Rh  Rh8  1  0.995864  0.488796  0.817993  1
  Rh  Rh9  1  0.662762  0.153035  0.816969  1
  Rh  Rh10  1  0.330601  0.820874  0.816969  1
  Rh  Rh11  1  0.670802  0.177870  0.182007  1
  Rh  Rh12  1  0.336066  0.845793  0.183031  1
  Rh  Rh13  1  0.003905  0.513632  0.183031  1
  O  O14  1  0.692038  0.375657  0.401030  1
  O  O15  1  0.358224  0.044595  0.401060  1
  O  O16  1  0.023134  0.709504  0.401060  1
  O  O17  1  0.974628  0.291009  0.598970  1
  O  O18  1  0.643533  0.957163  0.598940  1
  O  O19  1  0.308443  0.622072  0.598940  1
  O  O20  1  0.956424  0.306304  0.262408  1
  O  O21  1  0.622771  0.972651  0.262408  1
  O  O22  1  0.287827  0.656416  0.277577  1
  O  O23  1  0.710243  0.360363  0.737592  1
  O  O24  1  0.378839  0.010250  0.722423  1
  O  O25  1  0.043896  0.694016  0.737592  1
  O  O26  1  0.708110  0.355635  0.063146  1
  O  O27  1  0.374178  0.021702  0.063146  1
  O  O28  1  0.036792  0.691615  0.061740  1
  O  O29  1  0.958557  0.311032  0.936854  1
  O  O30  1  0.629874  0.975051  0.938260  1
  O  O31  1  0.292489  0.644965  0.936854  1
  O  O32  1  0.008144  0.973116  0.648954  1
  O  O33  1  0.342505  0.307477  0.648954  1
  O  O34  1  0.673741  0.641506  0.648581  1
  O  O35  1  0.324162  0.359190  0.351046  1
  O  O36  1  0.658523  0.693551  0.351046  1
  O  O37  1  0.992925  0.025160  0.351419  1
