# generated using pymatgen
data_Tb7Ho9Cd4IrPt3
_symmetry_space_group_name_H-M   'P 1'
_cell_length_a   9.67389255
_cell_length_b   9.64307585
_cell_length_c   9.64099204
_cell_angle_alpha   60.05174873
_cell_angle_beta   60.21077583
_cell_angle_gamma   60.31500479
_symmetry_Int_Tables_number   1
_chemical_formula_structural   Tb7Ho9Cd4IrPt3
_chemical_formula_sum   'Tb7 Ho9 Cd4 Ir1 Pt3'
_cell_volume   638.71641058
_cell_formula_units_Z   1
loop_
 _symmetry_equiv_pos_site_id
 _symmetry_equiv_pos_as_xyz
  1  'x, y, z'
loop_
 _atom_site_type_symbol
 _atom_site_label
 _atom_site_symmetry_multiplicity
 _atom_site_fract_x
 _atom_site_fract_y
 _atom_site_fract_z
 _atom_site_occupancy
  Tb  Tb0  1  0.059359  0.064925  0.436930  1
  Tb  Tb1  1  0.187341  0.814304  0.815088  1
  Tb  Tb2  1  0.812469  0.188754  0.188352  1
  Tb  Tb3  1  0.815675  0.186793  0.812612  1
  Tb  Tb4  1  0.188674  0.810801  0.187809  1
  Tb  Tb5  1  0.816031  0.811764  0.186776  1
  Tb  Tb6  1  0.188386  0.187871  0.811331  1
  Ho  Ho7  1  0.600318  0.597473  0.598015  1
  Ho  Ho8  1  0.606228  0.601094  0.194518  1
  Ho  Ho9  1  0.605559  0.195220  0.601318  1
  Ho  Ho10  1  0.187327  0.605588  0.606373  1
  Ho  Ho11  1  0.058243  0.440439  0.439531  1
  Ho  Ho12  1  0.439862  0.060425  0.060346  1
  Ho  Ho13  1  0.442298  0.060622  0.438629  1
  Ho  Ho14  1  0.059131  0.437709  0.064299  1
  Ho  Ho15  1  0.441543  0.438525  0.060925  1
  Cd  Cd16  1  0.830188  0.830753  0.830757  1
  Cd  Cd17  1  0.829479  0.831078  0.505094  1
  Cd  Cd18  1  0.829556  0.505259  0.830776  1
  Cd  Cd19  1  0.506554  0.829833  0.829805  1
  Ir  Ir20  1  0.822245  0.392824  0.391433  1
  Pt  Pt21  1  0.392228  0.395291  0.395583  1
  Pt  Pt22  1  0.389856  0.392328  0.821480  1
  Pt  Pt23  1  0.391455  0.820331  0.392222  1
