# generated using pymatgen
data_Ba8TmPuSe12
_symmetry_space_group_name_H-M   'P 1'
_cell_length_a   9.04660934
_cell_length_b   9.04661097
_cell_length_c   9.04660973
_cell_angle_alpha   89.17565660
_cell_angle_beta   89.17565751
_cell_angle_gamma   89.17565591
_symmetry_Int_Tables_number   1
_chemical_formula_structural   Ba8TmPuSe12
_chemical_formula_sum   'Ba8 Tm1 Pu1 Se12'
_cell_volume   740.15728706
_cell_formula_units_Z   1
loop_
 _symmetry_equiv_pos_site_id
 _symmetry_equiv_pos_as_xyz
  1  'x, y, z'
loop_
 _atom_site_type_symbol
 _atom_site_label
 _atom_site_symmetry_multiplicity
 _atom_site_fract_x
 _atom_site_fract_y
 _atom_site_fract_z
 _atom_site_occupancy
  Ba  Ba0  1  0.871250  0.622042  0.257265  1
  Ba  Ba1  1  0.257265  0.871250  0.622042  1
  Ba  Ba2  1  0.622042  0.257265  0.871250  1
  Ba  Ba3  1  0.742735  0.128750  0.377958  1
  Ba  Ba4  1  0.377958  0.742735  0.128750  1
  Ba  Ba5  1  0.128750  0.377958  0.742735  1
  Ba  Ba6  1  0.254942  0.254942  0.254942  1
  Ba  Ba7  1  0.745058  0.745058  0.745058  1
  Tm  Tm8  1  0.500000  0.500000  0.500000  1
  Pu  Pu9  1  0.000000  0.000000  0.000000  1
  Se  Se10  1  0.201023  0.564589  0.421441  1
  Se  Se11  1  0.421441  0.201023  0.564589  1
  Se  Se12  1  0.564589  0.421441  0.201023  1
  Se  Se13  1  0.927253  0.059066  0.706560  1
  Se  Se14  1  0.706560  0.927253  0.059066  1
  Se  Se15  1  0.059066  0.706560  0.927253  1
  Se  Se16  1  0.798977  0.435411  0.578559  1
  Se  Se17  1  0.578559  0.798977  0.435411  1
  Se  Se18  1  0.435411  0.578559  0.798977  1
  Se  Se19  1  0.072747  0.940934  0.293440  1
  Se  Se20  1  0.293440  0.072747  0.940934  1
  Se  Se21  1  0.940934  0.293440  0.072747  1
