# generated using pymatgen
data_Yb3Lu2Pa3(Pt2Pb)4
_symmetry_space_group_name_H-M   'P 1'
_cell_length_a   7.92673788
_cell_length_b   7.92861144
_cell_length_c   7.16549700
_cell_angle_alpha   90.00000000
_cell_angle_beta   90.00000000
_cell_angle_gamma   91.02935527
_symmetry_Int_Tables_number   1
_chemical_formula_structural   Yb3Lu2Pa3(Pt2Pb)4
_chemical_formula_sum   'Yb3 Lu2 Pa3 Pt8 Pb4'
_cell_volume   450.26465712
_cell_formula_units_Z   1
loop_
 _symmetry_equiv_pos_site_id
 _symmetry_equiv_pos_as_xyz
  1  'x, y, z'
loop_
 _atom_site_type_symbol
 _atom_site_label
 _atom_site_symmetry_multiplicity
 _atom_site_fract_x
 _atom_site_fract_y
 _atom_site_fract_z
 _atom_site_occupancy
  Yb  Yb0  1  0.657421  0.659458  0.500000  1
  Yb  Yb1  1  0.175183  0.823782  0.500000  1
  Yb  Yb2  1  0.159278  0.841393  0.000000  1
  Lu  Lu3  1  0.344131  0.345699  0.500000  1
  Lu  Lu4  1  0.843431  0.156895  0.000000  1
  Pa  Pa5  1  0.677680  0.676301  0.000000  1
  Pa  Pa6  1  0.824829  0.173943  0.500000  1
  Pa  Pa7  1  0.322549  0.321340  0.000000  1
  Pt  Pt8  1  0.863861  0.877918  0.739599  1
  Pt  Pt9  1  0.127513  0.139703  0.733172  1
  Pt  Pt10  1  0.634473  0.362221  0.771295  1
  Pt  Pt11  1  0.634473  0.362221  0.228705  1
  Pt  Pt12  1  0.378943  0.616082  0.220547  1
  Pt  Pt13  1  0.127513  0.139703  0.266828  1
  Pt  Pt14  1  0.863861  0.877918  0.260401  1
  Pt  Pt15  1  0.378943  0.616082  0.779453  1
  Pb  Pb16  1  0.491995  0.996122  0.745611  1
  Pb  Pb17  1  0.491995  0.996122  0.254389  1
  Pb  Pb18  1  0.000965  0.508548  0.745193  1
  Pb  Pb19  1  0.000965  0.508548  0.254807  1
