# generated using pymatgen
data_Y2LuCo(P3Rh4)2
_symmetry_space_group_name_H-M   'P 1'
_cell_length_a   3.85345800
_cell_length_b   11.11368900
_cell_length_c   12.75416100
_cell_angle_alpha   90.00000000
_cell_angle_beta   90.00000000
_cell_angle_gamma   90.00000000
_symmetry_Int_Tables_number   1
_chemical_formula_structural   Y2LuCo(P3Rh4)2
_chemical_formula_sum   'Y4 Lu2 Co2 P12 Rh16'
_cell_volume   546.21140532
_cell_formula_units_Z   2
loop_
 _symmetry_equiv_pos_site_id
 _symmetry_equiv_pos_as_xyz
  1  'x, y, z'
loop_
 _atom_site_type_symbol
 _atom_site_label
 _atom_site_symmetry_multiplicity
 _atom_site_fract_x
 _atom_site_fract_y
 _atom_site_fract_z
 _atom_site_occupancy
  Y  Y0  1  0.000000  0.500000  0.521571  1
  Y  Y1  1  0.500000  0.000000  0.477883  1
  Y  Y2  1  0.000000  0.685213  0.798353  1
  Y  Y3  1  0.000000  0.314787  0.798353  1
  Lu  Lu4  1  0.500000  0.815210  0.202156  1
  Lu  Lu5  1  0.500000  0.184790  0.202156  1
  Co  Co6  1  0.000000  0.500000  0.980804  1
  Co  Co7  1  0.500000  0.000000  0.023144  1
  P  P8  1  0.500000  0.500000  0.882209  1
  P  P9  1  0.000000  0.000000  0.119889  1
  P  P10  1  0.500000  0.500000  0.350898  1
  P  P11  1  0.000000  0.000000  0.648689  1
  P  P12  1  0.500000  0.315640  0.619005  1
  P  P13  1  0.500000  0.684360  0.619005  1
  P  P14  1  0.000000  0.184037  0.378699  1
  P  P15  1  0.000000  0.815963  0.378699  1
  P  P16  1  0.500000  0.854481  0.896308  1
  P  P17  1  0.500000  0.145519  0.896308  1
  P  P18  1  0.000000  0.648500  0.104645  1
  P  P19  1  0.000000  0.351500  0.104645  1
  Rh  Rh20  1  0.500000  0.500000  0.167886  1
  Rh  Rh21  1  0.000000  0.000000  0.832804  1
  Rh  Rh22  1  0.500000  0.500000  0.703335  1
  Rh  Rh23  1  0.000000  0.000000  0.295732  1
  Rh  Rh24  1  0.500000  0.335614  0.994494  1
  Rh  Rh25  1  0.500000  0.664386  0.994494  1
  Rh  Rh26  1  0.000000  0.163019  0.008219  1
  Rh  Rh27  1  0.000000  0.836981  0.008219  1
  Rh  Rh28  1  0.500000  0.293888  0.428922  1
  Rh  Rh29  1  0.500000  0.706112  0.428922  1
  Rh  Rh30  1  0.000000  0.205951  0.568728  1
  Rh  Rh31  1  0.000000  0.794049  0.568728  1
  Rh  Rh32  1  0.500000  0.873814  0.711678  1
  Rh  Rh33  1  0.500000  0.126186  0.711678  1
  Rh  Rh34  1  0.000000  0.628061  0.286370  1
  Rh  Rh35  1  0.000000  0.371939  0.286370  1
