# generated using pymatgen
data_Dy3Sc3Bi2Os
_symmetry_space_group_name_H-M   'P 1'
_cell_length_a   7.95786713
_cell_length_b   7.95787868
_cell_length_c   4.24591500
_cell_angle_alpha   90.00000000
_cell_angle_beta   90.00000000
_cell_angle_gamma   119.99893388
_symmetry_Int_Tables_number   1
_chemical_formula_structural   Dy3Sc3Bi2Os
_chemical_formula_sum   'Dy3 Sc3 Bi2 Os1'
_cell_volume   232.86305460
_cell_formula_units_Z   1
loop_
 _symmetry_equiv_pos_site_id
 _symmetry_equiv_pos_as_xyz
  1  'x, y, z'
loop_
 _atom_site_type_symbol
 _atom_site_label
 _atom_site_symmetry_multiplicity
 _atom_site_fract_x
 _atom_site_fract_y
 _atom_site_fract_z
 _atom_site_occupancy
  Dy  Dy0  1  0.614126  0.999991  0.000000  1
  Dy  Dy1  1  0.999994  0.614104  0.000000  1
  Dy  Dy2  1  0.385818  0.385817  0.000000  1
  Sc  Sc3  1  0.222340  0.000005  0.500000  1
  Sc  Sc4  1  0.000004  0.222353  0.500000  1
  Sc  Sc5  1  0.777708  0.777699  0.500000  1
  Bi  Bi6  1  0.333353  0.666668  0.500000  1
  Bi  Bi7  1  0.666655  0.333353  0.500000  1
  Os  Os8  1  0.000007  0.000010  0.000000  1
