# generated using pymatgen
data_ThZrScFe9
_symmetry_space_group_name_H-M   'P 1'
_cell_length_a   8.57375521
_cell_length_b   8.57375484
_cell_length_c   8.57375473
_cell_angle_alpha   33.97023361
_cell_angle_beta   33.97022610
_cell_angle_gamma   33.97022411
_symmetry_Int_Tables_number   1
_chemical_formula_structural   ThZrScFe9
_chemical_formula_sum   'Th1 Zr1 Sc1 Fe9'
_cell_volume   175.39066707
_cell_formula_units_Z   1
loop_
 _symmetry_equiv_pos_site_id
 _symmetry_equiv_pos_as_xyz
  1  'x, y, z'
loop_
 _atom_site_type_symbol
 _atom_site_label
 _atom_site_symmetry_multiplicity
 _atom_site_fract_x
 _atom_site_fract_y
 _atom_site_fract_z
 _atom_site_occupancy
  Th  Th0  1  0.999212  0.999212  0.999212  1
  Zr  Zr1  1  0.144179  0.144179  0.144179  1
  Sc  Sc2  1  0.856747  0.856747  0.856747  1
  Fe  Fe3  1  0.413890  0.915737  0.413890  1
  Fe  Fe4  1  0.413890  0.413890  0.915737  1
  Fe  Fe5  1  0.915737  0.413890  0.413890  1
  Fe  Fe6  1  0.586342  0.083426  0.586342  1
  Fe  Fe7  1  0.586342  0.586342  0.083426  1
  Fe  Fe8  1  0.083426  0.586342  0.586342  1
  Fe  Fe9  1  0.667736  0.667736  0.667736  1
  Fe  Fe10  1  0.332503  0.332503  0.332503  1
  Fe  Fe11  1  0.499996  0.499996  0.499996  1
