# generated using pymatgen
data_RbMn(PS4)2
_symmetry_space_group_name_H-M   'P 1'
_cell_length_a   7.14368428
_cell_length_b   11.39597708
_cell_length_c   17.48079100
_cell_angle_alpha   99.01761533
_cell_angle_beta   89.98408737
_cell_angle_gamma   108.27451500
_symmetry_Int_Tables_number   1
_chemical_formula_structural   RbMn(PS4)2
_chemical_formula_sum   'Rb4 Mn4 P8 S32'
_cell_volume   1332.80898772
_cell_formula_units_Z   4
loop_
 _symmetry_equiv_pos_site_id
 _symmetry_equiv_pos_as_xyz
  1  'x, y, z'
loop_
 _atom_site_type_symbol
 _atom_site_label
 _atom_site_symmetry_multiplicity
 _atom_site_fract_x
 _atom_site_fract_y
 _atom_site_fract_z
 _atom_site_occupancy
  Rb  Rb0  1  0.685753  0.804310  0.335809  1
  Rb  Rb1  1  0.493776  0.512521  0.623076  1
  Rb  Rb2  1  0.018648  0.512515  0.123040  1
  Rb  Rb3  1  0.118301  0.804344  0.835824  1
  Mn  Mn4  1  0.650973  0.999401  0.102365  1
  Mn  Mn5  1  0.015534  0.291831  0.848755  1
  Mn  Mn6  1  0.348720  0.999287  0.602419  1
  Mn  Mn7  1  0.276384  0.292081  0.348741  1
  P  P8  1  0.431691  0.143854  0.213725  1
  P  P9  1  0.268015  0.152731  0.484722  1
  P  P10  1  0.884741  0.152734  0.984715  1
  P  P11  1  0.098728  0.725395  0.599350  1
  P  P12  1  0.626512  0.725358  0.099360  1
  P  P13  1  0.132210  0.524931  0.358275  1
  P  P14  1  0.712120  0.143794  0.713698  1
  P  P15  1  0.392648  0.524889  0.858290  1
  S  S16  1  0.120042  0.507813  0.903519  1
  S  S17  1  0.153709  0.675725  0.312775  1
  S  S18  1  0.909923  0.671128  0.494277  1
  S  S19  1  0.387836  0.508014  0.403500  1
  S  S20  1  0.422547  0.058217  0.735645  1
  S  S21  1  0.286862  0.974419  0.467867  1
  S  S22  1  0.552037  0.588298  0.160662  1
  S  S23  1  0.029962  0.885648  0.638506  1
  S  S24  1  0.761130  0.671137  0.994279  1
  S  S25  1  0.024761  0.348924  0.292578  1
  S  S26  1  0.823263  0.332443  0.754078  1
  S  S27  1  0.404225  0.093921  0.095539  1
  S  S28  1  0.635686  0.058267  0.235625  1
  S  S29  1  0.040879  0.188647  0.431667  1
  S  S30  1  0.509347  0.332543  0.254085  1
  S  S31  1  0.391782  0.799686  0.577403  1
  S  S32  1  0.855685  0.885632  0.138499  1
  S  S33  1  0.687684  0.974403  0.967852  1
  S  S34  1  0.904495  0.089732  0.775831  1
  S  S35  1  0.767365  0.271036  0.939540  1
  S  S36  1  0.915426  0.497809  0.445882  1
  S  S37  1  0.522121  0.675735  0.812827  1
  S  S38  1  0.582342  0.497828  0.945866  1
  S  S39  1  0.503589  0.271124  0.439499  1
  S  S40  1  0.256726  0.180693  0.602724  1
  S  S41  1  0.036138  0.588330  0.660654  1
  S  S42  1  0.689846  0.093885  0.595511  1
  S  S43  1  0.324145  0.348862  0.792623  1
  S  S44  1  0.147733  0.188566  0.931590  1
  S  S45  1  0.185254  0.089944  0.275914  1
  S  S46  1  0.407982  0.799780  0.077455  1
  S  S47  1  0.924200  0.180801  0.102708  1
