# generated using pymatgen
data_Nd4Y4Re3B24Os
_symmetry_space_group_name_H-M   'P 1'
_cell_length_a   3.72818900
_cell_length_b   9.26936440
_cell_length_c   11.71918410
_cell_angle_alpha   89.93495764
_cell_angle_beta   90.00000000
_cell_angle_gamma   90.00000000
_symmetry_Int_Tables_number   1
_chemical_formula_structural   Nd4Y4Re3B24Os
_chemical_formula_sum   'Nd4 Y4 Re3 B24 Os1'
_cell_volume   404.99062797
_cell_formula_units_Z   1
loop_
 _symmetry_equiv_pos_site_id
 _symmetry_equiv_pos_as_xyz
  1  'x, y, z'
loop_
 _atom_site_type_symbol
 _atom_site_label
 _atom_site_symmetry_multiplicity
 _atom_site_fract_x
 _atom_site_fract_y
 _atom_site_fract_z
 _atom_site_occupancy
  Nd  Nd0  1  0.000000  0.821979  0.085562  1
  Nd  Nd1  1  0.000000  0.177342  0.912766  1
  Nd  Nd2  1  0.000000  0.324036  0.415286  1
  Nd  Nd3  1  0.000000  0.677186  0.586347  1
  Y  Y4  1  0.000000  0.442465  0.130640  1
  Y  Y5  1  0.000000  0.556906  0.869959  1
  Y  Y6  1  0.000000  0.942188  0.369576  1
  Y  Y7  1  0.000000  0.057280  0.629885  1
  Re  Re8  1  0.000000  0.861894  0.820578  1
  Re  Re9  1  0.000000  0.638781  0.319151  1
  Re  Re10  1  0.000000  0.361112  0.680299  1
  B  B11  1  0.500000  0.055062  0.069401  1
  B  B12  1  0.500000  0.945545  0.930777  1
  B  B13  1  0.500000  0.554534  0.430985  1
  B  B14  1  0.500000  0.445585  0.569346  1
  B  B15  1  0.500000  0.248466  0.083976  1
  B  B16  1  0.500000  0.750742  0.916404  1
  B  B17  1  0.500000  0.749153  0.416215  1
  B  B18  1  0.500000  0.251337  0.583630  1
  B  B19  1  0.500000  0.289567  0.233610  1
  B  B20  1  0.500000  0.709559  0.766586  1
  B  B21  1  0.500000  0.790275  0.266069  1
  B  B22  1  0.500000  0.209332  0.733412  1
  B  B23  1  0.500000  0.130066  0.312912  1
  B  B24  1  0.500000  0.870374  0.687102  1
  B  B25  1  0.500000  0.629981  0.186275  1
  B  B26  1  0.500000  0.369932  0.813295  1
  B  B27  1  0.500000  0.484171  0.287231  1
  B  B28  1  0.500000  0.516042  0.713221  1
  B  B29  1  0.500000  0.984834  0.212558  1
  B  B30  1  0.500000  0.016544  0.787089  1
  B  B31  1  0.500000  0.098116  0.472224  1
  B  B32  1  0.500000  0.901991  0.526873  1
  B  B33  1  0.500000  0.597529  0.027562  1
  B  B34  1  0.500000  0.401269  0.972887  1
  Os  Os35  1  0.000000  0.138824  0.180315  1
