# generated using pymatgen
data_Tm2Co2NiP7Ru9
_symmetry_space_group_name_H-M   'P 1'
_cell_length_a   9.32056536
_cell_length_b   9.36506626
_cell_length_c   3.81083400
_cell_angle_alpha   90.00000000
_cell_angle_beta   90.00000000
_cell_angle_gamma   120.24357292
_symmetry_Int_Tables_number   1
_chemical_formula_structural   Tm2Co2NiP7Ru9
_chemical_formula_sum   'Tm2 Co2 Ni1 P7 Ru9'
_cell_volume   287.36415822
_cell_formula_units_Z   1
loop_
 _symmetry_equiv_pos_site_id
 _symmetry_equiv_pos_as_xyz
  1  'x, y, z'
loop_
 _atom_site_type_symbol
 _atom_site_label
 _atom_site_symmetry_multiplicity
 _atom_site_fract_x
 _atom_site_fract_y
 _atom_site_fract_z
 _atom_site_occupancy
  Tm  Tm0  1  0.668092  0.335795  0.000000  1
  Tm  Tm1  1  0.999929  0.999375  0.500000  1
  Co  Co2  1  0.061839  0.553261  0.000000  1
  Co  Co3  1  0.445363  0.507780  0.000000  1
  Ni  Ni4  1  0.492619  0.937665  0.000000  1
  P  P5  1  0.332060  0.663424  0.000000  1
  P  P6  1  0.448110  0.071280  0.500000  1
  P  P7  1  0.930702  0.381495  0.500000  1
  P  P8  1  0.619116  0.550024  0.500000  1
  P  P9  1  0.747071  0.966553  0.000000  1
  P  P10  1  0.033741  0.776513  0.000000  1
  P  P11  1  0.222331  0.255164  0.000000  1
  Ru  Ru12  1  0.761585  0.729923  0.000000  1
  Ru  Ru13  1  0.271263  0.031768  0.000000  1
  Ru  Ru14  1  0.968480  0.239426  0.000000  1
  Ru  Ru15  1  0.714775  0.101714  0.500000  1
  Ru  Ru16  1  0.897414  0.613259  0.500000  1
  Ru  Ru17  1  0.385464  0.284429  0.500000  1
  Ru  Ru18  1  0.540642  0.750673  0.500000  1
  Ru  Ru19  1  0.246833  0.789084  0.500000  1
  Ru  Ru20  1  0.212574  0.461393  0.500000  1
