# generated using pymatgen
data_Ca4Ho2Si24Os5Ru3
_symmetry_space_group_name_H-M   'P 1'
_cell_length_a   10.16678220
_cell_length_b   10.16631407
_cell_length_c   8.15812811
_cell_angle_alpha   89.98741377
_cell_angle_beta   89.99264196
_cell_angle_gamma   132.67512374
_symmetry_Int_Tables_number   1
_chemical_formula_structural   Ca4Ho2Si24Os5Ru3
_chemical_formula_sum   'Ca4 Ho2 Si24 Os5 Ru3'
_cell_volume   619.93808223
_cell_formula_units_Z   1
loop_
 _symmetry_equiv_pos_site_id
 _symmetry_equiv_pos_as_xyz
  1  'x, y, z'
loop_
 _atom_site_type_symbol
 _atom_site_label
 _atom_site_symmetry_multiplicity
 _atom_site_fract_x
 _atom_site_fract_y
 _atom_site_fract_z
 _atom_site_occupancy
  Ca  Ca0  1  0.499810  0.499575  0.499910  1
  Ca  Ca1  1  0.999714  0.999982  0.999589  1
  Ca  Ca2  1  0.499902  0.000041  0.749949  1
  Ca  Ca3  1  0.999889  0.500357  0.250144  1
  Ho  Ho4  1  0.500751  0.000295  0.250192  1
  Ho  Ho5  1  0.999448  0.499451  0.749937  1
  Si  Si6  1  0.795802  0.204390  0.500070  1
  Si  Si7  1  0.295324  0.704800  0.000072  1
  Si  Si8  1  0.204843  0.795408  0.500079  1
  Si  Si9  1  0.704319  0.295668  0.000045  1
  Si  Si10  1  0.332698  0.335663  0.832359  1
  Si  Si11  1  0.664501  0.667412  0.167631  1
  Si  Si12  1  0.166780  0.163603  0.330573  1
  Si  Si13  1  0.833997  0.830994  0.667014  1
  Si  Si14  1  0.122436  0.889578  0.729944  1
  Si  Si15  1  0.110702  0.878231  0.270208  1
  Si  Si16  1  0.607360  0.374825  0.229810  1
  Si  Si17  1  0.625811  0.392898  0.770430  1
  Si  Si18  1  0.875902  0.108407  0.270282  1
  Si  Si19  1  0.891643  0.124626  0.729894  1
  Si  Si20  1  0.390422  0.623322  0.770480  1
  Si  Si21  1  0.377110  0.609652  0.229739  1
  Si  Si22  1  0.346613  0.112988  0.505888  1
  Si  Si23  1  0.887103  0.653887  0.494776  1
  Si  Si24  1  0.386738  0.153470  0.010072  1
  Si  Si25  1  0.846578  0.613687  0.990379  1
  Si  Si26  1  0.653597  0.886280  0.491425  1
  Si  Si27  1  0.113712  0.346901  0.509177  1
  Si  Si28  1  0.612814  0.846154  0.993676  1
  Si  Si29  1  0.153833  0.387591  0.006676  1
  Os  Os30  1  0.671117  0.328999  0.500026  1
  Os  Os31  1  0.170341  0.829737  0.999995  1
  Os  Os32  1  0.329803  0.670331  0.500005  1
  Os  Os33  1  0.828967  0.171045  0.999992  1
  Os  Os34  1  0.126875  0.126900  0.625030  1
  Ru  Ru35  1  0.872887  0.872952  0.374703  1
  Ru  Ru36  1  0.373245  0.373247  0.124610  1
  Ru  Ru37  1  0.626613  0.626654  0.875217  1
