# generated using pymatgen
data_K6MoP4
_symmetry_space_group_name_H-M   'P 1'
_cell_length_a   10.08570700
_cell_length_b   10.08570670
_cell_length_c   8.04162300
_cell_angle_alpha   90.00000000
_cell_angle_beta   90.00000000
_cell_angle_gamma   119.99999114
_symmetry_Int_Tables_number   1
_chemical_formula_structural   K6MoP4
_chemical_formula_sum   'K12 Mo2 P8'
_cell_volume   708.41387935
_cell_formula_units_Z   2
loop_
 _symmetry_equiv_pos_site_id
 _symmetry_equiv_pos_as_xyz
  1  'x, y, z'
loop_
 _atom_site_type_symbol
 _atom_site_label
 _atom_site_symmetry_multiplicity
 _atom_site_fract_x
 _atom_site_fract_y
 _atom_site_fract_z
 _atom_site_occupancy
  K  K0  1  0.146471  0.292945  0.287362  1
  K  K1  1  0.853529  0.146471  0.787362  1
  K  K2  1  0.532783  0.467217  0.105029  1
  K  K3  1  0.065566  0.532783  0.605029  1
  K  K4  1  0.467217  0.934434  0.605029  1
  K  K5  1  0.532783  0.065566  0.105029  1
  K  K6  1  0.934434  0.467217  0.105029  1
  K  K7  1  0.467217  0.532783  0.605029  1
  K  K8  1  0.146471  0.853529  0.287362  1
  K  K9  1  0.707055  0.853529  0.287362  1
  K  K10  1  0.853529  0.707055  0.787362  1
  K  K11  1  0.292945  0.146471  0.787362  1
  Mo  Mo12  1  0.666667  0.333333  0.496718  1
  Mo  Mo13  1  0.333333  0.666667  0.996718  1
  P  P14  1  0.793820  0.587640  0.405365  1
  P  P15  1  0.412360  0.206180  0.405365  1
  P  P16  1  0.333333  0.666667  0.284914  1
  P  P17  1  0.666667  0.333333  0.784914  1
  P  P18  1  0.793820  0.206180  0.405365  1
  P  P19  1  0.206180  0.793820  0.905365  1
  P  P20  1  0.206180  0.412360  0.905365  1
  P  P21  1  0.587640  0.793820  0.905365  1
