# generated using pymatgen
data_DyY2Be8B20SbO44
_symmetry_space_group_name_H-M   'P 1'
_cell_length_a   4.36340201
_cell_length_b   6.71940000
_cell_length_c   25.80961300
_cell_angle_alpha   90.00115966
_cell_angle_beta   89.99645463
_cell_angle_gamma   90.00157755
_symmetry_Int_Tables_number   1
_chemical_formula_structural   DyY2Be8B20SbO44
_chemical_formula_sum   'Dy1 Y2 Be8 B20 Sb1 O44'
_cell_volume   756.72348750
_cell_formula_units_Z   1
loop_
 _symmetry_equiv_pos_site_id
 _symmetry_equiv_pos_as_xyz
  1  'x, y, z'
loop_
 _atom_site_type_symbol
 _atom_site_label
 _atom_site_symmetry_multiplicity
 _atom_site_fract_x
 _atom_site_fract_y
 _atom_site_fract_z
 _atom_site_occupancy
  Dy  Dy0  1  0.871334  0.367631  0.919090  1
  Y  Y1  1  0.365547  0.867799  0.580609  1
  Y  Y2  1  0.634715  0.367118  0.419772  1
  Be  Be3  1  0.166452  0.453177  0.790197  1
  Be  Be4  1  0.827635  0.949791  0.210531  1
  Be  Be5  1  0.666322  0.952748  0.709082  1
  Be  Be6  1  0.332559  0.452663  0.291714  1
  Be  Be7  1  0.665398  0.229787  0.792288  1
  Be  Be8  1  0.335440  0.728656  0.208456  1
  Be  Be9  1  0.162988  0.729355  0.706697  1
  Be  Be10  1  0.834844  0.229560  0.293415  1
  B  B11  1  0.382602  0.039673  0.868358  1
  B  B12  1  0.623349  0.542593  0.132227  1
  B  B13  1  0.873818  0.539848  0.630117  1
  B  B14  1  0.126202  0.039322  0.369953  1
  B  B15  1  0.151604  0.709809  0.869966  1
  B  B16  1  0.832439  0.210304  0.129685  1
  B  B17  1  0.646710  0.209530  0.629209  1
  B  B18  1  0.353172  0.709046  0.371188  1
  B  B19  1  0.041800  0.940390  0.942059  1
  B  B20  1  0.971746  0.436708  0.055994  1
  B  B21  1  0.525769  0.437835  0.556534  1
  B  B22  1  0.474204  0.938020  0.443699  1
  B  B23  1  0.555446  0.956588  0.995919  1
  B  B24  1  0.462036  0.453583  0.001695  1
  B  B25  1  0.037422  0.457855  0.501998  1
  B  B26  1  0.962683  0.958123  0.498204  1
  B  B27  1  0.178385  0.088963  0.751106  1
  B  B28  1  0.820890  0.589102  0.249723  1
  B  B29  1  0.677406  0.588799  0.748052  1
  B  B30  1  0.319415  0.089627  0.252273  1
  Sb  Sb31  1  0.076676  0.875448  0.080516  1
  O  O32  1  0.358621  0.845428  0.848841  1
  O  O33  1  0.643928  0.348928  0.152289  1
  O  O34  1  0.852094  0.346367  0.650034  1
  O  O35  1  0.148498  0.845778  0.350074  1
  O  O36  1  0.657276  0.917530  0.044632  1
  O  O37  1  0.373568  0.425640  0.951896  1
  O  O38  1  0.128312  0.426395  0.452529  1
  O  O39  1  0.871873  0.926588  0.547660  1
  O  O40  1  0.001651  0.746876  0.916580  1
  O  O41  1  0.978714  0.243800  0.082986  1
  O  O42  1  0.494301  0.244736  0.582664  1
  O  O43  1  0.505925  0.744875  0.417629  1
  O  O44  1  0.242905  0.926456  0.988435  1
  O  O45  1  0.781927  0.432232  0.008589  1
  O  O46  1  0.721036  0.426285  0.509388  1
  O  O47  1  0.278910  0.926649  0.490801  1
  O  O48  1  0.167205  0.089006  0.906155  1
  O  O49  1  0.843480  0.587925  0.093269  1
  O  O50  1  0.656122  0.586933  0.592242  1
  O  O51  1  0.343539  0.086783  0.407862  1
  O  O52  1  0.086929  0.528299  0.849005  1
  O  O53  1  0.881174  0.023015  0.149598  1
  O  O54  1  0.585455  0.028169  0.650465  1
  O  O55  1  0.413292  0.527069  0.350229  1
  O  O56  1  0.587931  0.178547  0.852816  1
  O  O57  1  0.426935  0.678537  0.149538  1
  O  O58  1  0.078236  0.679191  0.646002  1
  O  O59  1  0.921159  0.177922  0.353914  1
  O  O60  1  0.741860  0.024596  0.956242  1
  O  O61  1  0.280821  0.498350  0.043749  1
  O  O62  1  0.222834  0.517364  0.542796  1
  O  O63  1  0.777253  0.017746  0.457397  1
  O  O64  1  0.029383  0.225197  0.782334  1
  O  O65  1  0.970381  0.724979  0.218312  1
  O  O66  1  0.527752  0.724413  0.716615  1
  O  O67  1  0.469160  0.224460  0.283862  1
  O  O68  1  0.493018  0.087688  0.751484  1
  O  O69  1  0.506687  0.588557  0.249876  1
  O  O70  1  0.992096  0.588007  0.747763  1
  O  O71  1  0.004337  0.090876  0.251243  1
  O  O72  1  0.027496  0.954428  0.720298  1
  O  O73  1  0.971781  0.454365  0.280386  1
  O  O74  1  0.527421  0.454488  0.778968  1
  O  O75  1  0.469716  0.953505  0.222227  1
