# generated using pymatgen
data_Dy9Tm7(In3Co)2
_symmetry_space_group_name_H-M   'P 1'
_cell_length_a   10.27809004
_cell_length_b   10.27808916
_cell_length_c   7.03568400
_cell_angle_alpha   89.99543753
_cell_angle_beta   90.00454939
_cell_angle_gamma   119.99089399
_symmetry_Int_Tables_number   1
_chemical_formula_structural   Dy9Tm7(In3Co)2
_chemical_formula_sum   'Dy9 Tm7 In6 Co2'
_cell_volume   643.72680919
_cell_formula_units_Z   1
loop_
 _symmetry_equiv_pos_site_id
 _symmetry_equiv_pos_as_xyz
  1  'x, y, z'
loop_
 _atom_site_type_symbol
 _atom_site_label
 _atom_site_symmetry_multiplicity
 _atom_site_fract_x
 _atom_site_fract_y
 _atom_site_fract_z
 _atom_site_occupancy
  Dy  Dy0  1  0.535178  0.070522  0.511821  1
  Dy  Dy1  1  0.929478  0.464822  0.511821  1
  Dy  Dy2  1  0.534938  0.465062  0.512363  1
  Dy  Dy3  1  0.464661  0.929102  0.012029  1
  Dy  Dy4  1  0.070898  0.535339  0.012029  1
  Dy  Dy5  1  0.666346  0.333654  0.903027  1
  Dy  Dy6  1  0.333640  0.666360  0.402989  1
  Dy  Dy7  1  0.000085  0.999915  0.500926  1
  Dy  Dy8  1  0.999927  0.000073  0.001117  1
  Tm  Tm9  1  0.464165  0.535835  0.012967  1
  Tm  Tm10  1  0.179069  0.357332  0.720171  1
  Tm  Tm11  1  0.642668  0.820931  0.720171  1
  Tm  Tm12  1  0.178670  0.821330  0.719451  1
  Tm  Tm13  1  0.820728  0.642663  0.218675  1
  Tm  Tm14  1  0.357337  0.179272  0.218675  1
  Tm  Tm15  1  0.821528  0.178472  0.219300  1
  In  In16  1  0.837731  0.675076  0.762083  1
  In  In17  1  0.324924  0.162269  0.762083  1
  In  In18  1  0.837525  0.162475  0.761869  1
  In  In19  1  0.162758  0.325312  0.261881  1
  In  In20  1  0.674688  0.837242  0.261881  1
  In  In21  1  0.162426  0.837574  0.262031  1
  Co  Co22  1  0.666624  0.333376  0.287187  1
  Co  Co23  1  0.334005  0.665995  0.787659  1
