# generated using pymatgen
data_LuTi(NbSe2)8
_symmetry_space_group_name_H-M   'P 1'
_cell_length_a   6.99792100
_cell_length_b   6.99792317
_cell_length_c   13.51924800
_cell_angle_alpha   90.00000000
_cell_angle_beta   90.00000000
_cell_angle_gamma   120.00000392
_symmetry_Int_Tables_number   1
_chemical_formula_structural   LuTi(NbSe2)8
_chemical_formula_sum   'Lu1 Ti1 Nb8 Se16'
_cell_volume   573.35203058
_cell_formula_units_Z   1
loop_
 _symmetry_equiv_pos_site_id
 _symmetry_equiv_pos_as_xyz
  1  'x, y, z'
loop_
 _atom_site_type_symbol
 _atom_site_label
 _atom_site_symmetry_multiplicity
 _atom_site_fract_x
 _atom_site_fract_y
 _atom_site_fract_z
 _atom_site_occupancy
  Lu  Lu0  1  0.000000  0.000000  0.500000  1
  Ti  Ti1  1  0.000000  0.000000  0.000000  1
  Nb  Nb2  1  0.000000  0.000000  0.239874  1
  Nb  Nb3  1  0.000000  0.000000  0.760126  1
  Nb  Nb4  1  0.506669  0.013338  0.239389  1
  Nb  Nb5  1  0.493331  0.986662  0.760611  1
  Nb  Nb6  1  0.986662  0.493331  0.239389  1
  Nb  Nb7  1  0.013338  0.506669  0.760611  1
  Nb  Nb8  1  0.506669  0.493331  0.239389  1
  Nb  Nb9  1  0.493331  0.506669  0.760611  1
  Se  Se10  1  0.333333  0.666667  0.632106  1
  Se  Se11  1  0.666667  0.333333  0.367894  1
  Se  Se12  1  0.666667  0.333333  0.112494  1
  Se  Se13  1  0.333333  0.666667  0.887506  1
  Se  Se14  1  0.168082  0.336164  0.116040  1
  Se  Se15  1  0.831918  0.663836  0.883960  1
  Se  Se16  1  0.663836  0.831918  0.116040  1
  Se  Se17  1  0.830142  0.660284  0.636537  1
  Se  Se18  1  0.336164  0.168082  0.883960  1
  Se  Se19  1  0.169858  0.339716  0.363463  1
  Se  Se20  1  0.168082  0.831918  0.116040  1
  Se  Se21  1  0.339716  0.169858  0.636537  1
  Se  Se22  1  0.831918  0.168082  0.883960  1
  Se  Se23  1  0.660284  0.830142  0.363463  1
  Se  Se24  1  0.830142  0.169858  0.636537  1
  Se  Se25  1  0.169858  0.830142  0.363463  1
