# generated using pymatgen
data_CeEr3Ti3AlIr4
_symmetry_space_group_name_H-M   'P 1'
_cell_length_a   6.93152344
_cell_length_b   4.33858700
_cell_length_c   7.98040041
_cell_angle_alpha   90.00000000
_cell_angle_beta   93.31842033
_cell_angle_gamma   90.00000000
_symmetry_Int_Tables_number   1
_chemical_formula_structural   CeEr3Ti3AlIr4
_chemical_formula_sum   'Ce1 Er3 Ti3 Al1 Ir4'
_cell_volume   239.59231191
_cell_formula_units_Z   1
loop_
 _symmetry_equiv_pos_site_id
 _symmetry_equiv_pos_as_xyz
  1  'x, y, z'
loop_
 _atom_site_type_symbol
 _atom_site_label
 _atom_site_symmetry_multiplicity
 _atom_site_fract_x
 _atom_site_fract_y
 _atom_site_fract_z
 _atom_site_occupancy
  Ce  Ce0  1  0.525228  0.750000  0.691650  1
  Er  Er1  1  0.980754  0.250000  0.171992  1
  Er  Er2  1  0.468764  0.250000  0.313595  1
  Er  Er3  1  0.029883  0.750000  0.824602  1
  Ti  Ti4  1  0.872872  0.250000  0.564278  1
  Ti  Ti5  1  0.136856  0.750000  0.429178  1
  Ti  Ti6  1  0.629613  0.750000  0.064997  1
  Al  Al7  1  0.351901  0.250000  0.937496  1
  Ir  Ir8  1  0.726093  0.250000  0.884241  1
  Ir  Ir9  1  0.228370  0.250000  0.601555  1
  Ir  Ir10  1  0.272777  0.750000  0.121258  1
  Ir  Ir11  1  0.776888  0.750000  0.395159  1
