# generated using pymatgen
data_Tb4Dy(AlTe)2
_symmetry_space_group_name_H-M   'P 1'
_cell_length_a   8.67073300
_cell_length_b   8.67073366
_cell_length_c   7.91751900
_cell_angle_alpha   90.00000000
_cell_angle_beta   90.00000000
_cell_angle_gamma   125.81604191
_symmetry_Int_Tables_number   1
_chemical_formula_structural   Tb4Dy(AlTe)2
_chemical_formula_sum   'Tb8 Dy2 Al4 Te4'
_cell_volume   482.68975216
_cell_formula_units_Z   2
loop_
 _symmetry_equiv_pos_site_id
 _symmetry_equiv_pos_as_xyz
  1  'x, y, z'
loop_
 _atom_site_type_symbol
 _atom_site_label
 _atom_site_symmetry_multiplicity
 _atom_site_fract_x
 _atom_site_fract_y
 _atom_site_fract_z
 _atom_site_occupancy
  Tb  Tb0  1  0.801096  0.537537  0.168315  1
  Tb  Tb1  1  0.462463  0.198904  0.831685  1
  Tb  Tb2  1  0.962463  0.698904  0.668315  1
  Tb  Tb3  1  0.301096  0.037537  0.331685  1
  Tb  Tb4  1  0.198904  0.462463  0.831685  1
  Tb  Tb5  1  0.537537  0.801096  0.168315  1
  Tb  Tb6  1  0.037537  0.301096  0.331685  1
  Tb  Tb7  1  0.698904  0.962463  0.668315  1
  Dy  Dy8  1  0.000000  0.000000  0.000000  1
  Dy  Dy9  1  0.500000  0.500000  0.500000  1
  Al  Al10  1  0.877256  0.877256  0.378239  1
  Al  Al11  1  0.122744  0.122744  0.621761  1
  Al  Al12  1  0.622744  0.622744  0.878239  1
  Al  Al13  1  0.377256  0.377256  0.121761  1
  Te  Te14  1  0.203799  0.796201  0.000000  1
  Te  Te15  1  0.703799  0.296201  0.500000  1
  Te  Te16  1  0.796201  0.203799  0.000000  1
  Te  Te17  1  0.296201  0.703799  0.500000  1
