# generated using pymatgen
data_RbMn3GaO8
_symmetry_space_group_name_H-M   'P 1'
_cell_length_a   2.97615075
_cell_length_b   7.22149191
_cell_length_c   7.27173786
_cell_angle_alpha   87.26126510
_cell_angle_beta   101.79525065
_cell_angle_gamma   101.89139113
_symmetry_Int_Tables_number   1
_chemical_formula_structural   RbMn3GaO8
_chemical_formula_sum   'Rb1 Mn3 Ga1 O8'
_cell_volume   149.70021653
_cell_formula_units_Z   1
loop_
 _symmetry_equiv_pos_site_id
 _symmetry_equiv_pos_as_xyz
  1  'x, y, z'
loop_
 _atom_site_type_symbol
 _atom_site_label
 _atom_site_symmetry_multiplicity
 _atom_site_fract_x
 _atom_site_fract_y
 _atom_site_fract_z
 _atom_site_occupancy
  Rb  Rb0  1  0.029352  0.004054  0.999818  1
  Mn  Mn1  1  0.864939  0.512338  0.181412  1
  Mn  Mn2  1  0.680956  0.813257  0.514000  1
  Mn  Mn3  1  0.349514  0.180646  0.483832  1
  Ga  Ga4  1  0.167807  0.487992  0.811929  1
  O  O5  1  0.349708  0.372743  0.291194  1
  O  O6  1  0.685630  0.631166  0.704918  1
  O  O7  1  0.969356  0.283729  0.620124  1
  O  O8  1  0.061150  0.709329  0.377955  1
  O  O9  1  0.371627  0.644558  0.062356  1
  O  O10  1  0.678015  0.361509  0.957888  1
  O  O11  1  0.720885  0.048551  0.357658  1
  O  O12  1  0.311060  0.950129  0.636916  1
