# generated using pymatgen
data_CsGd3Se5
_symmetry_space_group_name_H-M   'P 1'
_cell_length_a   4.21204500
_cell_length_b   12.68038500
_cell_length_c   22.54254500
_cell_angle_alpha   90.00000000
_cell_angle_beta   90.00000000
_cell_angle_gamma   90.00000000
_symmetry_Int_Tables_number   1
_chemical_formula_structural   CsGd3Se5
_chemical_formula_sum   'Cs4 Gd12 Se20'
_cell_volume   1204.00526878
_cell_formula_units_Z   4
loop_
 _symmetry_equiv_pos_site_id
 _symmetry_equiv_pos_as_xyz
  1  'x, y, z'
loop_
 _atom_site_type_symbol
 _atom_site_label
 _atom_site_symmetry_multiplicity
 _atom_site_fract_x
 _atom_site_fract_y
 _atom_site_fract_z
 _atom_site_occupancy
  Cs  Cs0  1  0.250000  0.854055  0.093201  1
  Cs  Cs1  1  0.750000  0.145945  0.906799  1
  Cs  Cs2  1  0.750000  0.354055  0.406799  1
  Cs  Cs3  1  0.250000  0.645945  0.593201  1
  Gd  Gd4  1  0.750000  0.796552  0.825137  1
  Gd  Gd5  1  0.250000  0.203448  0.174863  1
  Gd  Gd6  1  0.250000  0.296552  0.674863  1
  Gd  Gd7  1  0.750000  0.703448  0.325137  1
  Gd  Gd8  1  0.250000  0.957821  0.697686  1
  Gd  Gd9  1  0.750000  0.042179  0.302314  1
  Gd  Gd10  1  0.750000  0.457821  0.802314  1
  Gd  Gd11  1  0.250000  0.542179  0.197686  1
  Gd  Gd12  1  0.750000  0.391240  0.053635  1
  Gd  Gd13  1  0.250000  0.608760  0.946365  1
  Gd  Gd14  1  0.250000  0.891240  0.446365  1
  Gd  Gd15  1  0.750000  0.108760  0.553635  1
  Se  Se16  1  0.250000  0.949236  0.568977  1
  Se  Se17  1  0.750000  0.050764  0.431023  1
  Se  Se18  1  0.750000  0.449236  0.931023  1
  Se  Se19  1  0.250000  0.550764  0.068977  1
  Se  Se20  1  0.750000  0.763744  0.952486  1
  Se  Se21  1  0.250000  0.236256  0.047514  1
  Se  Se22  1  0.250000  0.263744  0.547514  1
  Se  Se23  1  0.750000  0.736256  0.452486  1
  Se  Se24  1  0.250000  0.948028  0.825153  1
  Se  Se25  1  0.750000  0.051972  0.174847  1
  Se  Se26  1  0.750000  0.448028  0.674847  1
  Se  Se27  1  0.250000  0.551972  0.325153  1
  Se  Se28  1  0.750000  0.125495  0.683976  1
  Se  Se29  1  0.250000  0.874505  0.316024  1
  Se  Se30  1  0.250000  0.625495  0.816024  1
  Se  Se31  1  0.750000  0.374505  0.183976  1
  Se  Se32  1  0.750000  0.692365  0.197708  1
  Se  Se33  1  0.250000  0.307635  0.802292  1
  Se  Se34  1  0.250000  0.192365  0.302292  1
  Se  Se35  1  0.750000  0.807635  0.697708  1
