# generated using pymatgen
data_DyHo7In3Ru
_symmetry_space_group_name_H-M   'P 1'
_cell_length_a   10.38608621
_cell_length_b   10.38608629
_cell_length_c   7.03319918
_cell_angle_alpha   90.02055624
_cell_angle_beta   89.97945739
_cell_angle_gamma   119.98400644
_symmetry_Int_Tables_number   1
_chemical_formula_structural   DyHo7In3Ru
_chemical_formula_sum   'Dy2 Ho14 In6 Ru2'
_cell_volume   657.13913203
_cell_formula_units_Z   2
loop_
 _symmetry_equiv_pos_site_id
 _symmetry_equiv_pos_as_xyz
  1  'x, y, z'
loop_
 _atom_site_type_symbol
 _atom_site_label
 _atom_site_symmetry_multiplicity
 _atom_site_fract_x
 _atom_site_fract_y
 _atom_site_fract_z
 _atom_site_occupancy
  Dy  Dy0  1  0.533331  0.066732  0.507693  1
  Dy  Dy1  1  0.933268  0.466669  0.507693  1
  Ho  Ho2  1  0.533466  0.466534  0.508026  1
  Ho  Ho3  1  0.466220  0.932528  0.007974  1
  Ho  Ho4  1  0.067472  0.533780  0.007974  1
  Ho  Ho5  1  0.466409  0.533591  0.008290  1
  Ho  Ho6  1  0.177341  0.354330  0.711982  1
  Ho  Ho7  1  0.645670  0.822659  0.711982  1
  Ho  Ho8  1  0.177054  0.822946  0.711976  1
  Ho  Ho9  1  0.822771  0.645851  0.211417  1
  Ho  Ho10  1  0.354149  0.177229  0.211417  1
  Ho  Ho11  1  0.822961  0.177039  0.211086  1
  Ho  Ho12  1  0.666540  0.333460  0.885319  1
  Ho  Ho13  1  0.333494  0.666506  0.385202  1
  Ho  Ho14  1  0.000010  0.999990  0.492344  1
  Ho  Ho15  1  0.000067  0.999933  0.992435  1
  In  In16  1  0.837085  0.674587  0.753871  1
  In  In17  1  0.325413  0.162915  0.753871  1
  In  In18  1  0.837446  0.162554  0.754037  1
  In  In19  1  0.162938  0.325916  0.253784  1
  In  In20  1  0.674084  0.837062  0.253784  1
  In  In21  1  0.163011  0.836989  0.253826  1
  Ru  Ru22  1  0.666456  0.333544  0.280766  1
  Ru  Ru23  1  0.333345  0.666655  0.781292  1
