# generated using pymatgen
data_Tb6Dy10Cd4Ir3Pt
_symmetry_space_group_name_H-M   'P 1'
_cell_length_a   9.65242748
_cell_length_b   9.65242890
_cell_length_c   9.65242855
_cell_angle_alpha   60.13830648
_cell_angle_beta   60.13830279
_cell_angle_gamma   60.13830557
_symmetry_Int_Tables_number   1
_chemical_formula_structural   Tb6Dy10Cd4Ir3Pt
_chemical_formula_sum   'Tb6 Dy10 Cd4 Ir3 Pt1'
_cell_volume   637.90096993
_cell_formula_units_Z   1
loop_
 _symmetry_equiv_pos_site_id
 _symmetry_equiv_pos_as_xyz
  1  'x, y, z'
loop_
 _atom_site_type_symbol
 _atom_site_label
 _atom_site_symmetry_multiplicity
 _atom_site_fract_x
 _atom_site_fract_y
 _atom_site_fract_z
 _atom_site_occupancy
  Tb  Tb0  1  0.189081  0.812176  0.812176  1
  Tb  Tb1  1  0.812940  0.188027  0.188027  1
  Tb  Tb2  1  0.812176  0.189081  0.812176  1
  Tb  Tb3  1  0.188027  0.812940  0.188027  1
  Tb  Tb4  1  0.812176  0.812176  0.189081  1
  Tb  Tb5  1  0.188027  0.188027  0.812940  1
  Dy  Dy6  1  0.597852  0.597852  0.597852  1
  Dy  Dy7  1  0.602155  0.602155  0.199862  1
  Dy  Dy8  1  0.602155  0.199862  0.602155  1
  Dy  Dy9  1  0.199862  0.602155  0.602155  1
  Dy  Dy10  1  0.055862  0.440507  0.440507  1
  Dy  Dy11  1  0.437225  0.060486  0.060486  1
  Dy  Dy12  1  0.440507  0.055862  0.440507  1
  Dy  Dy13  1  0.060486  0.437225  0.060486  1
  Dy  Dy14  1  0.440507  0.440507  0.055862  1
  Dy  Dy15  1  0.060486  0.060486  0.437225  1
  Cd  Cd16  1  0.830669  0.830669  0.830669  1
  Cd  Cd17  1  0.831053  0.831053  0.506235  1
  Cd  Cd18  1  0.831053  0.506235  0.831053  1
  Cd  Cd19  1  0.506235  0.831053  0.831053  1
  Ir  Ir20  1  0.392269  0.392269  0.824306  1
  Ir  Ir21  1  0.392269  0.824306  0.392269  1
  Ir  Ir22  1  0.824306  0.392269  0.392269  1
  Pt  Pt23  1  0.392626  0.392626  0.392626  1
