# generated using pymatgen
data_NdYTmGa8Ag3
_symmetry_space_group_name_H-M   'P 1'
_cell_length_a   4.34669233
_cell_length_b   8.39630805
_cell_length_c   8.39631011
_cell_angle_alpha   69.30315153
_cell_angle_beta   74.99844093
_cell_angle_gamma   74.99843300
_symmetry_Int_Tables_number   1
_chemical_formula_structural   NdYTmGa8Ag3
_chemical_formula_sum   'Nd1 Y1 Tm1 Ga8 Ag3'
_cell_volume   272.09631282
_cell_formula_units_Z   1
loop_
 _symmetry_equiv_pos_site_id
 _symmetry_equiv_pos_as_xyz
  1  'x, y, z'
loop_
 _atom_site_type_symbol
 _atom_site_label
 _atom_site_symmetry_multiplicity
 _atom_site_fract_x
 _atom_site_fract_y
 _atom_site_fract_z
 _atom_site_occupancy
  Nd  Nd0  1  0.500123  0.499877  0.499877  1
  Y  Y1  1  0.199809  0.800191  0.800191  1
  Tm  Tm2  1  0.800579  0.199421  0.199421  1
  Ga  Ga3  1  0.355421  0.360545  0.928613  1
  Ga  Ga4  1  0.644345  0.638237  0.073074  1
  Ga  Ga5  1  0.355421  0.928613  0.360545  1
  Ga  Ga6  1  0.644345  0.073074  0.638237  1
  Ga  Ga7  1  0.160650  0.471204  0.207497  1
  Ga  Ga8  1  0.840182  0.527466  0.792170  1
  Ga  Ga9  1  0.160650  0.207497  0.471204  1
  Ga  Ga10  1  0.840182  0.792170  0.527466  1
  Ag  Ag11  1  0.499465  0.000535  0.000535  1
  Ag  Ag12  1  0.999415  0.805851  0.195319  1
  Ag  Ag13  1  0.999415  0.195319  0.805851  1
