# generated using pymatgen
data_Er5Tm7Ir4
_symmetry_space_group_name_H-M   'P 1'
_cell_length_a   7.17943138
_cell_length_b   9.00307732
_cell_length_c   6.36474248
_cell_angle_alpha   89.97194818
_cell_angle_beta   89.96497170
_cell_angle_gamma   89.98877861
_symmetry_Int_Tables_number   1
_chemical_formula_structural   Er5Tm7Ir4
_chemical_formula_sum   'Er5 Tm7 Ir4'
_cell_volume   411.39757139
_cell_formula_units_Z   1
loop_
 _symmetry_equiv_pos_site_id
 _symmetry_equiv_pos_as_xyz
  1  'x, y, z'
loop_
 _atom_site_type_symbol
 _atom_site_label
 _atom_site_symmetry_multiplicity
 _atom_site_fract_x
 _atom_site_fract_y
 _atom_site_fract_z
 _atom_site_occupancy
  Er  Er0  1  0.467382  0.249801  0.123683  1
  Er  Er1  1  0.178260  0.561111  0.173540  1
  Er  Er2  1  0.967117  0.249740  0.376215  1
  Er  Er3  1  0.032632  0.750206  0.624059  1
  Er  Er4  1  0.532871  0.750092  0.875985  1
  Tm  Tm5  1  0.178081  0.938977  0.173310  1
  Tm  Tm6  1  0.678061  0.561391  0.326596  1
  Tm  Tm7  1  0.678189  0.938756  0.326558  1
  Tm  Tm8  1  0.321896  0.061260  0.673313  1
  Tm  Tm9  1  0.322054  0.438453  0.673401  1
  Tm  Tm10  1  0.821814  0.061246  0.826613  1
  Tm  Tm11  1  0.821690  0.438494  0.826311  1
  Ir  Ir12  1  0.885412  0.750440  0.041296  1
  Ir  Ir13  1  0.386040  0.750378  0.459402  1
  Ir  Ir14  1  0.614306  0.250072  0.541106  1
  Ir  Ir15  1  0.114196  0.249584  0.958601  1
