# generated using pymatgen
data_Pr5Nd5Os3Ru
_symmetry_space_group_name_H-M   'P 1'
_cell_length_a   8.85296203
_cell_length_b   8.86228696
_cell_length_c   7.48561179
_cell_angle_alpha   83.58008788
_cell_angle_beta   83.59362946
_cell_angle_gamma   44.17024611
_symmetry_Int_Tables_number   1
_chemical_formula_structural   Pr5Nd5Os3Ru
_chemical_formula_sum   'Pr5 Nd5 Os3 Ru1'
_cell_volume   406.24398344
_cell_formula_units_Z   1
loop_
 _symmetry_equiv_pos_site_id
 _symmetry_equiv_pos_as_xyz
  1  'x, y, z'
loop_
 _atom_site_type_symbol
 _atom_site_label
 _atom_site_symmetry_multiplicity
 _atom_site_fract_x
 _atom_site_fract_y
 _atom_site_fract_z
 _atom_site_occupancy
  Pr  Pr0  1  0.020985  0.795307  0.914787  1
  Pr  Pr1  1  0.205566  0.978510  0.584768  1
  Pr  Pr2  1  0.979347  0.205896  0.084593  1
  Pr  Pr3  1  0.794816  0.021462  0.414163  1
  Pr  Pr4  1  0.359835  0.206440  0.815068  1
  Nd  Nd5  1  0.793043  0.641161  0.684727  1
  Nd  Nd6  1  0.640908  0.791714  0.185810  1
  Nd  Nd7  1  0.204969  0.360355  0.315884  1
  Nd  Nd8  1  0.574668  0.426060  0.748916  1
  Nd  Nd9  1  0.425160  0.575335  0.250415  1
  Os  Os10  1  0.176348  0.602551  0.574721  1
  Os  Os11  1  0.398989  0.821460  0.926059  1
  Os  Os12  1  0.822608  0.398478  0.425027  1
  Ru  Ru13  1  0.602761  0.175271  0.075061  1
