# generated using pymatgen
data_La5Cu6Ni13
_symmetry_space_group_name_H-M   'P 1'
_cell_length_a   5.08873033
_cell_length_b   5.08873028
_cell_length_c   16.45648292
_cell_angle_alpha   81.10572225
_cell_angle_beta   81.10572094
_cell_angle_gamma   60.00000156
_symmetry_Int_Tables_number   1
_chemical_formula_structural   La5Cu6Ni13
_chemical_formula_sum   'La5 Cu6 Ni13'
_cell_volume   363.12210401
_cell_formula_units_Z   1
loop_
 _symmetry_equiv_pos_site_id
 _symmetry_equiv_pos_as_xyz
  1  'x, y, z'
loop_
 _atom_site_type_symbol
 _atom_site_label
 _atom_site_symmetry_multiplicity
 _atom_site_fract_x
 _atom_site_fract_y
 _atom_site_fract_z
 _atom_site_occupancy
  La  La0  1  0.000000  0.000000  0.000000  1
  La  La1  1  0.922427  0.922427  0.232720  1
  La  La2  1  0.077573  0.077573  0.767280  1
  La  La3  1  0.848750  0.848750  0.453753  1
  La  La4  1  0.151250  0.151250  0.546247  1
  Cu  Cu5  1  0.749048  0.749049  0.752856  1
  Cu  Cu6  1  0.250951  0.250951  0.247145  1
  Cu  Cu7  1  0.666736  0.666736  0.999794  1
  Cu  Cu8  1  0.333264  0.333264  0.000206  1
  Cu  Cu9  1  0.584456  0.584456  0.246633  1
  Cu  Cu10  1  0.415544  0.415544  0.753367  1
  Ni  Ni11  1  0.500000  0.500000  0.500000  1
  Ni  Ni12  1  0.377217  0.377217  0.370585  1
  Ni  Ni13  1  0.874981  0.377217  0.370585  1
  Ni  Ni14  1  0.377217  0.874981  0.370585  1
  Ni  Ni15  1  0.622783  0.622783  0.629415  1
  Ni  Ni16  1  0.125019  0.622783  0.629415  1
  Ni  Ni17  1  0.622783  0.125019  0.629415  1
  Ni  Ni18  1  0.459267  0.459267  0.122529  1
  Ni  Ni19  1  0.958936  0.459267  0.122529  1
  Ni  Ni20  1  0.459267  0.958936  0.122529  1
  Ni  Ni21  1  0.540733  0.540733  0.877471  1
  Ni  Ni22  1  0.041064  0.540733  0.877471  1
  Ni  Ni23  1  0.540733  0.041064  0.877471  1
