# generated using pymatgen
data_Y11Ho5Cd4Ir3Os
_symmetry_space_group_name_H-M   'P 1'
_cell_length_a   9.68018471
_cell_length_b   9.69520226
_cell_length_c   9.69526956
_cell_angle_alpha   59.44217293
_cell_angle_beta   59.50805303
_cell_angle_gamma   59.50794826
_symmetry_Int_Tables_number   1
_chemical_formula_structural   Y11Ho5Cd4Ir3Os
_chemical_formula_sum   'Y11 Ho5 Cd4 Ir3 Os1'
_cell_volume   635.88484011
_cell_formula_units_Z   1
loop_
 _symmetry_equiv_pos_site_id
 _symmetry_equiv_pos_as_xyz
  1  'x, y, z'
loop_
 _atom_site_type_symbol
 _atom_site_label
 _atom_site_symmetry_multiplicity
 _atom_site_fract_x
 _atom_site_fract_y
 _atom_site_fract_z
 _atom_site_occupancy
  Y  Y0  1  0.188108  0.809254  0.809251  1
  Y  Y1  1  0.188815  0.811372  0.189160  1
  Y  Y2  1  0.809606  0.187979  0.809339  1
  Y  Y3  1  0.188820  0.189158  0.811374  1
  Y  Y4  1  0.809603  0.809340  0.187970  1
  Y  Y5  1  0.938677  0.561271  0.561266  1
  Y  Y6  1  0.558273  0.938757  0.938771  1
  Y  Y7  1  0.561407  0.939227  0.560704  1
  Y  Y8  1  0.938986  0.557111  0.939545  1
  Y  Y9  1  0.561408  0.560718  0.939219  1
  Y  Y10  1  0.938987  0.939542  0.557107  1
  Ho  Ho11  1  0.349257  0.348986  0.348990  1
  Ho  Ho12  1  0.348451  0.347402  0.958607  1
  Ho  Ho13  1  0.348447  0.958608  0.347412  1
  Ho  Ho14  1  0.957546  0.348409  0.348411  1
  Ho  Ho15  1  0.811356  0.189001  0.189004  1
  Cd  Cd16  1  0.579458  0.579574  0.579570  1
  Cd  Cd17  1  0.580117  0.580426  0.257631  1
  Cd  Cd18  1  0.580114  0.257627  0.580426  1
  Cd  Cd19  1  0.257588  0.580265  0.580262  1
  Ir  Ir20  1  0.144399  0.143717  0.574560  1
  Ir  Ir21  1  0.144403  0.574557  0.143714  1
  Ir  Ir22  1  0.576059  0.144591  0.144592  1
  Os  Os23  1  0.140118  0.143110  0.143116  1
