# generated using pymatgen
data_YbSc(Tc2Ge)4
_symmetry_space_group_name_H-M   'P 1'
_cell_length_a   7.31276972
_cell_length_b   7.31276972
_cell_length_c   4.28182200
_cell_angle_alpha   90.00000000
_cell_angle_beta   90.00000000
_cell_angle_gamma   88.79142402
_symmetry_Int_Tables_number   1
_chemical_formula_structural   YbSc(Tc2Ge)4
_chemical_formula_sum   'Yb1 Sc1 Tc8 Ge4'
_cell_volume   228.92634743
_cell_formula_units_Z   1
loop_
 _symmetry_equiv_pos_site_id
 _symmetry_equiv_pos_as_xyz
  1  'x, y, z'
loop_
 _atom_site_type_symbol
 _atom_site_label
 _atom_site_symmetry_multiplicity
 _atom_site_fract_x
 _atom_site_fract_y
 _atom_site_fract_z
 _atom_site_occupancy
  Yb  Yb0  1  0.500000  0.500000  0.000000  1
  Sc  Sc1  1  0.000000  0.000000  0.500000  1
  Tc  Tc2  1  0.392148  0.856528  0.500000  1
  Tc  Tc3  1  0.856528  0.392148  0.500000  1
  Tc  Tc4  1  0.654000  0.901878  0.000000  1
  Tc  Tc5  1  0.098122  0.346000  0.000000  1
  Tc  Tc6  1  0.346000  0.098122  0.000000  1
  Tc  Tc7  1  0.607852  0.143472  0.500000  1
  Tc  Tc8  1  0.143472  0.607852  0.500000  1
  Tc  Tc9  1  0.901878  0.654000  0.000000  1
  Ge  Ge10  1  0.294595  0.294595  0.500000  1
  Ge  Ge11  1  0.799142  0.200858  0.000000  1
  Ge  Ge12  1  0.200858  0.799142  0.000000  1
  Ge  Ge13  1  0.705405  0.705405  0.500000  1
