# generated using pymatgen
data_YbFeClO2
_symmetry_space_group_name_H-M   'P 1'
_cell_length_a   5.41850120
_cell_length_b   5.41850160
_cell_length_c   8.67041697
_cell_angle_alpha   76.66855295
_cell_angle_beta   76.66855114
_cell_angle_gamma   41.57353735
_symmetry_Int_Tables_number   1
_chemical_formula_structural   YbFeClO2
_chemical_formula_sum   'Yb2 Fe2 Cl2 O4'
_cell_volume   163.70584089
_cell_formula_units_Z   2
loop_
 _symmetry_equiv_pos_site_id
 _symmetry_equiv_pos_as_xyz
  1  'x, y, z'
loop_
 _atom_site_type_symbol
 _atom_site_label
 _atom_site_symmetry_multiplicity
 _atom_site_fract_x
 _atom_site_fract_y
 _atom_site_fract_z
 _atom_site_occupancy
  Yb  Yb0  1  0.391631  0.391631  0.791969  1
  Yb  Yb1  1  0.608369  0.608369  0.208031  1
  Fe  Fe2  1  0.860781  0.860781  0.501916  1
  Fe  Fe3  1  0.139219  0.139219  0.498084  1
  Cl  Cl4  1  0.665800  0.665800  0.875231  1
  Cl  Cl5  1  0.334200  0.334200  0.124769  1
  O  O6  1  0.314616  0.314616  0.561333  1
  O  O7  1  0.975488  0.975488  0.664802  1
  O  O8  1  0.024512  0.024512  0.335198  1
  O  O9  1  0.685384  0.685384  0.438667  1
