# generated using pymatgen
data_LaThCo2(As2Ru)2
_symmetry_space_group_name_H-M   'P 1'
_cell_length_a   4.28385000
_cell_length_b   4.28385000
_cell_length_c   9.55109900
_cell_angle_alpha   90.00000000
_cell_angle_beta   90.00000000
_cell_angle_gamma   90.00000000
_symmetry_Int_Tables_number   1
_chemical_formula_structural   LaThCo2(As2Ru)2
_chemical_formula_sum   'La1 Th1 Co2 As4 Ru2'
_cell_volume   175.27575951
_cell_formula_units_Z   1
loop_
 _symmetry_equiv_pos_site_id
 _symmetry_equiv_pos_as_xyz
  1  'x, y, z'
loop_
 _atom_site_type_symbol
 _atom_site_label
 _atom_site_symmetry_multiplicity
 _atom_site_fract_x
 _atom_site_fract_y
 _atom_site_fract_z
 _atom_site_occupancy
  La  La0  1  0.000000  0.500000  0.260577  1
  Th  Th1  1  0.500000  0.000000  0.742436  1
  Co  Co2  1  0.000000  0.500000  0.612964  1
  Co  Co3  1  0.500000  0.000000  0.393038  1
  As  As4  1  0.000000  0.000000  0.501362  1
  As  As5  1  0.500000  0.500000  0.501362  1
  As  As6  1  0.000000  0.500000  0.860698  1
  As  As7  1  0.500000  0.000000  0.137766  1
  Ru  Ru8  1  0.000000  0.000000  0.994898  1
  Ru  Ru9  1  0.500000  0.500000  0.994898  1
