# generated using pymatgen
data_Lu3Sc2Si2As
_symmetry_space_group_name_H-M   'P 1'
_cell_length_a   8.14748466
_cell_length_b   8.15648693
_cell_length_c   5.89608700
_cell_angle_alpha   90.00000000
_cell_angle_beta   90.00000000
_cell_angle_gamma   120.03657353
_symmetry_Int_Tables_number   1
_chemical_formula_structural   Lu3Sc2Si2As
_chemical_formula_sum   'Lu6 Sc4 Si4 As2'
_cell_volume   339.20405729
_cell_formula_units_Z   2
loop_
 _symmetry_equiv_pos_site_id
 _symmetry_equiv_pos_as_xyz
  1  'x, y, z'
loop_
 _atom_site_type_symbol
 _atom_site_label
 _atom_site_symmetry_multiplicity
 _atom_site_fract_x
 _atom_site_fract_y
 _atom_site_fract_z
 _atom_site_occupancy
  Lu  Lu0  1  0.756798  0.000525  0.750000  1
  Lu  Lu1  1  0.756798  0.756273  0.250000  1
  Lu  Lu2  1  0.997192  0.244050  0.250000  1
  Lu  Lu3  1  0.997192  0.753142  0.750000  1
  Lu  Lu4  1  0.244452  0.248181  0.750000  1
  Lu  Lu5  1  0.244452  0.996271  0.250000  1
  Sc  Sc6  1  0.670388  0.335194  0.000000  1
  Sc  Sc7  1  0.331682  0.665842  0.500000  1
  Sc  Sc8  1  0.331682  0.665842  0.000000  1
  Sc  Sc9  1  0.670388  0.335194  0.500000  1
  Si  Si10  1  0.000931  0.602638  0.250000  1
  Si  Si11  1  0.000931  0.398292  0.750000  1
  Si  Si12  1  0.604008  0.604664  0.750000  1
  Si  Si13  1  0.604008  0.999344  0.250000  1
  As  As14  1  0.394548  0.001593  0.750000  1
  As  As15  1  0.394548  0.392955  0.250000  1
