# generated using pymatgen
data_Ho3Lu13(Ga3Ir)2
_symmetry_space_group_name_H-M   'P 1'
_cell_length_a   9.87839700
_cell_length_b   9.88749683
_cell_length_c   6.91299345
_cell_angle_alpha   89.98358050
_cell_angle_beta   90.00000000
_cell_angle_gamma   119.96955682
_symmetry_Int_Tables_number   1
_chemical_formula_structural   Ho3Lu13(Ga3Ir)2
_chemical_formula_sum   'Ho3 Lu13 Ga6 Ir2'
_cell_volume   584.92843164
_cell_formula_units_Z   1
loop_
 _symmetry_equiv_pos_site_id
 _symmetry_equiv_pos_as_xyz
  1  'x, y, z'
loop_
 _atom_site_type_symbol
 _atom_site_label
 _atom_site_symmetry_multiplicity
 _atom_site_fract_x
 _atom_site_fract_y
 _atom_site_fract_z
 _atom_site_occupancy
  Ho  Ho0  1  0.533287  0.066572  0.705599  1
  Ho  Ho1  1  0.000079  0.000158  0.231742  1
  Ho  Ho2  1  0.000012  0.000024  0.731868  1
  Lu  Lu3  1  0.171262  0.827155  0.509520  1
  Lu  Lu4  1  0.655892  0.827155  0.509520  1
  Lu  Lu5  1  0.172290  0.344582  0.510399  1
  Lu  Lu6  1  0.828301  0.172712  0.011244  1
  Lu  Lu7  1  0.344412  0.172712  0.011244  1
  Lu  Lu8  1  0.827900  0.655797  0.010487  1
  Lu  Lu9  1  0.332881  0.665764  0.836882  1
  Lu  Lu10  1  0.667128  0.334256  0.336548  1
  Lu  Lu11  1  0.465764  0.534301  0.205243  1
  Lu  Lu12  1  0.068536  0.534301  0.205243  1
  Lu  Lu13  1  0.465385  0.930771  0.205282  1
  Lu  Lu14  1  0.534249  0.466068  0.705294  1
  Lu  Lu15  1  0.931821  0.466068  0.705294  1
  Ga  Ga16  1  0.163950  0.836441  0.959749  1
  Ga  Ga17  1  0.672489  0.836441  0.959749  1
  Ga  Ga18  1  0.163731  0.327463  0.959034  1
  Ga  Ga19  1  0.836784  0.163670  0.458731  1
  Ga  Ga20  1  0.326887  0.163670  0.458731  1
  Ga  Ga21  1  0.836127  0.672253  0.459563  1
  Ir  Ir22  1  0.333286  0.666574  0.443224  1
  Ir  Ir23  1  0.667547  0.335093  0.943853  1
