# generated using pymatgen
data_YbDy4Ga6P6Ir19
_symmetry_space_group_name_H-M   'P 1'
_cell_length_a   12.96571700
_cell_length_b   12.96571699
_cell_length_c   3.98110100
_cell_angle_alpha   90.00000000
_cell_angle_beta   90.00000000
_cell_angle_gamma   120.00000258
_symmetry_Int_Tables_number   1
_chemical_formula_structural   YbDy4Ga6P6Ir19
_chemical_formula_sum   'Yb1 Dy4 Ga6 P6 Ir19'
_cell_volume   579.59801846
_cell_formula_units_Z   1
loop_
 _symmetry_equiv_pos_site_id
 _symmetry_equiv_pos_as_xyz
  1  'x, y, z'
loop_
 _atom_site_type_symbol
 _atom_site_label
 _atom_site_symmetry_multiplicity
 _atom_site_fract_x
 _atom_site_fract_y
 _atom_site_fract_z
 _atom_site_occupancy
  Yb  Yb0  1  0.333333  0.666667  0.000000  1
  Dy  Dy1  1  0.666667  0.333333  0.000000  1
  Dy  Dy2  1  0.816923  0.812627  0.500000  1
  Dy  Dy3  1  0.187373  0.004296  0.500000  1
  Dy  Dy4  1  0.995704  0.183077  0.500000  1
  Ga  Ga5  1  0.676881  0.158148  0.500000  1
  Ga  Ga6  1  0.841852  0.518734  0.500000  1
  Ga  Ga7  1  0.481266  0.323119  0.500000  1
  Ga  Ga8  1  0.634614  0.636534  0.000000  1
  Ga  Ga9  1  0.363466  0.998081  0.000000  1
  Ga  Ga10  1  0.001919  0.365386  0.000000  1
  P  P11  1  0.181456  0.697350  0.500000  1
  P  P12  1  0.515893  0.818544  0.500000  1
  P  P13  1  0.302650  0.484107  0.500000  1
  P  P14  1  0.176301  0.182064  0.000000  1
  P  P15  1  0.817936  0.994236  0.000000  1
  P  P16  1  0.005764  0.823699  0.000000  1
  Ir  Ir17  1  0.808768  0.169612  0.000000  1
  Ir  Ir18  1  0.830388  0.639157  0.000000  1
  Ir  Ir19  1  0.360843  0.191232  0.000000  1
  Ir  Ir20  1  0.182285  0.794492  0.000000  1
  Ir  Ir21  1  0.612207  0.817715  0.000000  1
  Ir  Ir22  1  0.205508  0.387793  0.000000  1
  Ir  Ir23  1  0.445905  0.440529  0.000000  1
  Ir  Ir24  1  0.559471  0.005376  0.000000  1
  Ir  Ir25  1  0.994624  0.554095  0.000000  1
  Ir  Ir26  1  0.268691  0.281683  0.500000  1
  Ir  Ir27  1  0.718317  0.987007  0.500000  1
  Ir  Ir28  1  0.012993  0.731309  0.500000  1
  Ir  Ir29  1  0.872336  0.348459  0.500000  1
  Ir  Ir30  1  0.651541  0.523878  0.500000  1
  Ir  Ir31  1  0.476122  0.127664  0.500000  1
  Ir  Ir32  1  0.371248  0.870269  0.500000  1
  Ir  Ir33  1  0.499023  0.628752  0.500000  1
  Ir  Ir34  1  0.129731  0.500977  0.500000  1
  Ir  Ir35  1  0.000000  0.000000  0.000000  1
