# generated using pymatgen
data_Er2MnAl20Rh3
_symmetry_space_group_name_H-M   'P 1'
_cell_length_a   6.81132609
_cell_length_b   6.83021306
_cell_length_c   9.12562579
_cell_angle_alpha   90.35544990
_cell_angle_beta   90.20689825
_cell_angle_gamma   97.09088585
_symmetry_Int_Tables_number   1
_chemical_formula_structural   Er2MnAl20Rh3
_chemical_formula_sum   'Er2 Mn1 Al20 Rh3'
_cell_volume   421.29040348
_cell_formula_units_Z   1
loop_
 _symmetry_equiv_pos_site_id
 _symmetry_equiv_pos_as_xyz
  1  'x, y, z'
loop_
 _atom_site_type_symbol
 _atom_site_label
 _atom_site_symmetry_multiplicity
 _atom_site_fract_x
 _atom_site_fract_y
 _atom_site_fract_z
 _atom_site_occupancy
  Er  Er0  1  0.869205  0.126259  0.748337  1
  Er  Er1  1  0.130795  0.873741  0.251663  1
  Mn  Mn2  1  0.500000  0.000000  0.500000  1
  Al  Al3  1  0.619275  0.370790  0.547703  1
  Al  Al4  1  0.380725  0.629210  0.452297  1
  Al  Al5  1  0.378442  0.623223  0.051108  1
  Al  Al6  1  0.621558  0.376777  0.948892  1
  Al  Al7  1  0.227443  0.218462  0.497370  1
  Al  Al8  1  0.772557  0.781538  0.502630  1
  Al  Al9  1  0.776010  0.776929  0.001105  1
  Al  Al10  1  0.223990  0.223071  0.998895  1
  Al  Al11  1  0.845870  0.155078  0.103175  1
  Al  Al12  1  0.154130  0.844922  0.896825  1
  Al  Al13  1  0.159684  0.848593  0.599237  1
  Al  Al14  1  0.840316  0.151407  0.400763  1
  Al  Al15  1  0.857494  0.589457  0.748892  1
  Al  Al16  1  0.142506  0.410543  0.251108  1
  Al  Al17  1  0.414171  0.139241  0.745240  1
  Al  Al18  1  0.585829  0.860759  0.254760  1
  Al  Al19  1  0.225637  0.478941  0.749375  1
  Al  Al20  1  0.774363  0.521059  0.250625  1
  Al  Al21  1  0.519516  0.778098  0.743346  1
  Al  Al22  1  0.480484  0.221902  0.256654  1
  Rh  Rh23  1  0.000000  0.500000  0.500000  1
  Rh  Rh24  1  0.000000  0.500000  0.000000  1
  Rh  Rh25  1  0.500000  0.000000  0.000000  1
