# generated using pymatgen
data_Y20TcHg6Ru
_symmetry_space_group_name_H-M   'P 1'
_cell_length_a   9.63813200
_cell_length_b   9.63813186
_cell_length_c   9.74219800
_cell_angle_alpha   90.00000000
_cell_angle_beta   90.00000000
_cell_angle_gamma   120.00000047
_symmetry_Int_Tables_number   1
_chemical_formula_structural   Y20TcHg6Ru
_chemical_formula_sum   'Y20 Tc1 Hg6 Ru1'
_cell_volume   783.74235094
_cell_formula_units_Z   1
loop_
 _symmetry_equiv_pos_site_id
 _symmetry_equiv_pos_as_xyz
  1  'x, y, z'
loop_
 _atom_site_type_symbol
 _atom_site_label
 _atom_site_symmetry_multiplicity
 _atom_site_fract_x
 _atom_site_fract_y
 _atom_site_fract_z
 _atom_site_occupancy
  Y  Y0  1  0.000000  0.000000  0.499907  1
  Y  Y1  1  0.000000  0.000000  0.000093  1
  Y  Y2  1  0.209605  0.790395  0.440892  1
  Y  Y3  1  0.209605  0.419210  0.440892  1
  Y  Y4  1  0.580790  0.790395  0.440892  1
  Y  Y5  1  0.790233  0.209767  0.559647  1
  Y  Y6  1  0.790233  0.580464  0.559647  1
  Y  Y7  1  0.419536  0.209767  0.559647  1
  Y  Y8  1  0.790233  0.209767  0.940353  1
  Y  Y9  1  0.790233  0.580464  0.940353  1
  Y  Y10  1  0.419536  0.209767  0.940353  1
  Y  Y11  1  0.209605  0.790395  0.059108  1
  Y  Y12  1  0.209605  0.419210  0.059108  1
  Y  Y13  1  0.580790  0.790395  0.059108  1
  Y  Y14  1  0.539875  0.460125  0.250000  1
  Y  Y15  1  0.539875  0.079751  0.250000  1
  Y  Y16  1  0.920249  0.460125  0.250000  1
  Y  Y17  1  0.458974  0.541026  0.750000  1
  Y  Y18  1  0.458974  0.917950  0.750000  1
  Y  Y19  1  0.082050  0.541026  0.750000  1
  Tc  Tc20  1  0.333333  0.666667  0.250000  1
  Hg  Hg21  1  0.881315  0.118685  0.250000  1
  Hg  Hg22  1  0.881315  0.762631  0.250000  1
  Hg  Hg23  1  0.237369  0.118685  0.250000  1
  Hg  Hg24  1  0.118412  0.881588  0.750000  1
  Hg  Hg25  1  0.118412  0.236824  0.750000  1
  Hg  Hg26  1  0.763176  0.881588  0.750000  1
  Ru  Ru27  1  0.666667  0.333333  0.750000  1
