# generated using pymatgen
data_Pr11Cd8GaRh4
_symmetry_space_group_name_H-M   'P 1'
_cell_length_a   13.45833100
_cell_length_b   13.45535637
_cell_length_c   3.86863000
_cell_angle_alpha   90.00000000
_cell_angle_beta   90.00000000
_cell_angle_gamma   113.79792538
_symmetry_Int_Tables_number   1
_chemical_formula_structural   Pr11Cd8GaRh4
_chemical_formula_sum   'Pr11 Cd8 Ga1 Rh4'
_cell_volume   640.99182585
_cell_formula_units_Z   1
loop_
 _symmetry_equiv_pos_site_id
 _symmetry_equiv_pos_as_xyz
  1  'x, y, z'
loop_
 _atom_site_type_symbol
 _atom_site_label
 _atom_site_symmetry_multiplicity
 _atom_site_fract_x
 _atom_site_fract_y
 _atom_site_fract_z
 _atom_site_occupancy
  Pr  Pr0  1  0.500000  0.500000  0.500000  1
  Pr  Pr1  1  0.814418  0.814439  0.500000  1
  Pr  Pr2  1  0.185582  0.185561  0.500000  1
  Pr  Pr3  1  0.582394  0.917148  0.500000  1
  Pr  Pr4  1  0.417606  0.082852  0.500000  1
  Pr  Pr5  1  0.917153  0.582372  0.500000  1
  Pr  Pr6  1  0.082847  0.417628  0.500000  1
  Pr  Pr7  1  0.121734  0.878244  0.500000  1
  Pr  Pr8  1  0.878266  0.121756  0.500000  1
  Pr  Pr9  1  0.337517  0.662516  0.500000  1
  Pr  Pr10  1  0.662483  0.337484  0.500000  1
  Cd  Cd11  1  0.342219  0.865600  0.000000  1
  Cd  Cd12  1  0.657781  0.134400  0.000000  1
  Cd  Cd13  1  0.865586  0.342231  0.000000  1
  Cd  Cd14  1  0.134414  0.657769  0.000000  1
  Cd  Cd15  1  0.573160  0.716142  0.000000  1
  Cd  Cd16  1  0.426840  0.283858  0.000000  1
  Cd  Cd17  1  0.716128  0.573122  0.000000  1
  Cd  Cd18  1  0.283872  0.426878  0.000000  1
  Ga  Ga19  1  0.000000  0.000000  0.000000  1
  Rh  Rh20  1  0.755293  0.948774  0.000000  1
  Rh  Rh21  1  0.244707  0.051226  0.000000  1
  Rh  Rh22  1  0.948788  0.755334  0.000000  1
  Rh  Rh23  1  0.051212  0.244666  0.000000  1
