# generated using pymatgen
data_Ba3TiFeTcO9
_symmetry_space_group_name_H-M   'P 1'
_cell_length_a   5.80702500
_cell_length_b   5.80702510
_cell_length_c   14.23907600
_cell_angle_alpha   90.00000000
_cell_angle_beta   90.00000000
_cell_angle_gamma   120.00000511
_symmetry_Int_Tables_number   1
_chemical_formula_structural   Ba3TiFeTcO9
_chemical_formula_sum   'Ba6 Ti2 Fe2 Tc2 O18'
_cell_volume   415.83382827
_cell_formula_units_Z   2
loop_
 _symmetry_equiv_pos_site_id
 _symmetry_equiv_pos_as_xyz
  1  'x, y, z'
loop_
 _atom_site_type_symbol
 _atom_site_label
 _atom_site_symmetry_multiplicity
 _atom_site_fract_x
 _atom_site_fract_y
 _atom_site_fract_z
 _atom_site_occupancy
  Ba  Ba0  1  0.666667  0.333333  0.413314  1
  Ba  Ba1  1  0.333333  0.666667  0.601898  1
  Ba  Ba2  1  0.333333  0.666667  0.893541  1
  Ba  Ba3  1  0.666667  0.333333  0.090779  1
  Ba  Ba4  1  0.000000  0.000000  0.256362  1
  Ba  Ba5  1  0.000000  0.000000  0.747749  1
  Ti  Ti6  1  0.666667  0.333333  0.654052  1
  Ti  Ti7  1  0.333333  0.666667  0.354595  1
  Fe  Fe8  1  0.666667  0.333333  0.842019  1
  Fe  Fe9  1  0.000000  0.000000  0.505343  1
  Tc  Tc10  1  0.333333  0.666667  0.155980  1
  Tc  Tc11  1  0.000000  0.000000  0.002397  1
  O  O12  1  0.663076  0.831538  0.413888  1
  O  O13  1  0.168462  0.831538  0.413888  1
  O  O14  1  0.168462  0.336924  0.413888  1
  O  O15  1  0.337662  0.168832  0.581150  1
  O  O16  1  0.831168  0.168832  0.581150  1
  O  O17  1  0.831168  0.662338  0.581150  1
  O  O18  1  0.322094  0.161047  0.924837  1
  O  O19  1  0.838953  0.161047  0.924837  1
  O  O20  1  0.838953  0.677906  0.924837  1
  O  O21  1  0.668831  0.834415  0.080573  1
  O  O22  1  0.165585  0.834415  0.080573  1
  O  O23  1  0.165585  0.331169  0.080573  1
  O  O24  1  0.032190  0.516095  0.243614  1
  O  O25  1  0.483905  0.516095  0.243614  1
  O  O26  1  0.483905  0.967810  0.243614  1
  O  O27  1  0.969969  0.484984  0.749929  1
  O  O28  1  0.515016  0.484984  0.749929  1
  O  O29  1  0.515016  0.030031  0.749929  1
