# generated using pymatgen
data_YbDyPa2(Al8Pt3)3
_symmetry_space_group_name_H-M   'P 1'
_cell_length_a   7.56707804
_cell_length_b   7.56459079
_cell_length_c   13.12804465
_cell_angle_alpha   84.45814270
_cell_angle_beta   101.10197091
_cell_angle_gamma   119.89734785
_symmetry_Int_Tables_number   1
_chemical_formula_structural   YbDyPa2(Al8Pt3)3
_chemical_formula_sum   'Yb1 Dy1 Pa2 Al24 Pt9'
_cell_volume   639.27562647
_cell_formula_units_Z   1
loop_
 _symmetry_equiv_pos_site_id
 _symmetry_equiv_pos_as_xyz
  1  'x, y, z'
loop_
 _atom_site_type_symbol
 _atom_site_label
 _atom_site_symmetry_multiplicity
 _atom_site_fract_x
 _atom_site_fract_y
 _atom_site_fract_z
 _atom_site_occupancy
  Yb  Yb0  1  0.232608  0.498819  0.192591  1
  Dy  Dy1  1  0.768388  0.501762  0.808222  1
  Pa  Pa2  1  0.435116  0.830740  0.804638  1
  Pa  Pa3  1  0.564566  0.168152  0.195991  1
  Al  Al4  1  0.482372  0.166792  0.944673  1
  Al  Al5  1  0.517282  0.833009  0.055715  1
  Al  Al6  1  0.022019  0.167463  0.560995  1
  Al  Al7  1  0.978230  0.832652  0.438764  1
  Al  Al8  1  0.351781  0.831998  0.558075  1
  Al  Al9  1  0.648056  0.167369  0.442075  1
  Al  Al10  1  0.616215  0.830458  0.331211  1
  Al  Al11  1  0.382587  0.168250  0.668945  1
  Al  Al12  1  0.052706  0.490202  0.669637  1
  Al  Al13  1  0.948733  0.510003  0.330039  1
  Al  Al14  1  0.732300  0.840160  0.668116  1
  Al  Al15  1  0.267199  0.161082  0.331767  1
  Al  Al16  1  0.147458  0.499772  0.945275  1
  Al  Al17  1  0.853329  0.499488  0.056295  1
  Al  Al18  1  0.816823  0.832160  0.953169  1
  Al  Al19  1  0.183807  0.168353  0.047600  1
  Al  Al20  1  0.313641  0.499518  0.440609  1
  Al  Al21  1  0.685652  0.500629  0.558595  1
  Al  Al22  1  0.102720  0.841090  0.182411  1
  Al  Al23  1  0.897998  0.161267  0.817222  1
  Al  Al24  1  0.305482  0.369203  0.815914  1
  Al  Al25  1  0.695663  0.630006  0.183619  1
  Al  Al26  1  0.105134  0.960988  0.816906  1
  Al  Al27  1  0.892700  0.038414  0.182679  1
  Pt  Pt28  1  0.388570  0.508975  0.639881  1
  Pt  Pt29  1  0.612743  0.490979  0.360375  1
  Pt  Pt30  1  0.171042  0.828060  0.999173  1
  Pt  Pt31  1  0.827909  0.171623  0.999196  1
  Pt  Pt32  1  0.296610  0.835374  0.360812  1
  Pt  Pt33  1  0.703461  0.165974  0.639506  1
  Pt  Pt34  1  0.047065  0.824613  0.639032  1
  Pt  Pt35  1  0.951788  0.174331  0.361238  1
  Pt  Pt36  1  0.500246  0.500270  0.999038  1
