# generated using pymatgen
data_Ba4LuTcO8
_symmetry_space_group_name_H-M   'P 1'
_cell_length_a   7.43641338
_cell_length_b   7.43641395
_cell_length_c   5.89946000
_cell_angle_alpha   90.00000000
_cell_angle_beta   90.00000000
_cell_angle_gamma   133.40947704
_symmetry_Int_Tables_number   1
_chemical_formula_structural   Ba4LuTcO8
_chemical_formula_sum   'Ba4 Lu1 Tc1 O8'
_cell_volume   237.00180475
_cell_formula_units_Z   1
loop_
 _symmetry_equiv_pos_site_id
 _symmetry_equiv_pos_as_xyz
  1  'x, y, z'
loop_
 _atom_site_type_symbol
 _atom_site_label
 _atom_site_symmetry_multiplicity
 _atom_site_fract_x
 _atom_site_fract_y
 _atom_site_fract_z
 _atom_site_occupancy
  Ba  Ba0  1  0.353456  0.646544  0.000000  1
  Ba  Ba1  1  0.853440  0.146560  0.500000  1
  Ba  Ba2  1  0.146560  0.853440  0.500000  1
  Ba  Ba3  1  0.646544  0.353456  0.000000  1
  Lu  Lu4  1  0.000000  0.000000  0.000000  1
  Tc  Tc5  1  0.500000  0.500000  0.500000  1
  O  O6  1  0.260126  0.260126  0.735132  1
  O  O7  1  0.739874  0.739874  0.264868  1
  O  O8  1  0.739874  0.739874  0.735132  1
  O  O9  1  0.260126  0.260126  0.264868  1
  O  O10  1  0.162143  0.837857  0.000000  1
  O  O11  1  0.649698  0.350302  0.500000  1
  O  O12  1  0.350302  0.649698  0.500000  1
  O  O13  1  0.837857  0.162143  0.000000  1
