# generated using pymatgen
data_Ca4Pr4Fe7NiO24
_symmetry_space_group_name_H-M   'P 1'
_cell_length_a   5.55098723
_cell_length_b   9.47478105
_cell_length_c   9.48100187
_cell_angle_alpha   70.15884359
_cell_angle_beta   90.05995783
_cell_angle_gamma   90.06942820
_symmetry_Int_Tables_number   1
_chemical_formula_structural   Ca4Pr4Fe7NiO24
_chemical_formula_sum   'Ca4 Pr4 Fe7 Ni1 O24'
_cell_volume   469.04593695
_cell_formula_units_Z   1
loop_
 _symmetry_equiv_pos_site_id
 _symmetry_equiv_pos_as_xyz
  1  'x, y, z'
loop_
 _atom_site_type_symbol
 _atom_site_label
 _atom_site_symmetry_multiplicity
 _atom_site_fract_x
 _atom_site_fract_y
 _atom_site_fract_z
 _atom_site_occupancy
  Ca  Ca0  1  0.455216  0.620562  0.132265  1
  Ca  Ca1  1  0.546716  0.879778  0.367973  1
  Ca  Ca2  1  0.956184  0.881584  0.872508  1
  Ca  Ca3  1  0.954369  0.380456  0.370030  1
  Pr  Pr4  1  0.041593  0.620739  0.625935  1
  Pr  Pr5  1  0.045241  0.117897  0.130858  1
  Pr  Pr6  1  0.453715  0.121178  0.632113  1
  Pr  Pr7  1  0.545676  0.377790  0.869839  1
  Fe  Fe8  1  0.997284  0.002046  0.500948  1
  Fe  Fe9  1  0.000793  0.501915  0.003989  1
  Fe  Fe10  1  0.501249  0.751468  0.751470  1
  Fe  Fe11  1  0.501465  0.252315  0.251823  1
  Fe  Fe12  1  0.500976  0.993377  0.000970  1
  Fe  Fe13  1  0.502456  0.502858  0.495325  1
  Fe  Fe14  1  0.999651  0.747116  0.247784  1
  Ni  Ni15  1  0.999547  0.248541  0.749068  1
  O  O16  1  0.015642  0.162953  0.582757  1
  O  O17  1  0.025262  0.663875  0.084453  1
  O  O18  1  0.217699  0.083188  0.875904  1
  O  O19  1  0.205502  0.585561  0.376726  1
  O  O20  1  0.208698  0.879391  0.664764  1
  O  O21  1  0.205690  0.372266  0.164713  1
  O  O22  1  0.291380  0.379613  0.659411  1
  O  O23  1  0.293316  0.085400  0.372922  1
  O  O24  1  0.285302  0.587629  0.865512  1
  O  O25  1  0.287409  0.878828  0.165963  1
  O  O26  1  0.484338  0.666262  0.585193  1
  O  O27  1  0.489479  0.160794  0.089891  1
  O  O28  1  0.521820  0.833212  0.914084  1
  O  O29  1  0.519872  0.337127  0.413233  1
  O  O30  1  0.705440  0.124483  0.841112  1
  O  O31  1  0.710531  0.912452  0.629611  1
  O  O32  1  0.711223  0.623830  0.335209  1
  O  O33  1  0.702660  0.414676  0.122954  1
  O  O34  1  0.785393  0.617020  0.835879  1
  O  O35  1  0.790499  0.124625  0.337473  1
  O  O36  1  0.779421  0.415274  0.628927  1
  O  O37  1  0.790364  0.911472  0.125047  1
  O  O38  1  0.990810  0.339400  0.914776  1
  O  O39  1  0.980116  0.841049  0.410589  1
