# generated using pymatgen
data_Gd2TmLu(B6Ru)2
_symmetry_space_group_name_H-M   'P 1'
_cell_length_a   3.64417700
_cell_length_b   9.10743111
_cell_length_c   11.50020013
_cell_angle_alpha   90.01752082
_cell_angle_beta   90.00000000
_cell_angle_gamma   90.00000000
_symmetry_Int_Tables_number   1
_chemical_formula_structural   Gd2TmLu(B6Ru)2
_chemical_formula_sum   'Gd4 Tm2 Lu2 B24 Ru4'
_cell_volume   381.68117056
_cell_formula_units_Z   2
loop_
 _symmetry_equiv_pos_site_id
 _symmetry_equiv_pos_as_xyz
  1  'x, y, z'
loop_
 _atom_site_type_symbol
 _atom_site_label
 _atom_site_symmetry_multiplicity
 _atom_site_fract_x
 _atom_site_fract_y
 _atom_site_fract_z
 _atom_site_occupancy
  Gd  Gd0  1  0.000000  0.322139  0.414227  1
  Gd  Gd1  1  0.000000  0.677861  0.585773  1
  Gd  Gd2  1  0.000000  0.821794  0.085475  1
  Gd  Gd3  1  0.000000  0.178206  0.914525  1
  Tm  Tm4  1  0.000000  0.943948  0.372137  1
  Tm  Tm5  1  0.000000  0.056052  0.627863  1
  Lu  Lu6  1  0.000000  0.444031  0.127445  1
  Lu  Lu7  1  0.000000  0.555969  0.872555  1
  B  B8  1  0.500000  0.554777  0.432027  1
  B  B9  1  0.500000  0.445223  0.567973  1
  B  B10  1  0.500000  0.055274  0.067665  1
  B  B11  1  0.500000  0.944726  0.932335  1
  B  B12  1  0.500000  0.749297  0.418527  1
  B  B13  1  0.500000  0.250703  0.581473  1
  B  B14  1  0.500000  0.250385  0.081154  1
  B  B15  1  0.500000  0.749615  0.918846  1
  B  B16  1  0.500000  0.791204  0.265423  1
  B  B17  1  0.500000  0.208796  0.734577  1
  B  B18  1  0.500000  0.292132  0.233951  1
  B  B19  1  0.500000  0.707868  0.766049  1
  B  B20  1  0.500000  0.630415  0.183900  1
  B  B21  1  0.500000  0.369585  0.816100  1
  B  B22  1  0.500000  0.131352  0.315465  1
  B  B23  1  0.500000  0.868648  0.684535  1
  B  B24  1  0.500000  0.984073  0.213177  1
  B  B25  1  0.500000  0.015927  0.786823  1
  B  B26  1  0.500000  0.483450  0.286104  1
  B  B27  1  0.500000  0.516550  0.713896  1
  B  B28  1  0.500000  0.602823  0.028113  1
  B  B29  1  0.500000  0.397177  0.971887  1
  B  B30  1  0.500000  0.104494  0.471507  1
  B  B31  1  0.500000  0.895506  0.528493  1
  Ru  Ru32  1  0.000000  0.638406  0.319387  1
  Ru  Ru33  1  0.000000  0.361594  0.680613  1
  Ru  Ru34  1  0.000000  0.139611  0.179909  1
  Ru  Ru35  1  0.000000  0.860389  0.820091  1
