# generated using pymatgen
data_RbPa2Te5
_symmetry_space_group_name_H-M   'P 1'
_cell_length_a   10.13143600
_cell_length_b   10.13158014
_cell_length_c   10.13058978
_cell_angle_alpha   131.25207608
_cell_angle_beta   131.25118719
_cell_angle_gamma   71.41939856
_symmetry_Int_Tables_number   1
_chemical_formula_structural   RbPa2Te5
_chemical_formula_sum   'Rb2 Pa4 Te10'
_cell_volume   575.23751698
_cell_formula_units_Z   2
loop_
 _symmetry_equiv_pos_site_id
 _symmetry_equiv_pos_as_xyz
  1  'x, y, z'
loop_
 _atom_site_type_symbol
 _atom_site_label
 _atom_site_symmetry_multiplicity
 _atom_site_fract_x
 _atom_site_fract_y
 _atom_site_fract_z
 _atom_site_occupancy
  Rb  Rb0  1  0.750002  0.749998  0.000003  1
  Rb  Rb1  1  0.249993  0.250009  0.000001  1
  Pa  Pa2  1  0.848105  0.651955  0.500059  1
  Pa  Pa3  1  0.652019  0.152148  0.804188  1
  Pa  Pa4  1  0.347909  0.848008  0.195891  1
  Pa  Pa5  1  0.152041  0.347984  0.500026  1
  Te  Te6  1  0.026478  0.526457  0.794577  1
  Te  Te7  1  0.731856  0.231870  0.205457  1
  Te  Te8  1  0.526439  0.731991  0.499956  1
  Te  Te9  1  0.231793  0.026324  0.499944  1
  Te  Te10  1  0.973571  0.473558  0.205444  1
  Te  Te11  1  0.268131  0.768107  0.794553  1
  Te  Te12  1  0.473625  0.268152  0.499949  1
  Te  Te13  1  0.767972  0.973520  0.499968  1
  Te  Te14  1  0.000091  0.000045  0.000141  1
  Te  Te15  1  0.499974  0.499872  0.999844  1
