# generated using pymatgen
data_Th5Zr3(Ni4As3)4
_symmetry_space_group_name_H-M   'P 1'
_cell_length_a   12.87924100
_cell_length_b   12.87924048
_cell_length_c   4.03046100
_cell_angle_alpha   90.00000000
_cell_angle_beta   90.00000000
_cell_angle_gamma   120.00000390
_symmetry_Int_Tables_number   1
_chemical_formula_structural   Th5Zr3(Ni4As3)4
_chemical_formula_sum   'Th5 Zr3 Ni16 As12'
_cell_volume   578.98306383
_cell_formula_units_Z   1
loop_
 _symmetry_equiv_pos_site_id
 _symmetry_equiv_pos_as_xyz
  1  'x, y, z'
loop_
 _atom_site_type_symbol
 _atom_site_label
 _atom_site_symmetry_multiplicity
 _atom_site_fract_x
 _atom_site_fract_y
 _atom_site_fract_z
 _atom_site_occupancy
  Th  Th0  1  0.188168  0.188168  0.500000  1
  Th  Th1  1  0.811832  0.000000  0.500000  1
  Th  Th2  1  0.000000  0.811832  0.500000  1
  Th  Th3  1  0.333333  0.666667  0.000000  1
  Th  Th4  1  0.666667  0.333333  0.000000  1
  Zr  Zr5  1  0.571720  0.571720  0.000000  1
  Zr  Zr6  1  0.428280  0.000000  0.000000  1
  Zr  Zr7  1  0.000000  0.428280  0.000000  1
  Ni  Ni8  1  0.726205  0.726205  0.500000  1
  Ni  Ni9  1  0.273795  0.000000  0.500000  1
  Ni  Ni10  1  0.000000  0.273795  0.500000  1
  Ni  Ni11  1  0.185933  0.375478  0.000000  1
  Ni  Ni12  1  0.624522  0.810454  0.000000  1
  Ni  Ni13  1  0.189546  0.814067  0.000000  1
  Ni  Ni14  1  0.810454  0.624522  0.000000  1
  Ni  Ni15  1  0.814067  0.189546  0.000000  1
  Ni  Ni16  1  0.375478  0.185933  0.000000  1
  Ni  Ni17  1  0.366652  0.485656  0.500000  1
  Ni  Ni18  1  0.514344  0.880997  0.500000  1
  Ni  Ni19  1  0.119003  0.633348  0.500000  1
  Ni  Ni20  1  0.880997  0.514344  0.500000  1
  Ni  Ni21  1  0.633348  0.119003  0.500000  1
  Ni  Ni22  1  0.485656  0.366652  0.500000  1
  Ni  Ni23  1  0.000000  0.000000  0.000000  1
  As  As24  1  0.819044  0.819044  0.000000  1
  As  As25  1  0.180956  0.000000  0.000000  1
  As  As26  1  0.000000  0.180956  0.000000  1
  As  As27  1  0.171563  0.474625  0.500000  1
  As  As28  1  0.525375  0.696938  0.500000  1
  As  As29  1  0.303062  0.828437  0.500000  1
  As  As30  1  0.696938  0.525375  0.500000  1
  As  As31  1  0.828437  0.303062  0.500000  1
  As  As32  1  0.474625  0.171563  0.500000  1
  As  As33  1  0.366944  0.366944  0.000000  1
  As  As34  1  0.633056  0.000000  0.000000  1
  As  As35  1  0.000000  0.633056  0.000000  1
