# generated using pymatgen
data_Zr15Nb5Si15P
_symmetry_space_group_name_H-M   'P 1'
_cell_length_a   7.04492790
_cell_length_b   7.04044341
_cell_length_c   12.92068740
_cell_angle_alpha   90.16860267
_cell_angle_beta   90.07286194
_cell_angle_gamma   90.02720064
_symmetry_Int_Tables_number   1
_chemical_formula_structural   Zr15Nb5Si15P
_chemical_formula_sum   'Zr15 Nb5 Si15 P1'
_cell_volume   640.85518566
_cell_formula_units_Z   1
loop_
 _symmetry_equiv_pos_site_id
 _symmetry_equiv_pos_as_xyz
  1  'x, y, z'
loop_
 _atom_site_type_symbol
 _atom_site_label
 _atom_site_symmetry_multiplicity
 _atom_site_fract_x
 _atom_site_fract_y
 _atom_site_fract_z
 _atom_site_occupancy
  Zr  Zr0  1  0.857157  0.994799  0.374644  1
  Zr  Zr1  1  0.005309  0.146318  0.127564  1
  Zr  Zr2  1  0.999244  0.851635  0.622745  1
  Zr  Zr3  1  0.645738  0.497443  0.876165  1
  Zr  Zr4  1  0.502119  0.353110  0.623204  1
  Zr  Zr5  1  0.498541  0.644195  0.124003  1
  Zr  Zr6  1  0.144935  0.002433  0.873877  1
  Zr  Zr7  1  0.002630  0.650136  0.035344  1
  Zr  Zr8  1  0.003410  0.352509  0.530307  1
  Zr  Zr9  1  0.650844  0.998339  0.966386  1
  Zr  Zr10  1  0.150655  0.500430  0.782565  1
  Zr  Zr11  1  0.849890  0.500227  0.284480  1
  Zr  Zr12  1  0.501619  0.152631  0.218720  1
  Zr  Zr13  1  0.499353  0.846890  0.714528  1
  Zr  Zr14  1  0.347349  0.999667  0.466675  1
  Nb  Nb15  1  0.351358  0.509181  0.376766  1
  Nb  Nb16  1  0.672413  0.673751  0.498314  1
  Nb  Nb17  1  0.824084  0.174281  0.749453  1
  Nb  Nb18  1  0.174669  0.824582  0.252322  1
  Nb  Nb19  1  0.325803  0.325274  0.000972  1
  Si  Si20  1  0.951575  0.301197  0.936340  1
  Si  Si21  1  0.699432  0.049501  0.563643  1
  Si  Si22  1  0.201808  0.451945  0.188674  1
  Si  Si23  1  0.800060  0.548023  0.685352  1
  Si  Si24  1  0.450658  0.198532  0.814207  1
  Si  Si25  1  0.547299  0.798184  0.314121  1
  Si  Si26  1  0.301070  0.950209  0.065243  1
  Si  Si27  1  0.852524  0.797014  0.819807  1
  Si  Si28  1  0.147208  0.210974  0.324295  1
  Si  Si29  1  0.795983  0.854251  0.178870  1
  Si  Si30  1  0.299183  0.644167  0.570730  1
  Si  Si31  1  0.704679  0.352001  0.072306  1
  Si  Si32  1  0.638838  0.297832  0.425589  1
  Si  Si33  1  0.352270  0.702734  0.929212  1
  Si  Si34  1  0.200310  0.147093  0.678266  1
  P  P35  1  0.049983  0.698511  0.434310  1
