# generated using pymatgen
data_Zr10Al3Bi3S
_symmetry_space_group_name_H-M   'P 1'
_cell_length_a   8.49836100
_cell_length_b   8.49836303
_cell_length_c   5.82788400
_cell_angle_alpha   90.00000000
_cell_angle_beta   90.00000000
_cell_angle_gamma   120.00000376
_symmetry_Int_Tables_number   1
_chemical_formula_structural   Zr10Al3Bi3S
_chemical_formula_sum   'Zr10 Al3 Bi3 S1'
_cell_volume   364.51211649
_cell_formula_units_Z   1
loop_
 _symmetry_equiv_pos_site_id
 _symmetry_equiv_pos_as_xyz
  1  'x, y, z'
loop_
 _atom_site_type_symbol
 _atom_site_label
 _atom_site_symmetry_multiplicity
 _atom_site_fract_x
 _atom_site_fract_y
 _atom_site_fract_z
 _atom_site_occupancy
  Zr  Zr0  1  0.000000  0.755697  0.238216  1
  Zr  Zr1  1  0.244303  0.244303  0.238216  1
  Zr  Zr2  1  0.755697  0.000000  0.238216  1
  Zr  Zr3  1  0.000000  0.252478  0.757253  1
  Zr  Zr4  1  0.747522  0.747522  0.757253  1
  Zr  Zr5  1  0.252478  0.000000  0.757253  1
  Zr  Zr6  1  0.333333  0.666667  0.510662  1
  Zr  Zr7  1  0.666667  0.333333  0.510662  1
  Zr  Zr8  1  0.666667  0.333333  0.988201  1
  Zr  Zr9  1  0.333333  0.666667  0.988201  1
  Al  Al10  1  0.000000  0.609950  0.752197  1
  Al  Al11  1  0.390050  0.390050  0.752197  1
  Al  Al12  1  0.609950  0.000000  0.752197  1
  Bi  Bi13  1  0.000000  0.400318  0.251315  1
  Bi  Bi14  1  0.599682  0.599682  0.251315  1
  Bi  Bi15  1  0.400318  0.000000  0.251315  1
  S  S16  1  0.000000  0.000000  0.505333  1
