# generated using pymatgen
data_Ce5CrFeB6
_symmetry_space_group_name_H-M   'P 1'
_cell_length_a   5.35615773
_cell_length_b   5.35615943
_cell_length_c   8.20870188
_cell_angle_alpha   70.95873866
_cell_angle_beta   70.95874576
_cell_angle_gamma   59.99998963
_symmetry_Int_Tables_number   1
_chemical_formula_structural   Ce5CrFeB6
_chemical_formula_sum   'Ce5 Cr1 Fe1 B6'
_cell_volume   188.91931853
_cell_formula_units_Z   1
loop_
 _symmetry_equiv_pos_site_id
 _symmetry_equiv_pos_as_xyz
  1  'x, y, z'
loop_
 _atom_site_type_symbol
 _atom_site_label
 _atom_site_symmetry_multiplicity
 _atom_site_fract_x
 _atom_site_fract_y
 _atom_site_fract_z
 _atom_site_occupancy
  Ce  Ce0  1  0.994021  0.994021  0.017937  1
  Ce  Ce1  1  0.744478  0.744478  0.766566  1
  Ce  Ce2  1  0.255482  0.255482  0.233555  1
  Ce  Ce3  1  0.588272  0.588272  0.235184  1
  Ce  Ce4  1  0.411337  0.411337  0.765991  1
  Cr  Cr5  1  0.892191  0.892191  0.323429  1
  Fe  Fe6  1  0.112636  0.112636  0.662092  1
  B  B7  1  0.500034  0.167650  0.499208  1
  B  B8  1  0.833108  0.500034  0.499208  1
  B  B9  1  0.167650  0.833108  0.499208  1
  B  B10  1  0.167650  0.500034  0.499208  1
  B  B11  1  0.833108  0.167650  0.499208  1
  B  B12  1  0.500034  0.833108  0.499208  1
