# generated using pymatgen
data_Dy2Nb3Co9As7
_symmetry_space_group_name_H-M   'P 1'
_cell_length_a   3.82000300
_cell_length_b   9.54721412
_cell_length_c   9.54721400
_cell_angle_alpha   119.99999958
_cell_angle_beta   90.00000000
_cell_angle_gamma   90.00000000
_symmetry_Int_Tables_number   1
_chemical_formula_structural   Dy2Nb3Co9As7
_chemical_formula_sum   'Dy2 Nb3 Co9 As7'
_cell_volume   301.54189360
_cell_formula_units_Z   1
loop_
 _symmetry_equiv_pos_site_id
 _symmetry_equiv_pos_as_xyz
  1  'x, y, z'
loop_
 _atom_site_type_symbol
 _atom_site_label
 _atom_site_symmetry_multiplicity
 _atom_site_fract_x
 _atom_site_fract_y
 _atom_site_fract_z
 _atom_site_occupancy
  Dy  Dy0  1  0.000000  0.666667  0.333333  1
  Dy  Dy1  1  0.500000  0.333333  0.666667  1
  Nb  Nb2  1  0.500000  0.776099  0.897025  1
  Nb  Nb3  1  0.500000  0.120926  0.223901  1
  Nb  Nb4  1  0.500000  0.102975  0.879074  1
  Co  Co5  1  0.000000  0.570454  0.938002  1
  Co  Co6  1  0.000000  0.367548  0.429546  1
  Co  Co7  1  0.000000  0.061998  0.632452  1
  Co  Co8  1  0.000000  0.876853  0.160720  1
  Co  Co9  1  0.000000  0.283868  0.123147  1
  Co  Co10  1  0.000000  0.839280  0.716132  1
  Co  Co11  1  0.500000  0.948237  0.384929  1
  Co  Co12  1  0.500000  0.436691  0.051763  1
  Co  Co13  1  0.500000  0.615071  0.563309  1
  As  As14  1  0.000000  0.000000  0.000000  1
  As  As15  1  0.500000  0.708394  0.124656  1
  As  As16  1  0.500000  0.416263  0.291606  1
  As  As17  1  0.500000  0.875344  0.583737  1
  As  As18  1  0.000000  0.580513  0.692369  1
  As  As19  1  0.000000  0.111857  0.419487  1
  As  As20  1  0.000000  0.307631  0.888143  1
