# generated using pymatgen
data_RbEr(PS3)2
_symmetry_space_group_name_H-M   'P 1'
_cell_length_a   7.34942200
_cell_length_b   6.58172497
_cell_length_c   10.62211061
_cell_angle_alpha   85.79906903
_cell_angle_beta   90.00000000
_cell_angle_gamma   90.00000000
_symmetry_Int_Tables_number   1
_chemical_formula_structural   RbEr(PS3)2
_chemical_formula_sum   'Rb2 Er2 P4 S12'
_cell_volume   512.43093530
_cell_formula_units_Z   2
loop_
 _symmetry_equiv_pos_site_id
 _symmetry_equiv_pos_as_xyz
  1  'x, y, z'
loop_
 _atom_site_type_symbol
 _atom_site_label
 _atom_site_symmetry_multiplicity
 _atom_site_fract_x
 _atom_site_fract_y
 _atom_site_fract_z
 _atom_site_occupancy
  Rb  Rb0  1  0.454727  0.695381  0.498880  1
  Rb  Rb1  1  0.954727  0.304619  0.501120  1
  Er  Er2  1  0.678985  0.781697  0.000630  1
  Er  Er3  1  0.178985  0.218303  0.999370  1
  P  P4  1  0.934642  0.794362  0.271725  1
  P  P5  1  0.662332  0.333417  0.840198  1
  P  P6  1  0.162332  0.666583  0.159802  1
  P  P7  1  0.434642  0.205638  0.728275  1
  S  S8  1  0.372851  0.952205  0.847110  1
  S  S9  1  0.040526  0.622517  0.988599  1
  S  S10  1  0.229955  0.403871  0.750391  1
  S  S11  1  0.540526  0.377483  0.011401  1
  S  S12  1  0.854676  0.104093  0.849277  1
  S  S13  1  0.354676  0.895907  0.150723  1
  S  S14  1  0.729955  0.596129  0.249609  1
  S  S15  1  0.872851  0.047795  0.152890  1
  S  S16  1  0.512907  0.176734  0.551341  1
  S  S17  1  0.751550  0.604676  0.763903  1
  S  S18  1  0.012907  0.823266  0.448659  1
  S  S19  1  0.251550  0.395324  0.236097  1
