# generated using pymatgen
data_Pr6ScP12Rh17
_symmetry_space_group_name_H-M   'P 1'
_cell_length_a   3.98979100
_cell_length_b   11.35401500
_cell_length_c   13.03879900
_cell_angle_alpha   90.00000000
_cell_angle_beta   90.00000000
_cell_angle_gamma   90.00000000
_symmetry_Int_Tables_number   1
_chemical_formula_structural   Pr6ScP12Rh17
_chemical_formula_sum   'Pr6 Sc1 P12 Rh17'
_cell_volume   590.65950959
_cell_formula_units_Z   1
loop_
 _symmetry_equiv_pos_site_id
 _symmetry_equiv_pos_as_xyz
  1  'x, y, z'
loop_
 _atom_site_type_symbol
 _atom_site_label
 _atom_site_symmetry_multiplicity
 _atom_site_fract_x
 _atom_site_fract_y
 _atom_site_fract_z
 _atom_site_occupancy
  Pr  Pr0  1  0.000000  0.500000  0.519944  1
  Pr  Pr1  1  0.500000  0.000000  0.478167  1
  Pr  Pr2  1  0.500000  0.817702  0.206174  1
  Pr  Pr3  1  0.500000  0.182298  0.206174  1
  Pr  Pr4  1  0.000000  0.682466  0.796711  1
  Pr  Pr5  1  0.000000  0.317534  0.796711  1
  Sc  Sc6  1  0.500000  0.500000  0.153937  1
  P  P7  1  0.500000  0.500000  0.882449  1
  P  P8  1  0.000000  0.000000  0.116803  1
  P  P9  1  0.500000  0.500000  0.353053  1
  P  P10  1  0.000000  0.000000  0.652629  1
  P  P11  1  0.500000  0.311684  0.617069  1
  P  P12  1  0.500000  0.688316  0.617069  1
  P  P13  1  0.000000  0.189541  0.385033  1
  P  P14  1  0.000000  0.810459  0.385033  1
  P  P15  1  0.500000  0.850310  0.890572  1
  P  P16  1  0.500000  0.149690  0.890572  1
  P  P17  1  0.000000  0.659010  0.104907  1
  P  P18  1  0.000000  0.340990  0.104907  1
  Rh  Rh19  1  0.000000  0.000000  0.829931  1
  Rh  Rh20  1  0.500000  0.500000  0.703305  1
  Rh  Rh21  1  0.000000  0.000000  0.296917  1
  Rh  Rh22  1  0.000000  0.500000  0.986317  1
  Rh  Rh23  1  0.500000  0.000000  0.016435  1
  Rh  Rh24  1  0.500000  0.329892  0.992258  1
  Rh  Rh25  1  0.500000  0.670108  0.992258  1
  Rh  Rh26  1  0.000000  0.163911  0.004295  1
  Rh  Rh27  1  0.000000  0.836089  0.004295  1
  Rh  Rh28  1  0.500000  0.289131  0.434083  1
  Rh  Rh29  1  0.500000  0.710869  0.434083  1
  Rh  Rh30  1  0.000000  0.204737  0.572079  1
  Rh  Rh31  1  0.000000  0.795263  0.572079  1
  Rh  Rh32  1  0.500000  0.876683  0.710097  1
  Rh  Rh33  1  0.500000  0.123317  0.710097  1
  Rh  Rh34  1  0.000000  0.624979  0.291778  1
  Rh  Rh35  1  0.000000  0.375021  0.291778  1
