# generated using pymatgen
data_UInCl6
_symmetry_space_group_name_H-M   'P 1'
_cell_length_a   7.73351651
_cell_length_b   7.77977803
_cell_length_c   13.08735319
_cell_angle_alpha   96.82380126
_cell_angle_beta   97.38398197
_cell_angle_gamma   119.09077712
_symmetry_Int_Tables_number   1
_chemical_formula_structural   UInCl6
_chemical_formula_sum   'U2 In2 Cl12'
_cell_volume   667.26470736
_cell_formula_units_Z   2
loop_
 _symmetry_equiv_pos_site_id
 _symmetry_equiv_pos_as_xyz
  1  'x, y, z'
loop_
 _atom_site_type_symbol
 _atom_site_label
 _atom_site_symmetry_multiplicity
 _atom_site_fract_x
 _atom_site_fract_y
 _atom_site_fract_z
 _atom_site_occupancy
  U  U0  1  0.667149  0.328122  0.498314  1
  U  U1  1  0.828293  0.167325  0.998566  1
  In  In2  1  0.333692  0.664039  0.498962  1
  In  In3  1  0.160575  0.829552  0.998795  1
  Cl  Cl4  1  0.596304  0.201894  0.109271  1
  Cl  Cl5  1  0.135673  0.480855  0.115354  1
  Cl  Cl6  1  0.884252  0.948496  0.112437  1
  Cl  Cl7  1  0.610198  0.546399  0.384097  1
  Cl  Cl8  1  0.360874  0.014312  0.381356  1
  Cl  Cl9  1  0.900451  0.294678  0.387708  1
  Cl  Cl10  1  0.704244  0.097996  0.610092  1
  Cl  Cl11  1  0.982458  0.633655  0.615652  1
  Cl  Cl12  1  0.446817  0.382465  0.611426  1
  Cl  Cl13  1  0.047922  0.112129  0.885442  1
  Cl  Cl14  1  0.512522  0.863080  0.881360  1
  Cl  Cl15  1  0.792581  0.399000  0.887167  1
