# generated using pymatgen
data_Tm7Lu5Os3Ru
_symmetry_space_group_name_H-M   'P 1'
_cell_length_a   7.32555807
_cell_length_b   8.86239080
_cell_length_c   6.18948907
_cell_angle_alpha   89.90908987
_cell_angle_beta   89.93681215
_cell_angle_gamma   90.05450846
_symmetry_Int_Tables_number   1
_chemical_formula_structural   Tm7Lu5Os3Ru
_chemical_formula_sum   'Tm7 Lu5 Os3 Ru1'
_cell_volume   401.83281993
_cell_formula_units_Z   1
loop_
 _symmetry_equiv_pos_site_id
 _symmetry_equiv_pos_as_xyz
  1  'x, y, z'
loop_
 _atom_site_type_symbol
 _atom_site_label
 _atom_site_symmetry_multiplicity
 _atom_site_fract_x
 _atom_site_fract_y
 _atom_site_fract_z
 _atom_site_occupancy
  Tm  Tm0  1  0.040942  0.248649  0.627645  1
  Tm  Tm1  1  0.960292  0.751319  0.372781  1
  Tm  Tm2  1  0.460904  0.751406  0.128237  1
  Tm  Tm3  1  0.540152  0.248791  0.869868  1
  Tm  Tm4  1  0.173831  0.438044  0.164568  1
  Tm  Tm5  1  0.675351  0.437396  0.334324  1
  Tm  Tm6  1  0.324501  0.563990  0.667281  1
  Lu  Lu7  1  0.173710  0.061347  0.163910  1
  Lu  Lu8  1  0.825279  0.937725  0.834592  1
  Lu  Lu9  1  0.325108  0.937028  0.666458  1
  Lu  Lu10  1  0.825533  0.562692  0.833772  1
  Lu  Lu11  1  0.674832  0.061840  0.335269  1
  Os  Os12  1  0.617089  0.751093  0.540211  1
  Os  Os13  1  0.116810  0.751187  0.961112  1
  Os  Os14  1  0.882567  0.249287  0.038419  1
  Ru  Ru15  1  0.383099  0.248206  0.461555  1
