# generated using pymatgen
data_YbEu3Hf2(WO7)2
_symmetry_space_group_name_H-M   'P 1'
_cell_length_a   7.49503417
_cell_length_b   7.49045213
_cell_length_c   7.51195893
_cell_angle_alpha   60.15468620
_cell_angle_beta   60.07450632
_cell_angle_gamma   59.97977611
_symmetry_Int_Tables_number   1
_chemical_formula_structural   YbEu3Hf2(WO7)2
_chemical_formula_sum   'Yb1 Eu3 Hf2 W2 O14'
_cell_volume   298.67774504
_cell_formula_units_Z   1
loop_
 _symmetry_equiv_pos_site_id
 _symmetry_equiv_pos_as_xyz
  1  'x, y, z'
loop_
 _atom_site_type_symbol
 _atom_site_label
 _atom_site_symmetry_multiplicity
 _atom_site_fract_x
 _atom_site_fract_y
 _atom_site_fract_z
 _atom_site_occupancy
  Yb  Yb0  1  0.125000  0.125000  0.625000  1
  Eu  Eu1  1  0.625000  0.125000  0.125000  1
  Eu  Eu2  1  0.125000  0.625000  0.125000  1
  Eu  Eu3  1  0.125000  0.125000  0.125000  1
  Hf  Hf4  1  0.625000  0.125000  0.625000  1
  Hf  Hf5  1  0.625000  0.625000  0.125000  1
  W  W6  1  0.125000  0.625000  0.625000  1
  W  W7  1  0.625000  0.625000  0.625000  1
  O  O8  1  0.248990  0.250348  0.251672  1
  O  O9  1  0.001010  0.999652  0.998328  1
  O  O10  1  0.705313  0.698844  0.303964  1
  O  O11  1  0.291393  0.306709  0.696919  1
  O  O12  1  0.704979  0.306709  0.696919  1
  O  O13  1  0.291880  0.698844  0.303964  1
  O  O14  1  0.299929  0.699693  0.700448  1
  O  O15  1  0.706204  0.293206  0.294387  1
  O  O16  1  0.544687  0.551156  0.946036  1
  O  O17  1  0.958607  0.943291  0.553081  1
  O  O18  1  0.545021  0.943291  0.553081  1
  O  O19  1  0.958120  0.551156  0.946036  1
  O  O20  1  0.950071  0.550307  0.549552  1
  O  O21  1  0.543796  0.956794  0.955613  1
