# generated using pymatgen
data_Lu4Hf(ReTc)12
_symmetry_space_group_name_H-M   'P 1'
_cell_length_a   8.49097765
_cell_length_b   8.49097688
_cell_length_c   8.49097806
_cell_angle_alpha   109.47788627
_cell_angle_beta   109.47788229
_cell_angle_gamma   109.47789505
_symmetry_Int_Tables_number   1
_chemical_formula_structural   Lu4Hf(ReTc)12
_chemical_formula_sum   'Lu4 Hf1 Re12 Tc12'
_cell_volume   471.13344300
_cell_formula_units_Z   1
loop_
 _symmetry_equiv_pos_site_id
 _symmetry_equiv_pos_as_xyz
  1  'x, y, z'
loop_
 _atom_site_type_symbol
 _atom_site_label
 _atom_site_symmetry_multiplicity
 _atom_site_fract_x
 _atom_site_fract_y
 _atom_site_fract_z
 _atom_site_occupancy
  Lu  Lu0  1  0.999819  0.999819  0.999819  1
  Lu  Lu1  1  0.626491  0.000154  0.000154  1
  Lu  Lu2  1  0.000154  0.626491  0.000154  1
  Lu  Lu3  1  0.000154  0.000154  0.626491  1
  Hf  Hf4  1  0.373682  0.373682  0.373682  1
  Re  Re5  1  0.378171  0.194930  0.001659  1
  Re  Re6  1  0.185566  0.808269  0.808269  1
  Re  Re7  1  0.378171  0.001659  0.194930  1
  Re  Re8  1  0.194930  0.378171  0.001659  1
  Re  Re9  1  0.001659  0.378171  0.194930  1
  Re  Re10  1  0.808269  0.185566  0.808269  1
  Re  Re11  1  0.808269  0.808269  0.185566  1
  Re  Re12  1  0.001659  0.194930  0.378171  1
  Re  Re13  1  0.194930  0.001659  0.378171  1
  Re  Re14  1  0.621814  0.621814  0.814755  1
  Re  Re15  1  0.814755  0.621814  0.621814  1
  Re  Re16  1  0.621814  0.814755  0.621814  1
  Tc  Tc17  1  0.394979  0.672711  0.998815  1
  Tc  Tc18  1  0.722073  0.326572  0.326572  1
  Tc  Tc19  1  0.394979  0.998815  0.672711  1
  Tc  Tc20  1  0.672711  0.394979  0.998815  1
  Tc  Tc21  1  0.998815  0.394979  0.672711  1
  Tc  Tc22  1  0.326572  0.722073  0.326572  1
  Tc  Tc23  1  0.326572  0.326572  0.722073  1
  Tc  Tc24  1  0.998815  0.672711  0.394979  1
  Tc  Tc25  1  0.672711  0.998815  0.394979  1
  Tc  Tc26  1  0.601680  0.601680  0.278106  1
  Tc  Tc27  1  0.278106  0.601680  0.601680  1
  Tc  Tc28  1  0.601680  0.278106  0.601680  1
