# generated using pymatgen
data_Tb12AlZnCo4
_symmetry_space_group_name_H-M   'P 1'
_cell_length_a   8.29599154
_cell_length_b   8.29599546
_cell_length_c   8.29599184
_cell_angle_alpha   112.05876369
_cell_angle_beta   109.41661251
_cell_angle_gamma   106.97821261
_symmetry_Int_Tables_number   1
_chemical_formula_structural   Tb12AlZnCo4
_chemical_formula_sum   'Tb12 Al1 Zn1 Co4'
_cell_volume   438.65943833
_cell_formula_units_Z   1
loop_
 _symmetry_equiv_pos_site_id
 _symmetry_equiv_pos_as_xyz
  1  'x, y, z'
loop_
 _atom_site_type_symbol
 _atom_site_label
 _atom_site_symmetry_multiplicity
 _atom_site_fract_x
 _atom_site_fract_y
 _atom_site_fract_z
 _atom_site_occupancy
  Tb  Tb0  1  0.039574  0.736039  0.303534  1
  Tb  Tb1  1  0.960426  0.263961  0.696466  1
  Tb  Tb2  1  0.567494  0.263961  0.303534  1
  Tb  Tb3  1  0.432506  0.736039  0.696466  1
  Tb  Tb4  1  0.673794  0.862274  0.188480  1
  Tb  Tb5  1  0.326206  0.514686  0.188480  1
  Tb  Tb6  1  0.326206  0.137726  0.811520  1
  Tb  Tb7  1  0.673794  0.485314  0.811520  1
  Tb  Tb8  1  0.179816  0.218579  0.398394  1
  Tb  Tb9  1  0.820184  0.218579  0.038763  1
  Tb  Tb10  1  0.179816  0.781421  0.961237  1
  Tb  Tb11  1  0.820184  0.781421  0.601606  1
  Al  Al12  1  0.500000  0.000000  0.500000  1
  Zn  Zn13  1  0.000000  0.500000  0.500000  1
  Co  Co14  1  0.661934  0.500000  0.161934  1
  Co  Co15  1  0.338066  0.500000  0.838066  1
  Co  Co16  1  0.885740  0.885740  0.000000  1
  Co  Co17  1  0.114260  0.114260  0.000000  1
