# generated using pymatgen
data_Pa3SnSe8
_symmetry_space_group_name_H-M   'P 1'
_cell_length_a   8.50102550
_cell_length_b   8.39823282
_cell_length_c   8.39423568
_cell_angle_alpha   59.87687766
_cell_angle_beta   60.36935803
_cell_angle_gamma   60.36698962
_symmetry_Int_Tables_number   1
_chemical_formula_structural   Pa3SnSe8
_chemical_formula_sum   'Pa3 Sn1 Se8'
_cell_volume   425.70599873
_cell_formula_units_Z   1
loop_
 _symmetry_equiv_pos_site_id
 _symmetry_equiv_pos_as_xyz
  1  'x, y, z'
loop_
 _atom_site_type_symbol
 _atom_site_label
 _atom_site_symmetry_multiplicity
 _atom_site_fract_x
 _atom_site_fract_y
 _atom_site_fract_z
 _atom_site_occupancy
  Pa  Pa0  1  0.500030  0.500022  0.499990  1
  Pa  Pa1  1  0.499995  0.500015  0.999994  1
  Pa  Pa2  1  0.500019  0.999989  0.500008  1
  Sn  Sn3  1  0.000081  0.499939  0.499980  1
  Se  Se4  1  0.717178  0.750686  0.750795  1
  Se  Se5  1  0.282320  0.249501  0.718605  1
  Se  Se6  1  0.282411  0.718526  0.249445  1
  Se  Se7  1  0.717602  0.260589  0.260462  1
  Se  Se8  1  0.717540  0.281527  0.750565  1
  Se  Se9  1  0.282350  0.739423  0.739478  1
  Se  Se10  1  0.282736  0.249325  0.249231  1
  Se  Se11  1  0.717733  0.750462  0.281435  1
