# generated using pymatgen
data_TbEu(ReB4)2
_symmetry_space_group_name_H-M   'P 1'
_cell_length_a   3.62543000
_cell_length_b   6.02356121
_cell_length_c   11.65819419
_cell_angle_alpha   89.88181519
_cell_angle_beta   90.00000000
_cell_angle_gamma   90.00000000
_symmetry_Int_Tables_number   1
_chemical_formula_structural   TbEu(ReB4)2
_chemical_formula_sum   'Tb2 Eu2 Re4 B16'
_cell_volume   254.59109744
_cell_formula_units_Z   2
loop_
 _symmetry_equiv_pos_site_id
 _symmetry_equiv_pos_as_xyz
  1  'x, y, z'
loop_
 _atom_site_type_symbol
 _atom_site_label
 _atom_site_symmetry_multiplicity
 _atom_site_fract_x
 _atom_site_fract_y
 _atom_site_fract_z
 _atom_site_occupancy
  Tb  Tb0  1  0.000000  0.126819  0.150575  1
  Tb  Tb1  1  0.000000  0.873181  0.849425  1
  Eu  Eu2  1  0.000000  0.626556  0.350000  1
  Eu  Eu3  1  0.000000  0.373444  0.650000  1
  Re  Re4  1  0.000000  0.631944  0.085790  1
  Re  Re5  1  0.000000  0.368056  0.914210  1
  Re  Re6  1  0.000000  0.130012  0.414033  1
  Re  Re7  1  0.000000  0.869988  0.585967  1
  B  B8  1  0.500000  0.784503  0.184274  1
  B  B9  1  0.500000  0.215497  0.815726  1
  B  B10  1  0.500000  0.283616  0.315209  1
  B  B11  1  0.500000  0.716384  0.684791  1
  B  B12  1  0.500000  0.862934  0.031441  1
  B  B13  1  0.500000  0.137066  0.968559  1
  B  B14  1  0.500000  0.362516  0.467717  1
  B  B15  1  0.500000  0.637484  0.532283  1
  B  B16  1  0.500000  0.886975  0.453339  1
  B  B17  1  0.500000  0.113025  0.546661  1
  B  B18  1  0.500000  0.386475  0.046885  1
  B  B19  1  0.500000  0.613525  0.953115  1
  B  B20  1  0.500000  0.976591  0.308224  1
  B  B21  1  0.500000  0.023409  0.691776  1
  B  B22  1  0.500000  0.474550  0.191046  1
  B  B23  1  0.500000  0.525450  0.808954  1
