# generated using pymatgen
data_Na5ReNO4
_symmetry_space_group_name_H-M   'P 1'
_cell_length_a   5.75507333
_cell_length_b   5.75514940
_cell_length_c   10.79876100
_cell_angle_alpha   90.00000000
_cell_angle_beta   90.00000000
_cell_angle_gamma   118.68154830
_symmetry_Int_Tables_number   1
_chemical_formula_structural   Na5ReNO4
_chemical_formula_sum   'Na10 Re2 N2 O8'
_cell_volume   313.78335671
_cell_formula_units_Z   2
loop_
 _symmetry_equiv_pos_site_id
 _symmetry_equiv_pos_as_xyz
  1  'x, y, z'
loop_
 _atom_site_type_symbol
 _atom_site_label
 _atom_site_symmetry_multiplicity
 _atom_site_fract_x
 _atom_site_fract_y
 _atom_site_fract_z
 _atom_site_occupancy
  Na  Na0  1  0.191188  0.808812  0.500002  1
  Na  Na1  1  0.191188  0.808812  0.999998  1
  Na  Na2  1  0.548280  0.169431  0.750000  1
  Na  Na3  1  0.169436  0.548285  0.750000  1
  Na  Na4  1  0.500000  0.500000  0.000000  1
  Na  Na5  1  0.808812  0.191188  0.499998  1
  Na  Na6  1  0.808812  0.191188  0.000002  1
  Na  Na7  1  0.500000  0.500000  0.500000  1
  Na  Na8  1  0.451720  0.830569  0.250000  1
  Na  Na9  1  0.830564  0.451715  0.250000  1
  Re  Re10  1  0.200814  0.200823  0.250000  1
  Re  Re11  1  0.799186  0.799177  0.750000  1
  N  N12  1  0.904048  0.904053  0.250000  1
  N  N13  1  0.095952  0.095947  0.750000  1
  O  O14  1  0.833822  0.558673  0.627614  1
  O  O15  1  0.558677  0.833815  0.627614  1
  O  O16  1  0.166178  0.441327  0.372386  1
  O  O17  1  0.441323  0.166185  0.372386  1
  O  O18  1  0.441323  0.166185  0.127614  1
  O  O19  1  0.166178  0.441327  0.127614  1
  O  O20  1  0.558677  0.833815  0.872386  1
  O  O21  1  0.833822  0.558673  0.872386  1
