# generated using pymatgen
data_Dy3Fe7(P3Rh)2
_symmetry_space_group_name_H-M   'P 1'
_cell_length_a   3.74201000
_cell_length_b   10.68489100
_cell_length_c   12.20410400
_cell_angle_alpha   90.00000000
_cell_angle_beta   90.00000000
_cell_angle_gamma   90.00000000
_symmetry_Int_Tables_number   1
_chemical_formula_structural   Dy3Fe7(P3Rh)2
_chemical_formula_sum   'Dy6 Fe14 P12 Rh4'
_cell_volume   487.95631155
_cell_formula_units_Z   2
loop_
 _symmetry_equiv_pos_site_id
 _symmetry_equiv_pos_as_xyz
  1  'x, y, z'
loop_
 _atom_site_type_symbol
 _atom_site_label
 _atom_site_symmetry_multiplicity
 _atom_site_fract_x
 _atom_site_fract_y
 _atom_site_fract_z
 _atom_site_occupancy
  Dy  Dy0  1  0.000000  0.500000  0.523925  1
  Dy  Dy1  1  0.500000  0.000000  0.476075  1
  Dy  Dy2  1  0.500000  0.816118  0.204208  1
  Dy  Dy3  1  0.500000  0.183882  0.204208  1
  Dy  Dy4  1  0.000000  0.683882  0.795792  1
  Dy  Dy5  1  0.000000  0.316118  0.795792  1
  Fe  Fe6  1  0.000000  0.500000  0.990623  1
  Fe  Fe7  1  0.500000  0.000000  0.009377  1
  Fe  Fe8  1  0.500000  0.330991  0.994966  1
  Fe  Fe9  1  0.500000  0.669009  0.994966  1
  Fe  Fe10  1  0.000000  0.169009  0.005034  1
  Fe  Fe11  1  0.000000  0.830991  0.005034  1
  Fe  Fe12  1  0.500000  0.300751  0.430484  1
  Fe  Fe13  1  0.500000  0.699249  0.430484  1
  Fe  Fe14  1  0.000000  0.199249  0.569516  1
  Fe  Fe15  1  0.000000  0.800751  0.569516  1
  Fe  Fe16  1  0.500000  0.882919  0.710451  1
  Fe  Fe17  1  0.500000  0.117081  0.710451  1
  Fe  Fe18  1  0.000000  0.617081  0.289549  1
  Fe  Fe19  1  0.000000  0.382919  0.289549  1
  P  P20  1  0.500000  0.500000  0.892139  1
  P  P21  1  0.000000  0.000000  0.107861  1
  P  P22  1  0.500000  0.500000  0.346663  1
  P  P23  1  0.000000  0.000000  0.653337  1
  P  P24  1  0.500000  0.296492  0.613207  1
  P  P25  1  0.500000  0.703508  0.613207  1
  P  P26  1  0.000000  0.203508  0.386793  1
  P  P27  1  0.000000  0.796492  0.386793  1
  P  P28  1  0.500000  0.842888  0.896516  1
  P  P29  1  0.500000  0.157112  0.896516  1
  P  P30  1  0.000000  0.657112  0.103484  1
  P  P31  1  0.000000  0.342888  0.103484  1
  Rh  Rh32  1  0.500000  0.500000  0.156320  1
  Rh  Rh33  1  0.000000  0.000000  0.843680  1
  Rh  Rh34  1  0.500000  0.500000  0.699316  1
  Rh  Rh35  1  0.000000  0.000000  0.300684  1
