# generated using pymatgen
data_Pr2SiPtI
_symmetry_space_group_name_H-M   'P 1'
_cell_length_a   4.31285500
_cell_length_b   4.31285526
_cell_length_c   17.21601000
_cell_angle_alpha   90.00000000
_cell_angle_beta   90.00000000
_cell_angle_gamma   120.00000570
_symmetry_Int_Tables_number   1
_chemical_formula_structural   Pr2SiPtI
_chemical_formula_sum   'Pr4 Si2 Pt2 I2'
_cell_volume   277.32744672
_cell_formula_units_Z   2
loop_
 _symmetry_equiv_pos_site_id
 _symmetry_equiv_pos_as_xyz
  1  'x, y, z'
loop_
 _atom_site_type_symbol
 _atom_site_label
 _atom_site_symmetry_multiplicity
 _atom_site_fract_x
 _atom_site_fract_y
 _atom_site_fract_z
 _atom_site_occupancy
  Pr  Pr0  1  0.000000  0.000000  0.610118  1
  Pr  Pr1  1  0.000000  0.000000  0.393147  1
  Pr  Pr2  1  0.000000  0.000000  0.110118  1
  Pr  Pr3  1  0.000000  0.000000  0.893147  1
  Si  Si4  1  0.666667  0.333333  0.509297  1
  Si  Si5  1  0.333333  0.666667  0.009297  1
  Pt  Pt6  1  0.666667  0.333333  0.989600  1
  Pt  Pt7  1  0.333333  0.666667  0.489600  1
  I  I8  1  0.666667  0.333333  0.247838  1
  I  I9  1  0.333333  0.666667  0.747838  1
