# generated using pymatgen
data_Hf2Al3Ru6W
_symmetry_space_group_name_H-M   'P 1'
_cell_length_a   4.41346200
_cell_length_b   6.23672400
_cell_length_c   13.18042800
_cell_angle_alpha   90.00000000
_cell_angle_beta   89.99800051
_cell_angle_gamma   90.00000000
_symmetry_Int_Tables_number   1
_chemical_formula_structural   Hf2Al3Ru6W
_chemical_formula_sum   'Hf4 Al6 Ru12 W2'
_cell_volume   362.79845573
_cell_formula_units_Z   2
loop_
 _symmetry_equiv_pos_site_id
 _symmetry_equiv_pos_as_xyz
  1  'x, y, z'
loop_
 _atom_site_type_symbol
 _atom_site_label
 _atom_site_symmetry_multiplicity
 _atom_site_fract_x
 _atom_site_fract_y
 _atom_site_fract_z
 _atom_site_occupancy
  Hf  Hf0  1  0.999925  0.000000  0.332834  1
  Hf  Hf1  1  0.500001  0.500000  0.500130  1
  Hf  Hf2  1  0.000065  0.000000  0.666533  1
  Hf  Hf3  1  0.500083  0.500000  0.833833  1
  Al  Al4  1  0.000016  0.500000  0.999774  1
  Al  Al5  1  0.499916  0.000000  0.166898  1
  Al  Al6  1  0.999922  0.500000  0.332821  1
  Al  Al7  1  0.500001  0.000000  0.499410  1
  Al  Al8  1  0.000073  0.500000  0.667253  1
  Al  Al9  1  0.500091  0.000000  0.833844  1
  Ru  Ru10  1  0.500003  0.243643  0.005341  1
  Ru  Ru11  1  0.500003  0.756358  0.005341  1
  Ru  Ru12  1  0.999922  0.256357  0.161332  1
  Ru  Ru13  1  0.999922  0.743644  0.161332  1
  Ru  Ru14  1  0.499954  0.255090  0.325700  1
  Ru  Ru15  1  0.499954  0.744911  0.325700  1
  Ru  Ru16  1  0.000003  0.250530  0.498169  1
  Ru  Ru17  1  0.000003  0.749470  0.498169  1
  Ru  Ru18  1  0.500057  0.249469  0.668500  1
  Ru  Ru19  1  0.500057  0.750532  0.668500  1
  Ru  Ru20  1  0.000055  0.244903  0.840967  1
  Ru  Ru21  1  0.000055  0.755098  0.840967  1
  W  W22  1  0.000003  0.000000  0.999147  1
  W  W23  1  0.499916  0.500000  0.167502  1
