# generated using pymatgen
data_Y2Zn14Pd3
_symmetry_space_group_name_H-M   'P 1'
_cell_length_a   6.83288635
_cell_length_b   6.83288655
_cell_length_c   6.83288656
_cell_angle_alpha   82.78990816
_cell_angle_beta   82.78990921
_cell_angle_gamma   82.78991606
_symmetry_Int_Tables_number   1
_chemical_formula_structural   Y2Zn14Pd3
_chemical_formula_sum   'Y2 Zn14 Pd3'
_cell_volume   312.03255134
_cell_formula_units_Z   1
loop_
 _symmetry_equiv_pos_site_id
 _symmetry_equiv_pos_as_xyz
  1  'x, y, z'
loop_
 _atom_site_type_symbol
 _atom_site_label
 _atom_site_symmetry_multiplicity
 _atom_site_fract_x
 _atom_site_fract_y
 _atom_site_fract_z
 _atom_site_occupancy
  Y  Y0  1  0.663377  0.663377  0.663377  1
  Y  Y1  1  0.336623  0.336623  0.336623  1
  Zn  Zn2  1  0.351389  0.351389  0.839239  1
  Zn  Zn3  1  0.839239  0.351389  0.351389  1
  Zn  Zn4  1  0.102543  0.102543  0.102543  1
  Zn  Zn5  1  0.897457  0.897457  0.897457  1
  Zn  Zn6  1  0.298617  0.701383  0.000000  1
  Zn  Zn7  1  0.701383  0.000000  0.298617  1
  Zn  Zn8  1  0.000000  0.298617  0.701383  1
  Zn  Zn9  1  0.701383  0.298617  0.000000  1
  Zn  Zn10  1  0.298617  0.000000  0.701383  1
  Zn  Zn11  1  0.000000  0.701383  0.298617  1
  Zn  Zn12  1  0.160761  0.648611  0.648611  1
  Zn  Zn13  1  0.648611  0.648611  0.160761  1
  Zn  Zn14  1  0.648611  0.160761  0.648611  1
  Zn  Zn15  1  0.351389  0.839239  0.351389  1
  Pd  Pd16  1  0.000000  0.000000  0.500000  1
  Pd  Pd17  1  0.000000  0.500000  0.000000  1
  Pd  Pd18  1  0.500000  0.000000  0.000000  1
