# generated using pymatgen
data_Nd3MgCu3Sn4
_symmetry_space_group_name_H-M   'P 1'
_cell_length_a   8.61192449
_cell_length_b   8.79760231
_cell_length_c   8.79760218
_cell_angle_alpha   149.43199204
_cell_angle_beta   130.96850843
_cell_angle_gamma   59.09114099
_symmetry_Int_Tables_number   1
_chemical_formula_structural   Nd3MgCu3Sn4
_chemical_formula_sum   'Nd3 Mg1 Cu3 Sn4'
_cell_volume   253.69791730
_cell_formula_units_Z   1
loop_
 _symmetry_equiv_pos_site_id
 _symmetry_equiv_pos_as_xyz
  1  'x, y, z'
loop_
 _atom_site_type_symbol
 _atom_site_label
 _atom_site_symmetry_multiplicity
 _atom_site_fract_x
 _atom_site_fract_y
 _atom_site_fract_z
 _atom_site_occupancy
  Nd  Nd0  1  0.504598  0.999835  0.504762  1
  Nd  Nd1  1  0.160671  0.130513  0.030159  1
  Nd  Nd2  1  0.853957  0.871807  0.982149  1
  Mg  Mg3  1  0.863589  0.676071  0.187518  1
  Cu  Cu4  1  0.476559  0.663944  0.812615  1
  Cu  Cu5  1  0.510575  0.340673  0.169902  1
  Cu  Cu6  1  0.123408  0.317315  0.806093  1
  Sn  Sn7  1  0.811097  0.501063  0.310034  1
  Sn  Sn8  1  0.199834  0.491741  0.708093  1
  Sn  Sn9  1  0.687709  0.221577  0.466132  1
  Sn  Sn10  1  0.308004  0.785461  0.522543  1
