# generated using pymatgen
data_La10Cd3HgRu6
_symmetry_space_group_name_H-M   'P 1'
_cell_length_a   8.77757528
_cell_length_b   8.77757556
_cell_length_c   8.74856500
_cell_angle_alpha   109.40428080
_cell_angle_beta   109.40428145
_cell_angle_gamma   109.53807615
_symmetry_Int_Tables_number   1
_chemical_formula_structural   La10Cd3HgRu6
_chemical_formula_sum   'La10 Cd3 Hg1 Ru6'
_cell_volume   519.30462602
_cell_formula_units_Z   1
loop_
 _symmetry_equiv_pos_site_id
 _symmetry_equiv_pos_as_xyz
  1  'x, y, z'
loop_
 _atom_site_type_symbol
 _atom_site_label
 _atom_site_symmetry_multiplicity
 _atom_site_fract_x
 _atom_site_fract_y
 _atom_site_fract_z
 _atom_site_occupancy
  La  La0  1  0.250712  0.686657  0.436973  1
  La  La1  1  0.749188  0.814465  0.063753  1
  La  La2  1  0.435946  0.249288  0.686260  1
  La  La3  1  0.685535  0.434724  0.249287  1
  La  La4  1  0.065277  0.750812  0.814564  1
  La  La5  1  0.813343  0.064055  0.750315  1
  La  La6  1  0.209949  0.210638  0.210036  1
  La  La7  1  0.500001  0.000000  0.288977  1
  La  La8  1  0.289362  0.499312  0.999398  1
  La  La9  1  0.000689  0.290051  0.500088  1
  Cd  Cd10  1  0.587963  0.587318  0.587704  1
  Cd  Cd11  1  0.912682  0.500645  0.000386  1
  Cd  Cd12  1  0.999356  0.912037  0.499743  1
  Hg  Hg13  1  0.500001  0.000000  0.911659  1
  Ru  Ru14  1  0.248269  0.140230  0.889727  1
  Ru  Ru15  1  0.749141  0.359993  0.609769  1
  Ru  Ru16  1  0.891962  0.251733  0.141459  1
  Ru  Ru17  1  0.140006  0.889147  0.249778  1
  Ru  Ru18  1  0.610852  0.750859  0.360629  1
  Ru  Ru19  1  0.359769  0.608037  0.749497  1
