# generated using pymatgen
data_Be3Nb4Al5
_symmetry_space_group_name_H-M   'P 1'
_cell_length_a   4.91651214
_cell_length_b   4.91651102
_cell_length_c   8.14328600
_cell_angle_alpha   90.00000000
_cell_angle_beta   90.00000000
_cell_angle_gamma   60.65494173
_symmetry_Int_Tables_number   1
_chemical_formula_structural   Be3Nb4Al5
_chemical_formula_sum   'Be3 Nb4 Al5'
_cell_volume   171.58249067
_cell_formula_units_Z   1
loop_
 _symmetry_equiv_pos_site_id
 _symmetry_equiv_pos_as_xyz
  1  'x, y, z'
loop_
 _atom_site_type_symbol
 _atom_site_label
 _atom_site_symmetry_multiplicity
 _atom_site_fract_x
 _atom_site_fract_y
 _atom_site_fract_z
 _atom_site_occupancy
  Be  Be0  1  0.833209  0.833208  0.750000  1
  Be  Be1  1  0.190357  0.649188  0.250000  1
  Be  Be2  1  0.649186  0.190359  0.250000  1
  Nb  Nb3  1  0.334488  0.334489  0.558714  1
  Nb  Nb4  1  0.663372  0.663372  0.435812  1
  Nb  Nb5  1  0.663372  0.663372  0.064188  1
  Nb  Nb6  1  0.334488  0.334489  0.941286  1
  Al  Al7  1  0.985132  0.985130  0.489907  1
  Al  Al8  1  0.985132  0.985130  0.010093  1
  Al  Al9  1  0.835597  0.346381  0.750000  1
  Al  Al10  1  0.346384  0.835594  0.750000  1
  Al  Al11  1  0.179285  0.179286  0.250000  1
