# generated using pymatgen
data_Tm16Al4PtRh3
_symmetry_space_group_name_H-M   'P 1'
_cell_length_a   9.41527499
_cell_length_b   9.41530931
_cell_length_c   9.39291716
_cell_angle_alpha   60.06206993
_cell_angle_beta   60.06051918
_cell_angle_gamma   60.12232378
_symmetry_Int_Tables_number   1
_chemical_formula_structural   Tm16Al4PtRh3
_chemical_formula_sum   'Tm16 Al4 Pt1 Rh3'
_cell_volume   589.86884538
_cell_formula_units_Z   1
loop_
 _symmetry_equiv_pos_site_id
 _symmetry_equiv_pos_as_xyz
  1  'x, y, z'
loop_
 _atom_site_type_symbol
 _atom_site_label
 _atom_site_symmetry_multiplicity
 _atom_site_fract_x
 _atom_site_fract_y
 _atom_site_fract_z
 _atom_site_occupancy
  Tm  Tm0  1  0.064173  0.064184  0.437128  1
  Tm  Tm1  1  0.435624  0.063360  0.437401  1
  Tm  Tm2  1  0.063912  0.435707  0.064233  1
  Tm  Tm3  1  0.060896  0.644673  0.649312  1
  Tm  Tm4  1  0.435519  0.435566  0.064452  1
  Tm  Tm5  1  0.644686  0.060900  0.649308  1
  Tm  Tm6  1  0.196534  0.806664  0.189786  1
  Tm  Tm7  1  0.191945  0.191926  0.807908  1
  Tm  Tm8  1  0.807286  0.807275  0.189367  1
  Tm  Tm9  1  0.435724  0.063907  0.064228  1
  Tm  Tm10  1  0.806640  0.196532  0.189801  1
  Tm  Tm11  1  0.063353  0.435626  0.437399  1
  Tm  Tm12  1  0.807955  0.192332  0.807546  1
  Tm  Tm13  1  0.192331  0.807964  0.807533  1
  Tm  Tm14  1  0.647826  0.647817  0.056213  1
  Tm  Tm15  1  0.644839  0.644840  0.649941  1
  Al  Al16  1  0.421788  0.421781  0.422142  1
  Al  Al17  1  0.734993  0.420641  0.422586  1
  Al  Al18  1  0.420645  0.734990  0.422585  1
  Al  Al19  1  0.422024  0.422034  0.734559  1
  Pt  Pt20  1  0.856590  0.856579  0.429366  1
  Rh  Rh21  1  0.857935  0.857982  0.855259  1
  Rh  Rh22  1  0.428073  0.858697  0.855977  1
  Rh  Rh23  1  0.858708  0.428024  0.855970  1
