# generated using pymatgen
data_Ti4SiTe4
_symmetry_space_group_name_H-M   'P 1'
_cell_length_a   4.90537000
_cell_length_b   10.79684700
_cell_length_c   18.81264000
_cell_angle_alpha   90.00000000
_cell_angle_beta   90.00000000
_cell_angle_gamma   90.00000000
_symmetry_Int_Tables_number   1
_chemical_formula_structural   Ti4SiTe4
_chemical_formula_sum   'Ti16 Si4 Te16'
_cell_volume   996.36499850
_cell_formula_units_Z   4
loop_
 _symmetry_equiv_pos_site_id
 _symmetry_equiv_pos_as_xyz
  1  'x, y, z'
loop_
 _atom_site_type_symbol
 _atom_site_label
 _atom_site_symmetry_multiplicity
 _atom_site_fract_x
 _atom_site_fract_y
 _atom_site_fract_z
 _atom_site_occupancy
  Ti  Ti0  1  0.500000  0.564961  0.381132  1
  Ti  Ti1  1  0.500000  0.435039  0.618868  1
  Ti  Ti2  1  0.500000  0.064961  0.118868  1
  Ti  Ti3  1  0.500000  0.935039  0.881132  1
  Ti  Ti4  1  0.500000  0.707609  0.537162  1
  Ti  Ti5  1  0.500000  0.292391  0.462838  1
  Ti  Ti6  1  0.500000  0.207609  0.962838  1
  Ti  Ti7  1  0.500000  0.792391  0.037162  1
  Ti  Ti8  1  0.000000  0.692396  0.441732  1
  Ti  Ti9  1  0.000000  0.307604  0.558268  1
  Ti  Ti10  1  0.000000  0.192396  0.058268  1
  Ti  Ti11  1  0.000000  0.807604  0.941732  1
  Ti  Ti12  1  0.000000  0.399249  0.389721  1
  Ti  Ti13  1  0.000000  0.600751  0.610279  1
  Ti  Ti14  1  0.000000  0.899249  0.110279  1
  Ti  Ti15  1  0.000000  0.100751  0.889721  1
  Si  Si16  1  0.250008  0.500000  0.500000  1
  Si  Si17  1  0.749992  0.000000  0.000000  1
  Si  Si18  1  0.749992  0.500000  0.500000  1
  Si  Si19  1  0.250008  0.000000  0.000000  1
  Te  Te20  1  0.000000  0.843853  0.561600  1
  Te  Te21  1  0.000000  0.156147  0.438400  1
  Te  Te22  1  0.000000  0.343853  0.938400  1
  Te  Te23  1  0.000000  0.656147  0.061600  1
  Te  Te24  1  0.500000  0.333197  0.317086  1
  Te  Te25  1  0.500000  0.666803  0.682914  1
  Te  Te26  1  0.500000  0.833197  0.182914  1
  Te  Te27  1  0.500000  0.166803  0.817086  1
  Te  Te28  1  0.500000  0.819532  0.403790  1
  Te  Te29  1  0.500000  0.180468  0.596210  1
  Te  Te30  1  0.500000  0.319532  0.096210  1
  Te  Te31  1  0.500000  0.680468  0.903790  1
  Te  Te32  1  0.000000  0.607206  0.302534  1
  Te  Te33  1  0.000000  0.392794  0.697466  1
  Te  Te34  1  0.000000  0.107206  0.197466  1
  Te  Te35  1  0.000000  0.892794  0.802534  1
