# generated using pymatgen
data_CaPa(Ga3Rh)3
_symmetry_space_group_name_H-M   'P 1'
_cell_length_a   7.64132732
_cell_length_b   7.63513171
_cell_length_c   9.45999100
_cell_angle_alpha   90.00000000
_cell_angle_beta   90.00000000
_cell_angle_gamma   119.64520832
_symmetry_Int_Tables_number   1
_chemical_formula_structural   CaPa(Ga3Rh)3
_chemical_formula_sum   'Ca2 Pa2 Ga18 Rh6'
_cell_volume   479.67630890
_cell_formula_units_Z   2
loop_
 _symmetry_equiv_pos_site_id
 _symmetry_equiv_pos_as_xyz
  1  'x, y, z'
loop_
 _atom_site_type_symbol
 _atom_site_label
 _atom_site_symmetry_multiplicity
 _atom_site_fract_x
 _atom_site_fract_y
 _atom_site_fract_z
 _atom_site_occupancy
  Ca  Ca0  1  0.670235  0.995605  0.750000  1
  Ca  Ca1  1  0.329765  0.004395  0.250000  1
  Pa  Pa2  1  0.000250  0.669860  0.750000  1
  Pa  Pa3  1  0.999750  0.330140  0.250000  1
  Ga  Ga4  1  0.129851  0.125540  0.750000  1
  Ga  Ga5  1  0.870149  0.874460  0.250000  1
  Ga  Ga6  1  0.999098  0.330950  0.582496  1
  Ga  Ga7  1  0.000902  0.669050  0.417504  1
  Ga  Ga8  1  0.000902  0.669050  0.082496  1
  Ga  Ga9  1  0.339564  0.002831  0.920797  1
  Ga  Ga10  1  0.999098  0.330950  0.917504  1
  Ga  Ga11  1  0.660436  0.997169  0.079203  1
  Ga  Ga12  1  0.660436  0.997169  0.420797  1
  Ga  Ga13  1  0.339564  0.002831  0.579203  1
  Ga  Ga14  1  0.334148  0.331562  0.062411  1
  Ga  Ga15  1  0.665852  0.668438  0.937589  1
  Ga  Ga16  1  0.665852  0.668438  0.562411  1
  Ga  Ga17  1  0.334148  0.331562  0.437589  1
  Ga  Ga18  1  0.338910  0.546118  0.750000  1
  Ga  Ga19  1  0.661090  0.453882  0.250000  1
  Ga  Ga20  1  0.549436  0.343628  0.750000  1
  Ga  Ga21  1  0.450564  0.656372  0.250000  1
  Rh  Rh22  1  0.676706  0.333404  0.499347  1
  Rh  Rh23  1  0.323294  0.666596  0.500653  1
  Rh  Rh24  1  0.323294  0.666596  0.999347  1
  Rh  Rh25  1  0.676706  0.333404  0.000653  1
  Rh  Rh26  1  0.000000  0.000000  0.500000  1
  Rh  Rh27  1  0.000000  0.000000  0.000000  1
