# generated using pymatgen
data_PrSn6PdRu3
_symmetry_space_group_name_H-M   'P 1'
_cell_length_a   6.97287365
_cell_length_b   6.97287411
_cell_length_c   7.02094489
_cell_angle_alpha   119.77679368
_cell_angle_beta   119.77679304
_cell_angle_gamma   90.08124197
_symmetry_Int_Tables_number   1
_chemical_formula_structural   PrSn6PdRu3
_chemical_formula_sum   'Pr1 Sn6 Pd1 Ru3'
_cell_volume   242.83298784
_cell_formula_units_Z   1
loop_
 _symmetry_equiv_pos_site_id
 _symmetry_equiv_pos_as_xyz
  1  'x, y, z'
loop_
 _atom_site_type_symbol
 _atom_site_label
 _atom_site_symmetry_multiplicity
 _atom_site_fract_x
 _atom_site_fract_y
 _atom_site_fract_z
 _atom_site_occupancy
  Pr  Pr0  1  0.990133  0.990133  0.983200  1
  Sn  Sn1  1  0.989935  0.496169  0.500813  1
  Sn  Sn2  1  0.466684  0.466684  0.336268  1
  Sn  Sn3  1  0.536049  0.889252  0.015773  1
  Sn  Sn4  1  0.889252  0.536049  0.015773  1
  Sn  Sn5  1  0.124025  0.124025  0.659740  1
  Sn  Sn6  1  0.496169  0.989935  0.500813  1
  Pd  Pd7  1  0.402087  0.402087  0.638939  1
  Ru  Ru8  1  0.758830  0.758830  0.357212  1
  Ru  Ru9  1  0.250408  0.596428  0.995733  1
  Ru  Ru10  1  0.596428  0.250408  0.995733  1
