# generated using pymatgen
data_CsAlZnAs2
_symmetry_space_group_name_H-M   'P 1'
_cell_length_a   8.33821585
_cell_length_b   8.33821617
_cell_length_c   8.33821579
_cell_angle_alpha   151.05091284
_cell_angle_beta   151.05091802
_cell_angle_gamma   41.40093298
_symmetry_Int_Tables_number   1
_chemical_formula_structural   CsAlZnAs2
_chemical_formula_sum   'Cs1 Al1 Zn1 As2'
_cell_volume   135.51941009
_cell_formula_units_Z   1
loop_
 _symmetry_equiv_pos_site_id
 _symmetry_equiv_pos_as_xyz
  1  'x, y, z'
loop_
 _atom_site_type_symbol
 _atom_site_label
 _atom_site_symmetry_multiplicity
 _atom_site_fract_x
 _atom_site_fract_y
 _atom_site_fract_z
 _atom_site_occupancy
  Cs  Cs0  1  0.000000  0.000000  0.000000  1
  Al  Al1  1  0.250000  0.750000  0.500000  1
  Zn  Zn2  1  0.750000  0.250000  0.500000  1
  As  As3  1  0.653775  0.653775  0.000000  1
  As  As4  1  0.346225  0.346225  0.000000  1
