# generated using pymatgen
data_Sm4Tm4Tc3B24Ru
_symmetry_space_group_name_H-M   'P 1'
_cell_length_a   3.69495900
_cell_length_b   9.17792388
_cell_length_c   11.61023602
_cell_angle_alpha   89.92833824
_cell_angle_beta   90.00000000
_cell_angle_gamma   90.00000000
_symmetry_Int_Tables_number   1
_chemical_formula_structural   Sm4Tm4Tc3B24Ru
_chemical_formula_sum   'Sm4 Tm4 Tc3 B24 Ru1'
_cell_volume   393.72662461
_cell_formula_units_Z   1
loop_
 _symmetry_equiv_pos_site_id
 _symmetry_equiv_pos_as_xyz
  1  'x, y, z'
loop_
 _atom_site_type_symbol
 _atom_site_label
 _atom_site_symmetry_multiplicity
 _atom_site_fract_x
 _atom_site_fract_y
 _atom_site_fract_z
 _atom_site_occupancy
  Sm  Sm0  1  0.000000  0.322878  0.414254  1
  Sm  Sm1  1  0.000000  0.675926  0.584205  1
  Sm  Sm2  1  0.000000  0.822696  0.086761  1
  Sm  Sm3  1  0.000000  0.178273  0.914836  1
  Tm  Tm4  1  0.000000  0.942772  0.369844  1
  Tm  Tm5  1  0.000000  0.057761  0.630921  1
  Tm  Tm6  1  0.000000  0.443132  0.130428  1
  Tm  Tm7  1  0.000000  0.557493  0.868866  1
  Tc  Tc8  1  0.000000  0.639330  0.319080  1
  Tc  Tc9  1  0.000000  0.360665  0.681357  1
  Tc  Tc10  1  0.000000  0.138947  0.179943  1
  B  B11  1  0.500000  0.554297  0.431236  1
  B  B12  1  0.500000  0.445404  0.568425  1
  B  B13  1  0.500000  0.054377  0.068513  1
  B  B14  1  0.500000  0.944878  0.931181  1
  B  B15  1  0.500000  0.750028  0.416958  1
  B  B16  1  0.500000  0.249417  0.583241  1
  B  B17  1  0.500000  0.250669  0.083068  1
  B  B18  1  0.500000  0.750066  0.916556  1
  B  B19  1  0.500000  0.791947  0.265740  1
  B  B20  1  0.500000  0.208364  0.734885  1
  B  B21  1  0.500000  0.291865  0.234424  1
  B  B22  1  0.500000  0.709085  0.765391  1
  B  B23  1  0.500000  0.629802  0.185331  1
  B  B24  1  0.500000  0.370330  0.815078  1
  B  B25  1  0.500000  0.129264  0.314286  1
  B  B26  1  0.500000  0.870130  0.685556  1
  B  B27  1  0.500000  0.982621  0.212965  1
  B  B28  1  0.500000  0.015920  0.787300  1
  B  B29  1  0.500000  0.482960  0.286797  1
  B  B30  1  0.500000  0.516835  0.712788  1
  B  B31  1  0.500000  0.598470  0.026709  1
  B  B32  1  0.500000  0.403065  0.972904  1
  B  B33  1  0.500000  0.097709  0.473453  1
  B  B34  1  0.500000  0.902033  0.527412  1
  Ru  Ru35  1  0.000000  0.860592  0.819312  1
