# generated using pymatgen
data_Ca3Pr(Ru2O7)2
_symmetry_space_group_name_H-M   'P 1'
_cell_length_a   7.31712154
_cell_length_b   7.32411438
_cell_length_c   7.31712100
_cell_angle_alpha   60.03157643
_cell_angle_beta   59.99999791
_cell_angle_gamma   60.03157713
_symmetry_Int_Tables_number   1
_chemical_formula_structural   Ca3Pr(Ru2O7)2
_chemical_formula_sum   'Ca3 Pr1 Ru4 O14'
_cell_volume   277.41359187
_cell_formula_units_Z   1
loop_
 _symmetry_equiv_pos_site_id
 _symmetry_equiv_pos_as_xyz
  1  'x, y, z'
loop_
 _atom_site_type_symbol
 _atom_site_label
 _atom_site_symmetry_multiplicity
 _atom_site_fract_x
 _atom_site_fract_y
 _atom_site_fract_z
 _atom_site_occupancy
  Ca  Ca0  1  0.625000  0.625000  0.125000  1
  Ca  Ca1  1  0.125000  0.625000  0.625000  1
  Ca  Ca2  1  0.625000  0.625000  0.625000  1
  Pr  Pr3  1  0.625000  0.125000  0.625000  1
  Ru  Ru4  1  0.625000  0.125000  0.125000  1
  Ru  Ru5  1  0.125000  0.625000  0.125000  1
  Ru  Ru6  1  0.125000  0.125000  0.625000  1
  Ru  Ru7  1  0.125000  0.125000  0.125000  1
  O  O8  1  0.197640  0.201454  0.800453  1
  O  O9  1  0.191635  0.809994  0.191635  1
  O  O10  1  0.449547  0.048546  0.052360  1
  O  O11  1  0.191635  0.809994  0.806737  1
  O  O12  1  0.058365  0.440006  0.443263  1
  O  O13  1  0.806737  0.809994  0.191635  1
  O  O14  1  0.443263  0.440006  0.058365  1
  O  O15  1  0.497317  0.508050  0.497317  1
  O  O16  1  0.052360  0.048546  0.449547  1
  O  O17  1  0.449547  0.048546  0.449547  1
  O  O18  1  0.058365  0.440006  0.058365  1
  O  O19  1  0.752683  0.741950  0.752683  1
  O  O20  1  0.800453  0.201454  0.800453  1
  O  O21  1  0.800453  0.201454  0.197640  1
