# generated using pymatgen
data_Nd3Sm(MoO4)6
_symmetry_space_group_name_H-M   'P 1'
_cell_length_a   7.08585947
_cell_length_b   7.08835704
_cell_length_c   11.67202077
_cell_angle_alpha   79.39096143
_cell_angle_beta   79.30742545
_cell_angle_gamma   112.77900581
_symmetry_Int_Tables_number   1
_chemical_formula_structural   Nd3Sm(MoO4)6
_chemical_formula_sum   'Nd3 Sm1 Mo6 O24'
_cell_volume   509.50716423
_cell_formula_units_Z   1
loop_
 _symmetry_equiv_pos_site_id
 _symmetry_equiv_pos_as_xyz
  1  'x, y, z'
loop_
 _atom_site_type_symbol
 _atom_site_label
 _atom_site_symmetry_multiplicity
 _atom_site_fract_x
 _atom_site_fract_y
 _atom_site_fract_z
 _atom_site_occupancy
  Nd  Nd0  1  0.803751  0.548975  0.908560  1
  Nd  Nd1  1  0.450741  0.195209  0.592859  1
  Nd  Nd2  1  0.549577  0.804415  0.407489  1
  Sm  Sm3  1  0.195722  0.452742  0.091463  1
  Mo  Mo4  1  0.700987  0.989129  0.049844  1
  Mo  Mo5  1  0.011937  0.301830  0.448257  1
  Mo  Mo6  1  0.299108  0.009704  0.952746  1
  Mo  Mo7  1  0.988332  0.699470  0.550100  1
  Mo  Mo8  1  0.618492  0.381463  0.249080  1
  Mo  Mo9  1  0.380357  0.618105  0.750916  1
  O  O10  1  0.727263  0.128846  0.460872  1
  O  O11  1  0.900421  0.489290  0.214321  1
  O  O12  1  0.173944  0.599877  0.422443  1
  O  O13  1  0.824443  0.894679  0.943784  1
  O  O14  1  0.126018  0.725321  0.964087  1
  O  O15  1  0.704811  0.856968  0.196025  1
  O  O16  1  0.445313  0.530430  0.890139  1
  O  O17  1  0.876075  0.272881  0.038054  1
  O  O18  1  0.856078  0.703767  0.696468  1
  O  O19  1  0.108258  0.178534  0.553069  1
  O  O20  1  0.511362  0.099971  0.281373  1
  O  O21  1  0.296388  0.140205  0.805758  1
  O  O22  1  0.099033  0.511976  0.782086  1
  O  O23  1  0.893855  0.822190  0.443863  1
  O  O24  1  0.141374  0.299003  0.300775  1
  O  O25  1  0.532252  0.449212  0.387527  1
  O  O26  1  0.401377  0.823741  0.076365  1
  O  O27  1  0.272584  0.871650  0.538580  1
  O  O28  1  0.178648  0.107980  0.057851  1
  O  O29  1  0.547796  0.468948  0.112110  1
  O  O30  1  0.469112  0.549462  0.613260  1
  O  O31  1  0.489008  0.899620  0.717709  1
  O  O32  1  0.598420  0.173325  0.925879  1
  O  O33  1  0.827165  0.401080  0.576288  1
