# generated using pymatgen
data_Sr8Fe4Re(MoO8)3
_symmetry_space_group_name_H-M   'P 1'
_cell_length_a   7.99253258
_cell_length_b   8.01753815
_cell_length_c   9.92500094
_cell_angle_alpha   66.21348427
_cell_angle_beta   66.10021878
_cell_angle_gamma   89.94891472
_symmetry_Int_Tables_number   1
_chemical_formula_structural   Sr8Fe4Re(MoO8)3
_chemical_formula_sum   'Sr8 Fe4 Re1 Mo3 O24'
_cell_volume   521.93681061
_cell_formula_units_Z   1
loop_
 _symmetry_equiv_pos_site_id
 _symmetry_equiv_pos_as_xyz
  1  'x, y, z'
loop_
 _atom_site_type_symbol
 _atom_site_label
 _atom_site_symmetry_multiplicity
 _atom_site_fract_x
 _atom_site_fract_y
 _atom_site_fract_z
 _atom_site_occupancy
  Sr  Sr0  1  0.131945  0.120406  0.247382  1
  Sr  Sr1  1  0.873140  0.372369  0.753545  1
  Sr  Sr2  1  0.372687  0.872865  0.753819  1
  Sr  Sr3  1  0.622935  0.632612  0.246716  1
  Sr  Sr4  1  0.624197  0.122339  0.245859  1
  Sr  Sr5  1  0.370185  0.373508  0.755340  1
  Sr  Sr6  1  0.873418  0.872407  0.753001  1
  Sr  Sr7  1  0.130594  0.632211  0.246687  1
  Fe  Fe8  1  0.250677  0.250541  0.499096  1
  Fe  Fe9  1  0.998707  0.499111  0.002425  1
  Fe  Fe10  1  0.498165  0.997498  0.003954  1
  Fe  Fe11  1  0.749886  0.749616  0.500045  1
  Re  Re12  1  0.750530  0.250499  0.498943  1
  Mo  Mo13  1  0.247825  0.747936  0.504320  1
  Mo  Mo14  1  0.001095  0.001080  0.998190  1
  Mo  Mo15  1  0.499638  0.499388  0.000638  1
  O  O16  1  0.372210  0.871512  0.255242  1
  O  O17  1  0.125101  0.124837  0.749421  1
  O  O18  1  0.621495  0.621403  0.752293  1
  O  O19  1  0.867801  0.367279  0.265659  1
  O  O20  1  0.377169  0.376584  0.248876  1
  O  O21  1  0.128178  0.630885  0.740785  1
  O  O22  1  0.632387  0.131693  0.736037  1
  O  O23  1  0.876576  0.877801  0.248562  1
  O  O24  1  0.542763  0.247827  0.999409  1
  O  O25  1  0.301527  0.514583  0.499763  1
  O  O26  1  0.799826  0.018091  0.500317  1
  O  O27  1  0.041132  0.762586  0.000481  1
  O  O28  1  0.748735  0.958578  0.996583  1
  O  O29  1  0.518859  0.200300  0.499617  1
  O  O30  1  0.013606  0.699190  0.500044  1
  O  O31  1  0.256399  0.457083  0.005991  1
  O  O32  1  0.255246  0.044865  0.996193  1
  O  O33  1  0.982308  0.300385  0.498784  1
  O  O34  1  0.486270  0.801328  0.499402  1
  O  O35  1  0.739773  0.539708  0.000712  1
  O  O36  1  0.458636  0.753121  0.997569  1
  O  O37  1  0.199558  0.986679  0.498456  1
  O  O38  1  0.699246  0.480962  0.501189  1
  O  O39  1  0.959572  0.238341  0.998656  1
