# generated using pymatgen
data_DyY(TcB4)2
_symmetry_space_group_name_H-M   'P 1'
_cell_length_a   3.60165300
_cell_length_b   5.97421200
_cell_length_c   11.56880203
_cell_angle_alpha   90.00403606
_cell_angle_beta   89.99993847
_cell_angle_gamma   90.00000000
_symmetry_Int_Tables_number   1
_chemical_formula_structural   DyY(TcB4)2
_chemical_formula_sum   'Dy2 Y2 Tc4 B16'
_cell_volume   248.92635887
_cell_formula_units_Z   2
loop_
 _symmetry_equiv_pos_site_id
 _symmetry_equiv_pos_as_xyz
  1  'x, y, z'
loop_
 _atom_site_type_symbol
 _atom_site_label
 _atom_site_symmetry_multiplicity
 _atom_site_fract_x
 _atom_site_fract_y
 _atom_site_fract_z
 _atom_site_occupancy
  Dy  Dy0  1  0.000001  0.627675  0.850003  1
  Dy  Dy1  1  0.999999  0.372325  0.149997  1
  Y  Y2  1  0.000000  0.127645  0.649997  1
  Y  Y3  1  0.000000  0.872355  0.350003  1
  Tc  Tc4  1  0.000000  0.133906  0.912556  1
  Tc  Tc5  1  0.000000  0.866094  0.087444  1
  Tc  Tc6  1  0.000000  0.633858  0.587611  1
  Tc  Tc7  1  0.000000  0.366142  0.412389  1
  B  B8  1  0.500000  0.477455  0.692474  1
  B  B9  1  0.500000  0.522545  0.307526  1
  B  B10  1  0.500000  0.977050  0.807751  1
  B  B11  1  0.500000  0.022950  0.192249  1
  B  B12  1  0.500000  0.288152  0.815198  1
  B  B13  1  0.500000  0.711848  0.184802  1
  B  B14  1  0.500000  0.787703  0.685067  1
  B  B15  1  0.500000  0.212297  0.314933  1
  B  B16  1  0.500000  0.364271  0.968662  1
  B  B17  1  0.500000  0.635729  0.031338  1
  B  B18  1  0.500000  0.864098  0.531389  1
  B  B19  1  0.500000  0.135902  0.468611  1
  B  B20  1  0.500000  0.387001  0.547249  1
  B  B21  1  0.500000  0.612999  0.452751  1
  B  B22  1  0.500000  0.886798  0.952757  1
  B  B23  1  0.500000  0.113202  0.047243  1
