# generated using pymatgen
data_Tm3Zn3Hg2Ir
_symmetry_space_group_name_H-M   'P 1'
_cell_length_a   7.64109800
_cell_length_b   7.64109702
_cell_length_c   3.74306900
_cell_angle_alpha   90.00000000
_cell_angle_beta   90.00000000
_cell_angle_gamma   119.99998694
_symmetry_Int_Tables_number   1
_chemical_formula_structural   Tm3Zn3Hg2Ir
_chemical_formula_sum   'Tm3 Zn3 Hg2 Ir1'
_cell_volume   189.26486764
_cell_formula_units_Z   1
loop_
 _symmetry_equiv_pos_site_id
 _symmetry_equiv_pos_as_xyz
  1  'x, y, z'
loop_
 _atom_site_type_symbol
 _atom_site_label
 _atom_site_symmetry_multiplicity
 _atom_site_fract_x
 _atom_site_fract_y
 _atom_site_fract_z
 _atom_site_occupancy
  Tm  Tm0  1  0.392353  0.422088  0.000000  1
  Tm  Tm1  1  0.577912  0.970265  0.000000  1
  Tm  Tm2  1  0.029735  0.607647  0.000000  1
  Zn  Zn3  1  0.720047  0.730490  0.500000  1
  Zn  Zn4  1  0.269510  0.989557  0.500000  1
  Zn  Zn5  1  0.010443  0.279953  0.500000  1
  Hg  Hg6  1  0.000000  0.000000  0.000000  1
  Hg  Hg7  1  0.666667  0.333333  0.500000  1
  Ir  Ir8  1  0.333333  0.666667  0.500000  1
