# generated using pymatgen
data_Tm6Al25Fe7
_symmetry_space_group_name_H-M   'P 1'
_cell_length_a   8.66879155
_cell_length_b   8.66879228
_cell_length_c   9.26784230
_cell_angle_alpha   90.26993589
_cell_angle_beta   89.73006979
_cell_angle_gamma   119.96763594
_symmetry_Int_Tables_number   1
_chemical_formula_structural   Tm6Al25Fe7
_chemical_formula_sum   'Tm6 Al25 Fe7'
_cell_volume   603.33919016
_cell_formula_units_Z   1
loop_
 _symmetry_equiv_pos_site_id
 _symmetry_equiv_pos_as_xyz
  1  'x, y, z'
loop_
 _atom_site_type_symbol
 _atom_site_label
 _atom_site_symmetry_multiplicity
 _atom_site_fract_x
 _atom_site_fract_y
 _atom_site_fract_z
 _atom_site_occupancy
  Tm  Tm0  1  0.804529  0.195471  0.743316  1
  Tm  Tm1  1  0.195471  0.804529  0.256684  1
  Tm  Tm2  1  0.387874  0.195525  0.753544  1
  Tm  Tm3  1  0.612126  0.804475  0.246456  1
  Tm  Tm4  1  0.804475  0.612126  0.753544  1
  Tm  Tm5  1  0.195525  0.387874  0.246456  1
  Al  Al6  1  0.676437  0.323563  0.986081  1
  Al  Al7  1  0.323563  0.676437  0.013919  1
  Al  Al8  1  0.333390  0.666610  0.483514  1
  Al  Al9  1  0.666610  0.333390  0.516486  1
  Al  Al10  1  0.838389  0.161611  0.422596  1
  Al  Al11  1  0.161611  0.838389  0.577404  1
  Al  Al12  1  0.322719  0.160257  0.428542  1
  Al  Al13  1  0.159980  0.840020  0.921266  1
  Al  Al14  1  0.677281  0.839743  0.571458  1
  Al  Al15  1  0.840020  0.159980  0.078734  1
  Al  Al16  1  0.839743  0.677281  0.428542  1
  Al  Al17  1  0.681469  0.855547  0.919067  1
  Al  Al18  1  0.160257  0.322719  0.571458  1
  Al  Al19  1  0.318531  0.144453  0.080933  1
  Al  Al20  1  0.144453  0.318531  0.919067  1
  Al  Al21  1  0.855547  0.681469  0.080933  1
  Al  Al22  1  0.435555  0.564445  0.736635  1
  Al  Al23  1  0.564445  0.435555  0.263365  1
  Al  Al24  1  0.113876  0.558778  0.750196  1
  Al  Al25  1  0.886124  0.441222  0.249804  1
  Al  Al26  1  0.441222  0.886124  0.750196  1
  Al  Al27  1  0.558778  0.113876  0.249804  1
  Al  Al28  1  0.000685  0.999315  0.749078  1
  Al  Al29  1  0.999315  0.000685  0.250922  1
  Al  Al30  1  0.500000  0.500000  0.000000  1
  Fe  Fe31  1  0.000000  0.500000  0.000000  1
  Fe  Fe32  1  0.500000  0.500000  0.500000  1
  Fe  Fe33  1  0.500000  0.000000  0.000000  1
  Fe  Fe34  1  0.000000  0.500000  0.500000  1
  Fe  Fe35  1  0.500000  0.000000  0.500000  1
  Fe  Fe36  1  0.000000  0.000000  0.000000  1
  Fe  Fe37  1  0.000000  0.000000  0.500000  1
