# generated using pymatgen
data_LiTi3ZnPt11
_symmetry_space_group_name_H-M   'P 1'
_cell_length_a   5.57285400
_cell_length_b   5.55548874
_cell_length_c   9.05330500
_cell_angle_alpha   90.00000000
_cell_angle_beta   90.00000000
_cell_angle_gamma   120.10345411
_symmetry_Int_Tables_number   1
_chemical_formula_structural   LiTi3ZnPt11
_chemical_formula_sum   'Li1 Ti3 Zn1 Pt11'
_cell_volume   242.48452942
_cell_formula_units_Z   1
loop_
 _symmetry_equiv_pos_site_id
 _symmetry_equiv_pos_as_xyz
  1  'x, y, z'
loop_
 _atom_site_type_symbol
 _atom_site_label
 _atom_site_symmetry_multiplicity
 _atom_site_fract_x
 _atom_site_fract_y
 _atom_site_fract_z
 _atom_site_occupancy
  Li  Li0  1  0.330279  0.660559  0.250000  1
  Ti  Ti1  1  0.005563  0.011125  0.503025  1
  Ti  Ti2  1  0.005563  0.011125  0.996975  1
  Ti  Ti3  1  0.668374  0.336746  0.750000  1
  Zn  Zn4  1  0.824279  0.648558  0.250000  1
  Pt  Pt5  1  0.504638  0.505013  0.496596  1
  Pt  Pt6  1  0.502162  0.004323  0.500944  1
  Pt  Pt7  1  0.000375  0.505013  0.496596  1
  Pt  Pt8  1  0.504638  0.505013  0.003404  1
  Pt  Pt9  1  0.502162  0.004323  0.999056  1
  Pt  Pt10  1  0.000375  0.505013  0.003404  1
  Pt  Pt11  1  0.328523  0.154517  0.250000  1
  Pt  Pt12  1  0.825994  0.154517  0.250000  1
  Pt  Pt13  1  0.165548  0.331096  0.750000  1
  Pt  Pt14  1  0.664504  0.831529  0.750000  1
  Pt  Pt15  1  0.167025  0.831529  0.750000  1
