# generated using pymatgen
data_LiYEr18(Cd3Ru)2
_symmetry_space_group_name_H-M   'P 1'
_cell_length_a   9.45283201
_cell_length_b   9.45134489
_cell_length_c   9.69155100
_cell_angle_alpha   90.00235898
_cell_angle_beta   89.99856948
_cell_angle_gamma   119.99922774
_symmetry_Int_Tables_number   1
_chemical_formula_structural   LiYEr18(Cd3Ru)2
_chemical_formula_sum   'Li1 Y1 Er18 Cd6 Ru2'
_cell_volume   749.86459337
_cell_formula_units_Z   1
loop_
 _symmetry_equiv_pos_site_id
 _symmetry_equiv_pos_as_xyz
  1  'x, y, z'
loop_
 _atom_site_type_symbol
 _atom_site_label
 _atom_site_symmetry_multiplicity
 _atom_site_fract_x
 _atom_site_fract_y
 _atom_site_fract_z
 _atom_site_occupancy
  Li  Li0  1  0.999916  0.999969  0.499889  1
  Y  Y1  1  0.083343  0.541669  0.748112  1
  Er  Er2  1  0.999866  0.999943  0.999970  1
  Er  Er3  1  0.208843  0.791716  0.440560  1
  Er  Er4  1  0.208837  0.417127  0.440553  1
  Er  Er5  1  0.582617  0.791306  0.440913  1
  Er  Er6  1  0.790887  0.208224  0.558915  1
  Er  Er7  1  0.790886  0.582662  0.558924  1
  Er  Er8  1  0.417334  0.208658  0.559082  1
  Er  Er9  1  0.788876  0.210308  0.942291  1
  Er  Er10  1  0.788878  0.578570  0.942287  1
  Er  Er11  1  0.421328  0.210661  0.942087  1
  Er  Er12  1  0.210909  0.789689  0.058251  1
  Er  Er13  1  0.210909  0.421209  0.058241  1
  Er  Er14  1  0.578627  0.789318  0.057937  1
  Er  Er15  1  0.541512  0.458631  0.252003  1
  Er  Er16  1  0.541505  0.082873  0.252000  1
  Er  Er17  1  0.917210  0.458601  0.252030  1
  Er  Er18  1  0.459091  0.541335  0.748005  1
  Er  Er19  1  0.459101  0.917763  0.748007  1
  Cd  Cd20  1  0.888312  0.111657  0.258154  1
  Cd  Cd21  1  0.888307  0.776658  0.258159  1
  Cd  Cd22  1  0.223319  0.111659  0.258185  1
  Cd  Cd23  1  0.111713  0.888673  0.741816  1
  Cd  Cd24  1  0.111706  0.223039  0.741819  1
  Cd  Cd25  1  0.776568  0.888284  0.741809  1
  Ru  Ru26  1  0.333255  0.666631  0.250314  1
  Ru  Ru27  1  0.666344  0.333167  0.749689  1
