# generated using pymatgen
data_Nb3Ga2BPt
_symmetry_space_group_name_H-M   'P 1'
_cell_length_a   8.45520720
_cell_length_b   8.45520757
_cell_length_c   8.45520600
_cell_angle_alpha   59.99999830
_cell_angle_beta   59.99999688
_cell_angle_gamma   59.99999934
_symmetry_Int_Tables_number   1
_chemical_formula_structural   Nb3Ga2BPt
_chemical_formula_sum   'Nb12 Ga8 B4 Pt4'
_cell_volume   427.42282022
_cell_formula_units_Z   4
loop_
 _symmetry_equiv_pos_site_id
 _symmetry_equiv_pos_as_xyz
  1  'x, y, z'
loop_
 _atom_site_type_symbol
 _atom_site_label
 _atom_site_symmetry_multiplicity
 _atom_site_fract_x
 _atom_site_fract_y
 _atom_site_fract_z
 _atom_site_occupancy
  Nb  Nb0  1  0.560950  0.939057  0.560943  1
  Nb  Nb1  1  0.310948  0.689051  0.689040  1
  Nb  Nb2  1  0.689053  0.310945  0.310947  1
  Nb  Nb3  1  0.310950  0.689055  0.310957  1
  Nb  Nb4  1  0.689041  0.689062  0.310947  1
  Nb  Nb5  1  0.310943  0.310954  0.689054  1
  Nb  Nb6  1  0.560959  0.560938  0.939053  1
  Nb  Nb7  1  0.939052  0.560949  0.560960  1
  Nb  Nb8  1  0.560947  0.939055  0.939053  1
  Nb  Nb9  1  0.939057  0.939046  0.560946  1
  Nb  Nb10  1  0.689050  0.310943  0.689057  1
  Nb  Nb11  1  0.939050  0.560945  0.939043  1
  Ga  Ga12  1  0.912515  0.912489  0.912499  1
  Ga  Ga13  1  0.987520  0.337498  0.337490  1
  Ga  Ga14  1  0.337479  0.987535  0.337491  1
  Ga  Ga15  1  0.337483  0.337503  0.987514  1
  Ga  Ga16  1  0.912521  0.262465  0.912509  1
  Ga  Ga17  1  0.912517  0.912497  0.262486  1
  Ga  Ga18  1  0.262480  0.912502  0.912510  1
  Ga  Ga19  1  0.337485  0.337511  0.337501  1
  B  B20  1  0.625000  0.625000  0.625000  1
  B  B21  1  0.125000  0.625000  0.625000  1
  B  B22  1  0.625000  0.125000  0.625000  1
  B  B23  1  0.625000  0.625000  0.125000  1
  Pt  Pt24  1  0.125000  0.125000  0.125000  1
  Pt  Pt25  1  0.625000  0.125000  0.125000  1
  Pt  Pt26  1  0.125000  0.625000  0.125000  1
  Pt  Pt27  1  0.125000  0.125000  0.625000  1
