# generated using pymatgen
data_Tb2Mn3CoNi8P7
_symmetry_space_group_name_H-M   'P 1'
_cell_length_a   9.09199864
_cell_length_b   9.11037251
_cell_length_c   3.67355900
_cell_angle_alpha   90.00000000
_cell_angle_beta   90.00000000
_cell_angle_gamma   120.00355737
_symmetry_Int_Tables_number   1
_chemical_formula_structural   Tb2Mn3CoNi8P7
_chemical_formula_sum   'Tb2 Mn3 Co1 Ni8 P7'
_cell_volume   263.51029006
_cell_formula_units_Z   1
loop_
 _symmetry_equiv_pos_site_id
 _symmetry_equiv_pos_as_xyz
  1  'x, y, z'
loop_
 _atom_site_type_symbol
 _atom_site_label
 _atom_site_symmetry_multiplicity
 _atom_site_fract_x
 _atom_site_fract_y
 _atom_site_fract_z
 _atom_site_occupancy
  Tb  Tb0  1  0.666846  0.332828  0.000000  1
  Tb  Tb1  1  0.333681  0.666859  0.500000  1
  Mn  Mn2  1  0.097165  0.879803  0.500000  1
  Mn  Mn3  1  0.780294  0.901666  0.500000  1
  Mn  Mn4  1  0.122393  0.220618  0.500000  1
  Co  Co5  1  0.877901  0.154532  0.000000  1
  Ni  Ni6  1  0.061141  0.626556  0.000000  1
  Ni  Ni7  1  0.566674  0.939026  0.000000  1
  Ni  Ni8  1  0.370892  0.432939  0.000000  1
  Ni  Ni9  1  0.276681  0.122832  0.000000  1
  Ni  Ni10  1  0.846953  0.723064  0.000000  1
  Ni  Ni11  1  0.436006  0.051311  0.500000  1
  Ni  Ni12  1  0.615509  0.564798  0.500000  1
  Ni  Ni13  1  0.948582  0.383304  0.500000  1
  P  P14  1  0.294952  0.887371  0.000000  1
  P  P15  1  0.592893  0.705303  0.000000  1
  P  P16  1  0.110129  0.405160  0.000000  1
  P  P17  1  0.404904  0.292011  0.500000  1
  P  P18  1  0.886850  0.595458  0.500000  1
  P  P19  1  0.711763  0.113017  0.500000  1
  P  P20  1  0.997790  0.001542  0.000000  1
