# generated using pymatgen
data_Yb2TmZn11
_symmetry_space_group_name_H-M   'P 1'
_cell_length_a   4.42244646
_cell_length_b   8.15939041
_cell_length_c   8.15939019
_cell_angle_alpha   65.09320786
_cell_angle_beta   74.27600043
_cell_angle_gamma   74.27600986
_symmetry_Int_Tables_number   1
_chemical_formula_structural   Yb2TmZn11
_chemical_formula_sum   'Yb2 Tm1 Zn11'
_cell_volume   252.86697200
_cell_formula_units_Z   1
loop_
 _symmetry_equiv_pos_site_id
 _symmetry_equiv_pos_as_xyz
  1  'x, y, z'
loop_
 _atom_site_type_symbol
 _atom_site_label
 _atom_site_symmetry_multiplicity
 _atom_site_fract_x
 _atom_site_fract_y
 _atom_site_fract_z
 _atom_site_occupancy
  Yb  Yb0  1  0.000461  0.999539  0.999539  1
  Yb  Yb1  1  0.296204  0.703796  0.703796  1
  Tm  Tm2  1  0.703844  0.296156  0.296156  1
  Zn  Zn3  1  0.998858  0.501142  0.501142  1
  Zn  Zn4  1  0.499974  0.682643  0.317409  1
  Zn  Zn5  1  0.499974  0.317409  0.682643  1
  Zn  Zn6  1  0.663263  0.692883  0.980591  1
  Zn  Zn7  1  0.336212  0.306723  0.020853  1
  Zn  Zn8  1  0.663263  0.980591  0.692883  1
  Zn  Zn9  1  0.336212  0.020853  0.306723  1
  Zn  Zn10  1  0.864722  0.416998  0.853557  1
  Zn  Zn11  1  0.136146  0.576746  0.150964  1
  Zn  Zn12  1  0.864722  0.853557  0.416998  1
  Zn  Zn13  1  0.136146  0.150964  0.576746  1
