# generated using pymatgen
data_LuTh7(Si3Pd)4
_symmetry_space_group_name_H-M   'P 1'
_cell_length_a   8.28345900
_cell_length_b   8.23179012
_cell_length_c   8.48652200
_cell_angle_alpha   90.00000000
_cell_angle_beta   90.00000000
_cell_angle_gamma   120.20785535
_symmetry_Int_Tables_number   1
_chemical_formula_structural   LuTh7(Si3Pd)4
_chemical_formula_sum   'Lu1 Th7 Si12 Pd4'
_cell_volume   500.09550197
_cell_formula_units_Z   1
loop_
 _symmetry_equiv_pos_site_id
 _symmetry_equiv_pos_as_xyz
  1  'x, y, z'
loop_
 _atom_site_type_symbol
 _atom_site_label
 _atom_site_symmetry_multiplicity
 _atom_site_fract_x
 _atom_site_fract_y
 _atom_site_fract_z
 _atom_site_occupancy
  Lu  Lu0  1  0.500402  0.000803  0.250000  1
  Th  Th1  1  0.499120  0.998241  0.750000  1
  Th  Th2  1  0.998855  0.500251  0.250000  1
  Th  Th3  1  0.000426  0.500336  0.750000  1
  Th  Th4  1  0.501398  0.500251  0.250000  1
  Th  Th5  1  0.499910  0.500336  0.750000  1
  Th  Th6  1  0.999883  0.999768  0.250000  1
  Th  Th7  1  0.000038  0.000078  0.750000  1
  Si  Si8  1  0.166834  0.333668  0.999150  1
  Si  Si9  1  0.833218  0.666435  0.998176  1
  Si  Si10  1  0.668937  0.833861  0.002756  1
  Si  Si11  1  0.833218  0.666435  0.501824  1
  Si  Si12  1  0.331084  0.166194  0.001946  1
  Si  Si13  1  0.166834  0.333668  0.500850  1
  Si  Si14  1  0.164925  0.833861  0.002756  1
  Si  Si15  1  0.331084  0.166194  0.498054  1
  Si  Si16  1  0.835110  0.166194  0.001946  1
  Si  Si17  1  0.668937  0.833861  0.497244  1
  Si  Si18  1  0.835110  0.166194  0.498054  1
  Si  Si19  1  0.164925  0.833861  0.497244  1
  Pd  Pd20  1  0.336268  0.672537  0.006305  1
  Pd  Pd21  1  0.663608  0.327215  0.004020  1
  Pd  Pd22  1  0.663608  0.327215  0.495980  1
  Pd  Pd23  1  0.336268  0.672537  0.493695  1
