# generated using pymatgen
data_DyEr5Al24Os5Pt3
_symmetry_space_group_name_H-M   'P 1'
_cell_length_a   8.79692813
_cell_length_b   8.81664578
_cell_length_c   9.52812878
_cell_angle_alpha   90.12192206
_cell_angle_beta   89.71390377
_cell_angle_gamma   119.51337836
_symmetry_Int_Tables_number   1
_chemical_formula_structural   DyEr5Al24Os5Pt3
_chemical_formula_sum   'Dy1 Er5 Al24 Os5 Pt3'
_cell_volume   643.09627928
_cell_formula_units_Z   1
loop_
 _symmetry_equiv_pos_site_id
 _symmetry_equiv_pos_as_xyz
  1  'x, y, z'
loop_
 _atom_site_type_symbol
 _atom_site_label
 _atom_site_symmetry_multiplicity
 _atom_site_fract_x
 _atom_site_fract_y
 _atom_site_fract_z
 _atom_site_occupancy
  Dy  Dy0  1  0.187711  0.383172  0.250967  1
  Er  Er1  1  0.812131  0.615651  0.748726  1
  Er  Er2  1  0.612550  0.813989  0.252180  1
  Er  Er3  1  0.387457  0.186105  0.747823  1
  Er  Er4  1  0.196204  0.808507  0.251761  1
  Er  Er5  1  0.803800  0.191688  0.748331  1
  Al  Al6  1  0.335445  0.671445  0.029805  1
  Al  Al7  1  0.664730  0.328893  0.969831  1
  Al  Al8  1  0.669064  0.331377  0.528277  1
  Al  Al9  1  0.330970  0.668899  0.472056  1
  Al  Al10  1  0.158011  0.325352  0.576101  1
  Al  Al11  1  0.841991  0.674721  0.424306  1
  Al  Al12  1  0.673542  0.840716  0.576035  1
  Al  Al13  1  0.837062  0.676440  0.078457  1
  Al  Al14  1  0.326568  0.159136  0.424185  1
  Al  Al15  1  0.162984  0.323604  0.921174  1
  Al  Al16  1  0.163693  0.835171  0.576632  1
  Al  Al17  1  0.325548  0.158677  0.076723  1
  Al  Al18  1  0.835968  0.164729  0.423624  1
  Al  Al19  1  0.674576  0.841160  0.923042  1
  Al  Al20  1  0.831641  0.159176  0.077703  1
  Al  Al21  1  0.168115  0.840732  0.922082  1
  Al  Al22  1  0.560639  0.124403  0.249831  1
  Al  Al23  1  0.439341  0.875548  0.750180  1
  Al  Al24  1  0.874200  0.438243  0.252676  1
  Al  Al25  1  0.125573  0.561950  0.747427  1
  Al  Al26  1  0.562781  0.436965  0.249718  1
  Al  Al27  1  0.437652  0.563161  0.750264  1
  Al  Al28  1  0.998566  0.001715  0.250228  1
  Al  Al29  1  0.001033  0.997522  0.749783  1
  Os  Os30  1  0.500094  0.000220  0.999983  1
  Os  Os31  1  0.500056  0.000180  0.500031  1
  Os  Os32  1  0.999793  0.500141  0.500269  1
  Os  Os33  1  0.000020  0.000033  0.000089  1
  Os  Os34  1  0.000015  0.000021  0.499915  1
  Pt  Pt35  1  0.999828  0.500172  0.999803  1
  Pt  Pt36  1  0.500368  0.500211  0.999816  1
  Pt  Pt37  1  0.500279  0.500172  0.500165  1
