# generated using pymatgen
data_Tb2MgInIr2
_symmetry_space_group_name_H-M   'P 1'
_cell_length_a   7.10960400
_cell_length_b   4.17377900
_cell_length_c   8.62509700
_cell_angle_alpha   90.00000000
_cell_angle_beta   90.00000000
_cell_angle_gamma   90.00000000
_symmetry_Int_Tables_number   1
_chemical_formula_structural   Tb2MgInIr2
_chemical_formula_sum   'Tb4 Mg2 In2 Ir4'
_cell_volume   255.94040278
_cell_formula_units_Z   2
loop_
 _symmetry_equiv_pos_site_id
 _symmetry_equiv_pos_as_xyz
  1  'x, y, z'
loop_
 _atom_site_type_symbol
 _atom_site_label
 _atom_site_symmetry_multiplicity
 _atom_site_fract_x
 _atom_site_fract_y
 _atom_site_fract_z
 _atom_site_occupancy
  Tb  Tb0  1  0.962395  0.750000  0.176442  1
  Tb  Tb1  1  0.462395  0.750000  0.323557  1
  Tb  Tb2  1  0.537350  0.249999  0.673530  1
  Tb  Tb3  1  0.037350  0.249999  0.826471  1
  Mg  Mg4  1  0.638423  0.249999  0.062203  1
  Mg  Mg5  1  0.138423  0.249999  0.437796  1
  In  In6  1  0.862600  0.750000  0.561800  1
  In  In7  1  0.362599  0.750000  0.938201  1
  Ir  Ir8  1  0.248131  0.249999  0.128984  1
  Ir  Ir9  1  0.748132  0.249999  0.371016  1
  Ir  Ir10  1  0.251100  0.750000  0.625120  1
  Ir  Ir11  1  0.751099  0.750000  0.874880  1
