# generated using pymatgen
data_Pr2Er3Sb4
_symmetry_space_group_name_H-M   'P 1'
_cell_length_a   8.07863900
_cell_length_b   8.19238600
_cell_length_c   15.40874900
_cell_angle_alpha   90.00000000
_cell_angle_beta   90.00000000
_cell_angle_gamma   90.00000000
_symmetry_Int_Tables_number   1
_chemical_formula_structural   Pr2Er3Sb4
_chemical_formula_sum   'Pr8 Er12 Sb16'
_cell_volume   1019.80230520
_cell_formula_units_Z   4
loop_
 _symmetry_equiv_pos_site_id
 _symmetry_equiv_pos_as_xyz
  1  'x, y, z'
loop_
 _atom_site_type_symbol
 _atom_site_label
 _atom_site_symmetry_multiplicity
 _atom_site_fract_x
 _atom_site_fract_y
 _atom_site_fract_z
 _atom_site_occupancy
  Pr  Pr0  1  0.472196  0.676299  0.596695  1
  Pr  Pr1  1  0.972196  0.823701  0.903305  1
  Pr  Pr2  1  0.527804  0.323701  0.096695  1
  Pr  Pr3  1  0.027804  0.176299  0.403305  1
  Pr  Pr4  1  0.527804  0.323701  0.403305  1
  Pr  Pr5  1  0.027804  0.176299  0.096695  1
  Pr  Pr6  1  0.472196  0.676299  0.903305  1
  Pr  Pr7  1  0.972196  0.823701  0.596695  1
  Er  Er8  1  0.641862  0.150334  0.622973  1
  Er  Er9  1  0.141862  0.349666  0.877027  1
  Er  Er10  1  0.358138  0.849666  0.122973  1
  Er  Er11  1  0.858138  0.650334  0.377027  1
  Er  Er12  1  0.358138  0.849666  0.377027  1
  Er  Er13  1  0.858138  0.650334  0.122973  1
  Er  Er14  1  0.641862  0.150334  0.877027  1
  Er  Er15  1  0.141862  0.349666  0.622973  1
  Er  Er16  1  0.802228  0.500137  0.750000  1
  Er  Er17  1  0.302228  0.999863  0.750000  1
  Er  Er18  1  0.197772  0.499863  0.250000  1
  Er  Er19  1  0.697772  0.000137  0.250000  1
  Sb  Sb20  1  0.705797  0.959207  0.452579  1
  Sb  Sb21  1  0.205797  0.540793  0.047421  1
  Sb  Sb22  1  0.294203  0.040793  0.952579  1
  Sb  Sb23  1  0.794203  0.459207  0.547421  1
  Sb  Sb24  1  0.294203  0.040793  0.547421  1
  Sb  Sb25  1  0.794203  0.459207  0.952579  1
  Sb  Sb26  1  0.705797  0.959207  0.047421  1
  Sb  Sb27  1  0.205797  0.540793  0.452579  1
  Sb  Sb28  1  0.443990  0.363422  0.750000  1
  Sb  Sb29  1  0.943990  0.136578  0.750000  1
  Sb  Sb30  1  0.556010  0.636578  0.250000  1
  Sb  Sb31  1  0.056010  0.863422  0.250000  1
  Sb  Sb32  1  0.658522  0.850377  0.750000  1
  Sb  Sb33  1  0.158522  0.649623  0.750000  1
  Sb  Sb34  1  0.341478  0.149623  0.250000  1
  Sb  Sb35  1  0.841478  0.350377  0.250000  1
