# generated using pymatgen
data_UCl4O
_symmetry_space_group_name_H-M   'P 1'
_cell_length_a   7.17159848
_cell_length_b   7.17159888
_cell_length_c   7.17159929
_cell_angle_alpha   94.73111460
_cell_angle_beta   94.73111028
_cell_angle_gamma   146.62005822
_symmetry_Int_Tables_number   1
_chemical_formula_structural   UCl4O
_chemical_formula_sum   'U1 Cl4 O1'
_cell_volume   194.38703323
_cell_formula_units_Z   1
loop_
 _symmetry_equiv_pos_site_id
 _symmetry_equiv_pos_as_xyz
  1  'x, y, z'
loop_
 _atom_site_type_symbol
 _atom_site_label
 _atom_site_symmetry_multiplicity
 _atom_site_fract_x
 _atom_site_fract_y
 _atom_site_fract_z
 _atom_site_occupancy
  U  U0  1  0.933511  0.933511  0.000000  1
  Cl  Cl1  1  0.180277  0.995881  0.310021  1
  Cl  Cl2  1  0.685860  0.870256  0.689979  1
  Cl  Cl3  1  0.870256  0.180277  0.184396  1
  Cl  Cl4  1  0.995881  0.685860  0.815604  1
  O  O5  1  0.433415  0.433415  0.000000  1
