# generated using pymatgen
data_Nd3Al12Os3Ru
_symmetry_space_group_name_H-M   'P 1'
_cell_length_a   8.90728000
_cell_length_b   8.90728071
_cell_length_c   9.66996700
_cell_angle_alpha   90.00000000
_cell_angle_beta   90.00000000
_cell_angle_gamma   120.00000479
_symmetry_Int_Tables_number   1
_chemical_formula_structural   Nd3Al12Os3Ru
_chemical_formula_sum   'Nd6 Al24 Os6 Ru2'
_cell_volume   664.42481845
_cell_formula_units_Z   2
loop_
 _symmetry_equiv_pos_site_id
 _symmetry_equiv_pos_as_xyz
  1  'x, y, z'
loop_
 _atom_site_type_symbol
 _atom_site_label
 _atom_site_symmetry_multiplicity
 _atom_site_fract_x
 _atom_site_fract_y
 _atom_site_fract_z
 _atom_site_occupancy
  Nd  Nd0  1  0.192523  0.385044  0.250000  1
  Nd  Nd1  1  0.807477  0.614956  0.750000  1
  Nd  Nd2  1  0.614956  0.807477  0.250000  1
  Nd  Nd3  1  0.385044  0.192523  0.750000  1
  Nd  Nd4  1  0.192523  0.807477  0.250000  1
  Nd  Nd5  1  0.807477  0.192523  0.750000  1
  Al  Al6  1  0.333333  0.666667  0.010179  1
  Al  Al7  1  0.666667  0.333333  0.989821  1
  Al  Al8  1  0.666667  0.333333  0.510179  1
  Al  Al9  1  0.333333  0.666667  0.489821  1
  Al  Al10  1  0.162269  0.324539  0.575635  1
  Al  Al11  1  0.837731  0.675461  0.424365  1
  Al  Al12  1  0.675461  0.837731  0.575635  1
  Al  Al13  1  0.837731  0.675461  0.075635  1
  Al  Al14  1  0.324539  0.162269  0.424365  1
  Al  Al15  1  0.162269  0.324539  0.924365  1
  Al  Al16  1  0.162269  0.837731  0.575635  1
  Al  Al17  1  0.324539  0.162269  0.075635  1
  Al  Al18  1  0.837731  0.162269  0.424365  1
  Al  Al19  1  0.675461  0.837731  0.924365  1
  Al  Al20  1  0.837731  0.162269  0.075635  1
  Al  Al21  1  0.162269  0.837731  0.924365  1
  Al  Al22  1  0.561963  0.123925  0.250000  1
  Al  Al23  1  0.438037  0.876075  0.750000  1
  Al  Al24  1  0.876075  0.438037  0.250000  1
  Al  Al25  1  0.123925  0.561963  0.750000  1
  Al  Al26  1  0.561963  0.438037  0.250000  1
  Al  Al27  1  0.438037  0.561963  0.750000  1
  Al  Al28  1  0.000000  0.000000  0.250000  1
  Al  Al29  1  0.000000  0.000000  0.750000  1
  Os  Os30  1  0.500000  0.000000  0.000000  1
  Os  Os31  1  0.000000  0.500000  0.000000  1
  Os  Os32  1  0.500000  0.000000  0.500000  1
  Os  Os33  1  0.500000  0.500000  0.000000  1
  Os  Os34  1  0.000000  0.500000  0.500000  1
  Os  Os35  1  0.500000  0.500000  0.500000  1
  Ru  Ru36  1  0.000000  0.000000  0.000000  1
  Ru  Ru37  1  0.000000  0.000000  0.500000  1
