# generated using pymatgen
data_K12MoP8W
_symmetry_space_group_name_H-M   'P 1'
_cell_length_a   10.09528373
_cell_length_b   10.09541318
_cell_length_c   8.02467225
_cell_angle_alpha   89.97503171
_cell_angle_beta   89.97374487
_cell_angle_gamma   119.98805469
_symmetry_Int_Tables_number   1
_chemical_formula_structural   K12MoP8W
_chemical_formula_sum   'K12 Mo1 P8 W1'
_cell_volume   708.35775378
_cell_formula_units_Z   1
loop_
 _symmetry_equiv_pos_site_id
 _symmetry_equiv_pos_as_xyz
  1  'x, y, z'
loop_
 _atom_site_type_symbol
 _atom_site_label
 _atom_site_symmetry_multiplicity
 _atom_site_fract_x
 _atom_site_fract_y
 _atom_site_fract_z
 _atom_site_occupancy
  K  K0  1  0.467804  0.532404  0.500329  1
  K  K1  1  0.063916  0.532236  0.501167  1
  K  K2  1  0.532670  0.467576  0.000674  1
  K  K3  1  0.532508  0.064420  0.001529  1
  K  K4  1  0.853457  0.145391  0.680741  1
  K  K5  1  0.294144  0.146783  0.682698  1
  K  K6  1  0.853881  0.708406  0.679993  1
  K  K7  1  0.145362  0.853492  0.180835  1
  K  K8  1  0.708469  0.853916  0.180081  1
  K  K9  1  0.146762  0.294098  0.182764  1
  K  K10  1  0.466910  0.934512  0.499634  1
  K  K11  1  0.934028  0.466653  0.999963  1
  Mo  Mo12  1  0.666728  0.333180  0.391194  1
  P  P13  1  0.667478  0.333719  0.680223  1
  P  P14  1  0.333726  0.667482  0.180799  1
  P  P15  1  0.793630  0.205925  0.299319  1
  P  P16  1  0.412580  0.206092  0.299758  1
  P  P17  1  0.793607  0.587171  0.298763  1
  P  P18  1  0.205764  0.793794  0.799008  1
  P  P19  1  0.587482  0.793760  0.798437  1
  P  P20  1  0.205927  0.412256  0.799455  1
  W  W21  1  0.333167  0.666734  0.891219  1
