# generated using pymatgen
data_Dy5Tm11In4RuRh3
_symmetry_space_group_name_H-M   'P 1'
_cell_length_a   9.57639668
_cell_length_b   9.56217368
_cell_length_c   9.56326152
_cell_angle_alpha   59.93738743
_cell_angle_beta   59.93018206
_cell_angle_gamma   59.90423664
_symmetry_Int_Tables_number   1
_chemical_formula_structural   Dy5Tm11In4RuRh3
_chemical_formula_sum   'Dy5 Tm11 In4 Ru1 Rh3'
_cell_volume   618.15833680
_cell_formula_units_Z   1
loop_
 _symmetry_equiv_pos_site_id
 _symmetry_equiv_pos_as_xyz
  1  'x, y, z'
loop_
 _atom_site_type_symbol
 _atom_site_label
 _atom_site_symmetry_multiplicity
 _atom_site_fract_x
 _atom_site_fract_y
 _atom_site_fract_z
 _atom_site_occupancy
  Dy  Dy0  1  0.060188  0.060947  0.436733  1
  Dy  Dy1  1  0.442729  0.060211  0.436998  1
  Dy  Dy2  1  0.061996  0.437683  0.061878  1
  Dy  Dy3  1  0.046516  0.651027  0.649685  1
  Dy  Dy4  1  0.438919  0.437904  0.061222  1
  Tm  Tm5  1  0.651652  0.046785  0.649791  1
  Tm  Tm6  1  0.187430  0.810904  0.192241  1
  Tm  Tm7  1  0.189530  0.190451  0.810580  1
  Tm  Tm8  1  0.809034  0.810542  0.192999  1
  Tm  Tm9  1  0.440438  0.059994  0.059355  1
  Tm  Tm10  1  0.810014  0.187777  0.192054  1
  Tm  Tm11  1  0.059247  0.442905  0.437973  1
  Tm  Tm12  1  0.809027  0.191100  0.810191  1
  Tm  Tm13  1  0.190144  0.810399  0.810119  1
  Tm  Tm14  1  0.650899  0.650048  0.048034  1
  Tm  Tm15  1  0.653076  0.651170  0.649976  1
  In  In16  1  0.417554  0.417746  0.416632  1
  In  In17  1  0.748239  0.418045  0.417014  1
  In  In18  1  0.418548  0.748182  0.415619  1
  In  In19  1  0.418496  0.416881  0.746931  1
  Ru  Ru20  1  0.857670  0.857929  0.424555  1
  Rh  Rh21  1  0.856746  0.859778  0.860719  1
  Rh  Rh22  1  0.424109  0.858562  0.859463  1
  Rh  Rh23  1  0.857800  0.423032  0.859241  1
