# generated using pymatgen
data_TbEr11Tc3Ni
_symmetry_space_group_name_H-M   'P 1'
_cell_length_a   6.23016300
_cell_length_b   7.29131147
_cell_length_c   9.09234000
_cell_angle_alpha   90.00000000
_cell_angle_beta   90.00000000
_cell_angle_gamma   90.16953790
_symmetry_Int_Tables_number   1
_chemical_formula_structural   TbEr11Tc3Ni
_chemical_formula_sum   'Tb1 Er11 Tc3 Ni1'
_cell_volume   413.02736490
_cell_formula_units_Z   1
loop_
 _symmetry_equiv_pos_site_id
 _symmetry_equiv_pos_as_xyz
  1  'x, y, z'
loop_
 _atom_site_type_symbol
 _atom_site_label
 _atom_site_symmetry_multiplicity
 _atom_site_fract_x
 _atom_site_fract_y
 _atom_site_fract_z
 _atom_site_occupancy
  Tb  Tb0  1  0.139087  0.458158  0.750000  1
  Er  Er1  1  0.329426  0.677927  0.066801  1
  Er  Er2  1  0.163209  0.176379  0.437263  1
  Er  Er3  1  0.665562  0.322479  0.562095  1
  Er  Er4  1  0.834699  0.823751  0.938698  1
  Er  Er5  1  0.665562  0.322479  0.937905  1
  Er  Er6  1  0.834699  0.823751  0.561302  1
  Er  Er7  1  0.329426  0.677927  0.433199  1
  Er  Er8  1  0.163209  0.176379  0.062737  1
  Er  Er9  1  0.872161  0.540226  0.250000  1
  Er  Er10  1  0.623379  0.039639  0.250000  1
  Er  Er11  1  0.374258  0.958227  0.750000  1
  Tc  Tc12  1  0.037332  0.885568  0.250000  1
  Tc  Tc13  1  0.460993  0.387788  0.250000  1
  Tc  Tc14  1  0.960883  0.113277  0.750000  1
  Ni  Ni15  1  0.546116  0.616045  0.750000  1
