# generated using pymatgen
data_Li2Pd(BrO3)6
_symmetry_space_group_name_H-M   'P 1'
_cell_length_a   5.59405181
_cell_length_b   9.15628692
_cell_length_c   9.16885068
_cell_angle_alpha   59.92131443
_cell_angle_beta   90.02277797
_cell_angle_gamma   90.09259482
_symmetry_Int_Tables_number   1
_chemical_formula_structural   Li2Pd(BrO3)6
_chemical_formula_sum   'Li2 Pd1 Br6 O18'
_cell_volume   406.39270142
_cell_formula_units_Z   1
loop_
 _symmetry_equiv_pos_site_id
 _symmetry_equiv_pos_as_xyz
  1  'x, y, z'
loop_
 _atom_site_type_symbol
 _atom_site_label
 _atom_site_symmetry_multiplicity
 _atom_site_fract_x
 _atom_site_fract_y
 _atom_site_fract_z
 _atom_site_occupancy
  Li  Li0  1  0.742573  0.333612  0.332795  1
  Li  Li1  1  0.200766  0.666811  0.666635  1
  Pd  Pd2  1  0.666636  0.999913  0.000022  1
  Br  Br3  1  0.812486  0.973563  0.670940  1
  Br  Br4  1  0.812993  0.356012  0.973588  1
  Br  Br5  1  0.813209  0.669996  0.355225  1
  Br  Br6  1  0.334556  0.020960  0.310892  1
  Br  Br7  1  0.335314  0.666277  0.021545  1
  Br  Br8  1  0.334658  0.312026  0.667806  1
  O  O9  1  0.485188  0.246392  0.556204  1
  O  O10  1  0.485479  0.198570  0.245391  1
  O  O11  1  0.487160  0.554819  0.198493  1
  O  O12  1  0.980246  0.752530  0.445308  1
  O  O13  1  0.981881  0.802074  0.753301  1
  O  O14  1  0.981384  0.446160  0.801594  1
  O  O15  1  0.886347  0.065018  0.800201  1
  O  O16  1  0.887469  0.135303  0.063688  1
  O  O17  1  0.888349  0.801310  0.134650  1
  O  O18  1  0.465983  0.911989  0.211471  1
  O  O19  1  0.463064  0.876303  0.913555  1
  O  O20  1  0.462699  0.209920  0.877530  1
  O  O21  1  0.944332  0.118308  0.493505  1
  O  O22  1  0.946156  0.388025  0.118126  1
  O  O23  1  0.947430  0.493732  0.387008  1
  O  O24  1  0.418809  0.886878  0.507726  1
  O  O25  1  0.421543  0.605136  0.886818  1
  O  O26  1  0.421894  0.508363  0.605985  1
