# generated using pymatgen
data_YbEr3(Pd2Pb)2
_symmetry_space_group_name_H-M   'P 1'
_cell_length_a   7.82651496
_cell_length_b   7.82651496
_cell_length_c   3.65506000
_cell_angle_alpha   90.00000000
_cell_angle_beta   90.00000000
_cell_angle_gamma   89.49845539
_symmetry_Int_Tables_number   1
_chemical_formula_structural   YbEr3(Pd2Pb)2
_chemical_formula_sum   'Yb1 Er3 Pd4 Pb2'
_cell_volume   223.87969736
_cell_formula_units_Z   1
loop_
 _symmetry_equiv_pos_site_id
 _symmetry_equiv_pos_as_xyz
  1  'x, y, z'
loop_
 _atom_site_type_symbol
 _atom_site_label
 _atom_site_symmetry_multiplicity
 _atom_site_fract_x
 _atom_site_fract_y
 _atom_site_fract_z
 _atom_site_occupancy
  Yb  Yb0  1  0.670935  0.170935  0.500000  1
  Er  Er1  1  0.170939  0.328390  0.500000  1
  Er  Er2  1  0.828390  0.670939  0.500000  1
  Er  Er3  1  0.329381  0.829381  0.500000  1
  Pd  Pd4  1  0.372647  0.127334  0.000000  1
  Pd  Pd5  1  0.126507  0.626507  0.000000  1
  Pd  Pd6  1  0.627334  0.872647  0.000000  1
  Pd  Pd7  1  0.874762  0.374762  0.000000  1
  Pb  Pb8  1  0.998930  0.000175  0.000000  1
  Pb  Pb9  1  0.500175  0.498930  0.000000  1
