# generated using pymatgen
data_Y16Cd4CoNi2Ru
_symmetry_space_group_name_H-M   'P 1'
_cell_length_a   9.63890291
_cell_length_b   9.60317544
_cell_length_c   9.60029818
_cell_angle_alpha   60.00762794
_cell_angle_beta   60.32986875
_cell_angle_gamma   60.14785540
_symmetry_Int_Tables_number   1
_chemical_formula_structural   Y16Cd4CoNi2Ru
_chemical_formula_sum   'Y16 Cd4 Co1 Ni2 Ru1'
_cell_volume   630.65782487
_cell_formula_units_Z   1
loop_
 _symmetry_equiv_pos_site_id
 _symmetry_equiv_pos_as_xyz
  1  'x, y, z'
loop_
 _atom_site_type_symbol
 _atom_site_label
 _atom_site_symmetry_multiplicity
 _atom_site_fract_x
 _atom_site_fract_y
 _atom_site_fract_z
 _atom_site_occupancy
  Y  Y0  1  0.436936  0.436076  0.064279  1
  Y  Y1  1  0.064593  0.058755  0.438954  1
  Y  Y2  1  0.436931  0.062709  0.064293  1
  Y  Y3  1  0.843777  0.847441  0.850434  1
  Y  Y4  1  0.689513  0.314246  0.307095  1
  Y  Y5  1  0.064582  0.437705  0.438959  1
  Y  Y6  1  0.310965  0.689573  0.688624  1
  Y  Y7  1  0.310979  0.310817  0.688623  1
  Y  Y8  1  0.847568  0.849284  0.453905  1
  Y  Y9  1  0.689514  0.689141  0.307078  1
  Y  Y10  1  0.455829  0.845934  0.852336  1
  Y  Y11  1  0.063969  0.438204  0.059620  1
  Y  Y12  1  0.843790  0.458327  0.850452  1
  Y  Y13  1  0.436084  0.063339  0.437220  1
  Y  Y14  1  0.315042  0.688202  0.308545  1
  Y  Y15  1  0.690516  0.310151  0.689147  1
  Cd  Cd16  1  0.081536  0.758229  0.080158  1
  Cd  Cd17  1  0.081397  0.080475  0.757638  1
  Cd  Cd18  1  0.757887  0.080787  0.080524  1
  Cd  Cd19  1  0.081539  0.080067  0.080162  1
  Co  Co20  1  0.640854  0.641687  0.075770  1
  Ni  Ni21  1  0.640873  0.074840  0.641943  1
  Ni  Ni22  1  0.640963  0.642341  0.641941  1
  Ru  Ru23  1  0.074361  0.641664  0.642298  1
