# generated using pymatgen
data_Nd8Nb11Si16Tc
_symmetry_space_group_name_H-M   'P 1'
_cell_length_a   7.15656314
_cell_length_b   7.15656314
_cell_length_c   13.25932769
_cell_angle_alpha   89.94850640
_cell_angle_beta   90.05149360
_cell_angle_gamma   89.84651960
_symmetry_Int_Tables_number   1
_chemical_formula_structural   Nd8Nb11Si16Tc
_chemical_formula_sum   'Nd8 Nb11 Si16 Tc1'
_cell_volume   679.09199113
_cell_formula_units_Z   1
loop_
 _symmetry_equiv_pos_site_id
 _symmetry_equiv_pos_as_xyz
  1  'x, y, z'
loop_
 _atom_site_type_symbol
 _atom_site_label
 _atom_site_symmetry_multiplicity
 _atom_site_fract_x
 _atom_site_fract_y
 _atom_site_fract_z
 _atom_site_occupancy
  Nd  Nd0  1  0.997992  0.338524  0.216458  1
  Nd  Nd1  1  0.004949  0.660221  0.718300  1
  Nd  Nd2  1  0.161104  0.494923  0.467780  1
  Nd  Nd3  1  0.502787  0.840812  0.031495  1
  Nd  Nd4  1  0.840812  0.502787  0.968505  1
  Nd  Nd5  1  0.494923  0.161104  0.532220  1
  Nd  Nd6  1  0.338524  0.997992  0.783542  1
  Nd  Nd7  1  0.660221  0.004949  0.281700  1
  Nb  Nb8  1  0.829201  0.829201  0.500000  1
  Nb  Nb9  1  0.327375  0.669317  0.248020  1
  Nb  Nb10  1  0.669317  0.327375  0.751980  1
  Nb  Nb11  1  0.155591  0.992112  0.374894  1
  Nb  Nb12  1  0.841997  0.008301  0.875240  1
  Nb  Nb13  1  0.509453  0.655769  0.624908  1
  Nb  Nb14  1  0.347478  0.492477  0.875166  1
  Nb  Nb15  1  0.492477  0.347478  0.124834  1
  Nb  Nb16  1  0.655769  0.509453  0.375092  1
  Nb  Nb17  1  0.992112  0.155591  0.625106  1
  Nb  Nb18  1  0.008301  0.841997  0.124760  1
  Si  Si19  1  0.288455  0.048048  0.183310  1
  Si  Si20  1  0.709442  0.955310  0.686857  1
  Si  Si21  1  0.454675  0.790292  0.435736  1
  Si  Si22  1  0.210993  0.542026  0.062214  1
  Si  Si23  1  0.542026  0.210993  0.937786  1
  Si  Si24  1  0.790292  0.454675  0.564264  1
  Si  Si25  1  0.048048  0.288455  0.816690  1
  Si  Si26  1  0.955310  0.709442  0.313143  1
  Si  Si27  1  0.369964  0.298317  0.313655  1
  Si  Si28  1  0.628540  0.702950  0.814427  1
  Si  Si29  1  0.202019  0.870093  0.564170  1
  Si  Si30  1  0.127258  0.802317  0.935987  1
  Si  Si31  1  0.802317  0.127258  0.064013  1
  Si  Si32  1  0.870093  0.202019  0.435830  1
  Si  Si33  1  0.298317  0.369964  0.686345  1
  Si  Si34  1  0.702950  0.628540  0.185573  1
  Tc  Tc35  1  0.168918  0.168918  0.000000  1
