# generated using pymatgen
data_NaTm4Be4P8Ir19
_symmetry_space_group_name_H-M   'P 1'
_cell_length_a   12.58989949
_cell_length_b   12.49877283
_cell_length_c   3.94063500
_cell_angle_alpha   90.00000000
_cell_angle_beta   90.00000000
_cell_angle_gamma   120.14332726
_symmetry_Int_Tables_number   1
_chemical_formula_structural   NaTm4Be4P8Ir19
_chemical_formula_sum   'Na1 Tm4 Be4 P8 Ir19'
_cell_volume   536.23780855
_cell_formula_units_Z   1
loop_
 _symmetry_equiv_pos_site_id
 _symmetry_equiv_pos_as_xyz
  1  'x, y, z'
loop_
 _atom_site_type_symbol
 _atom_site_label
 _atom_site_symmetry_multiplicity
 _atom_site_fract_x
 _atom_site_fract_y
 _atom_site_fract_z
 _atom_site_occupancy
  Na  Na0  1  0.182767  0.189459  0.000000  1
  Tm  Tm1  1  0.334664  0.667556  0.500000  1
  Tm  Tm2  1  0.678089  0.331289  0.500000  1
  Tm  Tm3  1  0.811390  0.000212  0.000000  1
  Tm  Tm4  1  0.005127  0.818263  0.000000  1
  Be  Be5  1  0.314816  0.836998  0.000000  1
  Be  Be6  1  0.163476  0.475848  0.000000  1
  Be  Be7  1  0.520418  0.683866  0.000000  1
  Be  Be8  1  0.832035  0.307982  0.000000  1
  P  P9  1  0.483398  0.176483  0.000000  1
  P  P10  1  0.697346  0.517850  0.000000  1
  P  P11  1  0.359623  0.372448  0.500000  1
  P  P12  1  0.626220  0.992634  0.500000  1
  P  P13  1  0.007159  0.632282  0.500000  1
  P  P14  1  0.817996  0.820290  0.500000  1
  P  P15  1  0.182557  0.003976  0.500000  1
  P  P16  1  0.998450  0.183039  0.500000  1
  Ir  Ir17  1  0.192668  0.819465  0.500000  1
  Ir  Ir18  1  0.179300  0.379953  0.500000  1
  Ir  Ir19  1  0.625219  0.805393  0.500000  1
  Ir  Ir20  1  0.809947  0.185437  0.500000  1
  Ir  Ir21  1  0.382789  0.191897  0.500000  1
  Ir  Ir22  1  0.810120  0.624141  0.500000  1
  Ir  Ir23  1  0.128306  0.640185  0.000000  1
  Ir  Ir24  1  0.357216  0.484225  0.000000  1
  Ir  Ir25  1  0.512009  0.868246  0.000000  1
  Ir  Ir26  1  0.633011  0.128996  0.000000  1
  Ir  Ir27  1  0.500388  0.369591  0.000000  1
  Ir  Ir28  1  0.875014  0.510272  0.000000  1
  Ir  Ir29  1  0.546398  0.553383  0.500000  1
  Ir  Ir30  1  0.442908  0.989190  0.500000  1
  Ir  Ir31  1  0.992874  0.442903  0.500000  1
  Ir  Ir32  1  0.718401  0.713906  0.000000  1
  Ir  Ir33  1  0.285595  0.005111  0.000000  1
  Ir  Ir34  1  0.994481  0.278715  0.000000  1
  Ir  Ir35  1  0.997822  0.998514  0.500000  1
