# generated using pymatgen
data_Tb2Ni12As2P5
_symmetry_space_group_name_H-M   'P 1'
_cell_length_a   9.19130401
_cell_length_b   9.13536069
_cell_length_c   3.70249100
_cell_angle_alpha   90.00000000
_cell_angle_beta   90.00000000
_cell_angle_gamma   119.81988039
_symmetry_Int_Tables_number   1
_chemical_formula_structural   Tb2Ni12As2P5
_chemical_formula_sum   'Tb2 Ni12 As2 P5'
_cell_volume   269.71982045
_cell_formula_units_Z   1
loop_
 _symmetry_equiv_pos_site_id
 _symmetry_equiv_pos_as_xyz
  1  'x, y, z'
loop_
 _atom_site_type_symbol
 _atom_site_label
 _atom_site_symmetry_multiplicity
 _atom_site_fract_x
 _atom_site_fract_y
 _atom_site_fract_z
 _atom_site_occupancy
  Tb  Tb0  1  0.667036  0.333955  0.000000  1
  Tb  Tb1  1  0.337862  0.672012  0.500000  1
  Ni  Ni2  1  0.061940  0.634273  0.000000  1
  Ni  Ni3  1  0.559375  0.937600  0.000000  1
  Ni  Ni4  1  0.389458  0.440355  0.000000  1
  Ni  Ni5  1  0.286773  0.129877  0.000000  1
  Ni  Ni6  1  0.841600  0.715680  0.000000  1
  Ni  Ni7  1  0.862815  0.146981  0.000000  1
  Ni  Ni8  1  0.432679  0.052528  0.500000  1
  Ni  Ni9  1  0.620418  0.569320  0.500000  1
  Ni  Ni10  1  0.939004  0.376724  0.500000  1
  Ni  Ni11  1  0.107251  0.868451  0.500000  1
  Ni  Ni12  1  0.756729  0.893226  0.500000  1
  Ni  Ni13  1  0.130667  0.223132  0.500000  1
  As  As14  1  0.115535  0.404949  0.000000  1
  As  As15  1  0.001531  0.999788  0.000000  1
  P  P16  1  0.293738  0.889673  0.000000  1
  P  P17  1  0.596650  0.709885  0.000000  1
  P  P18  1  0.408423  0.298157  0.500000  1
  P  P19  1  0.889882  0.594376  0.500000  1
  P  P20  1  0.700637  0.109059  0.500000  1
