# generated using pymatgen
data_SrCdInRh
_symmetry_space_group_name_H-M   'P 1'
_cell_length_a   5.92897122
_cell_length_b   5.92897202
_cell_length_c   8.12984536
_cell_angle_alpha   89.24736113
_cell_angle_beta   90.75264065
_cell_angle_gamma   136.44454268
_symmetry_Int_Tables_number   1
_chemical_formula_structural   SrCdInRh
_chemical_formula_sum   'Sr2 Cd2 In2 Rh2'
_cell_volume   196.90299230
_cell_formula_units_Z   2
loop_
 _symmetry_equiv_pos_site_id
 _symmetry_equiv_pos_as_xyz
  1  'x, y, z'
loop_
 _atom_site_type_symbol
 _atom_site_label
 _atom_site_symmetry_multiplicity
 _atom_site_fract_x
 _atom_site_fract_y
 _atom_site_fract_z
 _atom_site_occupancy
  Sr  Sr0  1  0.939120  0.060880  0.751165  1
  Sr  Sr1  1  0.060880  0.939120  0.248835  1
  Cd  Cd2  1  0.656061  0.343939  0.948166  1
  Cd  Cd3  1  0.343939  0.656061  0.051834  1
  In  In4  1  0.349658  0.650342  0.444355  1
  In  In5  1  0.650342  0.349658  0.555645  1
  Rh  Rh6  1  0.220848  0.779152  0.738741  1
  Rh  Rh7  1  0.779152  0.220848  0.261259  1
