# generated using pymatgen
data_K2NiS16
_symmetry_space_group_name_H-M   'P 1'
_cell_length_a   11.70578700
_cell_length_b   11.70578700
_cell_length_c   7.14508200
_cell_angle_alpha   90.00000000
_cell_angle_beta   90.00000000
_cell_angle_gamma   90.00000000
_symmetry_Int_Tables_number   1
_chemical_formula_structural   K2NiS16
_chemical_formula_sum   'K4 Ni2 S32'
_cell_volume   979.05807126
_cell_formula_units_Z   2
loop_
 _symmetry_equiv_pos_site_id
 _symmetry_equiv_pos_as_xyz
  1  'x, y, z'
loop_
 _atom_site_type_symbol
 _atom_site_label
 _atom_site_symmetry_multiplicity
 _atom_site_fract_x
 _atom_site_fract_y
 _atom_site_fract_z
 _atom_site_occupancy
  K  K0  1  0.500000  0.000000  0.000000  1
  K  K1  1  0.000000  0.500000  0.000000  1
  K  K2  1  0.500000  0.500000  0.500000  1
  K  K3  1  0.000000  0.000000  0.500000  1
  Ni  Ni4  1  0.000000  0.000000  0.000000  1
  Ni  Ni5  1  0.500000  0.500000  0.000000  1
  S  S6  1  0.184877  0.424134  0.574443  1
  S  S7  1  0.815123  0.575866  0.574443  1
  S  S8  1  0.575866  0.184877  0.425557  1
  S  S9  1  0.424134  0.815123  0.425557  1
  S  S10  1  0.315123  0.924134  0.574443  1
  S  S11  1  0.075866  0.315123  0.425557  1
  S  S12  1  0.825557  0.948162  0.929839  1
  S  S13  1  0.051838  0.825557  0.070161  1
  S  S14  1  0.948162  0.174443  0.070161  1
  S  S15  1  0.174443  0.051838  0.929839  1
  S  S16  1  0.551838  0.674443  0.070161  1
  S  S17  1  0.448162  0.325557  0.070161  1
  S  S18  1  0.674443  0.448162  0.929839  1
  S  S19  1  0.325557  0.551838  0.929839  1
  S  S20  1  0.776277  0.196673  0.115821  1
  S  S21  1  0.803327  0.776277  0.884179  1
  S  S22  1  0.196673  0.223723  0.884179  1
  S  S23  1  0.223723  0.803327  0.115821  1
  S  S24  1  0.303327  0.723723  0.884179  1
  S  S25  1  0.696673  0.276277  0.884179  1
  S  S26  1  0.723723  0.696673  0.115821  1
  S  S27  1  0.276277  0.303327  0.115821  1
  S  S28  1  0.922038  0.312196  0.569503  1
  S  S29  1  0.687804  0.922038  0.430497  1
  S  S30  1  0.312196  0.077962  0.430497  1
  S  S31  1  0.077962  0.687804  0.569503  1
  S  S32  1  0.187804  0.577962  0.430497  1
  S  S33  1  0.812196  0.422038  0.430497  1
  S  S34  1  0.577962  0.812196  0.569503  1
  S  S35  1  0.422038  0.187804  0.569503  1
  S  S36  1  0.684877  0.075866  0.574443  1
  S  S37  1  0.924134  0.684877  0.425557  1
