# generated using pymatgen
data_La2(CuAu2)3
_symmetry_space_group_name_H-M   'P 1'
_cell_length_a   8.72341317
_cell_length_b   8.72341245
_cell_length_c   8.72341209
_cell_angle_alpha   57.48904266
_cell_angle_beta   57.48904359
_cell_angle_gamma   57.48904251
_symmetry_Int_Tables_number   1
_chemical_formula_structural   La2(CuAu2)3
_chemical_formula_sum   'La4 Cu6 Au12'
_cell_volume   442.29147244
_cell_formula_units_Z   2
loop_
 _symmetry_equiv_pos_site_id
 _symmetry_equiv_pos_as_xyz
  1  'x, y, z'
loop_
 _atom_site_type_symbol
 _atom_site_label
 _atom_site_symmetry_multiplicity
 _atom_site_fract_x
 _atom_site_fract_y
 _atom_site_fract_z
 _atom_site_occupancy
  La  La0  1  0.904163  0.904163  0.904163  1
  La  La1  1  0.404163  0.404163  0.404163  1
  La  La2  1  0.095837  0.095837  0.095837  1
  La  La3  1  0.595837  0.595837  0.595837  1
  Cu  Cu4  1  0.572153  0.750000  0.927847  1
  Cu  Cu5  1  0.927847  0.572153  0.750000  1
  Cu  Cu6  1  0.750000  0.927847  0.572153  1
  Cu  Cu7  1  0.427847  0.250000  0.072153  1
  Cu  Cu8  1  0.072153  0.427847  0.250000  1
  Cu  Cu9  1  0.250000  0.072153  0.427847  1
  Au  Au10  1  0.483537  0.860906  0.204874  1
  Au  Au11  1  0.204874  0.483537  0.860906  1
  Au  Au12  1  0.860906  0.204874  0.483537  1
  Au  Au13  1  0.704874  0.360906  0.983537  1
  Au  Au14  1  0.983537  0.704874  0.360906  1
  Au  Au15  1  0.360906  0.983537  0.704874  1
  Au  Au16  1  0.516463  0.139094  0.795126  1
  Au  Au17  1  0.795126  0.516463  0.139094  1
  Au  Au18  1  0.139094  0.795126  0.516463  1
  Au  Au19  1  0.295126  0.639094  0.016463  1
  Au  Au20  1  0.016463  0.295126  0.639094  1
  Au  Au21  1  0.639094  0.016463  0.295126  1
