# generated using pymatgen
data_Ce4B16OsW3
_symmetry_space_group_name_H-M   'P 1'
_cell_length_a   3.67855700
_cell_length_b   6.05712845
_cell_length_c   11.72526253
_cell_angle_alpha   90.06495150
_cell_angle_beta   90.00000000
_cell_angle_gamma   90.00000000
_symmetry_Int_Tables_number   1
_chemical_formula_structural   Ce4B16OsW3
_chemical_formula_sum   'Ce4 B16 Os1 W3'
_cell_volume   261.25617842
_cell_formula_units_Z   1
loop_
 _symmetry_equiv_pos_site_id
 _symmetry_equiv_pos_as_xyz
  1  'x, y, z'
loop_
 _atom_site_type_symbol
 _atom_site_label
 _atom_site_symmetry_multiplicity
 _atom_site_fract_x
 _atom_site_fract_y
 _atom_site_fract_z
 _atom_site_occupancy
  Ce  Ce0  1  0.000000  0.625918  0.350566  1
  Ce  Ce1  1  0.000000  0.374328  0.648471  1
  Ce  Ce2  1  0.000000  0.124631  0.152510  1
  Ce  Ce3  1  0.000000  0.874610  0.847949  1
  B  B4  1  0.500000  0.784657  0.186122  1
  B  B5  1  0.500000  0.213657  0.813148  1
  B  B6  1  0.500000  0.286550  0.314209  1
  B  B7  1  0.500000  0.715511  0.684487  1
  B  B8  1  0.500000  0.864055  0.031909  1
  B  B9  1  0.500000  0.135443  0.967345  1
  B  B10  1  0.500000  0.364276  0.469924  1
  B  B11  1  0.500000  0.638454  0.532279  1
  B  B12  1  0.500000  0.886238  0.454754  1
  B  B13  1  0.500000  0.112160  0.547380  1
  B  B14  1  0.500000  0.385843  0.045935  1
  B  B15  1  0.500000  0.613828  0.953224  1
  B  B16  1  0.500000  0.971032  0.309528  1
  B  B17  1  0.500000  0.027137  0.690660  1
  B  B18  1  0.500000  0.474919  0.191606  1
  B  B19  1  0.500000  0.527149  0.807618  1
  Os  Os20  1  0.000000  0.863508  0.592060  1
  W  W21  1  0.000000  0.629499  0.085476  1
  W  W22  1  0.000000  0.370067  0.912637  1
  W  W23  1  0.000000  0.136529  0.410204  1
