# generated using pymatgen
data_Na2Er2Si10RuPt5
_symmetry_space_group_name_H-M   'P 1'
_cell_length_a   8.19064361
_cell_length_b   8.24668996
_cell_length_c   8.24693590
_cell_angle_alpha   138.98142425
_cell_angle_beta   103.90250305
_cell_angle_gamma   90.39474629
_symmetry_Int_Tables_number   1
_chemical_formula_structural   Na2Er2Si10RuPt5
_chemical_formula_sum   'Na2 Er2 Si10 Ru1 Pt5'
_cell_volume   339.04748588
_cell_formula_units_Z   1
loop_
 _symmetry_equiv_pos_site_id
 _symmetry_equiv_pos_as_xyz
  1  'x, y, z'
loop_
 _atom_site_type_symbol
 _atom_site_label
 _atom_site_symmetry_multiplicity
 _atom_site_fract_x
 _atom_site_fract_y
 _atom_site_fract_z
 _atom_site_occupancy
  Na  Na0  1  0.899449  0.133343  0.767798  1
  Na  Na1  1  0.100562  0.868337  0.233899  1
  Er  Er2  1  0.640481  0.371586  0.269907  1
  Er  Er3  1  0.359524  0.629468  0.731145  1
  Si  Si4  1  0.000013  0.754129  0.754115  1
  Si  Si5  1  0.999988  0.245269  0.245291  1
  Si  Si6  1  0.729788  0.475771  0.753317  1
  Si  Si7  1  0.270220  0.023513  0.745987  1
  Si  Si8  1  0.275400  0.528838  0.251777  1
  Si  Si9  1  0.724603  0.976376  0.253417  1
  Si  Si10  1  0.238099  0.399157  0.854241  1
  Si  Si11  1  0.546663  0.887112  0.643202  1
  Si  Si12  1  0.453330  0.096538  0.340442  1
  Si  Si13  1  0.761899  0.616082  0.160997  1
  Ru  Ru14  1  0.500006  0.745558  0.245563  1
  Pt  Pt15  1  0.739995  0.858916  0.883273  1
  Pt  Pt16  1  0.499985  0.250352  0.750335  1
  Pt  Pt17  1  0.978866  0.363293  0.611890  1
  Pt  Pt18  1  0.021127  0.633025  0.384433  1
  Pt  Pt19  1  0.260001  0.143339  0.118972  1
