# generated using pymatgen
data_Zr16Co4Ir3Au
_symmetry_space_group_name_H-M   'P 1'
_cell_length_a   8.72656067
_cell_length_b   8.72739632
_cell_length_c   8.72927600
_cell_angle_alpha   59.92419591
_cell_angle_beta   59.92252079
_cell_angle_gamma   59.92512819
_symmetry_Int_Tables_number   1
_chemical_formula_structural   Zr16Co4Ir3Au
_chemical_formula_sum   'Zr16 Co4 Ir3 Au1'
_cell_volume   469.28987750
_cell_formula_units_Z   1
loop_
 _symmetry_equiv_pos_site_id
 _symmetry_equiv_pos_as_xyz
  1  'x, y, z'
loop_
 _atom_site_type_symbol
 _atom_site_label
 _atom_site_symmetry_multiplicity
 _atom_site_fract_x
 _atom_site_fract_y
 _atom_site_fract_z
 _atom_site_occupancy
  Zr  Zr0  1  0.062540  0.646944  0.646982  1
  Zr  Zr1  1  0.647066  0.062601  0.646877  1
  Zr  Zr2  1  0.647129  0.646917  0.062454  1
  Zr  Zr3  1  0.648095  0.647889  0.647875  1
  Zr  Zr4  1  0.803137  0.803080  0.197012  1
  Zr  Zr5  1  0.194165  0.194456  0.806692  1
  Zr  Zr6  1  0.803212  0.196937  0.803180  1
  Zr  Zr7  1  0.194213  0.806651  0.194514  1
  Zr  Zr8  1  0.196830  0.803173  0.803194  1
  Zr  Zr9  1  0.806656  0.194355  0.194376  1
  Zr  Zr10  1  0.435883  0.435780  0.055257  1
  Zr  Zr11  1  0.062499  0.062499  0.436561  1
  Zr  Zr12  1  0.435972  0.055155  0.435839  1
  Zr  Zr13  1  0.062531  0.436496  0.062581  1
  Zr  Zr14  1  0.055074  0.435978  0.435951  1
  Zr  Zr15  1  0.436500  0.062593  0.062640  1
  Co  Co16  1  0.426231  0.859692  0.859598  1
  Co  Co17  1  0.859650  0.426234  0.859617  1
  Co  Co18  1  0.859680  0.859724  0.426162  1
  Co  Co19  1  0.857415  0.857400  0.857322  1
  Ir  Ir20  1  0.751666  0.418105  0.418088  1
  Ir  Ir21  1  0.418119  0.751577  0.418113  1
  Ir  Ir22  1  0.418098  0.418111  0.751516  1
  Au  Au23  1  0.417639  0.417650  0.417598  1
