# generated using pymatgen
data_Ag3Ir2Rh2PbO14
_symmetry_space_group_name_H-M   'P 1'
_cell_length_a   7.26896023
_cell_length_b   7.20486511
_cell_length_c   7.20486523
_cell_angle_alpha   59.89792194
_cell_angle_beta   60.15472985
_cell_angle_gamma   60.15473002
_symmetry_Int_Tables_number   1
_chemical_formula_structural   Ag3Ir2Rh2PbO14
_chemical_formula_sum   'Ag3 Ir2 Rh2 Pb1 O14'
_cell_volume   267.22867073
_cell_formula_units_Z   1
loop_
 _symmetry_equiv_pos_site_id
 _symmetry_equiv_pos_as_xyz
  1  'x, y, z'
loop_
 _atom_site_type_symbol
 _atom_site_label
 _atom_site_symmetry_multiplicity
 _atom_site_fract_x
 _atom_site_fract_y
 _atom_site_fract_z
 _atom_site_occupancy
  Ag  Ag0  1  0.125000  0.625000  0.125000  1
  Ag  Ag1  1  0.125000  0.125000  0.625000  1
  Ag  Ag2  1  0.125000  0.125000  0.125000  1
  Ir  Ir3  1  0.125000  0.625000  0.625000  1
  Ir  Ir4  1  0.625000  0.625000  0.625000  1
  Rh  Rh5  1  0.625000  0.125000  0.625000  1
  Rh  Rh6  1  0.625000  0.625000  0.125000  1
  Pb  Pb7  1  0.625000  0.125000  0.125000  1
  O  O8  1  0.702193  0.707275  0.297633  1
  O  O9  1  0.300230  0.305593  0.688661  1
  O  O10  1  0.702193  0.297633  0.707275  1
  O  O11  1  0.300230  0.688661  0.305593  1
  O  O12  1  0.312880  0.690021  0.690021  1
  O  O13  1  0.713203  0.289860  0.289860  1
  O  O14  1  0.547807  0.542725  0.952367  1
  O  O15  1  0.949770  0.944407  0.561339  1
  O  O16  1  0.547807  0.952367  0.542725  1
  O  O17  1  0.949770  0.561339  0.944407  1
  O  O18  1  0.937120  0.559979  0.559979  1
  O  O19  1  0.536797  0.960140  0.960140  1
  O  O20  1  0.222889  0.259275  0.259275  1
  O  O21  1  0.027111  0.990725  0.990725  1
