# generated using pymatgen
data_Gd3DyB16
_symmetry_space_group_name_H-M   'P 1'
_cell_length_a   7.12982095
_cell_length_b   7.12982095
_cell_length_c   4.04172300
_cell_angle_alpha   90.00000000
_cell_angle_beta   90.00000000
_cell_angle_gamma   89.86497783
_symmetry_Int_Tables_number   1
_chemical_formula_structural   Gd3DyB16
_chemical_formula_sum   'Gd3 Dy1 B16'
_cell_volume   205.45777803
_cell_formula_units_Z   1
loop_
 _symmetry_equiv_pos_site_id
 _symmetry_equiv_pos_as_xyz
  1  'x, y, z'
loop_
 _atom_site_type_symbol
 _atom_site_label
 _atom_site_symmetry_multiplicity
 _atom_site_fract_x
 _atom_site_fract_y
 _atom_site_fract_z
 _atom_site_occupancy
  Gd  Gd0  1  0.182564  0.682564  0.000000  1
  Gd  Gd1  1  0.682773  0.817270  0.000000  1
  Gd  Gd2  1  0.317270  0.182773  0.000000  1
  Dy  Dy3  1  0.817688  0.317688  0.000000  1
  B  B4  1  0.324469  0.461460  0.500000  1
  B  B5  1  0.676291  0.537955  0.500000  1
  B  B6  1  0.539558  0.323824  0.500000  1
  B  B7  1  0.461614  0.675550  0.500000  1
  B  B8  1  0.999369  0.000468  0.203361  1
  B  B9  1  0.500468  0.499369  0.796639  1
  B  B10  1  0.999369  0.000468  0.796639  1
  B  B11  1  0.500468  0.499369  0.203361  1
  B  B12  1  0.586752  0.086752  0.500000  1
  B  B13  1  0.086872  0.412682  0.500000  1
  B  B14  1  0.912682  0.586872  0.500000  1
  B  B15  1  0.413005  0.913005  0.500000  1
  B  B16  1  0.037955  0.176291  0.500000  1
  B  B17  1  0.175550  0.961614  0.500000  1
  B  B18  1  0.823824  0.039558  0.500000  1
  B  B19  1  0.961460  0.824469  0.500000  1
