# generated using pymatgen
data_Na4LaNpS6
_symmetry_space_group_name_H-M   'P 1'
_cell_length_a   7.04852766
_cell_length_b   7.04852833
_cell_length_c   7.00729100
_cell_angle_alpha   80.23837667
_cell_angle_beta   80.23838398
_cell_angle_gamma   119.96180479
_symmetry_Int_Tables_number   1
_chemical_formula_structural   Na4LaNpS6
_chemical_formula_sum   'Na4 La1 Np1 S6'
_cell_volume   283.76040706
_cell_formula_units_Z   1
loop_
 _symmetry_equiv_pos_site_id
 _symmetry_equiv_pos_as_xyz
  1  'x, y, z'
loop_
 _atom_site_type_symbol
 _atom_site_label
 _atom_site_symmetry_multiplicity
 _atom_site_fract_x
 _atom_site_fract_y
 _atom_site_fract_z
 _atom_site_occupancy
  Na  Na0  1  0.000158  0.999842  0.000000  1
  Na  Na1  1  0.499937  0.500063  0.500000  1
  Na  Na2  1  0.838553  0.161447  0.500000  1
  Na  Na3  1  0.160766  0.839234  0.500000  1
  La  La4  1  0.666406  0.333594  0.000000  1
  Np  Np5  1  0.332810  0.667190  0.000000  1
  S  S6  1  0.263524  0.286215  0.232430  1
  S  S7  1  0.419076  0.054126  0.767780  1
  S  S8  1  0.102614  0.443505  0.773274  1
  S  S9  1  0.713785  0.736476  0.767570  1
  S  S10  1  0.556495  0.897386  0.226726  1
  S  S11  1  0.945874  0.580924  0.232220  1
