# generated using pymatgen
data_Tm2Lu18HgBi11
_symmetry_space_group_name_H-M   'P 1'
_cell_length_a   8.10580377
_cell_length_b   9.38709600
_cell_length_c   11.79907679
_cell_angle_alpha   90.00000000
_cell_angle_beta   89.70351711
_cell_angle_gamma   90.00000000
_symmetry_Int_Tables_number   1
_chemical_formula_structural   Tm2Lu18HgBi11
_chemical_formula_sum   'Tm2 Lu18 Hg1 Bi11'
_cell_volume   897.77923963
_cell_formula_units_Z   1
loop_
 _symmetry_equiv_pos_site_id
 _symmetry_equiv_pos_as_xyz
  1  'x, y, z'
loop_
 _atom_site_type_symbol
 _atom_site_label
 _atom_site_symmetry_multiplicity
 _atom_site_fract_x
 _atom_site_fract_y
 _atom_site_fract_z
 _atom_site_occupancy
  Tm  Tm0  1  0.808459  0.750000  0.216306  1
  Tm  Tm1  1  0.312147  0.750000  0.282286  1
  Lu  Lu2  1  0.034142  0.250000  0.508135  1
  Lu  Lu3  1  0.979486  0.750000  0.490247  1
  Lu  Lu4  1  0.476539  0.750000  0.009931  1
  Lu  Lu5  1  0.524428  0.250000  0.990148  1
  Lu  Lu6  1  0.353904  0.250000  0.290014  1
  Lu  Lu7  1  0.648684  0.750000  0.718297  1
  Lu  Lu8  1  0.149245  0.750000  0.782204  1
  Lu  Lu9  1  0.852755  0.250000  0.215808  1
  Lu  Lu10  1  0.193720  0.250000  0.779927  1
  Lu  Lu11  1  0.679936  0.250000  0.712033  1
  Lu  Lu12  1  0.193033  0.067401  0.060667  1
  Lu  Lu13  1  0.806802  0.932567  0.940637  1
  Lu  Lu14  1  0.307347  0.945225  0.559666  1
  Lu  Lu15  1  0.806802  0.567433  0.940637  1
  Lu  Lu16  1  0.687565  0.071331  0.443916  1
  Lu  Lu17  1  0.193033  0.432599  0.060667  1
  Lu  Lu18  1  0.687565  0.428669  0.443916  1
  Lu  Lu19  1  0.307347  0.554775  0.559666  1
  Hg  Hg20  1  0.405666  0.250000  0.540701  1
  Bi  Bi21  1  0.596032  0.750000  0.458326  1
  Bi  Bi22  1  0.097128  0.750000  0.042756  1
  Bi  Bi23  1  0.904023  0.250000  0.953428  1
  Bi  Bi24  1  0.060564  0.002255  0.322916  1
  Bi  Bi25  1  0.936780  0.997803  0.676242  1
  Bi  Bi26  1  0.436770  0.996653  0.825579  1
  Bi  Bi27  1  0.936780  0.502197  0.676242  1
  Bi  Bi28  1  0.562994  0.004363  0.175105  1
  Bi  Bi29  1  0.060564  0.497745  0.322916  1
  Bi  Bi30  1  0.562994  0.495637  0.175105  1
  Bi  Bi31  1  0.436770  0.503347  0.825579  1
