# generated using pymatgen
data_Ce5Nd11(CdTc)4
_symmetry_space_group_name_H-M   'P 1'
_cell_length_a   9.88171815
_cell_length_b   9.86533813
_cell_length_c   9.86533830
_cell_angle_alpha   61.24927897
_cell_angle_beta   59.94506561
_cell_angle_gamma   59.94506812
_symmetry_Int_Tables_number   1
_chemical_formula_structural   Ce5Nd11(CdTc)4
_chemical_formula_sum   'Ce5 Nd11 Cd4 Tc4'
_cell_volume   685.65641235
_cell_formula_units_Z   1
loop_
 _symmetry_equiv_pos_site_id
 _symmetry_equiv_pos_as_xyz
  1  'x, y, z'
loop_
 _atom_site_type_symbol
 _atom_site_label
 _atom_site_symmetry_multiplicity
 _atom_site_fract_x
 _atom_site_fract_y
 _atom_site_fract_z
 _atom_site_occupancy
  Ce  Ce0  1  0.606639  0.589386  0.589386  1
  Ce  Ce1  1  0.585043  0.607689  0.222226  1
  Ce  Ce2  1  0.585043  0.222226  0.607689  1
  Ce  Ce3  1  0.214588  0.589386  0.589386  1
  Ce  Ce4  1  0.063046  0.436954  0.436954  1
  Nd  Nd5  1  0.440779  0.059221  0.059221  1
  Nd  Nd6  1  0.442828  0.056438  0.441275  1
  Nd  Nd7  1  0.059459  0.441275  0.056438  1
  Nd  Nd8  1  0.442828  0.441275  0.056438  1
  Nd  Nd9  1  0.059459  0.056438  0.441275  1
  Nd  Nd10  1  0.190870  0.809130  0.809130  1
  Nd  Nd11  1  0.809558  0.190442  0.190442  1
  Nd  Nd12  1  0.813593  0.189907  0.808560  1
  Nd  Nd13  1  0.187940  0.808560  0.189907  1
  Nd  Nd14  1  0.813593  0.808560  0.189907  1
  Nd  Nd15  1  0.187940  0.189907  0.808560  1
  Cd  Cd16  1  0.829763  0.829825  0.829825  1
  Cd  Cd17  1  0.826242  0.835480  0.512036  1
  Cd  Cd18  1  0.826242  0.512036  0.835480  1
  Cd  Cd19  1  0.510587  0.829825  0.829825  1
  Tc  Tc20  1  0.339563  0.410157  0.410157  1
  Tc  Tc21  1  0.412137  0.374810  0.800917  1
  Tc  Tc22  1  0.412137  0.800917  0.374810  1
  Tc  Tc23  1  0.840124  0.410157  0.410157  1
