# generated using pymatgen
data_Ca4SmIr2
_symmetry_space_group_name_H-M   'P 1'
_cell_length_a   8.69112128
_cell_length_b   8.69112189
_cell_length_c   7.44900666
_cell_angle_alpha   82.78271631
_cell_angle_beta   82.78271641
_cell_angle_gamma   45.09252282
_symmetry_Int_Tables_number   1
_chemical_formula_structural   Ca4SmIr2
_chemical_formula_sum   'Ca8 Sm2 Ir4'
_cell_volume   394.80211977
_cell_formula_units_Z   2
loop_
 _symmetry_equiv_pos_site_id
 _symmetry_equiv_pos_as_xyz
  1  'x, y, z'
loop_
 _atom_site_type_symbol
 _atom_site_label
 _atom_site_symmetry_multiplicity
 _atom_site_fract_x
 _atom_site_fract_y
 _atom_site_fract_z
 _atom_site_occupancy
  Ca  Ca0  1  0.018682  0.806907  0.417511  1
  Ca  Ca1  1  0.193093  0.981318  0.082489  1
  Ca  Ca2  1  0.981318  0.193093  0.582489  1
  Ca  Ca3  1  0.806907  0.018682  0.917511  1
  Ca  Ca4  1  0.359061  0.204442  0.320186  1
  Ca  Ca5  1  0.795558  0.640939  0.179814  1
  Ca  Ca6  1  0.640939  0.795558  0.679814  1
  Ca  Ca7  1  0.204442  0.359061  0.820186  1
  Sm  Sm8  1  0.564977  0.435023  0.250000  1
  Sm  Sm9  1  0.435023  0.564977  0.750000  1
  Ir  Ir10  1  0.186907  0.600184  0.076408  1
  Ir  Ir11  1  0.399816  0.813093  0.423592  1
  Ir  Ir12  1  0.813093  0.399816  0.923592  1
  Ir  Ir13  1  0.600184  0.186907  0.576408  1
