# generated using pymatgen
data_Dy8Y4ZnCo4Pb
_symmetry_space_group_name_H-M   'P 1'
_cell_length_a   8.39004092
_cell_length_b   8.39004080
_cell_length_c   8.39003993
_cell_angle_alpha   109.84090388
_cell_angle_beta   111.42707258
_cell_angle_gamma   107.17395524
_symmetry_Int_Tables_number   1
_chemical_formula_structural   Dy8Y4ZnCo4Pb
_chemical_formula_sum   'Dy8 Y4 Zn1 Co4 Pb1'
_cell_volume   454.00651735
_cell_formula_units_Z   1
loop_
 _symmetry_equiv_pos_site_id
 _symmetry_equiv_pos_as_xyz
  1  'x, y, z'
loop_
 _atom_site_type_symbol
 _atom_site_label
 _atom_site_symmetry_multiplicity
 _atom_site_fract_x
 _atom_site_fract_y
 _atom_site_fract_z
 _atom_site_occupancy
  Dy  Dy0  1  0.287710  0.183429  0.471139  1
  Dy  Dy1  1  0.712290  0.816571  0.528861  1
  Dy  Dy2  1  0.287710  0.816571  0.104283  1
  Dy  Dy3  1  0.712290  0.183429  0.895717  1
  Dy  Dy4  1  0.620501  0.314056  0.306445  1
  Dy  Dy5  1  0.379499  0.685944  0.693555  1
  Dy  Dy6  1  0.007611  0.314056  0.693555  1
  Dy  Dy7  1  0.992389  0.685944  0.306445  1
  Y  Y8  1  0.219998  0.424766  0.204769  1
  Y  Y9  1  0.780002  0.575234  0.795231  1
  Y  Y10  1  0.219998  0.015229  0.795231  1
  Y  Y11  1  0.780002  0.984771  0.204769  1
  Zn  Zn12  1  0.000000  0.000000  0.000000  1
  Co  Co13  1  0.000000  0.379226  0.379226  1
  Co  Co14  1  0.000000  0.620774  0.620774  1
  Co  Co15  1  0.388622  0.888622  0.500000  1
  Co  Co16  1  0.611378  0.111378  0.500000  1
  Pb  Pb17  1  0.500000  0.500000  0.000000  1
