# generated using pymatgen
data_Hf6Zr4AlSn6Sb
_symmetry_space_group_name_H-M   'P 1'
_cell_length_a   8.75733908
_cell_length_b   8.75902410
_cell_length_c   5.90624306
_cell_angle_alpha   89.98383572
_cell_angle_beta   90.00813179
_cell_angle_gamma   120.00642254
_symmetry_Int_Tables_number   1
_chemical_formula_structural   Hf6Zr4AlSn6Sb
_chemical_formula_sum   'Hf6 Zr4 Al1 Sn6 Sb1'
_cell_volume   392.32113632
_cell_formula_units_Z   1
loop_
 _symmetry_equiv_pos_site_id
 _symmetry_equiv_pos_as_xyz
  1  'x, y, z'
loop_
 _atom_site_type_symbol
 _atom_site_label
 _atom_site_symmetry_multiplicity
 _atom_site_fract_x
 _atom_site_fract_y
 _atom_site_fract_z
 _atom_site_occupancy
  Hf  Hf0  1  0.332989  0.666495  0.000000  1
  Hf  Hf1  1  0.665821  0.332910  0.500000  1
  Hf  Hf2  1  0.665697  0.332848  0.000000  1
  Hf  Hf3  1  0.332944  0.666472  0.500000  1
  Hf  Hf4  1  0.276905  0.000525  0.261780  1
  Hf  Hf5  1  0.276906  0.276381  0.738221  1
  Zr  Zr6  1  0.000199  0.724122  0.738914  1
  Zr  Zr7  1  0.000199  0.276076  0.261086  1
  Zr  Zr8  1  0.723796  0.724206  0.260255  1
  Zr  Zr9  1  0.723795  0.999590  0.739741  1
  Al  Al10  1  0.000705  0.000353  0.500001  1
  Sn  Sn11  1  0.610771  0.999959  0.248352  1
  Sn  Sn12  1  0.610771  0.610812  0.751648  1
  Sn  Sn13  1  0.000328  0.388031  0.751856  1
  Sn  Sn14  1  0.000329  0.612296  0.248145  1
  Sn  Sn15  1  0.388132  0.387807  0.248192  1
  Sn  Sn16  1  0.388132  0.000324  0.751810  1
  Sb  Sb17  1  0.001582  0.000792  0.999999  1
