# generated using pymatgen
data_LuRuF7
_symmetry_space_group_name_H-M   'P 1'
_cell_length_a   5.44065800
_cell_length_b   8.72005742
_cell_length_c   11.77337134
_cell_angle_alpha   63.44387388
_cell_angle_beta   90.00000000
_cell_angle_gamma   90.00000000
_symmetry_Int_Tables_number   1
_chemical_formula_structural   LuRuF7
_chemical_formula_sum   'Lu4 Ru4 F28'
_cell_volume   499.63220693
_cell_formula_units_Z   4
loop_
 _symmetry_equiv_pos_site_id
 _symmetry_equiv_pos_as_xyz
  1  'x, y, z'
loop_
 _atom_site_type_symbol
 _atom_site_label
 _atom_site_symmetry_multiplicity
 _atom_site_fract_x
 _atom_site_fract_y
 _atom_site_fract_z
 _atom_site_occupancy
  Lu  Lu0  1  0.260202  0.814602  0.265557  1
  Lu  Lu1  1  0.739798  0.185398  0.734443  1
  Lu  Lu2  1  0.760202  0.185398  0.234443  1
  Lu  Lu3  1  0.239798  0.814602  0.765557  1
  Ru  Ru4  1  0.758977  0.726904  0.043270  1
  Ru  Ru5  1  0.241023  0.273096  0.956730  1
  Ru  Ru6  1  0.258977  0.273096  0.456730  1
  Ru  Ru7  1  0.741023  0.726904  0.543270  1
  F  F8  1  0.942667  0.707054  0.413324  1
  F  F9  1  0.057333  0.292946  0.586676  1
  F  F10  1  0.442667  0.292946  0.086676  1
  F  F11  1  0.557333  0.707054  0.913324  1
  F  F12  1  0.465381  0.729666  0.138840  1
  F  F13  1  0.534619  0.270334  0.861160  1
  F  F14  1  0.965381  0.270334  0.361160  1
  F  F15  1  0.034619  0.729666  0.638840  1
  F  F16  1  0.958111  0.746400  0.176003  1
  F  F17  1  0.041889  0.253600  0.823997  1
  F  F18  1  0.458111  0.253600  0.323997  1
  F  F19  1  0.541889  0.746400  0.676003  1
  F  F20  1  0.770267  0.481497  0.139562  1
  F  F21  1  0.229733  0.518503  0.860438  1
  F  F22  1  0.270267  0.518503  0.360438  1
  F  F23  1  0.729733  0.481497  0.639562  1
  F  F24  1  0.939493  0.277171  0.047841  1
  F  F25  1  0.060507  0.722829  0.952159  1
  F  F26  1  0.439493  0.722829  0.452159  1
  F  F27  1  0.560507  0.277171  0.547841  1
  F  F28  1  0.739626  0.971325  0.449678  1
  F  F29  1  0.260374  0.028675  0.550322  1
  F  F30  1  0.239626  0.028675  0.050322  1
  F  F31  1  0.760374  0.971325  0.949678  1
  F  F32  1  0.583912  0.971056  0.231187  1
  F  F33  1  0.416088  0.028944  0.768813  1
  F  F34  1  0.083912  0.028944  0.268813  1
  F  F35  1  0.916088  0.971056  0.731187  1
