# generated using pymatgen
data_U3Co7Ni13B6
_symmetry_space_group_name_H-M   'P 1'
_cell_length_a   7.59074200
_cell_length_b   7.59074204
_cell_length_c   7.59074204
_cell_angle_alpha   60.07065309
_cell_angle_beta   60.07065367
_cell_angle_gamma   60.07065563
_symmetry_Int_Tables_number   1
_chemical_formula_structural   U3Co7Ni13B6
_chemical_formula_sum   'U3 Co7 Ni13 B6'
_cell_volume   309.76513154
_cell_formula_units_Z   1
loop_
 _symmetry_equiv_pos_site_id
 _symmetry_equiv_pos_as_xyz
  1  'x, y, z'
loop_
 _atom_site_type_symbol
 _atom_site_label
 _atom_site_symmetry_multiplicity
 _atom_site_fract_x
 _atom_site_fract_y
 _atom_site_fract_z
 _atom_site_occupancy
  U  U0  1  0.999612  0.999612  0.999612  1
  U  U1  1  0.749735  0.749735  0.749735  1
  U  U2  1  0.246002  0.246002  0.246002  1
  Co  Co3  1  0.617612  0.617612  0.148548  1
  Co  Co4  1  0.617612  0.148548  0.617612  1
  Co  Co5  1  0.148548  0.617612  0.617612  1
  Co  Co6  1  0.617662  0.617662  0.617662  1
  Co  Co7  1  0.382176  0.382176  0.854193  1
  Co  Co8  1  0.382176  0.854193  0.382176  1
  Co  Co9  1  0.854193  0.382176  0.382176  1
  Ni  Ni10  1  0.386388  0.386388  0.386388  1
  Ni  Ni11  1  0.998398  0.998398  0.343004  1
  Ni  Ni12  1  0.656893  0.000674  0.341920  1
  Ni  Ni13  1  0.000674  0.656893  0.341920  1
  Ni  Ni14  1  0.656893  0.341920  0.000674  1
  Ni  Ni15  1  0.998398  0.343004  0.998398  1
  Ni  Ni16  1  0.000674  0.341920  0.656893  1
  Ni  Ni17  1  0.341920  0.656893  0.000674  1
  Ni  Ni18  1  0.341920  0.000674  0.656893  1
  Ni  Ni19  1  0.343004  0.998398  0.998398  1
  Ni  Ni20  1  0.000299  0.000299  0.657661  1
  Ni  Ni21  1  0.000299  0.657661  0.000299  1
  Ni  Ni22  1  0.657661  0.000299  0.000299  1
  B  B23  1  0.723187  0.723187  0.277250  1
  B  B24  1  0.275826  0.725976  0.275826  1
  B  B25  1  0.725976  0.275826  0.275826  1
  B  B26  1  0.275826  0.275826  0.725976  1
  B  B27  1  0.723187  0.277250  0.723187  1
  B  B28  1  0.277250  0.723187  0.723187  1
