# generated using pymatgen
data_YTm2Zr(NiAs)4
_symmetry_space_group_name_H-M   'P 1'
_cell_length_a   4.01659700
_cell_length_b   4.01659722
_cell_length_c   15.11210900
_cell_angle_alpha   90.00000000
_cell_angle_beta   90.00000000
_cell_angle_gamma   120.00000645
_symmetry_Int_Tables_number   1
_chemical_formula_structural   YTm2Zr(NiAs)4
_chemical_formula_sum   'Y1 Tm2 Zr1 Ni4 As4'
_cell_volume   211.14082946
_cell_formula_units_Z   1
loop_
 _symmetry_equiv_pos_site_id
 _symmetry_equiv_pos_as_xyz
  1  'x, y, z'
loop_
 _atom_site_type_symbol
 _atom_site_label
 _atom_site_symmetry_multiplicity
 _atom_site_fract_x
 _atom_site_fract_y
 _atom_site_fract_z
 _atom_site_occupancy
  Y  Y0  1  0.000000  0.000000  0.005012  1
  Tm  Tm1  1  0.000000  0.000000  0.749335  1
  Tm  Tm2  1  0.000000  0.000000  0.495240  1
  Zr  Zr3  1  0.000000  0.000000  0.251117  1
  Ni  Ni4  1  0.333333  0.666667  0.157782  1
  Ni  Ni5  1  0.666667  0.333333  0.866534  1
  Ni  Ni6  1  0.666667  0.333333  0.630406  1
  Ni  Ni7  1  0.333333  0.666667  0.344244  1
  As  As8  1  0.333333  0.666667  0.617755  1
  As  As9  1  0.666667  0.333333  0.378758  1
  As  As10  1  0.666667  0.333333  0.124338  1
  As  As11  1  0.333333  0.666667  0.879479  1
