# generated using pymatgen
data_Th8Sc11NbSi16
_symmetry_space_group_name_H-M   'P 1'
_cell_length_a   7.47291407
_cell_length_b   7.47291407
_cell_length_c   13.67117031
_cell_angle_alpha   89.92254716
_cell_angle_beta   89.92254716
_cell_angle_gamma   90.09144286
_symmetry_Int_Tables_number   1
_chemical_formula_structural   Th8Sc11NbSi16
_chemical_formula_sum   'Th8 Sc11 Nb1 Si16'
_cell_volume   763.45654524
_cell_formula_units_Z   1
loop_
 _symmetry_equiv_pos_site_id
 _symmetry_equiv_pos_as_xyz
  1  'x, y, z'
loop_
 _atom_site_type_symbol
 _atom_site_label
 _atom_site_symmetry_multiplicity
 _atom_site_fract_x
 _atom_site_fract_y
 _atom_site_fract_z
 _atom_site_occupancy
  Th  Th0  1  0.000418  0.343028  0.215352  1
  Th  Th1  1  0.998092  0.654818  0.716137  1
  Th  Th2  1  0.156540  0.500817  0.465983  1
  Th  Th3  1  0.499183  0.843460  0.034017  1
  Th  Th4  1  0.840851  0.497217  0.963353  1
  Th  Th5  1  0.502783  0.159149  0.536647  1
  Th  Th6  1  0.345182  0.001908  0.783863  1
  Th  Th7  1  0.656972  0.999582  0.284648  1
  Sc  Sc8  1  0.171382  0.171470  0.998730  1
  Sc  Sc9  1  0.828530  0.828618  0.501270  1
  Sc  Sc10  1  0.329455  0.670545  0.250000  1
  Sc  Sc11  1  0.156628  0.998968  0.376209  1
  Sc  Sc12  1  0.841888  0.002845  0.874797  1
  Sc  Sc13  1  0.502983  0.653471  0.628082  1
  Sc  Sc14  1  0.346529  0.497017  0.871918  1
  Sc  Sc15  1  0.497564  0.344442  0.124373  1
  Sc  Sc16  1  0.655558  0.502436  0.375627  1
  Sc  Sc17  1  0.997155  0.158112  0.625203  1
  Sc  Sc18  1  0.001032  0.843372  0.123791  1
  Nb  Nb19  1  0.673032  0.326968  0.750000  1
  Si  Si20  1  0.290264  0.046480  0.185080  1
  Si  Si21  1  0.709689  0.959321  0.686446  1
  Si  Si22  1  0.452745  0.791288  0.435981  1
  Si  Si23  1  0.208712  0.547255  0.064019  1
  Si  Si24  1  0.548843  0.211486  0.931538  1
  Si  Si25  1  0.788514  0.451157  0.568462  1
  Si  Si26  1  0.040679  0.290311  0.813554  1
  Si  Si27  1  0.953520  0.709736  0.314920  1
  Si  Si28  1  0.369395  0.293274  0.318535  1
  Si  Si29  1  0.631420  0.702086  0.816873  1
  Si  Si30  1  0.207866  0.868689  0.568125  1
  Si  Si31  1  0.131311  0.792134  0.931875  1
  Si  Si32  1  0.792462  0.131817  0.067881  1
  Si  Si33  1  0.868183  0.207538  0.432119  1
  Si  Si34  1  0.297914  0.368580  0.683127  1
  Si  Si35  1  0.706726  0.630605  0.181465  1
