# generated using pymatgen
data_Dy5HoLu10(Ga3Co)2
_symmetry_space_group_name_H-M   'P 1'
_cell_length_a   9.82905200
_cell_length_b   9.83760122
_cell_length_c   6.91896700
_cell_angle_alpha   90.00770984
_cell_angle_beta   90.00000000
_cell_angle_gamma   119.97125671
_symmetry_Int_Tables_number   1
_chemical_formula_structural   Dy5HoLu10(Ga3Co)2
_chemical_formula_sum   'Dy5 Ho1 Lu10 Ga6 Co2'
_cell_volume   579.56005772
_cell_formula_units_Z   1
loop_
 _symmetry_equiv_pos_site_id
 _symmetry_equiv_pos_as_xyz
  1  'x, y, z'
loop_
 _atom_site_type_symbol
 _atom_site_label
 _atom_site_symmetry_multiplicity
 _atom_site_fract_x
 _atom_site_fract_y
 _atom_site_fract_z
 _atom_site_occupancy
  Dy  Dy0  1  0.535518  0.464515  0.708344  1
  Dy  Dy1  1  0.928998  0.464515  0.708344  1
  Dy  Dy2  1  0.535811  0.071622  0.708725  1
  Dy  Dy3  1  0.000036  0.000073  0.231723  1
  Dy  Dy4  1  0.999931  0.999862  0.731740  1
  Ho  Ho5  1  0.463543  0.927086  0.208455  1
  Lu  Lu6  1  0.173621  0.825027  0.511627  1
  Lu  Lu7  1  0.651406  0.825027  0.511627  1
  Lu  Lu8  1  0.174479  0.348959  0.510471  1
  Lu  Lu9  1  0.826869  0.175050  0.014009  1
  Lu  Lu10  1  0.348181  0.175050  0.014009  1
  Lu  Lu11  1  0.825607  0.651215  0.014950  1
  Lu  Lu12  1  0.332773  0.665545  0.826816  1
  Lu  Lu13  1  0.667175  0.334349  0.325512  1
  Lu  Lu14  1  0.462688  0.536940  0.207671  1
  Lu  Lu15  1  0.074251  0.536940  0.207671  1
  Ga  Ga16  1  0.163401  0.835792  0.957161  1
  Ga  Ga17  1  0.672391  0.835792  0.957161  1
  Ga  Ga18  1  0.164366  0.328733  0.958080  1
  Ga  Ga19  1  0.836419  0.163287  0.456363  1
  Ga  Ga20  1  0.326869  0.163287  0.456363  1
  Ga  Ga21  1  0.836486  0.672972  0.455410  1
  Co  Co22  1  0.332518  0.665038  0.445432  1
  Co  Co23  1  0.666663  0.333323  0.947171  1
