# generated using pymatgen
data_TbEu5(Lu7Pt8)2
_symmetry_space_group_name_H-M   'P 1'
_cell_length_a   7.41761906
_cell_length_b   7.49220830
_cell_length_c   14.65011300
_cell_angle_alpha   90.00726501
_cell_angle_beta   89.99270055
_cell_angle_gamma   90.03301468
_symmetry_Int_Tables_number   1
_chemical_formula_structural   TbEu5(Lu7Pt8)2
_chemical_formula_sum   'Tb1 Eu5 Lu14 Pt16'
_cell_volume   814.17031688
_cell_formula_units_Z   1
loop_
 _symmetry_equiv_pos_site_id
 _symmetry_equiv_pos_as_xyz
  1  'x, y, z'
loop_
 _atom_site_type_symbol
 _atom_site_label
 _atom_site_symmetry_multiplicity
 _atom_site_fract_x
 _atom_site_fract_y
 _atom_site_fract_z
 _atom_site_occupancy
  Tb  Tb0  1  0.994783  0.818762  0.596096  1
  Eu  Eu1  1  0.504695  0.322282  0.092287  1
  Eu  Eu2  1  0.004102  0.176936  0.408188  1
  Eu  Eu3  1  0.503314  0.324797  0.408677  1
  Eu  Eu4  1  0.004696  0.175431  0.091216  1
  Eu  Eu5  1  0.495166  0.677807  0.905039  1
  Lu  Lu6  1  0.651527  0.165601  0.623198  1
  Lu  Lu7  1  0.151795  0.334757  0.875425  1
  Lu  Lu8  1  0.350870  0.837280  0.121890  1
  Lu  Lu9  1  0.851235  0.663067  0.377737  1
  Lu  Lu10  1  0.352201  0.834679  0.378655  1
  Lu  Lu11  1  0.851198  0.666135  0.121580  1
  Lu  Lu12  1  0.652625  0.163693  0.875541  1
  Lu  Lu13  1  0.151341  0.334673  0.623154  1
  Lu  Lu14  1  0.496112  0.683082  0.597114  1
  Lu  Lu15  1  0.998052  0.817120  0.903182  1
  Lu  Lu16  1  0.813428  0.506856  0.749556  1
  Lu  Lu17  1  0.314914  0.992602  0.749829  1
  Lu  Lu18  1  0.185839  0.492337  0.249309  1
  Lu  Lu19  1  0.686230  0.007737  0.250411  1
  Pt  Pt20  1  0.680040  0.944911  0.464967  1
  Pt  Pt21  1  0.175320  0.550940  0.039952  1
  Pt  Pt22  1  0.310915  0.031955  0.951296  1
  Pt  Pt23  1  0.812239  0.475521  0.549563  1
  Pt  Pt24  1  0.319460  0.024435  0.549734  1
  Pt  Pt25  1  0.828015  0.468054  0.950758  1
  Pt  Pt26  1  0.684278  0.953121  0.037570  1
  Pt  Pt27  1  0.181013  0.553917  0.465543  1
  Pt  Pt28  1  0.447764  0.376199  0.747155  1
  Pt  Pt29  1  0.950433  0.122958  0.750499  1
  Pt  Pt30  1  0.550539  0.633998  0.249398  1
  Pt  Pt31  1  0.051103  0.865998  0.250556  1
  Pt  Pt32  1  0.683817  0.861890  0.745176  1
  Pt  Pt33  1  0.176759  0.640752  0.749450  1
  Pt  Pt34  1  0.317651  0.131221  0.250642  1
  Pt  Pt35  1  0.816528  0.368493  0.249655  1
