# generated using pymatgen
data_Ho5Er3Re2(B12Rh)2
_symmetry_space_group_name_H-M   'P 1'
_cell_length_a   3.66390000
_cell_length_b   9.11852560
_cell_length_c   11.50836600
_cell_angle_alpha   90.42998022
_cell_angle_beta   90.00000000
_cell_angle_gamma   90.00000000
_symmetry_Int_Tables_number   1
_chemical_formula_structural   Ho5Er3Re2(B12Rh)2
_chemical_formula_sum   'Ho5 Er3 Re2 B24 Rh2'
_cell_volume   384.47638420
_cell_formula_units_Z   1
loop_
 _symmetry_equiv_pos_site_id
 _symmetry_equiv_pos_as_xyz
  1  'x, y, z'
loop_
 _atom_site_type_symbol
 _atom_site_label
 _atom_site_symmetry_multiplicity
 _atom_site_fract_x
 _atom_site_fract_y
 _atom_site_fract_z
 _atom_site_occupancy
  Ho  Ho0  1  0.000000  0.318130  0.410845  1
  Ho  Ho1  1  0.000000  0.681926  0.589211  1
  Ho  Ho2  1  0.000000  0.825905  0.082626  1
  Ho  Ho3  1  0.000000  0.174099  0.917302  1
  Ho  Ho4  1  0.000000  0.945183  0.371867  1
  Er  Er5  1  0.000000  0.054771  0.628295  1
  Er  Er6  1  0.000000  0.442481  0.126736  1
  Er  Er7  1  0.000000  0.557533  0.873246  1
  Re  Re8  1  0.000000  0.139108  0.179754  1
  Re  Re9  1  0.000000  0.861082  0.820120  1
  B  B10  1  0.500000  0.554357  0.434237  1
  B  B11  1  0.500000  0.445598  0.565780  1
  B  B12  1  0.500000  0.053090  0.067268  1
  B  B13  1  0.500000  0.946922  0.932696  1
  B  B14  1  0.500000  0.749029  0.421337  1
  B  B15  1  0.500000  0.250750  0.578711  1
  B  B16  1  0.500000  0.248679  0.081111  1
  B  B17  1  0.500000  0.751337  0.918882  1
  B  B18  1  0.500000  0.791033  0.265105  1
  B  B19  1  0.500000  0.208770  0.734826  1
  B  B20  1  0.500000  0.292994  0.234824  1
  B  B21  1  0.500000  0.707065  0.765160  1
  B  B22  1  0.500000  0.632175  0.183359  1
  B  B23  1  0.500000  0.367800  0.816620  1
  B  B24  1  0.500000  0.131851  0.314893  1
  B  B25  1  0.500000  0.868327  0.685023  1
  B  B26  1  0.500000  0.982875  0.212825  1
  B  B27  1  0.500000  0.017251  0.787006  1
  B  B28  1  0.500000  0.483236  0.287756  1
  B  B29  1  0.500000  0.516739  0.712234  1
  B  B30  1  0.500000  0.605605  0.029357  1
  B  B31  1  0.500000  0.394394  0.970635  1
  B  B32  1  0.500000  0.107171  0.471247  1
  B  B33  1  0.500000  0.892976  0.529123  1
  Rh  Rh34  1  0.000000  0.637627  0.321391  1
  Rh  Rh35  1  0.000000  0.362132  0.678592  1
