# generated using pymatgen
data_Co2GeS5
_symmetry_space_group_name_H-M   'P 1'
_cell_length_a   3.37174500
_cell_length_b   6.99081013
_cell_length_c   12.20980170
_cell_angle_alpha   78.27167221
_cell_angle_beta   90.00000000
_cell_angle_gamma   90.00000000
_symmetry_Int_Tables_number   1
_chemical_formula_structural   Co2GeS5
_chemical_formula_sum   'Co4 Ge2 S10'
_cell_volume   281.79146782
_cell_formula_units_Z   2
loop_
 _symmetry_equiv_pos_site_id
 _symmetry_equiv_pos_as_xyz
  1  'x, y, z'
loop_
 _atom_site_type_symbol
 _atom_site_label
 _atom_site_symmetry_multiplicity
 _atom_site_fract_x
 _atom_site_fract_y
 _atom_site_fract_z
 _atom_site_occupancy
  Co  Co0  1  0.000000  0.255851  0.142784  1
  Co  Co1  1  0.000000  0.744149  0.857216  1
  Co  Co2  1  0.500000  0.749682  0.137271  1
  Co  Co3  1  0.500000  0.250318  0.862729  1
  Ge  Ge4  1  0.500000  0.159292  0.684736  1
  Ge  Ge5  1  0.500000  0.840708  0.315264  1
  S  S6  1  0.000000  0.956839  0.096142  1
  S  S7  1  0.000000  0.043161  0.903858  1
  S  S8  1  0.000000  0.459375  0.793185  1
  S  S9  1  0.000000  0.540625  0.206815  1
  S  S10  1  0.500000  0.659216  0.975457  1
  S  S11  1  0.500000  0.340784  0.024543  1
  S  S12  1  0.500000  0.180809  0.269877  1
  S  S13  1  0.500000  0.819191  0.730123  1
  S  S14  1  0.000000  0.236321  0.563362  1
  S  S15  1  0.000000  0.763679  0.436638  1
