# generated using pymatgen
data_Tm2Al8SiOsRh2
_symmetry_space_group_name_H-M   'P 1'
_cell_length_a   7.50021336
_cell_length_b   7.50021319
_cell_length_c   9.33049600
_cell_angle_alpha   90.00000000
_cell_angle_beta   90.00000000
_cell_angle_gamma   118.99593051
_symmetry_Int_Tables_number   1
_chemical_formula_structural   Tm2Al8SiOsRh2
_chemical_formula_sum   'Tm4 Al16 Si2 Os2 Rh4'
_cell_volume   459.07993683
_cell_formula_units_Z   2
loop_
 _symmetry_equiv_pos_site_id
 _symmetry_equiv_pos_as_xyz
  1  'x, y, z'
loop_
 _atom_site_type_symbol
 _atom_site_label
 _atom_site_symmetry_multiplicity
 _atom_site_fract_x
 _atom_site_fract_y
 _atom_site_fract_z
 _atom_site_occupancy
  Tm  Tm0  1  0.993650  0.683082  0.250000  1
  Tm  Tm1  1  0.006350  0.316918  0.750000  1
  Tm  Tm2  1  0.683082  0.993650  0.250000  1
  Tm  Tm3  1  0.316918  0.006350  0.750000  1
  Al  Al4  1  0.001933  0.338818  0.076920  1
  Al  Al5  1  0.998067  0.661182  0.923080  1
  Al  Al6  1  0.998067  0.661182  0.576920  1
  Al  Al7  1  0.338818  0.001933  0.423080  1
  Al  Al8  1  0.001933  0.338818  0.423080  1
  Al  Al9  1  0.661182  0.998067  0.576920  1
  Al  Al10  1  0.661182  0.998067  0.923080  1
  Al  Al11  1  0.338818  0.001933  0.076920  1
  Al  Al12  1  0.333607  0.333607  0.550298  1
  Al  Al13  1  0.666393  0.666393  0.449702  1
  Al  Al14  1  0.666393  0.666393  0.050298  1
  Al  Al15  1  0.333607  0.333607  0.949702  1
  Al  Al16  1  0.338595  0.554177  0.250000  1
  Al  Al17  1  0.661405  0.445823  0.750000  1
  Al  Al18  1  0.554177  0.338595  0.250000  1
  Al  Al19  1  0.445823  0.661405  0.750000  1
  Si  Si20  1  0.132987  0.132987  0.250000  1
  Si  Si21  1  0.867013  0.867013  0.750000  1
  Os  Os22  1  0.000000  0.000000  0.000000  1
  Os  Os23  1  0.000000  0.000000  0.500000  1
  Rh  Rh24  1  0.671891  0.328109  0.000000  1
  Rh  Rh25  1  0.328109  0.671891  0.000000  1
  Rh  Rh26  1  0.328109  0.671891  0.500000  1
  Rh  Rh27  1  0.671891  0.328109  0.500000  1
