# generated using pymatgen
data_CePuTh(B2C)3
_symmetry_space_group_name_H-M   'P 1'
_cell_length_a   5.34019208
_cell_length_b   5.34019222
_cell_length_c   5.34019192
_cell_angle_alpha   76.48579033
_cell_angle_beta   76.48578927
_cell_angle_gamma   76.48578065
_symmetry_Int_Tables_number   1
_chemical_formula_structural   CePuTh(B2C)3
_chemical_formula_sum   'Ce1 Pu1 Th1 B6 C3'
_cell_volume   141.36677568
_cell_formula_units_Z   1
loop_
 _symmetry_equiv_pos_site_id
 _symmetry_equiv_pos_as_xyz
  1  'x, y, z'
loop_
 _atom_site_type_symbol
 _atom_site_label
 _atom_site_symmetry_multiplicity
 _atom_site_fract_x
 _atom_site_fract_y
 _atom_site_fract_z
 _atom_site_occupancy
  Ce  Ce0  1  0.312474  0.312474  0.312474  1
  Pu  Pu1  1  0.687159  0.687159  0.687159  1
  Th  Th2  1  0.999074  0.999074  0.999074  1
  B  B3  1  0.502398  0.775282  0.227446  1
  B  B4  1  0.227446  0.502398  0.775282  1
  B  B5  1  0.775282  0.227446  0.502398  1
  B  B6  1  0.502398  0.227446  0.775282  1
  B  B7  1  0.227446  0.775282  0.502398  1
  B  B8  1  0.775282  0.502398  0.227446  1
  C  C9  1  0.996107  0.996107  0.498825  1
  C  C10  1  0.996107  0.498825  0.996107  1
  C  C11  1  0.498825  0.996107  0.996107  1
