# generated using pymatgen
data_Tb4Al18PtRh5
_symmetry_space_group_name_H-M   'P 1'
_cell_length_a   7.56551453
_cell_length_b   7.56551460
_cell_length_c   9.47268600
_cell_angle_alpha   89.99917442
_cell_angle_beta   89.99917581
_cell_angle_gamma   119.47066378
_symmetry_Int_Tables_number   1
_chemical_formula_structural   Tb4Al18PtRh5
_chemical_formula_sum   'Tb4 Al18 Pt1 Rh5'
_cell_volume   472.03325221
_cell_formula_units_Z   1
loop_
 _symmetry_equiv_pos_site_id
 _symmetry_equiv_pos_as_xyz
  1  'x, y, z'
loop_
 _atom_site_type_symbol
 _atom_site_label
 _atom_site_symmetry_multiplicity
 _atom_site_fract_x
 _atom_site_fract_y
 _atom_site_fract_z
 _atom_site_occupancy
  Tb  Tb0  1  0.994851  0.670566  0.250090  1
  Tb  Tb1  1  0.005190  0.329055  0.750126  1
  Tb  Tb2  1  0.670945  0.994810  0.249874  1
  Tb  Tb3  1  0.329434  0.005149  0.749910  1
  Al  Al4  1  0.127830  0.127321  0.250071  1
  Al  Al5  1  0.872679  0.872170  0.749929  1
  Al  Al6  1  0.004282  0.335136  0.075965  1
  Al  Al7  1  0.002521  0.668377  0.924190  1
  Al  Al8  1  0.999538  0.664777  0.574424  1
  Al  Al9  1  0.335223  0.000462  0.425576  1
  Al  Al10  1  0.001067  0.335013  0.425294  1
  Al  Al11  1  0.664987  0.998933  0.574706  1
  Al  Al12  1  0.664864  0.995718  0.924035  1
  Al  Al13  1  0.331623  0.997479  0.075810  1
  Al  Al14  1  0.332919  0.332981  0.550138  1
  Al  Al15  1  0.667019  0.667081  0.449862  1
  Al  Al16  1  0.666521  0.669990  0.051403  1
  Al  Al17  1  0.330010  0.333479  0.948597  1
  Al  Al18  1  0.340006  0.549537  0.250055  1
  Al  Al19  1  0.660161  0.453066  0.747031  1
  Al  Al20  1  0.546934  0.339839  0.252969  1
  Al  Al21  1  0.450463  0.659994  0.749945  1
  Pt  Pt22  1  0.672248  0.327752  0.000000  1
  Rh  Rh23  1  0.328226  0.671774  0.000000  1
  Rh  Rh24  1  0.328319  0.671681  0.500000  1
  Rh  Rh25  1  0.672028  0.327972  0.500000  1
  Rh  Rh26  1  0.000004  0.999996  0.000000  1
  Rh  Rh27  1  0.000110  0.999890  0.500000  1
