# generated using pymatgen
data_Tb18CdIr12Pb
_symmetry_space_group_name_H-M   'P 1'
_cell_length_a   10.91287900
_cell_length_b   10.91287900
_cell_length_c   6.32566300
_cell_angle_alpha   90.00000000
_cell_angle_beta   90.00000000
_cell_angle_gamma   90.00000000
_symmetry_Int_Tables_number   1
_chemical_formula_structural   Tb18CdIr12Pb
_chemical_formula_sum   'Tb18 Cd1 Ir12 Pb1'
_cell_volume   753.32907732
_cell_formula_units_Z   1
loop_
 _symmetry_equiv_pos_site_id
 _symmetry_equiv_pos_as_xyz
  1  'x, y, z'
loop_
 _atom_site_type_symbol
 _atom_site_label
 _atom_site_symmetry_multiplicity
 _atom_site_fract_x
 _atom_site_fract_y
 _atom_site_fract_z
 _atom_site_occupancy
  Tb  Tb0  1  0.282613  0.084592  0.382032  1
  Tb  Tb1  1  0.292552  0.911323  0.877736  1
  Tb  Tb2  1  0.707448  0.088677  0.877736  1
  Tb  Tb3  1  0.717387  0.915408  0.382032  1
  Tb  Tb4  1  0.587003  0.786249  0.881121  1
  Tb  Tb5  1  0.587629  0.206313  0.378490  1
  Tb  Tb6  1  0.412371  0.793687  0.378490  1
  Tb  Tb7  1  0.412997  0.213751  0.881121  1
  Tb  Tb8  1  0.206313  0.412371  0.621510  1
  Tb  Tb9  1  0.213751  0.587003  0.118879  1
  Tb  Tb10  1  0.786249  0.412997  0.118879  1
  Tb  Tb11  1  0.793687  0.587629  0.621510  1
  Tb  Tb12  1  0.911323  0.707448  0.122264  1
  Tb  Tb13  1  0.915408  0.282613  0.617968  1
  Tb  Tb14  1  0.084592  0.717387  0.617968  1
  Tb  Tb15  1  0.088677  0.292552  0.122264  1
  Tb  Tb16  1  0.000000  0.000000  0.000000  1
  Tb  Tb17  1  0.500000  0.500000  0.500000  1
  Cd  Cd18  1  0.000000  0.000000  0.500000  1
  Ir  Ir19  1  0.845200  0.159496  0.237120  1
  Ir  Ir20  1  0.840504  0.845200  0.762880  1
  Ir  Ir21  1  0.159496  0.154800  0.762880  1
  Ir  Ir22  1  0.154800  0.840504  0.237120  1
  Ir  Ir23  1  0.660359  0.344253  0.737937  1
  Ir  Ir24  1  0.655747  0.660359  0.262063  1
  Ir  Ir25  1  0.344253  0.339641  0.262063  1
  Ir  Ir26  1  0.339641  0.655747  0.737937  1
  Ir  Ir27  1  0.500000  0.000000  0.121086  1
  Ir  Ir28  1  0.500000  0.000000  0.620573  1
  Ir  Ir29  1  0.000000  0.500000  0.878914  1
  Ir  Ir30  1  0.000000  0.500000  0.379427  1
  Pb  Pb31  1  0.500000  0.500000  0.000000  1
