# generated using pymatgen
data_Ce5Si2Os3
_symmetry_space_group_name_H-M   'P 1'
_cell_length_a   8.30977849
_cell_length_b   8.30977987
_cell_length_c   8.30978000
_cell_angle_alpha   109.47122340
_cell_angle_beta   109.47122675
_cell_angle_gamma   109.47122496
_symmetry_Int_Tables_number   1
_chemical_formula_structural   Ce5Si2Os3
_chemical_formula_sum   'Ce10 Si4 Os6'
_cell_volume   441.71945829
_cell_formula_units_Z   2
loop_
 _symmetry_equiv_pos_site_id
 _symmetry_equiv_pos_as_xyz
  1  'x, y, z'
loop_
 _atom_site_type_symbol
 _atom_site_label
 _atom_site_symmetry_multiplicity
 _atom_site_fract_x
 _atom_site_fract_y
 _atom_site_fract_z
 _atom_site_occupancy
  Ce  Ce0  1  0.771972  0.771972  0.771972  1
  Ce  Ce1  1  0.300740  0.550740  0.750000  1
  Ce  Ce2  1  0.750000  0.300740  0.550740  1
  Ce  Ce3  1  0.550740  0.750000  0.300740  1
  Ce  Ce4  1  0.728028  0.500000  0.000000  1
  Ce  Ce5  1  0.000000  0.728028  0.500000  1
  Ce  Ce6  1  0.500000  0.000000  0.728028  1
  Ce  Ce7  1  0.250000  0.199260  0.949260  1
  Ce  Ce8  1  0.949260  0.250000  0.199260  1
  Ce  Ce9  1  0.199260  0.949260  0.250000  1
  Si  Si10  1  0.389650  0.389650  0.389650  1
  Si  Si11  1  0.110350  0.500000  0.000000  1
  Si  Si12  1  0.000000  0.110350  0.500000  1
  Si  Si13  1  0.500000  0.000000  0.110350  1
  Os  Os14  1  0.884661  0.134661  0.750000  1
  Os  Os15  1  0.750000  0.884661  0.134661  1
  Os  Os16  1  0.134661  0.750000  0.884661  1
  Os  Os17  1  0.250000  0.615339  0.365339  1
  Os  Os18  1  0.365339  0.250000  0.615339  1
  Os  Os19  1  0.615339  0.365339  0.250000  1
