# generated using pymatgen
data_TbY18Er(CoBi2)4
_symmetry_space_group_name_H-M   'P 1'
_cell_length_a   8.05470781
_cell_length_b   8.91828962
_cell_length_c   12.45157001
_cell_angle_alpha   89.98546397
_cell_angle_beta   90.02201058
_cell_angle_gamma   89.97745476
_symmetry_Int_Tables_number   1
_chemical_formula_structural   TbY18Er(CoBi2)4
_chemical_formula_sum   'Tb1 Y18 Er1 Co4 Bi8'
_cell_volume   894.44861928
_cell_formula_units_Z   1
loop_
 _symmetry_equiv_pos_site_id
 _symmetry_equiv_pos_as_xyz
  1  'x, y, z'
loop_
 _atom_site_type_symbol
 _atom_site_label
 _atom_site_symmetry_multiplicity
 _atom_site_fract_x
 _atom_site_fract_y
 _atom_site_fract_z
 _atom_site_occupancy
  Tb  Tb0  1  0.675063  0.034249  0.436842  1
  Y  Y1  1  0.652913  0.750838  0.699051  1
  Y  Y2  1  0.346703  0.249244  0.301058  1
  Y  Y3  1  0.153340  0.250457  0.801005  1
  Y  Y4  1  0.846729  0.749505  0.198983  1
  Y  Y5  1  0.120643  0.749135  0.809795  1
  Y  Y6  1  0.879438  0.250848  0.190156  1
  Y  Y7  1  0.620731  0.248756  0.690006  1
  Y  Y8  1  0.378649  0.751381  0.310040  1
  Y  Y9  1  0.545382  0.749941  0.998009  1
  Y  Y10  1  0.454579  0.250101  0.001990  1
  Y  Y11  1  0.046256  0.247840  0.502067  1
  Y  Y12  1  0.954413  0.752117  0.497907  1
  Y  Y13  1  0.823791  0.465706  0.936074  1
  Y  Y14  1  0.176199  0.534260  0.063909  1
  Y  Y15  1  0.323640  0.534119  0.563243  1
  Y  Y16  1  0.176162  0.965751  0.063703  1
  Y  Y17  1  0.676469  0.466149  0.436782  1
  Y  Y18  1  0.823852  0.034319  0.936327  1
  Er  Er19  1  0.326049  0.965392  0.563187  1
  Co  Co20  1  0.939530  0.749865  0.991756  1
  Co  Co21  1  0.060491  0.250141  0.008213  1
  Co  Co22  1  0.440444  0.247990  0.507984  1
  Co  Co23  1  0.558337  0.752097  0.492291  1
  Bi  Bi24  1  0.931493  0.007830  0.674422  1
  Bi  Bi25  1  0.068891  0.992061  0.325408  1
  Bi  Bi26  1  0.429196  0.991644  0.826130  1
  Bi  Bi27  1  0.070366  0.508242  0.327082  1
  Bi  Bi28  1  0.570656  0.008264  0.173641  1
  Bi  Bi29  1  0.929607  0.491763  0.672896  1
  Bi  Bi30  1  0.569328  0.492027  0.174278  1
  Bi  Bi31  1  0.430659  0.507966  0.825764  1
