# generated using pymatgen
data_Y3Er5Cd2IrPd
_symmetry_space_group_name_H-M   'P 1'
_cell_length_a   9.62665520
_cell_length_b   9.62665466
_cell_length_c   9.59856200
_cell_angle_alpha   60.09648696
_cell_angle_beta   60.09648881
_cell_angle_gamma   60.31111553
_symmetry_Int_Tables_number   1
_chemical_formula_structural   Y3Er5Cd2IrPd
_chemical_formula_sum   'Y6 Er10 Cd4 Ir2 Pd2'
_cell_volume   631.37525719
_cell_formula_units_Z   2
loop_
 _symmetry_equiv_pos_site_id
 _symmetry_equiv_pos_as_xyz
  1  'x, y, z'
loop_
 _atom_site_type_symbol
 _atom_site_label
 _atom_site_symmetry_multiplicity
 _atom_site_fract_x
 _atom_site_fract_y
 _atom_site_fract_z
 _atom_site_occupancy
  Y  Y0  1  0.937725  0.564981  0.561157  1
  Y  Y1  1  0.564981  0.937725  0.936137  1
  Y  Y2  1  0.564981  0.937725  0.561157  1
  Y  Y3  1  0.937725  0.564981  0.936137  1
  Y  Y4  1  0.563169  0.563169  0.936831  1
  Y  Y5  1  0.937061  0.937061  0.562939  1
  Er  Er6  1  0.351455  0.351455  0.344597  1
  Er  Er7  1  0.351455  0.351455  0.952494  1
  Er  Er8  1  0.359316  0.941231  0.349726  1
  Er  Er9  1  0.941231  0.359316  0.349726  1
  Er  Er10  1  0.806263  0.189750  0.189428  1
  Er  Er11  1  0.189750  0.806263  0.814559  1
  Er  Er12  1  0.189750  0.806263  0.189428  1
  Er  Er13  1  0.806263  0.189750  0.814559  1
  Er  Er14  1  0.190820  0.190820  0.809180  1
  Er  Er15  1  0.811821  0.811821  0.188179  1
  Cd  Cd16  1  0.580808  0.580808  0.581896  1
  Cd  Cd17  1  0.580808  0.580808  0.256488  1
  Cd  Cd18  1  0.580090  0.256654  0.581628  1
  Cd  Cd19  1  0.256654  0.580090  0.581628  1
  Ir  Ir20  1  0.140486  0.572521  0.143497  1
  Ir  Ir21  1  0.572521  0.140486  0.143497  1
  Pd  Pd22  1  0.142432  0.142432  0.146111  1
  Pd  Pd23  1  0.142432  0.142432  0.569024  1
