# generated using pymatgen
data_Mg2Ag3SbO6
_symmetry_space_group_name_H-M   'P 1'
_cell_length_a   5.44901500
_cell_length_b   5.44901526
_cell_length_c   18.92555600
_cell_angle_alpha   90.00000000
_cell_angle_beta   90.00000000
_cell_angle_gamma   119.99999237
_symmetry_Int_Tables_number   1
_chemical_formula_structural   Mg2Ag3SbO6
_chemical_formula_sum   'Mg6 Ag9 Sb3 O18'
_cell_volume   486.64844445
_cell_formula_units_Z   3
loop_
 _symmetry_equiv_pos_site_id
 _symmetry_equiv_pos_as_xyz
  1  'x, y, z'
loop_
 _atom_site_type_symbol
 _atom_site_label
 _atom_site_symmetry_multiplicity
 _atom_site_fract_x
 _atom_site_fract_y
 _atom_site_fract_z
 _atom_site_occupancy
  Mg  Mg0  1  0.106650  0.893350  0.333333  1
  Mg  Mg1  1  0.106650  0.213301  0.666667  1
  Mg  Mg2  1  0.786699  0.893350  0.000000  1
  Mg  Mg3  1  0.773346  0.226654  0.333333  1
  Mg  Mg4  1  0.773346  0.546692  0.666667  1
  Mg  Mg5  1  0.453308  0.226654  0.000000  1
  Ag  Ag6  1  0.443826  0.221913  0.500000  1
  Ag  Ag7  1  0.778087  0.221913  0.833333  1
  Ag  Ag8  1  0.778087  0.556174  0.166667  1
  Ag  Ag9  1  0.116388  0.558194  0.500000  1
  Ag  Ag10  1  0.441806  0.558194  0.833333  1
  Ag  Ag11  1  0.441806  0.883612  0.166667  1
  Ag  Ag12  1  0.764506  0.882253  0.500000  1
  Ag  Ag13  1  0.117747  0.882253  0.833333  1
  Ag  Ag14  1  0.117747  0.235494  0.166667  1
  Sb  Sb15  1  0.440116  0.559884  0.333333  1
  Sb  Sb16  1  0.440116  0.880233  0.666667  1
  Sb  Sb17  1  0.119767  0.559884  0.000000  1
  O  O18  1  0.759548  0.559618  0.278661  1
  O  O19  1  0.440382  0.199931  0.611994  1
  O  O20  1  0.800069  0.240452  0.945328  1
  O  O21  1  0.759548  0.199931  0.721339  1
  O  O22  1  0.440382  0.240452  0.388006  1
  O  O23  1  0.800069  0.559618  0.054672  1
  O  O24  1  0.439505  0.879133  0.278611  1
  O  O25  1  0.120867  0.560371  0.611944  1
  O  O26  1  0.439629  0.560495  0.945278  1
  O  O27  1  0.439505  0.560371  0.721389  1
  O  O28  1  0.120867  0.560495  0.388056  1
  O  O29  1  0.439629  0.879133  0.054722  1
  O  O30  1  0.119949  0.240148  0.278740  1
  O  O31  1  0.759852  0.879801  0.612073  1
  O  O32  1  0.120199  0.880051  0.945406  1
  O  O33  1  0.119949  0.879801  0.721260  1
  O  O34  1  0.759852  0.880051  0.387927  1
  O  O35  1  0.120199  0.240148  0.054594  1
