# generated using pymatgen
data_Tb14Tm2MgHg3Pt4
_symmetry_space_group_name_H-M   'P 1'
_cell_length_a   9.64436519
_cell_length_b   9.68598624
_cell_length_c   9.68598613
_cell_angle_alpha   60.14974890
_cell_angle_beta   60.22203846
_cell_angle_gamma   60.22203152
_symmetry_Int_Tables_number   1
_chemical_formula_structural   Tb14Tm2MgHg3Pt4
_chemical_formula_sum   'Tb14 Tm2 Mg1 Hg3 Pt4'
_cell_volume   642.67011749
_cell_formula_units_Z   1
loop_
 _symmetry_equiv_pos_site_id
 _symmetry_equiv_pos_as_xyz
  1  'x, y, z'
loop_
 _atom_site_type_symbol
 _atom_site_label
 _atom_site_symmetry_multiplicity
 _atom_site_fract_x
 _atom_site_fract_y
 _atom_site_fract_z
 _atom_site_occupancy
  Tb  Tb0  1  0.064747  0.437138  0.062808  1
  Tb  Tb1  1  0.066397  0.643321  0.643321  1
  Tb  Tb2  1  0.649155  0.650341  0.650341  1
  Tb  Tb3  1  0.064747  0.062808  0.437138  1
  Tb  Tb4  1  0.191020  0.810710  0.189999  1
  Tb  Tb5  1  0.812918  0.810821  0.187037  1
  Tb  Tb6  1  0.812918  0.187037  0.810821  1
  Tb  Tb7  1  0.436191  0.063190  0.434878  1
  Tb  Tb8  1  0.436191  0.434878  0.063190  1
  Tb  Tb9  1  0.438691  0.063378  0.063378  1
  Tb  Tb10  1  0.065177  0.434461  0.434461  1
  Tb  Tb11  1  0.191020  0.189999  0.810710  1
  Tb  Tb12  1  0.645659  0.646273  0.057734  1
  Tb  Tb13  1  0.645659  0.057734  0.646273  1
  Tm  Tm14  1  0.191655  0.807632  0.807632  1
  Tm  Tm15  1  0.813458  0.188482  0.188482  1
  Mg  Mg16  1  0.716106  0.428682  0.428682  1
  Hg  Hg17  1  0.417027  0.412582  0.759780  1
  Hg  Hg18  1  0.417027  0.759780  0.412582  1
  Hg  Hg19  1  0.417734  0.412713  0.412713  1
  Pt  Pt20  1  0.858727  0.859919  0.428162  1
  Pt  Pt21  1  0.858727  0.428162  0.859919  1
  Pt  Pt22  1  0.861157  0.853607  0.853607  1
  Pt  Pt23  1  0.427901  0.856350  0.856350  1
