# generated using pymatgen
data_Li2LaTb5Rh16
_symmetry_space_group_name_H-M   'P 1'
_cell_length_a   5.33666236
_cell_length_b   5.33589118
_cell_length_c   17.20331300
_cell_angle_alpha   90.00000000
_cell_angle_beta   90.00000000
_cell_angle_gamma   119.99386429
_symmetry_Int_Tables_number   1
_chemical_formula_structural   Li2LaTb5Rh16
_chemical_formula_sum   'Li2 La1 Tb5 Rh16'
_cell_volume   424.27384641
_cell_formula_units_Z   1
loop_
 _symmetry_equiv_pos_site_id
 _symmetry_equiv_pos_as_xyz
  1  'x, y, z'
loop_
 _atom_site_type_symbol
 _atom_site_label
 _atom_site_symmetry_multiplicity
 _atom_site_fract_x
 _atom_site_fract_y
 _atom_site_fract_z
 _atom_site_occupancy
  Li  Li0  1  0.999925  0.999955  0.250000  1
  Li  Li1  1  0.999942  0.999962  0.750000  1
  La  La2  1  0.666666  0.333358  0.250000  1
  Tb  Tb3  1  0.333332  0.666661  0.540353  1
  Tb  Tb4  1  0.666647  0.333326  0.038600  1
  Tb  Tb5  1  0.666647  0.333326  0.461400  1
  Tb  Tb6  1  0.333332  0.666661  0.959647  1
  Tb  Tb7  1  0.333313  0.666650  0.750000  1
  Rh  Rh8  1  0.167556  0.335120  0.123976  1
  Rh  Rh9  1  0.832526  0.665011  0.626184  1
  Rh  Rh10  1  0.664897  0.832456  0.123984  1
  Rh  Rh11  1  0.167557  0.832455  0.123977  1
  Rh  Rh12  1  0.832533  0.167506  0.626185  1
  Rh  Rh13  1  0.335046  0.167521  0.626165  1
  Rh  Rh14  1  0.832526  0.665011  0.873816  1
  Rh  Rh15  1  0.832533  0.167506  0.873815  1
  Rh  Rh16  1  0.335046  0.167521  0.873835  1
  Rh  Rh17  1  0.664897  0.832456  0.376016  1
  Rh  Rh18  1  0.167557  0.832455  0.376023  1
  Rh  Rh19  1  0.167556  0.335120  0.376024  1
  Rh  Rh20  1  0.333351  0.666664  0.250000  1
  Rh  Rh21  1  0.666635  0.333312  0.750000  1
  Rh  Rh22  1  0.999991  0.999994  0.998905  1
  Rh  Rh23  1  0.999991  0.999994  0.501095  1
