# generated using pymatgen
data_TbSm5Zr4(Sn3O)2
_symmetry_space_group_name_H-M   'P 1'
_cell_length_a   8.87559500
_cell_length_b   8.87930145
_cell_length_c   6.10277200
_cell_angle_alpha   90.00000000
_cell_angle_beta   90.00000000
_cell_angle_gamma   119.98619634
_symmetry_Int_Tables_number   1
_chemical_formula_structural   TbSm5Zr4(Sn3O)2
_chemical_formula_sum   'Tb1 Sm5 Zr4 Sn6 O2'
_cell_volume   416.57619169
_cell_formula_units_Z   1
loop_
 _symmetry_equiv_pos_site_id
 _symmetry_equiv_pos_as_xyz
  1  'x, y, z'
loop_
 _atom_site_type_symbol
 _atom_site_label
 _atom_site_symmetry_multiplicity
 _atom_site_fract_x
 _atom_site_fract_y
 _atom_site_fract_z
 _atom_site_occupancy
  Tb  Tb0  1  0.774509  0.000000  0.750000  1
  Sm  Sm1  1  0.000236  0.771230  0.750000  1
  Sm  Sm2  1  0.999512  0.228379  0.250000  1
  Sm  Sm3  1  0.229006  0.228770  0.750000  1
  Sm  Sm4  1  0.228144  0.000000  0.250000  1
  Sm  Sm5  1  0.771132  0.771621  0.250000  1
  Zr  Zr6  1  0.333473  0.666606  0.999938  1
  Zr  Zr7  1  0.333473  0.666606  0.500062  1
  Zr  Zr8  1  0.666868  0.333394  0.999938  1
  Zr  Zr9  1  0.666868  0.333394  0.500062  1
  Sn  Sn10  1  0.000201  0.592028  0.250000  1
  Sn  Sn11  1  0.999128  0.406644  0.750000  1
  Sn  Sn12  1  0.408173  0.407972  0.250000  1
  Sn  Sn13  1  0.592484  0.593356  0.750000  1
  Sn  Sn14  1  0.409641  0.000000  0.750000  1
  Sn  Sn15  1  0.592013  0.000000  0.250000  1
  O  O16  1  0.997570  0.000000  0.997523  1
  O  O17  1  0.997570  0.000000  0.502477  1
