# generated using pymatgen
data_Ta5Pb2WS12
_symmetry_space_group_name_H-M   'P 1'
_cell_length_a   5.77637500
_cell_length_b   5.77548842
_cell_length_c   15.06529900
_cell_angle_alpha   90.00000000
_cell_angle_beta   90.00000000
_cell_angle_gamma   120.00148179
_symmetry_Int_Tables_number   1
_chemical_formula_structural   Ta5Pb2WS12
_chemical_formula_sum   'Ta5 Pb2 W1 S12'
_cell_volume   435.25723535
_cell_formula_units_Z   1
loop_
 _symmetry_equiv_pos_site_id
 _symmetry_equiv_pos_as_xyz
  1  'x, y, z'
loop_
 _atom_site_type_symbol
 _atom_site_label
 _atom_site_symmetry_multiplicity
 _atom_site_fract_x
 _atom_site_fract_y
 _atom_site_fract_z
 _atom_site_occupancy
  Ta  Ta0  1  0.333170  0.666520  0.000000  1
  Ta  Ta1  1  0.999843  0.999912  0.000000  1
  Ta  Ta2  1  0.000288  0.000217  0.500000  1
  Ta  Ta3  1  0.666933  0.333492  0.500000  1
  Ta  Ta4  1  0.333495  0.666940  0.500000  1
  Pb  Pb5  1  0.999782  0.999836  0.251584  1
  Pb  Pb6  1  0.999782  0.999836  0.748416  1
  W  W7  1  0.666612  0.333198  0.000000  1
  S  S8  1  0.995150  0.657674  0.103010  1
  S  S9  1  0.662295  0.004301  0.102998  1
  S  S10  1  0.341985  0.337389  0.102991  1
  S  S11  1  0.663375  0.663320  0.396059  1
  S  S12  1  0.337052  0.000149  0.396071  1
  S  S13  1  0.000189  0.337195  0.396068  1
  S  S14  1  0.337052  0.000149  0.603929  1
  S  S15  1  0.000189  0.337195  0.603932  1
  S  S16  1  0.663375  0.663320  0.603941  1
  S  S17  1  0.341985  0.337389  0.897009  1
  S  S18  1  0.995150  0.657674  0.896989  1
  S  S19  1  0.662295  0.004301  0.897001  1
