# generated using pymatgen
data_Hf8Ti2Ga5Sb
_symmetry_space_group_name_H-M   'P 1'
_cell_length_a   8.02278040
_cell_length_b   8.02278059
_cell_length_c   5.57840550
_cell_angle_alpha   89.97566406
_cell_angle_beta   89.97567349
_cell_angle_gamma   120.09580904
_symmetry_Int_Tables_number   1
_chemical_formula_structural   Hf8Ti2Ga5Sb
_chemical_formula_sum   'Hf8 Ti2 Ga5 Sb1'
_cell_volume   310.64922985
_cell_formula_units_Z   1
loop_
 _symmetry_equiv_pos_site_id
 _symmetry_equiv_pos_as_xyz
  1  'x, y, z'
loop_
 _atom_site_type_symbol
 _atom_site_label
 _atom_site_symmetry_multiplicity
 _atom_site_fract_x
 _atom_site_fract_y
 _atom_site_fract_z
 _atom_site_occupancy
  Hf  Hf0  1  0.329199  0.673119  0.496006  1
  Hf  Hf1  1  0.673119  0.329199  0.496006  1
  Hf  Hf2  1  0.767112  0.767112  0.750386  1
  Hf  Hf3  1  0.241886  0.989993  0.750523  1
  Hf  Hf4  1  0.989993  0.241886  0.750523  1
  Hf  Hf5  1  0.240377  0.240377  0.253487  1
  Hf  Hf6  1  0.755416  0.001032  0.248650  1
  Hf  Hf7  1  0.001032  0.755416  0.248650  1
  Ti  Ti8  1  0.672565  0.329424  0.001677  1
  Ti  Ti9  1  0.329424  0.672565  0.001677  1
  Ga  Ga10  1  0.601652  0.996479  0.760455  1
  Ga  Ga11  1  0.996479  0.601652  0.760455  1
  Ga  Ga12  1  0.605628  0.605628  0.243286  1
  Ga  Ga13  1  0.395804  0.002819  0.238778  1
  Ga  Ga14  1  0.002819  0.395804  0.238778  1
  Sb  Sb15  1  0.397496  0.397496  0.760664  1
