# generated using pymatgen
data_DyEr15(In3Cu)2
_symmetry_space_group_name_H-M   'P 1'
_cell_length_a   10.47223400
_cell_length_b   10.47097774
_cell_length_c   6.80613203
_cell_angle_alpha   90.00997132
_cell_angle_beta   90.00000000
_cell_angle_gamma   120.00396883
_symmetry_Int_Tables_number   1
_chemical_formula_structural   DyEr15(In3Cu)2
_chemical_formula_sum   'Dy1 Er15 In6 Cu2'
_cell_volume   646.30899025
_cell_formula_units_Z   1
loop_
 _symmetry_equiv_pos_site_id
 _symmetry_equiv_pos_as_xyz
  1  'x, y, z'
loop_
 _atom_site_type_symbol
 _atom_site_label
 _atom_site_symmetry_multiplicity
 _atom_site_fract_x
 _atom_site_fract_y
 _atom_site_fract_z
 _atom_site_occupancy
  Dy  Dy0  1  0.526026  0.052052  0.796136  1
  Er  Er1  1  0.947693  0.473658  0.796334  1
  Er  Er2  1  0.525965  0.473658  0.796334  1
  Er  Er3  1  0.473863  0.947726  0.296236  1
  Er  Er4  1  0.052099  0.526086  0.296242  1
  Er  Er5  1  0.473987  0.526086  0.296242  1
  Er  Er6  1  0.824690  0.649380  0.507129  1
  Er  Er7  1  0.350703  0.175580  0.506585  1
  Er  Er8  1  0.824877  0.175580  0.506585  1
  Er  Er9  1  0.175492  0.350984  0.007089  1
  Er  Er10  1  0.649287  0.824216  0.007300  1
  Er  Er11  1  0.174929  0.824216  0.007300  1
  Er  Er12  1  0.666946  0.333892  0.168482  1
  Er  Er13  1  0.333052  0.666105  0.667939  1
  Er  Er14  1  0.999952  0.999905  0.775123  1
  Er  Er15  1  0.000079  0.000158  0.275359  1
  In  In16  1  0.836149  0.672300  0.031261  1
  In  In17  1  0.326920  0.163807  0.031878  1
  In  In18  1  0.836885  0.163807  0.031878  1
  In  In19  1  0.163800  0.327597  0.531764  1
  In  In20  1  0.672460  0.836200  0.531408  1
  In  In21  1  0.163742  0.836200  0.531408  1
  Cu  Cu22  1  0.667031  0.334060  0.569775  1
  Cu  Cu23  1  0.333372  0.666745  0.070120  1
