# generated using pymatgen
data_SmHo2Co8MoP6
_symmetry_space_group_name_H-M   'P 1'
_cell_length_a   3.72277600
_cell_length_b   10.56653900
_cell_length_c   12.27037100
_cell_angle_alpha   90.00000000
_cell_angle_beta   90.00000000
_cell_angle_gamma   90.00000000
_symmetry_Int_Tables_number   1
_chemical_formula_structural   SmHo2Co8MoP6
_chemical_formula_sum   'Sm2 Ho4 Co16 Mo2 P12'
_cell_volume   482.67783909
_cell_formula_units_Z   2
loop_
 _symmetry_equiv_pos_site_id
 _symmetry_equiv_pos_as_xyz
  1  'x, y, z'
loop_
 _atom_site_type_symbol
 _atom_site_label
 _atom_site_symmetry_multiplicity
 _atom_site_fract_x
 _atom_site_fract_y
 _atom_site_fract_z
 _atom_site_occupancy
  Sm  Sm0  1  0.000000  0.500000  0.524798  1
  Sm  Sm1  1  0.500000  0.000000  0.475202  1
  Ho  Ho2  1  0.500000  0.818881  0.204258  1
  Ho  Ho3  1  0.500000  0.181119  0.204258  1
  Ho  Ho4  1  0.000000  0.681119  0.795742  1
  Ho  Ho5  1  0.000000  0.318881  0.795742  1
  Co  Co6  1  0.000000  0.500000  0.986438  1
  Co  Co7  1  0.500000  0.000000  0.013562  1
  Co  Co8  1  0.500000  0.295495  0.430626  1
  Co  Co9  1  0.500000  0.704505  0.430626  1
  Co  Co10  1  0.000000  0.204505  0.569374  1
  Co  Co11  1  0.000000  0.795495  0.569374  1
  Co  Co12  1  0.500000  0.878290  0.708354  1
  Co  Co13  1  0.500000  0.121710  0.708354  1
  Co  Co14  1  0.000000  0.621710  0.291646  1
  Co  Co15  1  0.000000  0.378290  0.291646  1
  Co  Co16  1  0.500000  0.332333  0.990335  1
  Co  Co17  1  0.500000  0.667667  0.990335  1
  Co  Co18  1  0.000000  0.167667  0.009665  1
  Co  Co19  1  0.000000  0.832333  0.009665  1
  Co  Co20  1  0.500000  0.500000  0.703651  1
  Co  Co21  1  0.000000  0.000000  0.296349  1
  Mo  Mo22  1  0.500000  0.500000  0.155255  1
  Mo  Mo23  1  0.000000  0.000000  0.844745  1
  P  P24  1  0.500000  0.309411  0.617051  1
  P  P25  1  0.500000  0.690589  0.617051  1
  P  P26  1  0.000000  0.190589  0.382949  1
  P  P27  1  0.000000  0.809411  0.382949  1
  P  P28  1  0.500000  0.500000  0.881669  1
  P  P29  1  0.000000  0.000000  0.118331  1
  P  P30  1  0.500000  0.844498  0.893385  1
  P  P31  1  0.500000  0.155502  0.893385  1
  P  P32  1  0.000000  0.655502  0.106615  1
  P  P33  1  0.000000  0.344498  0.106615  1
  P  P34  1  0.500000  0.500000  0.347237  1
  P  P35  1  0.000000  0.000000  0.652763  1
