# generated using pymatgen
data_K8In7Ga(SnSe4)8
_symmetry_space_group_name_H-M   'P 1'
_cell_length_a   13.05739486
_cell_length_b   7.98193927
_cell_length_c   18.87739413
_cell_angle_alpha   81.70286344
_cell_angle_beta   89.99954158
_cell_angle_gamma   89.81327896
_symmetry_Int_Tables_number   1
_chemical_formula_structural   K8In7Ga(SnSe4)8
_chemical_formula_sum   'K8 In7 Ga1 Sn8 Se32'
_cell_volume   1946.86092763
_cell_formula_units_Z   1
loop_
 _symmetry_equiv_pos_site_id
 _symmetry_equiv_pos_as_xyz
  1  'x, y, z'
loop_
 _atom_site_type_symbol
 _atom_site_label
 _atom_site_symmetry_multiplicity
 _atom_site_fract_x
 _atom_site_fract_y
 _atom_site_fract_z
 _atom_site_occupancy
  K  K0  1  0.067825  0.745493  0.681076  1
  K  K1  1  0.434140  0.743672  0.180999  1
  K  K2  1  0.601776  0.269509  0.453111  1
  K  K3  1  0.399526  0.733684  0.544329  1
  K  K4  1  0.568330  0.253303  0.819283  1
  K  K5  1  0.100744  0.732247  0.044845  1
  K  K6  1  0.930668  0.258735  0.317577  1
  K  K7  1  0.897262  0.270055  0.956325  1
  In  In8  1  0.258243  0.468673  0.342904  1
  In  In9  1  0.242431  0.963090  0.858769  1
  In  In10  1  0.754468  0.040909  0.141972  1
  In  In11  1  0.241677  0.468857  0.843304  1
  In  In12  1  0.257552  0.962310  0.358539  1
  In  In13  1  0.741444  0.037221  0.640764  1
  In  In14  1  0.741424  0.531356  0.656961  1
  Ga  Ga15  1  0.759368  0.534969  0.158208  1
  Sn  Sn16  1  0.327442  0.195100  0.015613  1
  Sn  Sn17  1  0.292542  0.244915  0.676189  1
  Sn  Sn18  1  0.827057  0.801235  0.483859  1
  Sn  Sn19  1  0.709863  0.754942  0.321377  1
  Sn  Sn20  1  0.172092  0.196536  0.515185  1
  Sn  Sn21  1  0.677349  0.800171  0.987622  1
  Sn  Sn22  1  0.207481  0.245923  0.176127  1
  Sn  Sn23  1  0.791896  0.754076  0.824145  1
  Se  Se24  1  0.176923  0.539164  0.211684  1
  Se  Se25  1  0.397545  0.193655  0.144307  1
  Se  Se26  1  0.866811  0.746072  0.953021  1
  Se  Se27  1  0.637523  0.738919  0.451403  1
  Se  Se28  1  0.102242  0.194992  0.644037  1
  Se  Se29  1  0.823367  0.461398  0.788105  1
  Se  Se30  1  0.843977  0.099100  0.517407  1
  Se  Se31  1  0.120463  0.000425  0.254747  1
  Se  Se32  1  0.384111  0.709431  0.360587  1
  Se  Se33  1  0.902970  0.561843  0.572713  1
  Se  Se34  1  0.379474  0.998650  0.755117  1
  Se  Se35  1  0.615582  0.290674  0.638743  1
  Se  Se36  1  0.683435  0.465352  0.281279  1
  Se  Se37  1  0.154482  0.899000  0.481469  1
  Se  Se38  1  0.874381  0.303472  0.140116  1
  Se  Se39  1  0.654331  0.100124  0.017774  1
  Se  Se40  1  0.382986  0.215194  0.347311  1
  Se  Se41  1  0.899164  0.804762  0.355396  1
  Se  Se42  1  0.116167  0.711543  0.860896  1
  Se  Se43  1  0.322842  0.537831  0.711990  1
  Se  Se44  1  0.607940  0.561670  0.079710  1
  Se  Se45  1  0.096662  0.438045  0.426969  1
  Se  Se46  1  0.873732  0.775304  0.151825  1
  Se  Se47  1  0.619439  0.003190  0.246658  1
  Se  Se48  1  0.136205  0.254486  0.046482  1
  Se  Se49  1  0.616428  0.784360  0.652278  1
  Se  Se50  1  0.602639  0.799271  0.859921  1
  Se  Se51  1  0.345351  0.897703  0.981986  1
  Se  Se52  1  0.363127  0.253010  0.546359  1
  Se  Se53  1  0.402768  0.437035  0.928189  1
  Se  Se54  1  0.116808  0.216789  0.847274  1
  Se  Se55  1  0.877526  0.000557  0.745165  1
