# generated using pymatgen
data_Pr2ZnIr6
_symmetry_space_group_name_H-M   'P 1'
_cell_length_a   13.28549161
_cell_length_b   13.28549231
_cell_length_c   13.28549132
_cell_angle_alpha   23.60417944
_cell_angle_beta   23.60418270
_cell_angle_gamma   23.60418034
_symmetry_Int_Tables_number   1
_chemical_formula_structural   Pr2ZnIr6
_chemical_formula_sum   'Pr4 Zn2 Ir12'
_cell_volume   330.20389704
_cell_formula_units_Z   2
loop_
 _symmetry_equiv_pos_site_id
 _symmetry_equiv_pos_as_xyz
  1  'x, y, z'
loop_
 _atom_site_type_symbol
 _atom_site_label
 _atom_site_symmetry_multiplicity
 _atom_site_fract_x
 _atom_site_fract_y
 _atom_site_fract_z
 _atom_site_occupancy
  Pr  Pr0  1  0.949697  0.949697  0.949697  1
  Pr  Pr1  1  0.050303  0.050303  0.050303  1
  Pr  Pr2  1  0.852954  0.852954  0.852954  1
  Pr  Pr3  1  0.147046  0.147046  0.147046  1
  Zn  Zn4  1  0.720866  0.720866  0.720866  1
  Zn  Zn5  1  0.279134  0.279134  0.279134  1
  Ir  Ir6  1  0.500000  0.500000  0.500000  1
  Ir  Ir7  1  0.611686  0.611686  0.611686  1
  Ir  Ir8  1  0.388314  0.388314  0.388314  1
  Ir  Ir9  1  0.500000  0.500000  0.000000  1
  Ir  Ir10  1  0.000000  0.500000  0.500000  1
  Ir  Ir11  1  0.500000  0.000000  0.500000  1
  Ir  Ir12  1  0.388205  0.893965  0.388205  1
  Ir  Ir13  1  0.388205  0.388205  0.893965  1
  Ir  Ir14  1  0.893965  0.388205  0.388205  1
  Ir  Ir15  1  0.611795  0.106035  0.611795  1
  Ir  Ir16  1  0.611795  0.611795  0.106035  1
  Ir  Ir17  1  0.106035  0.611795  0.611795  1
