# generated using pymatgen
data_Hf12Al9Co3C4
_symmetry_space_group_name_H-M   'P 1'
_cell_length_a   8.54646325
_cell_length_b   8.54646341
_cell_length_c   8.54646291
_cell_angle_alpha   59.72296543
_cell_angle_beta   59.72296698
_cell_angle_gamma   59.72297005
_symmetry_Int_Tables_number   1
_chemical_formula_structural   Hf12Al9Co3C4
_chemical_formula_sum   'Hf12 Al9 Co3 C4'
_cell_volume   438.63483909
_cell_formula_units_Z   1
loop_
 _symmetry_equiv_pos_site_id
 _symmetry_equiv_pos_as_xyz
  1  'x, y, z'
loop_
 _atom_site_type_symbol
 _atom_site_label
 _atom_site_symmetry_multiplicity
 _atom_site_fract_x
 _atom_site_fract_y
 _atom_site_fract_z
 _atom_site_occupancy
  Hf  Hf0  1  0.193464  0.805500  0.193464  1
  Hf  Hf1  1  0.806764  0.191496  0.806764  1
  Hf  Hf2  1  0.056536  0.444500  0.056536  1
  Hf  Hf3  1  0.058504  0.443236  0.443236  1
  Hf  Hf4  1  0.444500  0.056536  0.056536  1
  Hf  Hf5  1  0.443236  0.058504  0.443236  1
  Hf  Hf6  1  0.806764  0.806764  0.191496  1
  Hf  Hf7  1  0.056536  0.056536  0.444500  1
  Hf  Hf8  1  0.193464  0.193464  0.805500  1
  Hf  Hf9  1  0.191496  0.806764  0.806764  1
  Hf  Hf10  1  0.443236  0.443236  0.058504  1
  Hf  Hf11  1  0.805500  0.193464  0.193464  1
  Al  Al12  1  0.625000  0.625000  0.625000  1
  Al  Al13  1  0.838406  0.838406  0.511063  1
  Al  Al14  1  0.511063  0.838406  0.838406  1
  Al  Al15  1  0.411594  0.738937  0.411594  1
  Al  Al16  1  0.738937  0.411594  0.411594  1
  Al  Al17  1  0.418923  0.418923  0.418923  1
  Al  Al18  1  0.411594  0.411594  0.738937  1
  Al  Al19  1  0.838406  0.511063  0.838406  1
  Al  Al20  1  0.831077  0.831077  0.831077  1
  Co  Co21  1  0.125000  0.625000  0.625000  1
  Co  Co22  1  0.625000  0.625000  0.125000  1
  Co  Co23  1  0.625000  0.125000  0.625000  1
  C  C24  1  0.125000  0.125000  0.125000  1
  C  C25  1  0.125000  0.125000  0.625000  1
  C  C26  1  0.625000  0.125000  0.125000  1
  C  C27  1  0.125000  0.625000  0.125000  1
