# generated using pymatgen
data_Hf20In8BiAs3
_symmetry_space_group_name_H-M   'P 1'
_cell_length_a   7.45655243
_cell_length_b   9.02147000
_cell_length_c   10.79888900
_cell_angle_alpha   90.00000000
_cell_angle_beta   89.93085211
_cell_angle_gamma   90.00000000
_symmetry_Int_Tables_number   1
_chemical_formula_structural   Hf20In8BiAs3
_chemical_formula_sum   'Hf20 In8 Bi1 As3'
_cell_volume   726.43062682
_cell_formula_units_Z   1
loop_
 _symmetry_equiv_pos_site_id
 _symmetry_equiv_pos_as_xyz
  1  'x, y, z'
loop_
 _atom_site_type_symbol
 _atom_site_label
 _atom_site_symmetry_multiplicity
 _atom_site_fract_x
 _atom_site_fract_y
 _atom_site_fract_z
 _atom_site_occupancy
  Hf  Hf0  1  0.822574  0.438700  0.554930  1
  Hf  Hf1  1  0.321644  0.077326  0.945617  1
  Hf  Hf2  1  0.176487  0.938958  0.445005  1
  Hf  Hf3  1  0.683758  0.551009  0.058106  1
  Hf  Hf4  1  0.154360  0.250000  0.717963  1
  Hf  Hf5  1  0.651355  0.250000  0.780205  1
  Hf  Hf6  1  0.846586  0.750000  0.280647  1
  Hf  Hf7  1  0.342457  0.750000  0.231055  1
  Hf  Hf8  1  0.321644  0.422674  0.945617  1
  Hf  Hf9  1  0.822574  0.061300  0.554930  1
  Hf  Hf10  1  0.683758  0.948991  0.058106  1
  Hf  Hf11  1  0.176487  0.561042  0.445005  1
  Hf  Hf12  1  0.166927  0.750000  0.702227  1
  Hf  Hf13  1  0.698873  0.750000  0.777500  1
  Hf  Hf14  1  0.823767  0.250000  0.291290  1
  Hf  Hf15  1  0.322729  0.250000  0.211489  1
  Hf  Hf16  1  0.995376  0.750000  0.993287  1
  Hf  Hf17  1  0.509886  0.750000  0.507405  1
  Hf  Hf18  1  0.983427  0.250000  0.011398  1
  Hf  Hf19  1  0.488490  0.250000  0.492863  1
  In  In20  1  0.562131  0.999230  0.326158  1
  In  In21  1  0.063549  0.502680  0.175858  1
  In  In22  1  0.438736  0.499502  0.675961  1
  In  In23  1  0.940711  0.004344  0.824823  1
  In  In24  1  0.438736  0.000498  0.675961  1
  In  In25  1  0.940711  0.495656  0.824823  1
  In  In26  1  0.562131  0.500770  0.326158  1
  In  In27  1  0.063549  0.997320  0.175858  1
  Bi  Bi28  1  0.390156  0.750000  0.953543  1
  As  As29  1  0.889282  0.750000  0.536085  1
  As  As30  1  0.608381  0.250000  0.040893  1
  As  As31  1  0.108767  0.250000  0.459234  1
