# generated using pymatgen
data_Ho10In8CoAg3
_symmetry_space_group_name_H-M   'P 1'
_cell_length_a   3.58875700
_cell_length_b   8.21622502
_cell_length_c   18.39604149
_cell_angle_alpha   90.09545652
_cell_angle_beta   90.00000000
_cell_angle_gamma   90.00000000
_symmetry_Int_Tables_number   1
_chemical_formula_structural   Ho10In8CoAg3
_chemical_formula_sum   'Ho10 In8 Co1 Ag3'
_cell_volume   542.42557141
_cell_formula_units_Z   1
loop_
 _symmetry_equiv_pos_site_id
 _symmetry_equiv_pos_as_xyz
  1  'x, y, z'
loop_
 _atom_site_type_symbol
 _atom_site_label
 _atom_site_symmetry_multiplicity
 _atom_site_fract_x
 _atom_site_fract_y
 _atom_site_fract_z
 _atom_site_occupancy
  Ho  Ho0  1  0.000000  0.500262  0.497934  1
  Ho  Ho1  1  0.000000  0.003651  0.002273  1
  Ho  Ho2  1  0.000000  0.771802  0.283497  1
  Ho  Ho3  1  0.000000  0.265928  0.712569  1
  Ho  Ho4  1  0.000000  0.764562  0.785113  1
  Ho  Ho5  1  0.000000  0.211711  0.226194  1
  Ho  Ho6  1  0.000000  0.622651  0.079220  1
  Ho  Ho7  1  0.000000  0.375096  0.924725  1
  Ho  Ho8  1  0.000000  0.874557  0.574816  1
  Ho  Ho9  1  0.000000  0.113212  0.410327  1
  In  In10  1  0.500000  0.709842  0.933275  1
  In  In11  1  0.500000  0.290752  0.073400  1
  In  In12  1  0.500000  0.792646  0.428708  1
  In  In13  1  0.500000  0.204795  0.562988  1
  In  In14  1  0.500000  0.585516  0.647953  1
  In  In15  1  0.500000  0.420730  0.350766  1
  In  In16  1  0.500000  0.921199  0.151248  1
  In  In17  1  0.500000  0.085765  0.850587  1
  Co  Co18  1  0.500000  0.021188  0.305168  1
  Ag  Ag19  1  0.500000  0.522393  0.200079  1
  Ag  Ag20  1  0.500000  0.469850  0.804041  1
  Ag  Ag21  1  0.500000  0.971890  0.695117  1
