# generated using pymatgen
data_Ho2Pa2Zn4Ir3Rh
_symmetry_space_group_name_H-M   'P 1'
_cell_length_a   3.85006100
_cell_length_b   7.12873991
_cell_length_c   8.38447780
_cell_angle_alpha   91.07365732
_cell_angle_beta   90.00000000
_cell_angle_gamma   90.00000000
_symmetry_Int_Tables_number   1
_chemical_formula_structural   Ho2Pa2Zn4Ir3Rh
_chemical_formula_sum   'Ho2 Pa2 Zn4 Ir3 Rh1'
_cell_volume   230.08067625
_cell_formula_units_Z   1
loop_
 _symmetry_equiv_pos_site_id
 _symmetry_equiv_pos_as_xyz
  1  'x, y, z'
loop_
 _atom_site_type_symbol
 _atom_site_label
 _atom_site_symmetry_multiplicity
 _atom_site_fract_x
 _atom_site_fract_y
 _atom_site_fract_z
 _atom_site_occupancy
  Ho  Ho0  1  0.250000  0.057266  0.315070  1
  Ho  Ho1  1  0.750000  0.944858  0.683502  1
  Pa  Pa2  1  0.250000  0.552089  0.190201  1
  Pa  Pa3  1  0.750000  0.446711  0.810424  1
  Zn  Zn4  1  0.250000  0.115318  0.938226  1
  Zn  Zn5  1  0.750000  0.883017  0.060675  1
  Zn  Zn6  1  0.250000  0.633023  0.560265  1
  Zn  Zn7  1  0.750000  0.369334  0.440447  1
  Ir  Ir8  1  0.750000  0.750925  0.359714  1
  Ir  Ir9  1  0.250000  0.250645  0.640303  1
  Ir  Ir10  1  0.750000  0.278531  0.122009  1
  Rh  Rh11  1  0.250000  0.718282  0.879166  1
