# generated using pymatgen
data_Y3Er3Al24GaOs7
_symmetry_space_group_name_H-M   'P 1'
_cell_length_a   8.86101693
_cell_length_b   8.85987467
_cell_length_c   9.54635563
_cell_angle_alpha   90.11958563
_cell_angle_beta   89.85260122
_cell_angle_gamma   119.92013004
_symmetry_Int_Tables_number   1
_chemical_formula_structural   Y3Er3Al24GaOs7
_chemical_formula_sum   'Y3 Er3 Al24 Ga1 Os7'
_cell_volume   649.57115195
_cell_formula_units_Z   1
loop_
 _symmetry_equiv_pos_site_id
 _symmetry_equiv_pos_as_xyz
  1  'x, y, z'
loop_
 _atom_site_type_symbol
 _atom_site_label
 _atom_site_symmetry_multiplicity
 _atom_site_fract_x
 _atom_site_fract_y
 _atom_site_fract_z
 _atom_site_occupancy
  Y  Y0  1  0.191580  0.384472  0.245569  1
  Y  Y1  1  0.808151  0.615546  0.754437  1
  Y  Y2  1  0.615640  0.808406  0.245697  1
  Er  Er3  1  0.386533  0.191815  0.753761  1
  Er  Er4  1  0.195008  0.804812  0.255850  1
  Er  Er5  1  0.804592  0.195135  0.744215  1
  Al  Al6  1  0.327200  0.672847  0.022453  1
  Al  Al7  1  0.672414  0.327323  0.976805  1
  Al  Al8  1  0.665803  0.333997  0.519597  1
  Al  Al9  1  0.333907  0.665911  0.480906  1
  Al  Al10  1  0.162437  0.325574  0.572139  1
  Al  Al11  1  0.837647  0.674027  0.428337  1
  Al  Al12  1  0.673967  0.837496  0.572069  1
  Al  Al13  1  0.852730  0.678449  0.082238  1
  Al  Al14  1  0.325762  0.162377  0.428694  1
  Al  Al15  1  0.147580  0.321297  0.917335  1
  Al  Al16  1  0.162964  0.837214  0.576243  1
  Al  Al17  1  0.321463  0.147371  0.081664  1
  Al  Al18  1  0.836938  0.163106  0.424238  1
  Al  Al19  1  0.678509  0.852820  0.917598  1
  Al  Al20  1  0.836657  0.163348  0.076152  1
  Al  Al21  1  0.163360  0.837190  0.923257  1
  Al  Al22  1  0.561589  0.120810  0.249560  1
  Al  Al23  1  0.437948  0.879224  0.750455  1
  Al  Al24  1  0.878990  0.438145  0.249622  1
  Al  Al25  1  0.120797  0.561742  0.750427  1
  Al  Al26  1  0.565772  0.434087  0.258341  1
  Al  Al27  1  0.433761  0.565067  0.742072  1
  Al  Al28  1  0.000003  0.000163  0.250712  1
  Al  Al29  1  0.002028  0.000880  0.749222  1
  Ga  Ga30  1  0.500044  0.499966  0.999908  1
  Os  Os31  1  0.499744  0.000262  0.999516  1
  Os  Os32  1  0.999840  0.499840  0.999897  1
  Os  Os33  1  0.499741  0.000239  0.500550  1
  Os  Os34  1  0.999736  0.499780  0.500178  1
  Os  Os35  1  0.499798  0.499580  0.500401  1
  Os  Os36  1  0.999747  0.999875  0.999995  1
  Os  Os37  1  0.999619  0.999808  0.499891  1
