# generated using pymatgen
data_La2PrHoCoI5
_symmetry_space_group_name_H-M   'P 1'
_cell_length_a   9.86365688
_cell_length_b   9.86365552
_cell_length_c   9.29409913
_cell_angle_alpha   76.55301576
_cell_angle_beta   76.55301820
_cell_angle_gamma   25.27222188
_symmetry_Int_Tables_number   1
_chemical_formula_structural   La2PrHoCoI5
_chemical_formula_sum   'La2 Pr1 Ho1 Co1 I5'
_cell_volume   374.91438522
_cell_formula_units_Z   1
loop_
 _symmetry_equiv_pos_site_id
 _symmetry_equiv_pos_as_xyz
  1  'x, y, z'
loop_
 _atom_site_type_symbol
 _atom_site_label
 _atom_site_symmetry_multiplicity
 _atom_site_fract_x
 _atom_site_fract_y
 _atom_site_fract_z
 _atom_site_occupancy
  La  La0  1  0.866919  0.866919  0.073258  1
  La  La1  1  0.133010  0.133010  0.936074  1
  Pr  Pr2  1  0.499390  0.499390  0.780986  1
  Ho  Ho3  1  0.500038  0.500038  0.205231  1
  Co  Co4  1  0.999955  0.999955  0.003859  1
  I  I5  1  0.669495  0.669495  0.179379  1
  I  I6  1  0.325923  0.325923  0.828368  1
  I  I7  1  0.668763  0.668763  0.657193  1
  I  I8  1  0.336238  0.336238  0.346603  1
  I  I9  1  0.000269  0.000269  0.489047  1
