# generated using pymatgen
data_Dy7ErRe3B24Os
_symmetry_space_group_name_H-M   'P 1'
_cell_length_a   3.67593300
_cell_length_b   9.16846661
_cell_length_c   11.55316601
_cell_angle_alpha   90.08044700
_cell_angle_beta   90.00000000
_cell_angle_gamma   90.00000000
_symmetry_Int_Tables_number   1
_chemical_formula_structural   Dy7ErRe3B24Os
_chemical_formula_sum   'Dy7 Er1 Re3 B24 Os1'
_cell_volume   389.37214573
_cell_formula_units_Z   1
loop_
 _symmetry_equiv_pos_site_id
 _symmetry_equiv_pos_as_xyz
  1  'x, y, z'
loop_
 _atom_site_type_symbol
 _atom_site_label
 _atom_site_symmetry_multiplicity
 _atom_site_fract_x
 _atom_site_fract_y
 _atom_site_fract_z
 _atom_site_occupancy
  Dy  Dy0  1  0.000000  0.322064  0.414225  1
  Dy  Dy1  1  0.000000  0.677189  0.587700  1
  Dy  Dy2  1  0.000000  0.824395  0.084378  1
  Dy  Dy3  1  0.000000  0.176697  0.913603  1
  Dy  Dy4  1  0.000000  0.942573  0.369907  1
  Dy  Dy5  1  0.000000  0.056568  0.629658  1
  Dy  Dy6  1  0.000000  0.442853  0.129586  1
  Er  Er7  1  0.000000  0.557016  0.870541  1
  Re  Re8  1  0.000000  0.362599  0.678457  1
  Re  Re9  1  0.000000  0.138428  0.179479  1
  Re  Re10  1  0.000000  0.861055  0.820975  1
  B  B11  1  0.500000  0.553753  0.432804  1
  B  B12  1  0.500000  0.447210  0.567056  1
  B  B13  1  0.500000  0.053044  0.066799  1
  B  B14  1  0.500000  0.946615  0.932878  1
  B  B15  1  0.500000  0.748290  0.418341  1
  B  B16  1  0.500000  0.251161  0.581418  1
  B  B17  1  0.500000  0.248966  0.081288  1
  B  B18  1  0.500000  0.750741  0.918687  1
  B  B19  1  0.500000  0.790730  0.265509  1
  B  B20  1  0.500000  0.208639  0.734467  1
  B  B21  1  0.500000  0.291615  0.234737  1
  B  B22  1  0.500000  0.707540  0.766019  1
  B  B23  1  0.500000  0.631315  0.185843  1
  B  B24  1  0.500000  0.369950  0.814253  1
  B  B25  1  0.500000  0.131166  0.314707  1
  B  B26  1  0.500000  0.868496  0.685918  1
  B  B27  1  0.500000  0.982708  0.211764  1
  B  B28  1  0.500000  0.017248  0.787994  1
  B  B29  1  0.500000  0.483498  0.288180  1
  B  B30  1  0.500000  0.518276  0.712376  1
  B  B31  1  0.500000  0.601581  0.028059  1
  B  B32  1  0.500000  0.399286  0.971416  1
  B  B33  1  0.500000  0.101088  0.471525  1
  B  B34  1  0.500000  0.897477  0.528299  1
  Os  Os35  1  0.000000  0.638173  0.321153  1
