# generated using pymatgen
data_Li8CeNp7N16
_symmetry_space_group_name_H-M   'P 1'
_cell_length_a   22.26039824
_cell_length_b   4.33816028
_cell_length_c   4.33804437
_cell_angle_alpha   89.98269810
_cell_angle_beta   90.02818668
_cell_angle_gamma   89.98220669
_symmetry_Int_Tables_number   1
_chemical_formula_structural   Li8CeNp7N16
_chemical_formula_sum   'Li8 Ce1 Np7 N16'
_cell_volume   418.92127796
_cell_formula_units_Z   1
loop_
 _symmetry_equiv_pos_site_id
 _symmetry_equiv_pos_as_xyz
  1  'x, y, z'
loop_
 _atom_site_type_symbol
 _atom_site_label
 _atom_site_symmetry_multiplicity
 _atom_site_fract_x
 _atom_site_fract_y
 _atom_site_fract_z
 _atom_site_occupancy
  Li  Li0  1  0.188429  0.999731  0.748574  1
  Li  Li1  1  0.812396  0.000551  0.251355  1
  Li  Li2  1  0.312411  0.999705  0.249141  1
  Li  Li3  1  0.676643  0.999620  0.751612  1
  Li  Li4  1  0.054267  0.500007  0.749649  1
  Li  Li5  1  0.948656  0.500890  0.249129  1
  Li  Li6  1  0.436192  0.499386  0.250094  1
  Li  Li7  1  0.571159  0.500111  0.750538  1
  Ce  Ce8  1  0.812467  0.500779  0.751445  1
  Np  Np9  1  0.437066  0.000541  0.750977  1
  Np  Np10  1  0.560865  0.000891  0.251056  1
  Np  Np11  1  0.064118  0.000481  0.250300  1
  Np  Np12  1  0.940485  0.000782  0.749362  1
  Np  Np13  1  0.312464  0.500510  0.749963  1
  Np  Np14  1  0.684560  0.499764  0.251486  1
  Np  Np15  1  0.187900  0.500669  0.249733  1
  N  N16  1  0.332486  0.998882  0.748881  1
  N  N17  1  0.664173  0.999540  0.251509  1
  N  N18  1  0.166749  0.999050  0.248723  1
  N  N19  1  0.843526  0.000764  0.751455  1
  N  N20  1  0.415709  0.498708  0.749757  1
  N  N21  1  0.583709  0.499053  0.250536  1
  N  N22  1  0.080929  0.499767  0.248972  1
  N  N23  1  0.928856  0.500704  0.749015  1
  N  N24  1  0.041456  0.999875  0.748622  1
  N  N25  1  0.961080  0.000796  0.249096  1
  N  N26  1  0.458043  0.999527  0.249506  1
  N  N27  1  0.543998  0.999683  0.750345  1
  N  N28  1  0.209149  0.499512  0.747985  1
  N  N29  1  0.781491  0.501191  0.251435  1
  N  N30  1  0.292446  0.499238  0.248359  1
  N  N31  1  0.696121  0.499291  0.751386  1
