# generated using pymatgen
data_Pr8Zn8AgIr6Rh
_symmetry_space_group_name_H-M   'P 1'
_cell_length_a   4.06687500
_cell_length_b   7.41668295
_cell_length_c   16.85816750
_cell_angle_alpha   89.89576349
_cell_angle_beta   90.00000000
_cell_angle_gamma   90.00000000
_symmetry_Int_Tables_number   1
_chemical_formula_structural   Pr8Zn8AgIr6Rh
_chemical_formula_sum   'Pr8 Zn8 Ag1 Ir6 Rh1'
_cell_volume   508.48738590
_cell_formula_units_Z   1
loop_
 _symmetry_equiv_pos_site_id
 _symmetry_equiv_pos_as_xyz
  1  'x, y, z'
loop_
 _atom_site_type_symbol
 _atom_site_label
 _atom_site_symmetry_multiplicity
 _atom_site_fract_x
 _atom_site_fract_y
 _atom_site_fract_z
 _atom_site_occupancy
  Pr  Pr0  1  0.750000  0.453406  0.212944  1
  Pr  Pr1  1  0.750000  0.948653  0.281530  1
  Pr  Pr2  1  0.750000  0.832327  0.060602  1
  Pr  Pr3  1  0.250000  0.038172  0.725070  1
  Pr  Pr4  1  0.250000  0.169244  0.940832  1
  Pr  Pr5  1  0.250000  0.549601  0.787169  1
  Pr  Pr6  1  0.750000  0.335497  0.428496  1
  Pr  Pr7  1  0.250000  0.675397  0.560137  1
  Zn  Zn8  1  0.250000  0.990956  0.432355  1
  Zn  Zn9  1  0.750000  0.501126  0.940815  1
  Zn  Zn10  1  0.750000  0.992843  0.560390  1
  Zn  Zn11  1  0.250000  0.624041  0.346269  1
  Zn  Zn12  1  0.750000  0.386319  0.660470  1
  Zn  Zn13  1  0.750000  0.875749  0.854067  1
  Zn  Zn14  1  0.250000  0.499540  0.059375  1
  Zn  Zn15  1  0.250000  0.122768  0.149552  1
  Ag  Ag16  1  0.250000  0.243542  0.567383  1
  Ir  Ir17  1  0.750000  0.258988  0.065392  1
  Ir  Ir18  1  0.250000  0.243977  0.314236  1
  Ir  Ir19  1  0.750000  0.253568  0.812630  1
  Ir  Ir20  1  0.250000  0.742355  0.935802  1
  Ir  Ir21  1  0.750000  0.754815  0.683838  1
  Ir  Ir22  1  0.250000  0.749728  0.185928  1
  Rh  Rh23  1  0.750000  0.757389  0.434717  1
