# generated using pymatgen
data_NaSr2Mn2(Co2P3)2
_symmetry_space_group_name_H-M   'P 1'
_cell_length_a   8.33382765
_cell_length_b   8.33382761
_cell_length_c   6.41672108
_cell_angle_alpha   68.20555750
_cell_angle_beta   68.20555664
_cell_angle_gamma   37.23481921
_symmetry_Int_Tables_number   1
_chemical_formula_structural   NaSr2Mn2(Co2P3)2
_chemical_formula_sum   'Na1 Sr2 Mn2 Co4 P6'
_cell_volume   248.10357862
_cell_formula_units_Z   1
loop_
 _symmetry_equiv_pos_site_id
 _symmetry_equiv_pos_as_xyz
  1  'x, y, z'
loop_
 _atom_site_type_symbol
 _atom_site_label
 _atom_site_symmetry_multiplicity
 _atom_site_fract_x
 _atom_site_fract_y
 _atom_site_fract_z
 _atom_site_occupancy
  Na  Na0  1  0.999563  0.000437  0.000000  1
  Sr  Sr1  1  0.663254  0.659720  0.674216  1
  Sr  Sr2  1  0.340280  0.336746  0.325784  1
  Mn  Mn3  1  0.081845  0.583805  0.835232  1
  Mn  Mn4  1  0.416195  0.918155  0.164768  1
  Co  Co5  1  0.751741  0.248259  0.500000  1
  Co  Co6  1  0.248550  0.751450  0.500000  1
  Co  Co7  1  0.584687  0.084097  0.829971  1
  Co  Co8  1  0.915903  0.415313  0.170029  1
  P  P9  1  0.885555  0.878963  0.537260  1
  P  P10  1  0.216107  0.217658  0.865539  1
  P  P11  1  0.548141  0.555200  0.201164  1
  P  P12  1  0.444800  0.451859  0.798836  1
  P  P13  1  0.782342  0.783893  0.134461  1
  P  P14  1  0.121037  0.114445  0.462740  1
