# generated using pymatgen
data_Hf2Zr14Nb4Si15As
_symmetry_space_group_name_H-M   'P 1'
_cell_length_a   6.82796520
_cell_length_b   7.01096939
_cell_length_c   13.51022579
_cell_angle_alpha   90.00982278
_cell_angle_beta   89.44285940
_cell_angle_gamma   90.05578588
_symmetry_Int_Tables_number   1
_chemical_formula_structural   Hf2Zr14Nb4Si15As
_chemical_formula_sum   'Hf2 Zr14 Nb4 Si15 As1'
_cell_volume   646.71246681
_cell_formula_units_Z   1
loop_
 _symmetry_equiv_pos_site_id
 _symmetry_equiv_pos_as_xyz
  1  'x, y, z'
loop_
 _atom_site_type_symbol
 _atom_site_label
 _atom_site_symmetry_multiplicity
 _atom_site_fract_x
 _atom_site_fract_y
 _atom_site_fract_z
 _atom_site_occupancy
  Hf  Hf0  1  0.336940  0.672366  0.624868  1
  Hf  Hf1  1  0.839644  0.825843  0.624151  1
  Zr  Zr2  1  0.333924  0.675469  0.875507  1
  Zr  Zr3  1  0.834094  0.825464  0.875158  1
  Zr  Zr4  1  0.661579  0.328902  0.375649  1
  Zr  Zr5  1  0.004873  0.676945  0.095930  1
  Zr  Zr6  1  0.493831  0.819784  0.402424  1
  Zr  Zr7  1  0.496466  0.176867  0.902897  1
  Zr  Zr8  1  0.500261  0.179193  0.598299  1
  Zr  Zr9  1  0.995444  0.323284  0.903265  1
  Zr  Zr10  1  0.166341  0.174834  0.124139  1
  Zr  Zr11  1  0.162526  0.172687  0.377393  1
  Zr  Zr12  1  0.000295  0.676387  0.404371  1
  Zr  Zr13  1  0.666663  0.325028  0.123988  1
  Zr  Zr14  1  0.503889  0.823209  0.096053  1
  Zr  Zr15  1  0.001750  0.324340  0.596953  1
  Nb  Nb16  1  0.662583  0.502067  0.749039  1
  Nb  Nb17  1  0.163096  0.997785  0.748514  1
  Nb  Nb18  1  0.337241  0.498372  0.250762  1
  Nb  Nb19  1  0.836940  0.001888  0.249150  1
  Si  Si20  1  0.673037  0.532953  0.539643  1
  Si  Si21  1  0.168143  0.970478  0.960263  1
  Si  Si22  1  0.293724  0.361184  0.750448  1
  Si  Si23  1  0.832367  0.029714  0.039029  1
  Si  Si24  1  0.332302  0.469643  0.038930  1
  Si  Si25  1  0.462686  0.105997  0.250211  1
  Si  Si26  1  0.706270  0.639961  0.249363  1
  Si  Si27  1  0.964178  0.394323  0.250551  1
  Si  Si28  1  0.795081  0.139103  0.749746  1
  Si  Si29  1  0.668149  0.530171  0.960251  1
  Si  Si30  1  0.186061  0.966762  0.540625  1
  Si  Si31  1  0.036436  0.606159  0.749487  1
  Si  Si32  1  0.325267  0.467713  0.462556  1
  Si  Si33  1  0.537942  0.893039  0.748557  1
  Si  Si34  1  0.204705  0.860184  0.249494  1
  As  As35  1  0.815272  0.031906  0.462338  1
