# generated using pymatgen
data_Li2PaBr6
_symmetry_space_group_name_H-M   'P 1'
_cell_length_a   6.99913200
_cell_length_b   6.99913277
_cell_length_c   27.12432700
_cell_angle_alpha   90.00000000
_cell_angle_beta   90.00000000
_cell_angle_gamma   119.99999638
_symmetry_Int_Tables_number   1
_chemical_formula_structural   Li2PaBr6
_chemical_formula_sum   'Li8 Pa4 Br24'
_cell_volume   1150.74218652
_cell_formula_units_Z   4
loop_
 _symmetry_equiv_pos_site_id
 _symmetry_equiv_pos_as_xyz
  1  'x, y, z'
loop_
 _atom_site_type_symbol
 _atom_site_label
 _atom_site_symmetry_multiplicity
 _atom_site_fract_x
 _atom_site_fract_y
 _atom_site_fract_z
 _atom_site_occupancy
  Li  Li0  1  0.000000  0.000000  0.250000  1
  Li  Li1  1  0.000000  0.000000  0.750000  1
  Li  Li2  1  0.333333  0.666667  0.001518  1
  Li  Li3  1  0.333333  0.666667  0.498482  1
  Li  Li4  1  0.333333  0.666667  0.250000  1
  Li  Li5  1  0.666667  0.333333  0.750000  1
  Li  Li6  1  0.666667  0.333333  0.998482  1
  Li  Li7  1  0.666667  0.333333  0.501518  1
  Pa  Pa8  1  0.000000  0.000000  0.000000  1
  Pa  Pa9  1  0.000000  0.000000  0.500000  1
  Pa  Pa10  1  0.333333  0.666667  0.750000  1
  Pa  Pa11  1  0.666667  0.333333  0.250000  1
  Br  Br12  1  0.332522  0.998984  0.307876  1
  Br  Br13  1  0.333538  0.001016  0.807876  1
  Br  Br14  1  0.998313  0.333487  0.057829  1
  Br  Br15  1  0.001687  0.335174  0.557829  1
  Br  Br16  1  0.001016  0.333538  0.307876  1
  Br  Br17  1  0.998984  0.332522  0.807876  1
  Br  Br18  1  0.332522  0.333538  0.192124  1
  Br  Br19  1  0.333538  0.332522  0.692124  1
  Br  Br20  1  0.335174  0.333487  0.442171  1
  Br  Br21  1  0.333487  0.335174  0.942171  1
  Br  Br22  1  0.666513  0.001687  0.442171  1
  Br  Br23  1  0.335174  0.001687  0.057829  1
  Br  Br24  1  0.333487  0.998313  0.557829  1
  Br  Br25  1  0.666513  0.664826  0.057829  1
  Br  Br26  1  0.664826  0.666513  0.557829  1
  Br  Br27  1  0.666462  0.667478  0.307876  1
  Br  Br28  1  0.667478  0.666462  0.807876  1
  Br  Br29  1  0.001016  0.667478  0.192124  1
  Br  Br30  1  0.998984  0.666462  0.692124  1
  Br  Br31  1  0.998313  0.664826  0.442171  1
  Br  Br32  1  0.001687  0.666513  0.942171  1
  Br  Br33  1  0.664826  0.998313  0.942171  1
  Br  Br34  1  0.666462  0.998984  0.192124  1
  Br  Br35  1  0.667478  0.001016  0.692124  1
