# generated using pymatgen
data_Sr8Cd3Si12Hg
_symmetry_space_group_name_H-M   'P 1'
_cell_length_a   12.03930273
_cell_length_b   10.34391319
_cell_length_c   8.54190356
_cell_angle_alpha   78.47680384
_cell_angle_beta   57.32445442
_cell_angle_gamma   44.76180382
_symmetry_Int_Tables_number   1
_chemical_formula_structural   Sr8Cd3Si12Hg
_chemical_formula_sum   'Sr8 Cd3 Si12 Hg1'
_cell_volume   599.50746341
_cell_formula_units_Z   1
loop_
 _symmetry_equiv_pos_site_id
 _symmetry_equiv_pos_as_xyz
  1  'x, y, z'
loop_
 _atom_site_type_symbol
 _atom_site_label
 _atom_site_symmetry_multiplicity
 _atom_site_fract_x
 _atom_site_fract_y
 _atom_site_fract_z
 _atom_site_occupancy
  Sr  Sr0  1  0.123757  0.121392  0.875506  1
  Sr  Sr1  1  0.873417  0.877144  0.125993  1
  Sr  Sr2  1  0.128470  0.127344  0.373147  1
  Sr  Sr3  1  0.374721  0.373557  0.127126  1
  Sr  Sr4  1  0.620582  0.623758  0.379380  1
  Sr  Sr5  1  0.377685  0.374791  0.621435  1
  Sr  Sr6  1  0.628489  0.627898  0.871114  1
  Sr  Sr7  1  0.873279  0.873769  0.626309  1
  Cd  Cd8  1  0.081917  0.416962  0.081972  1
  Cd  Cd9  1  0.832741  0.167574  0.830708  1
  Cd  Cd10  1  0.168265  0.833228  0.167928  1
  Si  Si11  1  0.917795  0.601226  0.424551  1
  Si  Si12  1  0.065503  0.425999  0.593471  1
  Si  Si13  1  0.428203  0.067140  0.913290  1
  Si  Si14  1  0.601007  0.917976  0.057406  1
  Si  Si15  1  0.331386  0.649003  0.826485  1
  Si  Si16  1  0.652185  0.334614  0.189440  1
  Si  Si17  1  0.822327  0.182442  0.336435  1
  Si  Si18  1  0.183122  0.822809  0.657981  1
  Si  Si19  1  0.904240  0.587854  0.915984  1
  Si  Si20  1  0.586669  0.902895  0.593400  1
  Si  Si21  1  0.344806  0.662685  0.334604  1
  Si  Si22  1  0.663225  0.346472  0.656546  1
  Hg  Hg23  1  0.416213  0.081473  0.419786  1
