# generated using pymatgen
data_Tm3Lu2Co4(P4Ru5)3
_symmetry_space_group_name_H-M   'P 1'
_cell_length_a   12.43264407
_cell_length_b   12.43044016
_cell_length_c   3.84945600
_cell_angle_alpha   90.00000000
_cell_angle_beta   90.00000000
_cell_angle_gamma   119.99413758
_symmetry_Int_Tables_number   1
_chemical_formula_structural   Tm3Lu2Co4(P4Ru5)3
_chemical_formula_sum   'Tm3 Lu2 Co4 P12 Ru15'
_cell_volume   515.23534920
_cell_formula_units_Z   1
loop_
 _symmetry_equiv_pos_site_id
 _symmetry_equiv_pos_as_xyz
  1  'x, y, z'
loop_
 _atom_site_type_symbol
 _atom_site_label
 _atom_site_symmetry_multiplicity
 _atom_site_fract_x
 _atom_site_fract_y
 _atom_site_fract_z
 _atom_site_occupancy
  Tm  Tm0  1  0.666688  0.333326  0.000000  1
  Tm  Tm1  1  0.333312  0.666638  0.000000  1
  Tm  Tm2  1  0.000000  0.818916  0.500000  1
  Lu  Lu3  1  0.181034  0.181050  0.500000  1
  Lu  Lu4  1  0.818966  0.000016  0.500000  1
  Co  Co5  1  0.720371  0.720534  0.500000  1
  Co  Co6  1  0.279629  0.000163  0.500000  1
  Co  Co7  1  0.000000  0.279419  0.500000  1
  Co  Co8  1  0.000000  0.000340  0.000000  1
  P  P9  1  0.369183  0.369203  0.000000  1
  P  P10  1  0.630817  0.000020  0.000000  1
  P  P11  1  0.000000  0.630654  0.000000  1
  P  P12  1  0.837239  0.311529  0.500000  1
  P  P13  1  0.688411  0.525622  0.500000  1
  P  P14  1  0.474397  0.162791  0.500000  1
  P  P15  1  0.311589  0.837211  0.500000  1
  P  P16  1  0.525603  0.688394  0.500000  1
  P  P17  1  0.162761  0.474290  0.500000  1
  P  P18  1  0.823433  0.823670  0.000000  1
  P  P19  1  0.176567  0.000238  0.000000  1
  P  P20  1  0.000000  0.176381  0.000000  1
  Ru  Ru21  1  0.822007  0.192347  0.000000  1
  Ru  Ru22  1  0.807078  0.629213  0.000000  1
  Ru  Ru23  1  0.370418  0.178072  0.000000  1
  Ru  Ru24  1  0.192922  0.822136  0.000000  1
  Ru  Ru25  1  0.629582  0.807656  0.000000  1
  Ru  Ru26  1  0.177993  0.370341  0.000000  1
  Ru  Ru27  1  0.556749  0.556796  0.000000  1
  Ru  Ru28  1  0.443251  0.000047  0.000000  1
  Ru  Ru29  1  0.000000  0.443168  0.000000  1
  Ru  Ru30  1  0.639055  0.127320  0.500000  1
  Ru  Ru31  1  0.872656  0.511623  0.500000  1
  Ru  Ru32  1  0.488330  0.360988  0.500000  1
  Ru  Ru33  1  0.127344  0.638966  0.500000  1
  Ru  Ru34  1  0.511670  0.872656  0.500000  1
  Ru  Ru35  1  0.360945  0.488265  0.500000  1
