# generated using pymatgen
data_Sr8CaAg6
_symmetry_space_group_name_H-M   'P 1'
_cell_length_a   8.46522842
_cell_length_b   8.46522794
_cell_length_c   8.46522763
_cell_angle_alpha   71.98874152
_cell_angle_beta   71.98873828
_cell_angle_gamma   71.98873515
_symmetry_Int_Tables_number   1
_chemical_formula_structural   Sr8CaAg6
_chemical_formula_sum   'Sr8 Ca1 Ag6'
_cell_volume   533.10140824
_cell_formula_units_Z   1
loop_
 _symmetry_equiv_pos_site_id
 _symmetry_equiv_pos_as_xyz
  1  'x, y, z'
loop_
 _atom_site_type_symbol
 _atom_site_label
 _atom_site_symmetry_multiplicity
 _atom_site_fract_x
 _atom_site_fract_y
 _atom_site_fract_z
 _atom_site_occupancy
  Sr  Sr0  1  0.834579  0.112002  0.337293  1
  Sr  Sr1  1  0.112002  0.337293  0.834579  1
  Sr  Sr2  1  0.337293  0.834579  0.112002  1
  Sr  Sr3  1  0.165421  0.887999  0.662707  1
  Sr  Sr4  1  0.887998  0.662707  0.165421  1
  Sr  Sr5  1  0.662707  0.165421  0.887999  1
  Sr  Sr6  1  0.703761  0.703761  0.703761  1
  Sr  Sr7  1  0.296239  0.296239  0.296239  1
  Ca  Ca8  1  0.500000  0.500000  0.500000  1
  Ag  Ag9  1  0.459374  0.093853  0.641497  1
  Ag  Ag10  1  0.093853  0.641497  0.459374  1
  Ag  Ag11  1  0.641497  0.459374  0.093853  1
  Ag  Ag12  1  0.540626  0.906147  0.358503  1
  Ag  Ag13  1  0.906147  0.358503  0.540626  1
  Ag  Ag14  1  0.358503  0.540626  0.906147  1
