# generated using pymatgen
data_Ho2PaZn2Ga6Co7
_symmetry_space_group_name_H-M   'P 1'
_cell_length_a   8.91016400
_cell_length_b   8.90879106
_cell_length_c   4.01813800
_cell_angle_alpha   90.00000000
_cell_angle_beta   90.00000000
_cell_angle_gamma   120.00509807
_symmetry_Int_Tables_number   1
_chemical_formula_structural   Ho2PaZn2Ga6Co7
_chemical_formula_sum   'Ho2 Pa1 Zn2 Ga6 Co7'
_cell_volume   276.20888094
_cell_formula_units_Z   1
loop_
 _symmetry_equiv_pos_site_id
 _symmetry_equiv_pos_as_xyz
  1  'x, y, z'
loop_
 _atom_site_type_symbol
 _atom_site_label
 _atom_site_symmetry_multiplicity
 _atom_site_fract_x
 _atom_site_fract_y
 _atom_site_fract_z
 _atom_site_occupancy
  Ho  Ho0  1  0.664833  0.329664  0.500000  1
  Ho  Ho1  1  0.335167  0.670336  0.500000  1
  Pa  Pa2  1  0.000000  0.000000  0.000000  1
  Zn  Zn3  1  0.500000  0.500000  0.000000  1
  Zn  Zn4  1  0.000000  0.500000  0.000000  1
  Ga  Ga5  1  0.697799  0.699971  0.500000  1
  Ga  Ga6  1  0.329206  0.000000  0.500000  1
  Ga  Ga7  1  0.997827  0.300029  0.500000  1
  Ga  Ga8  1  0.302201  0.300029  0.500000  1
  Ga  Ga9  1  0.670794  0.000000  0.500000  1
  Ga  Ga10  1  0.002173  0.699971  0.500000  1
  Co  Co11  1  0.500000  0.000000  0.000000  1
  Co  Co12  1  0.829992  0.167556  0.000000  1
  Co  Co13  1  0.825474  0.650947  0.000000  1
  Co  Co14  1  0.337564  0.167556  0.000000  1
  Co  Co15  1  0.170008  0.832444  0.000000  1
  Co  Co16  1  0.662436  0.832444  0.000000  1
  Co  Co17  1  0.174526  0.349053  0.000000  1
