# generated using pymatgen
data_TbTm6Sn23Os6
_symmetry_space_group_name_H-M   'P 1'
_cell_length_a   9.82033000
_cell_length_b   9.82033028
_cell_length_c   10.10477600
_cell_angle_alpha   90.00000000
_cell_angle_beta   90.00000000
_cell_angle_gamma   120.00000579
_symmetry_Int_Tables_number   1
_chemical_formula_structural   TbTm6Sn23Os6
_chemical_formula_sum   'Tb1 Tm6 Sn23 Os6'
_cell_volume   843.93592267
_cell_formula_units_Z   1
loop_
 _symmetry_equiv_pos_site_id
 _symmetry_equiv_pos_as_xyz
  1  'x, y, z'
loop_
 _atom_site_type_symbol
 _atom_site_label
 _atom_site_symmetry_multiplicity
 _atom_site_fract_x
 _atom_site_fract_y
 _atom_site_fract_z
 _atom_site_occupancy
  Tb  Tb0  1  0.000000  0.000000  0.000000  1
  Tm  Tm1  1  0.486438  0.513562  0.301319  1
  Tm  Tm2  1  0.513562  0.486438  0.698681  1
  Tm  Tm3  1  0.486438  0.972877  0.301319  1
  Tm  Tm4  1  0.513562  0.027123  0.698681  1
  Tm  Tm5  1  0.027123  0.513562  0.301319  1
  Tm  Tm6  1  0.972877  0.486438  0.698681  1
  Sn  Sn7  1  0.350225  0.000000  0.000000  1
  Sn  Sn8  1  0.649775  0.000000  0.000000  1
  Sn  Sn9  1  0.000000  0.350225  0.000000  1
  Sn  Sn10  1  0.000000  0.649775  0.000000  1
  Sn  Sn11  1  0.649775  0.649775  0.000000  1
  Sn  Sn12  1  0.350225  0.350225  0.000000  1
  Sn  Sn13  1  0.333333  0.666667  0.825857  1
  Sn  Sn14  1  0.666667  0.333333  0.174143  1
  Sn  Sn15  1  0.000000  0.000000  0.500000  1
  Sn  Sn16  1  0.779160  0.220840  0.464132  1
  Sn  Sn17  1  0.220840  0.779160  0.535868  1
  Sn  Sn18  1  0.779160  0.558320  0.464132  1
  Sn  Sn19  1  0.220840  0.441680  0.535868  1
  Sn  Sn20  1  0.441680  0.220840  0.464132  1
  Sn  Sn21  1  0.558320  0.779160  0.535868  1
  Sn  Sn22  1  0.333333  0.666667  0.132596  1
  Sn  Sn23  1  0.666667  0.333333  0.867404  1
  Sn  Sn24  1  0.118303  0.881697  0.277387  1
  Sn  Sn25  1  0.881697  0.118303  0.722613  1
  Sn  Sn26  1  0.118303  0.236609  0.277387  1
  Sn  Sn27  1  0.881697  0.763391  0.722613  1
  Sn  Sn28  1  0.763391  0.881697  0.277387  1
  Sn  Sn29  1  0.236609  0.118303  0.722613  1
  Os  Os30  1  0.829015  0.170985  0.203273  1
  Os  Os31  1  0.170985  0.829015  0.796727  1
  Os  Os32  1  0.829015  0.658030  0.203273  1
  Os  Os33  1  0.170985  0.341970  0.796727  1
  Os  Os34  1  0.341970  0.170985  0.203273  1
  Os  Os35  1  0.658030  0.829015  0.796727  1
