# generated using pymatgen
data_Pr4Al18PtRh5
_symmetry_space_group_name_H-M   'P 1'
_cell_length_a   7.65508279
_cell_length_b   7.65508423
_cell_length_c   9.63423021
_cell_angle_alpha   89.98798099
_cell_angle_beta   89.98797669
_cell_angle_gamma   119.46447561
_symmetry_Int_Tables_number   1
_chemical_formula_structural   Pr4Al18PtRh5
_chemical_formula_sum   'Pr4 Al18 Pt1 Rh5'
_cell_volume   491.54791596
_cell_formula_units_Z   1
loop_
 _symmetry_equiv_pos_site_id
 _symmetry_equiv_pos_as_xyz
  1  'x, y, z'
loop_
 _atom_site_type_symbol
 _atom_site_label
 _atom_site_symmetry_multiplicity
 _atom_site_fract_x
 _atom_site_fract_y
 _atom_site_fract_z
 _atom_site_occupancy
  Pr  Pr0  1  0.995447  0.670604  0.749816  1
  Pr  Pr1  1  0.004553  0.329396  0.250184  1
  Pr  Pr2  1  0.670604  0.995447  0.749816  1
  Pr  Pr3  1  0.329396  0.004553  0.250184  1
  Al  Al4  1  0.132224  0.132224  0.752585  1
  Al  Al5  1  0.867776  0.867776  0.247415  1
  Al  Al6  1  0.003092  0.338240  0.574195  1
  Al  Al7  1  0.996908  0.661760  0.425805  1
  Al  Al8  1  0.996982  0.664866  0.072744  1
  Al  Al9  1  0.335134  0.003018  0.927256  1
  Al  Al10  1  0.003018  0.335134  0.927256  1
  Al  Al11  1  0.664866  0.996982  0.072744  1
  Al  Al12  1  0.661760  0.996908  0.425805  1
  Al  Al13  1  0.338240  0.003092  0.574195  1
  Al  Al14  1  0.334431  0.334431  0.046104  1
  Al  Al15  1  0.665569  0.665569  0.953896  1
  Al  Al16  1  0.662374  0.662374  0.547187  1
  Al  Al17  1  0.337626  0.337626  0.452813  1
  Al  Al18  1  0.339548  0.546784  0.750040  1
  Al  Al19  1  0.660452  0.453216  0.249960  1
  Al  Al20  1  0.546784  0.339548  0.750040  1
  Al  Al21  1  0.453216  0.660452  0.249960  1
  Pt  Pt22  1  0.000000  0.000000  0.500000  1
  Rh  Rh23  1  0.670838  0.329162  0.500000  1
  Rh  Rh24  1  0.329162  0.670838  0.500000  1
  Rh  Rh25  1  0.329098  0.670902  0.000000  1
  Rh  Rh26  1  0.670902  0.329098  0.000000  1
  Rh  Rh27  1  0.000000  0.000000  0.000000  1
