# generated using pymatgen
data_LaHfPa2Sb5
_symmetry_space_group_name_H-M   'P 1'
_cell_length_a   9.42903900
_cell_length_b   9.33953355
_cell_length_c   6.29252500
_cell_angle_alpha   90.00000000
_cell_angle_beta   90.00000000
_cell_angle_gamma   120.31752579
_symmetry_Int_Tables_number   1
_chemical_formula_structural   LaHfPa2Sb5
_chemical_formula_sum   'La2 Hf2 Pa4 Sb10'
_cell_volume   478.35434158
_cell_formula_units_Z   2
loop_
 _symmetry_equiv_pos_site_id
 _symmetry_equiv_pos_as_xyz
  1  'x, y, z'
loop_
 _atom_site_type_symbol
 _atom_site_label
 _atom_site_symmetry_multiplicity
 _atom_site_fract_x
 _atom_site_fract_y
 _atom_site_fract_z
 _atom_site_occupancy
  La  La0  1  0.616189  0.000000  0.250000  1
  La  La1  1  0.383811  0.000000  0.750000  1
  Hf  Hf2  1  0.000000  0.000000  0.000000  1
  Hf  Hf3  1  0.000000  0.000000  0.500000  1
  Pa  Pa4  1  0.005413  0.613984  0.250000  1
  Pa  Pa5  1  0.994587  0.386016  0.750000  1
  Pa  Pa6  1  0.391428  0.386016  0.250000  1
  Pa  Pa7  1  0.608572  0.613984  0.750000  1
  Sb  Sb8  1  0.262473  0.000000  0.250000  1
  Sb  Sb9  1  0.737527  0.000000  0.750000  1
  Sb  Sb10  1  0.008049  0.272495  0.250000  1
  Sb  Sb11  1  0.991951  0.727505  0.750000  1
  Sb  Sb12  1  0.735554  0.727505  0.250000  1
  Sb  Sb13  1  0.264446  0.272495  0.750000  1
  Sb  Sb14  1  0.328215  0.656433  0.000000  1
  Sb  Sb15  1  0.671785  0.343567  0.000000  1
  Sb  Sb16  1  0.671785  0.343567  0.500000  1
  Sb  Sb17  1  0.328215  0.656433  0.500000  1
