# generated using pymatgen
data_Sc10Si4BiIr
_symmetry_space_group_name_H-M   'P 1'
_cell_length_a   8.24512481
_cell_length_b   8.24512435
_cell_length_c   8.24512600
_cell_angle_alpha   129.64171461
_cell_angle_beta   129.64171201
_cell_angle_gamma   73.98019905
_symmetry_Int_Tables_number   1
_chemical_formula_structural   Sc10Si4BiIr
_chemical_formula_sum   'Sc10 Si4 Bi1 Ir1'
_cell_volume   324.15574376
_cell_formula_units_Z   1
loop_
 _symmetry_equiv_pos_site_id
 _symmetry_equiv_pos_as_xyz
  1  'x, y, z'
loop_
 _atom_site_type_symbol
 _atom_site_label
 _atom_site_symmetry_multiplicity
 _atom_site_fract_x
 _atom_site_fract_y
 _atom_site_fract_z
 _atom_site_occupancy
  Sc  Sc0  1  0.987282  0.987282  0.000000  1
  Sc  Sc1  1  0.512718  0.512718  0.000000  1
  Sc  Sc2  1  0.834483  0.288374  0.838421  1
  Sc  Sc3  1  0.211626  0.665517  0.161579  1
  Sc  Sc4  1  0.449954  0.996063  0.161579  1
  Sc  Sc5  1  0.288374  0.449954  0.453891  1
  Sc  Sc6  1  0.050046  0.211626  0.546109  1
  Sc  Sc7  1  0.503937  0.050046  0.838421  1
  Sc  Sc8  1  0.665517  0.503937  0.453891  1
  Sc  Sc9  1  0.996063  0.834483  0.546109  1
  Si  Si10  1  0.128256  0.628256  0.756513  1
  Si  Si11  1  0.871744  0.371744  0.243487  1
  Si  Si12  1  0.628256  0.871744  0.500000  1
  Si  Si13  1  0.371744  0.128256  0.500000  1
  Bi  Bi14  1  0.750000  0.750000  0.000000  1
  Ir  Ir15  1  0.250000  0.250000  0.000000  1
