# generated using pymatgen
data_Tb2Dy5Sn23Os6
_symmetry_space_group_name_H-M   'P 1'
_cell_length_a   9.86817317
_cell_length_b   9.86817348
_cell_length_c   10.13562401
_cell_angle_alpha   89.99524018
_cell_angle_beta   90.00476014
_cell_angle_gamma   119.97931021
_symmetry_Int_Tables_number   1
_chemical_formula_structural   Tb2Dy5Sn23Os6
_chemical_formula_sum   'Tb2 Dy5 Sn23 Os6'
_cell_volume   854.95875625
_cell_formula_units_Z   1
loop_
 _symmetry_equiv_pos_site_id
 _symmetry_equiv_pos_as_xyz
  1  'x, y, z'
loop_
 _atom_site_type_symbol
 _atom_site_label
 _atom_site_symmetry_multiplicity
 _atom_site_fract_x
 _atom_site_fract_y
 _atom_site_fract_z
 _atom_site_occupancy
  Tb  Tb0  1  0.000001  0.999999  0.000000  1
  Tb  Tb1  1  0.485277  0.514723  0.301894  1
  Dy  Dy2  1  0.514578  0.485422  0.698214  1
  Dy  Dy3  1  0.485444  0.970845  0.301781  1
  Dy  Dy4  1  0.514569  0.029133  0.698226  1
  Dy  Dy5  1  0.029155  0.514556  0.301781  1
  Dy  Dy6  1  0.970867  0.485431  0.698226  1
  Sn  Sn7  1  0.349679  0.999966  0.999970  1
  Sn  Sn8  1  0.650319  0.000013  0.000017  1
  Sn  Sn9  1  0.999987  0.349681  0.000017  1
  Sn  Sn10  1  0.000034  0.650321  0.999970  1
  Sn  Sn11  1  0.650374  0.650366  0.999952  1
  Sn  Sn12  1  0.349634  0.349626  0.999952  1
  Sn  Sn13  1  0.333324  0.666676  0.825101  1
  Sn  Sn14  1  0.666713  0.333287  0.174868  1
  Sn  Sn15  1  0.000004  0.999996  0.500005  1
  Sn  Sn16  1  0.780171  0.219829  0.463350  1
  Sn  Sn17  1  0.219833  0.780167  0.536650  1
  Sn  Sn18  1  0.780296  0.560372  0.463436  1
  Sn  Sn19  1  0.219772  0.439637  0.536720  1
  Sn  Sn20  1  0.439628  0.219704  0.463436  1
  Sn  Sn21  1  0.560363  0.780228  0.536720  1
  Sn  Sn22  1  0.333220  0.666780  0.129763  1
  Sn  Sn23  1  0.666664  0.333336  0.870102  1
  Sn  Sn24  1  0.117541  0.882459  0.275651  1
  Sn  Sn25  1  0.882462  0.117538  0.724360  1
  Sn  Sn26  1  0.117432  0.235019  0.275617  1
  Sn  Sn27  1  0.882452  0.764896  0.724369  1
  Sn  Sn28  1  0.764981  0.882568  0.275617  1
  Sn  Sn29  1  0.235104  0.117548  0.724369  1
  Os  Os30  1  0.829706  0.170294  0.202271  1
  Os  Os31  1  0.170287  0.829713  0.797709  1
  Os  Os32  1  0.829965  0.659524  0.202211  1
  Os  Os33  1  0.170266  0.340576  0.797733  1
  Os  Os34  1  0.340476  0.170035  0.202211  1
  Os  Os35  1  0.659424  0.829734  0.797733  1
