# generated using pymatgen
data_DyY6Th(ReB6)4
_symmetry_space_group_name_H-M   'P 1'
_cell_length_a   3.71379300
_cell_length_b   9.21731088
_cell_length_c   11.61899010
_cell_angle_alpha   90.04406866
_cell_angle_beta   90.00000000
_cell_angle_gamma   90.00000000
_symmetry_Int_Tables_number   1
_chemical_formula_structural   DyY6Th(ReB6)4
_chemical_formula_sum   'Dy1 Y6 Th1 Re4 B24'
_cell_volume   397.73167756
_cell_formula_units_Z   1
loop_
 _symmetry_equiv_pos_site_id
 _symmetry_equiv_pos_as_xyz
  1  'x, y, z'
loop_
 _atom_site_type_symbol
 _atom_site_label
 _atom_site_symmetry_multiplicity
 _atom_site_fract_x
 _atom_site_fract_y
 _atom_site_fract_z
 _atom_site_occupancy
  Dy  Dy0  1  0.000000  0.557832  0.870436  1
  Y  Y1  1  0.000000  0.677855  0.587169  1
  Y  Y2  1  0.000000  0.823176  0.085043  1
  Y  Y3  1  0.000000  0.176248  0.914101  1
  Y  Y4  1  0.000000  0.941596  0.369524  1
  Y  Y5  1  0.000000  0.056385  0.631248  1
  Y  Y6  1  0.000000  0.443164  0.128205  1
  Th  Th7  1  0.000000  0.322422  0.414160  1
  Re  Re8  1  0.000000  0.638405  0.320700  1
  Re  Re9  1  0.000000  0.362411  0.680151  1
  Re  Re10  1  0.000000  0.137939  0.178312  1
  Re  Re11  1  0.000000  0.861784  0.821107  1
  B  B12  1  0.500000  0.555400  0.432023  1
  B  B13  1  0.500000  0.447010  0.569591  1
  B  B14  1  0.500000  0.052896  0.066523  1
  B  B15  1  0.500000  0.946669  0.932759  1
  B  B16  1  0.500000  0.749373  0.417882  1
  B  B17  1  0.500000  0.251631  0.585167  1
  B  B18  1  0.500000  0.248100  0.080472  1
  B  B19  1  0.500000  0.751425  0.918099  1
  B  B20  1  0.500000  0.791301  0.265012  1
  B  B21  1  0.500000  0.208940  0.736090  1
  B  B22  1  0.500000  0.289700  0.232274  1
  B  B23  1  0.500000  0.708818  0.765881  1
  B  B24  1  0.500000  0.631619  0.184725  1
  B  B25  1  0.500000  0.370088  0.814978  1
  B  B26  1  0.500000  0.129073  0.312081  1
  B  B27  1  0.500000  0.869248  0.686414  1
  B  B28  1  0.500000  0.981933  0.210803  1
  B  B29  1  0.500000  0.017179  0.788762  1
  B  B30  1  0.500000  0.485221  0.286448  1
  B  B31  1  0.500000  0.518157  0.713488  1
  B  B32  1  0.500000  0.601414  0.027757  1
  B  B33  1  0.500000  0.399363  0.971365  1
  B  B34  1  0.500000  0.097430  0.472754  1
  B  B35  1  0.500000  0.898796  0.528490  1
