# generated using pymatgen
data_Dy3Ho2Cd2(InNi)2
_symmetry_space_group_name_H-M   'P 1'
_cell_length_a   7.95835600
_cell_length_b   18.08741200
_cell_length_c   3.54495200
_cell_angle_alpha   90.00000000
_cell_angle_beta   90.00000000
_cell_angle_gamma   90.00000000
_symmetry_Int_Tables_number   1
_chemical_formula_structural   Dy3Ho2Cd2(InNi)2
_chemical_formula_sum   'Dy6 Ho4 Cd4 In4 Ni4'
_cell_volume   510.28188681
_cell_formula_units_Z   2
loop_
 _symmetry_equiv_pos_site_id
 _symmetry_equiv_pos_as_xyz
  1  'x, y, z'
loop_
 _atom_site_type_symbol
 _atom_site_label
 _atom_site_symmetry_multiplicity
 _atom_site_fract_x
 _atom_site_fract_y
 _atom_site_fract_z
 _atom_site_occupancy
  Dy  Dy0  1  0.500000  0.500000  0.000000  1
  Dy  Dy1  1  0.000000  0.000000  0.000000  1
  Dy  Dy2  1  0.757840  0.279538  0.000000  1
  Dy  Dy3  1  0.242160  0.720462  0.000000  1
  Dy  Dy4  1  0.742160  0.779538  0.000000  1
  Dy  Dy5  1  0.257840  0.220462  0.000000  1
  Ho  Ho6  1  0.617337  0.088665  0.000000  1
  Ho  Ho7  1  0.382663  0.911335  0.000000  1
  Ho  Ho8  1  0.882663  0.588665  0.000000  1
  Ho  Ho9  1  0.117337  0.411335  0.000000  1
  Cd  Cd10  1  0.704481  0.931169  0.500000  1
  Cd  Cd11  1  0.295519  0.068831  0.500000  1
  Cd  Cd12  1  0.795519  0.431169  0.500000  1
  Cd  Cd13  1  0.204481  0.568831  0.500000  1
  In  In14  1  0.562708  0.650328  0.500000  1
  In  In15  1  0.437292  0.349672  0.500000  1
  In  In16  1  0.937292  0.150328  0.500000  1
  In  In17  1  0.062708  0.849672  0.500000  1
  Ni  Ni18  1  0.536105  0.197593  0.500000  1
  Ni  Ni19  1  0.463895  0.802407  0.500000  1
  Ni  Ni20  1  0.963895  0.697593  0.500000  1
  Ni  Ni21  1  0.036105  0.302407  0.500000  1
