# generated using pymatgen
data_Ca20Tl3Zn7Pd2
_symmetry_space_group_name_H-M   'P 1'
_cell_length_a   8.04632690
_cell_length_b   8.04632726
_cell_length_c   14.78989600
_cell_angle_alpha   89.97296968
_cell_angle_beta   90.02703032
_cell_angle_gamma   90.09196286
_symmetry_Int_Tables_number   1
_chemical_formula_structural   Ca20Tl3Zn7Pd2
_chemical_formula_sum   'Ca20 Tl3 Zn7 Pd2'
_cell_volume   957.54640208
_cell_formula_units_Z   1
loop_
 _symmetry_equiv_pos_site_id
 _symmetry_equiv_pos_as_xyz
  1  'x, y, z'
loop_
 _atom_site_type_symbol
 _atom_site_label
 _atom_site_symmetry_multiplicity
 _atom_site_fract_x
 _atom_site_fract_y
 _atom_site_fract_z
 _atom_site_occupancy
  Ca  Ca0  1  0.672352  0.165107  0.104177  1
  Ca  Ca1  1  0.170154  0.668290  0.606235  1
  Ca  Ca2  1  0.322712  0.829473  0.106391  1
  Ca  Ca3  1  0.823829  0.326024  0.608855  1
  Ca  Ca4  1  0.840430  0.672933  0.105945  1
  Ca  Ca5  1  0.337146  0.171351  0.608180  1
  Ca  Ca6  1  0.166420  0.333561  0.105641  1
  Ca  Ca7  1  0.669233  0.835541  0.608149  1
  Ca  Ca8  1  0.829473  0.322712  0.893609  1
  Ca  Ca9  1  0.326024  0.823829  0.391145  1
  Ca  Ca10  1  0.165107  0.672352  0.895823  1
  Ca  Ca11  1  0.668290  0.170154  0.393765  1
  Ca  Ca12  1  0.672933  0.840430  0.894055  1
  Ca  Ca13  1  0.171351  0.337146  0.391820  1
  Ca  Ca14  1  0.333561  0.166420  0.894359  1
  Ca  Ca15  1  0.835541  0.669233  0.391851  1
  Ca  Ca16  1  0.503078  0.493785  0.753766  1
  Ca  Ca17  1  0.002604  0.994515  0.250608  1
  Ca  Ca18  1  0.994515  0.002604  0.749392  1
  Ca  Ca19  1  0.493785  0.503078  0.246234  1
  Tl  Tl20  1  0.500714  0.500714  0.500000  1
  Tl  Tl21  1  0.500885  0.500885  0.000000  1
  Tl  Tl22  1  0.000985  0.000985  0.500000  1
  Zn  Zn23  1  0.881911  0.382250  0.248064  1
  Zn  Zn24  1  0.382250  0.881911  0.751936  1
  Zn  Zn25  1  0.882223  0.618126  0.751672  1
  Zn  Zn26  1  0.382870  0.118648  0.248213  1
  Zn  Zn27  1  0.118648  0.382870  0.751787  1
  Zn  Zn28  1  0.618126  0.882223  0.248328  1
  Zn  Zn29  1  0.000077  0.000077  0.000000  1
  Pd  Pd30  1  0.617018  0.115756  0.751744  1
  Pd  Pd31  1  0.115756  0.617018  0.248256  1
