# generated using pymatgen
data_Zn6Sn6RuRh11
_symmetry_space_group_name_H-M   'P 1'
_cell_length_a   4.43905701
_cell_length_b   6.26033700
_cell_length_c   13.38756803
_cell_angle_alpha   90.00271071
_cell_angle_beta   90.00661234
_cell_angle_gamma   89.99681235
_symmetry_Int_Tables_number   1
_chemical_formula_structural   Zn6Sn6RuRh11
_chemical_formula_sum   'Zn6 Sn6 Ru1 Rh11'
_cell_volume   372.04041636
_cell_formula_units_Z   1
loop_
 _symmetry_equiv_pos_site_id
 _symmetry_equiv_pos_as_xyz
  1  'x, y, z'
loop_
 _atom_site_type_symbol
 _atom_site_label
 _atom_site_symmetry_multiplicity
 _atom_site_fract_x
 _atom_site_fract_y
 _atom_site_fract_z
 _atom_site_occupancy
  Zn  Zn0  1  0.999965  0.000854  0.999995  1
  Zn  Zn1  1  0.499833  0.498528  0.165455  1
  Zn  Zn2  1  0.999984  0.000476  0.332841  1
  Zn  Zn3  1  0.499995  0.500469  0.500009  1
  Zn  Zn4  1  0.000038  0.000411  0.667181  1
  Zn  Zn5  1  0.500167  0.498446  0.834531  1
  Sn  Sn6  1  0.999923  0.496347  0.000002  1
  Sn  Sn7  1  0.500007  0.001646  0.165129  1
  Sn  Sn8  1  0.000039  0.500244  0.333155  1
  Sn  Sn9  1  0.500134  0.999971  0.500044  1
  Sn  Sn10  1  0.999961  0.500204  0.666848  1
  Sn  Sn11  1  0.499959  0.001575  0.834853  1
  Ru  Ru12  1  0.500062  0.249201  0.000014  1
  Rh  Rh13  1  0.499785  0.748838  0.999936  1
  Rh  Rh14  1  0.999751  0.250527  0.168830  1
  Rh  Rh15  1  0.999494  0.749366  0.167657  1
  Rh  Rh16  1  0.499827  0.249986  0.334346  1
  Rh  Rh17  1  0.499877  0.751580  0.333058  1
  Rh  Rh18  1  0.999997  0.250705  0.499972  1
  Rh  Rh19  1  0.000031  0.749810  0.499987  1
  Rh  Rh20  1  0.500196  0.249909  0.665666  1
  Rh  Rh21  1  0.500312  0.751456  0.666921  1
  Rh  Rh22  1  0.000260  0.250348  0.831228  1
  Rh  Rh23  1  0.000407  0.749097  0.832341  1
