# generated using pymatgen
data_Lu3Hf(Co5P3)4
_symmetry_space_group_name_H-M   'P 1'
_cell_length_a   3.62043300
_cell_length_b   10.20959814
_cell_length_c   11.67151516
_cell_angle_alpha   89.98088497
_cell_angle_beta   90.00000000
_cell_angle_gamma   90.00000000
_symmetry_Int_Tables_number   1
_chemical_formula_structural   Lu3Hf(Co5P3)4
_chemical_formula_sum   'Lu3 Hf1 Co20 P12'
_cell_volume   431.41612876
_cell_formula_units_Z   1
loop_
 _symmetry_equiv_pos_site_id
 _symmetry_equiv_pos_as_xyz
  1  'x, y, z'
loop_
 _atom_site_type_symbol
 _atom_site_label
 _atom_site_symmetry_multiplicity
 _atom_site_fract_x
 _atom_site_fract_y
 _atom_site_fract_z
 _atom_site_occupancy
  Lu  Lu0  1  0.250000  0.917487  0.202719  1
  Lu  Lu1  1  0.750000  0.417748  0.297205  1
  Lu  Lu2  1  0.750000  0.082455  0.796979  1
  Hf  Hf3  1  0.250000  0.581386  0.701514  1
  Co  Co4  1  0.250000  0.718284  0.993016  1
  Co  Co5  1  0.250000  0.781008  0.493015  1
  Co  Co6  1  0.750000  0.282256  0.006366  1
  Co  Co7  1  0.750000  0.218597  0.508912  1
  Co  Co8  1  0.250000  0.409842  0.488943  1
  Co  Co9  1  0.250000  0.092530  0.986948  1
  Co  Co10  1  0.750000  0.592976  0.517013  1
  Co  Co11  1  0.750000  0.907521  0.012652  1
  Co  Co12  1  0.250000  0.222170  0.177318  1
  Co  Co13  1  0.250000  0.278614  0.677613  1
  Co  Co14  1  0.750000  0.775517  0.821961  1
  Co  Co15  1  0.750000  0.720863  0.323547  1
  Co  Co16  1  0.250000  0.881080  0.699860  1
  Co  Co17  1  0.250000  0.616473  0.199014  1
  Co  Co18  1  0.750000  0.117107  0.301147  1
  Co  Co19  1  0.750000  0.386494  0.798497  1
  Co  Co20  1  0.250000  0.469166  0.928182  1
  Co  Co21  1  0.250000  0.032226  0.431631  1
  Co  Co22  1  0.750000  0.532714  0.067000  1
  Co  Co23  1  0.750000  0.965947  0.569304  1
  P  P24  1  0.250000  0.418641  0.111705  1
  P  P25  1  0.250000  0.080930  0.613454  1
  P  P26  1  0.750000  0.581340  0.884222  1
  P  P27  1  0.750000  0.918262  0.387071  1
  P  P28  1  0.250000  0.268783  0.870121  1
  P  P29  1  0.250000  0.231830  0.371034  1
  P  P30  1  0.750000  0.731091  0.129960  1
  P  P31  1  0.750000  0.766541  0.631566  1
  P  P32  1  0.250000  0.600380  0.390063  1
  P  P33  1  0.250000  0.899665  0.890502  1
  P  P34  1  0.750000  0.401226  0.610279  1
  P  P35  1  0.750000  0.100849  0.109670  1
