# generated using pymatgen
data_Y4Er16(GaBi3)3
_symmetry_space_group_name_H-M   'P 1'
_cell_length_a   8.09254841
_cell_length_b   9.35158200
_cell_length_c   11.90258400
_cell_angle_alpha   90.00000000
_cell_angle_beta   90.17880737
_cell_angle_gamma   90.00000000
_symmetry_Int_Tables_number   1
_chemical_formula_structural   Y4Er16(GaBi3)3
_chemical_formula_sum   'Y4 Er16 Ga3 Bi9'
_cell_volume   900.76091318
_cell_formula_units_Z   1
loop_
 _symmetry_equiv_pos_site_id
 _symmetry_equiv_pos_as_xyz
  1  'x, y, z'
loop_
 _atom_site_type_symbol
 _atom_site_label
 _atom_site_symmetry_multiplicity
 _atom_site_fract_x
 _atom_site_fract_y
 _atom_site_fract_z
 _atom_site_occupancy
  Y  Y0  1  0.324396  0.250000  0.211262  1
  Y  Y1  1  0.806579  0.250000  0.277821  1
  Y  Y2  1  0.677671  0.750000  0.787270  1
  Y  Y3  1  0.179032  0.750000  0.713087  1
  Er  Er4  1  0.345411  0.750000  0.205104  1
  Er  Er5  1  0.852495  0.750000  0.292743  1
  Er  Er6  1  0.652581  0.250000  0.794614  1
  Er  Er7  1  0.156606  0.250000  0.715625  1
  Er  Er8  1  0.682149  0.555954  0.056728  1
  Er  Er9  1  0.186638  0.930357  0.442647  1
  Er  Er10  1  0.317263  0.055426  0.944784  1
  Er  Er11  1  0.808854  0.451148  0.561890  1
  Er  Er12  1  0.317263  0.444574  0.944784  1
  Er  Er13  1  0.808854  0.048852  0.561890  1
  Er  Er14  1  0.682149  0.944046  0.056728  1
  Er  Er15  1  0.186638  0.569643  0.442647  1
  Er  Er16  1  0.478000  0.250000  0.491007  1
  Er  Er17  1  0.965679  0.250000  0.006956  1
  Er  Er18  1  0.537746  0.750000  0.509181  1
  Er  Er19  1  0.034484  0.750000  0.991511  1
  Ga  Ga20  1  0.408343  0.750000  0.961444  1
  Ga  Ga21  1  0.908937  0.750000  0.537573  1
  Ga  Ga22  1  0.594173  0.250000  0.037064  1
  Bi  Bi23  1  0.090942  0.250000  0.457175  1
  Bi  Bi24  1  0.557246  0.995774  0.323413  1
  Bi  Bi25  1  0.057556  0.501150  0.175810  1
  Bi  Bi26  1  0.440677  0.497591  0.677291  1
  Bi  Bi27  1  0.943080  0.001135  0.822718  1
  Bi  Bi28  1  0.440677  0.002409  0.677291  1
  Bi  Bi29  1  0.943080  0.498865  0.822718  1
  Bi  Bi30  1  0.557246  0.504226  0.323413  1
  Bi  Bi31  1  0.057556  0.998850  0.175810  1
