# generated using pymatgen
data_Sb8Mo4Se3S
_symmetry_space_group_name_H-M   'P 1'
_cell_length_a   6.49742900
_cell_length_b   6.66028488
_cell_length_c   18.78701034
_cell_angle_alpha   85.48320374
_cell_angle_beta   90.00000000
_cell_angle_gamma   90.00000000
_symmetry_Int_Tables_number   1
_chemical_formula_structural   Sb8Mo4Se3S
_chemical_formula_sum   'Sb16 Mo8 Se6 S2'
_cell_volume   810.47781435
_cell_formula_units_Z   2
loop_
 _symmetry_equiv_pos_site_id
 _symmetry_equiv_pos_as_xyz
  1  'x, y, z'
loop_
 _atom_site_type_symbol
 _atom_site_label
 _atom_site_symmetry_multiplicity
 _atom_site_fract_x
 _atom_site_fract_y
 _atom_site_fract_z
 _atom_site_occupancy
  Sb  Sb0  1  0.397809  0.203430  0.273794  1
  Sb  Sb1  1  0.897809  0.796570  0.226206  1
  Sb  Sb2  1  0.601901  0.795622  0.727318  1
  Sb  Sb3  1  0.101901  0.204378  0.772682  1
  Sb  Sb4  1  0.852554  0.204038  0.273493  1
  Sb  Sb5  1  0.352554  0.795962  0.226507  1
  Sb  Sb6  1  0.147550  0.794834  0.727517  1
  Sb  Sb7  1  0.647550  0.205166  0.772483  1
  Sb  Sb8  1  0.375254  0.075612  0.426579  1
  Sb  Sb9  1  0.875254  0.924388  0.073421  1
  Sb  Sb10  1  0.625611  0.924054  0.575271  1
  Sb  Sb11  1  0.125611  0.075946  0.924729  1
  Sb  Sb12  1  0.874849  0.074676  0.425971  1
  Sb  Sb13  1  0.374849  0.925324  0.074029  1
  Sb  Sb14  1  0.124186  0.924096  0.575484  1
  Sb  Sb15  1  0.624186  0.075904  0.924516  1
  Mo  Mo16  1  0.875218  0.671963  0.495175  1
  Mo  Mo17  1  0.375218  0.328037  0.004825  1
  Mo  Mo18  1  0.122907  0.326427  0.506254  1
  Mo  Mo19  1  0.622907  0.673573  0.993746  1
  Mo  Mo20  1  0.627118  0.326291  0.506324  1
  Mo  Mo21  1  0.127118  0.673709  0.993676  1
  Mo  Mo22  1  0.374915  0.674710  0.495392  1
  Mo  Mo23  1  0.874915  0.325290  0.004608  1
  Se  Se24  1  0.125502  0.586628  0.400897  1
  Se  Se25  1  0.625502  0.413372  0.099103  1
  Se  Se26  1  0.624664  0.587022  0.400945  1
  Se  Se27  1  0.124664  0.412978  0.099055  1
  Se  Se28  1  0.374906  0.412992  0.600575  1
  Se  Se29  1  0.874906  0.587008  0.899425  1
  S  S30  1  0.875056  0.414715  0.591511  1
  S  S31  1  0.375056  0.585285  0.908489  1
