# generated using pymatgen
data_Ca4Tb3YHg8
_symmetry_space_group_name_H-M   'P 1'
_cell_length_a   7.53085200
_cell_length_b   7.54405200
_cell_length_c   7.47101300
_cell_angle_alpha   90.00000000
_cell_angle_beta   90.00045071
_cell_angle_gamma   90.00000000
_symmetry_Int_Tables_number   1
_chemical_formula_structural   Ca4Tb3YHg8
_chemical_formula_sum   'Ca4 Tb3 Y1 Hg8'
_cell_volume   424.45170072
_cell_formula_units_Z   1
loop_
 _symmetry_equiv_pos_site_id
 _symmetry_equiv_pos_as_xyz
  1  'x, y, z'
loop_
 _atom_site_type_symbol
 _atom_site_label
 _atom_site_symmetry_multiplicity
 _atom_site_fract_x
 _atom_site_fract_y
 _atom_site_fract_z
 _atom_site_occupancy
  Ca  Ca0  1  0.749524  0.250000  0.000121  1
  Ca  Ca1  1  0.249531  0.750000  0.499879  1
  Ca  Ca2  1  0.750471  0.250000  0.500120  1
  Ca  Ca3  1  0.250478  0.750000  0.999880  1
  Tb  Tb4  1  0.250677  0.250000  0.999997  1
  Tb  Tb5  1  0.749329  0.750000  0.000001  1
  Tb  Tb6  1  0.750680  0.750000  0.499987  1
  Y  Y7  1  0.249297  0.250000  0.500013  1
  Hg  Hg8  1  0.000254  0.500077  0.248650  1
  Hg  Hg9  1  0.000254  0.999925  0.248650  1
  Hg  Hg10  1  0.500166  0.000160  0.251358  1
  Hg  Hg11  1  0.500166  0.499840  0.251358  1
  Hg  Hg12  1  0.499754  0.500093  0.748645  1
  Hg  Hg13  1  0.499754  0.999909  0.748645  1
  Hg  Hg14  1  0.999831  0.000163  0.751349  1
  Hg  Hg15  1  0.999831  0.499837  0.751349  1
