# generated using pymatgen
data_YNp2Ni9
_symmetry_space_group_name_H-M   'P 1'
_cell_length_a   4.97518354
_cell_length_b   4.97518189
_cell_length_c   8.83622200
_cell_angle_alpha   106.35107358
_cell_angle_beta   73.64893199
_cell_angle_gamma   119.99999569
_symmetry_Int_Tables_number   1
_chemical_formula_structural   YNp2Ni9
_chemical_formula_sum   'Y1 Np2 Ni9'
_cell_volume   179.12801891
_cell_formula_units_Z   1
loop_
 _symmetry_equiv_pos_site_id
 _symmetry_equiv_pos_as_xyz
  1  'x, y, z'
loop_
 _atom_site_type_symbol
 _atom_site_label
 _atom_site_symmetry_multiplicity
 _atom_site_fract_x
 _atom_site_fract_y
 _atom_site_fract_z
 _atom_site_occupancy
  Y  Y0  1  0.000000  0.000000  0.000000  1
  Np  Np1  1  0.856251  0.143748  0.431244  1
  Np  Np2  1  0.143749  0.856251  0.568756  1
  Ni  Ni3  1  0.332748  0.667251  0.001752  1
  Ni  Ni4  1  0.667251  0.332749  0.998248  1
  Ni  Ni5  1  0.417628  0.082617  0.247360  1
  Ni  Ni6  1  0.417628  0.582370  0.247360  1
  Ni  Ni7  1  0.917384  0.582372  0.247360  1
  Ni  Ni8  1  0.500000  0.500000  0.500000  1
  Ni  Ni9  1  0.082617  0.417630  0.752641  1
  Ni  Ni10  1  0.582371  0.417630  0.752641  1
  Ni  Ni11  1  0.582371  0.917383  0.752641  1
