# generated using pymatgen
data_Lu3Zr(Al8Pt3)3
_symmetry_space_group_name_H-M   'P 1'
_cell_length_a   7.50669432
_cell_length_b   7.51681893
_cell_length_c   13.06763247
_cell_angle_alpha   84.56760847
_cell_angle_beta   79.03544230
_cell_angle_gamma   59.91601635
_symmetry_Int_Tables_number   1
_chemical_formula_structural   Lu3Zr(Al8Pt3)3
_chemical_formula_sum   'Lu3 Zr1 Al24 Pt9'
_cell_volume   626.38418309
_cell_formula_units_Z   1
loop_
 _symmetry_equiv_pos_site_id
 _symmetry_equiv_pos_as_xyz
  1  'x, y, z'
loop_
 _atom_site_type_symbol
 _atom_site_label
 _atom_site_symmetry_multiplicity
 _atom_site_fract_x
 _atom_site_fract_y
 _atom_site_fract_z
 _atom_site_occupancy
  Lu  Lu0  1  0.606045  0.831267  0.193069  1
  Lu  Lu1  1  0.734460  0.498795  0.806717  1
  Lu  Lu2  1  0.265890  0.501240  0.193257  1
  Zr  Zr3  1  0.393301  0.168308  0.809557  1
  Al  Al4  1  0.682228  0.835744  0.942063  1
  Al  Al5  1  0.317021  0.166377  0.055419  1
  Al  Al6  1  0.146414  0.832674  0.562296  1
  Al  Al7  1  0.853462  0.167271  0.437848  1
  Al  Al8  1  0.479502  0.166760  0.560469  1
  Al  Al9  1  0.519857  0.833728  0.440953  1
  Al  Al10  1  0.217969  0.165409  0.328170  1
  Al  Al11  1  0.779443  0.836634  0.673549  1
  Al  Al12  1  0.435870  0.504571  0.673839  1
  Al  Al13  1  0.562931  0.493644  0.327641  1
  Al  Al14  1  0.110757  0.159716  0.672711  1
  Al  Al15  1  0.890757  0.839840  0.328805  1
  Al  Al16  1  0.354521  0.496792  0.942125  1
  Al  Al17  1  0.646475  0.501093  0.056054  1
  Al  Al18  1  0.018371  0.168586  0.949768  1
  Al  Al19  1  0.983954  0.831831  0.048401  1
  Al  Al20  1  0.186857  0.499394  0.441013  1
  Al  Al21  1  0.813645  0.500371  0.558806  1
  Al  Al22  1  0.732963  0.163928  0.183273  1
  Al  Al23  1  0.267329  0.839937  0.816649  1
  Al  Al24  1  0.065123  0.626635  0.815359  1
  Al  Al25  1  0.938896  0.368943  0.184126  1
  Al  Al26  1  0.850812  0.042620  0.815870  1
  Al  Al27  1  0.145265  0.957910  0.183617  1
  Pt  Pt28  1  0.118760  0.490878  0.639556  1
  Pt  Pt29  1  0.879681  0.509589  0.360272  1
  Pt  Pt30  1  0.657136  0.172248  0.999219  1
  Pt  Pt31  1  0.344117  0.827535  0.999749  1
  Pt  Pt32  1  0.536808  0.166678  0.360855  1
  Pt  Pt33  1  0.463938  0.831831  0.639454  1
  Pt  Pt34  1  0.777957  0.177028  0.637908  1
  Pt  Pt35  1  0.222038  0.823772  0.362164  1
  Pt  Pt36  1  0.999448  0.500423  0.999395  1
