# generated using pymatgen
data_TbY2Sc3FeSb2
_symmetry_space_group_name_H-M   'P 1'
_cell_length_a   7.86179500
_cell_length_b   7.87781159
_cell_length_c   4.14932800
_cell_angle_alpha   90.00000000
_cell_angle_beta   90.00000000
_cell_angle_gamma   119.93277168
_symmetry_Int_Tables_number   1
_chemical_formula_structural   TbY2Sc3FeSb2
_chemical_formula_sum   'Tb1 Y2 Sc3 Fe1 Sb2'
_cell_volume   222.70476637
_cell_formula_units_Z   1
loop_
 _symmetry_equiv_pos_site_id
 _symmetry_equiv_pos_as_xyz
  1  'x, y, z'
loop_
 _atom_site_type_symbol
 _atom_site_label
 _atom_site_symmetry_multiplicity
 _atom_site_fract_x
 _atom_site_fract_y
 _atom_site_fract_z
 _atom_site_occupancy
  Tb  Tb0  1  0.606998  0.000000  0.500000  1
  Y  Y1  1  0.393410  0.393617  0.500000  1
  Y  Y2  1  0.999794  0.606383  0.500000  1
  Sc  Sc3  1  0.225461  0.000000  0.000000  1
  Sc  Sc4  1  0.774679  0.774819  0.000000  1
  Sc  Sc5  1  0.999860  0.225181  0.000000  1
  Fe  Fe6  1  0.000025  0.000000  0.500000  1
  Sb  Sb7  1  0.332975  0.666176  0.000000  1
  Sb  Sb8  1  0.666799  0.333824  0.000000  1
