# generated using pymatgen
data_Sc2Pa2Al5Tc3
_symmetry_space_group_name_H-M   'P 1'
_cell_length_a   5.33354149
_cell_length_b   5.28266431
_cell_length_c   8.84553201
_cell_angle_alpha   89.99999851
_cell_angle_beta   92.01467489
_cell_angle_gamma   119.68495237
_symmetry_Int_Tables_number   1
_chemical_formula_structural   Sc2Pa2Al5Tc3
_chemical_formula_sum   'Sc2 Pa2 Al5 Tc3'
_cell_volume   216.34028498
_cell_formula_units_Z   1
loop_
 _symmetry_equiv_pos_site_id
 _symmetry_equiv_pos_as_xyz
  1  'x, y, z'
loop_
 _atom_site_type_symbol
 _atom_site_label
 _atom_site_symmetry_multiplicity
 _atom_site_fract_x
 _atom_site_fract_y
 _atom_site_fract_z
 _atom_site_occupancy
  Sc  Sc0  1  0.658860  0.329429  0.940823  1
  Sc  Sc1  1  0.327839  0.663920  0.057490  1
  Pa  Pa2  1  0.361234  0.680617  0.464832  1
  Pa  Pa3  1  0.658133  0.329066  0.550214  1
  Al  Al4  1  0.838412  0.168444  0.242725  1
  Al  Al5  1  0.838412  0.669969  0.242725  1
  Al  Al6  1  0.333788  0.166895  0.236576  1
  Al  Al7  1  0.164230  0.832198  0.760033  1
  Al  Al8  1  0.164230  0.332031  0.760033  1
  Tc  Tc9  1  0.023458  0.011729  0.495805  1
  Tc  Tc10  1  0.975068  0.987534  0.995670  1
  Tc  Tc11  1  0.656337  0.828168  0.753075  1
