# generated using pymatgen
data_CsTmBeSe3
_symmetry_space_group_name_H-M   'P 1'
_cell_length_a   8.37166397
_cell_length_b   8.37166443
_cell_length_c   10.75238700
_cell_angle_alpha   90.00000000
_cell_angle_beta   90.00000000
_cell_angle_gamma   151.95816105
_symmetry_Int_Tables_number   1
_chemical_formula_structural   CsTmBeSe3
_chemical_formula_sum   'Cs2 Tm2 Be2 Se6'
_cell_volume   354.26944325
_cell_formula_units_Z   2
loop_
 _symmetry_equiv_pos_site_id
 _symmetry_equiv_pos_as_xyz
  1  'x, y, z'
loop_
 _atom_site_type_symbol
 _atom_site_label
 _atom_site_symmetry_multiplicity
 _atom_site_fract_x
 _atom_site_fract_y
 _atom_site_fract_z
 _atom_site_occupancy
  Cs  Cs0  1  0.240696  0.759304  0.250000  1
  Cs  Cs1  1  0.759304  0.240696  0.750000  1
  Tm  Tm2  1  0.500000  0.500000  0.000000  1
  Tm  Tm3  1  0.500000  0.500000  0.500000  1
  Be  Be4  1  0.963800  0.036199  0.250000  1
  Be  Be5  1  0.036199  0.963800  0.750000  1
  Se  Se6  1  0.889785  0.110214  0.074508  1
  Se  Se7  1  0.548755  0.451245  0.250000  1
  Se  Se8  1  0.889785  0.110214  0.425492  1
  Se  Se9  1  0.110214  0.889785  0.574508  1
  Se  Se10  1  0.451245  0.548755  0.750000  1
  Se  Se11  1  0.110214  0.889785  0.925492  1
