# generated using pymatgen
data_Y5Sc2Ni17P12
_symmetry_space_group_name_H-M   'P 1'
_cell_length_a   12.22590584
_cell_length_b   12.19947021
_cell_length_c   3.78740900
_cell_angle_alpha   90.00000000
_cell_angle_beta   90.00000000
_cell_angle_gamma   119.92849823
_symmetry_Int_Tables_number   1
_chemical_formula_structural   Y5Sc2Ni17P12
_chemical_formula_sum   'Y5 Sc2 Ni17 P12'
_cell_volume   489.56156443
_cell_formula_units_Z   1
loop_
 _symmetry_equiv_pos_site_id
 _symmetry_equiv_pos_as_xyz
  1  'x, y, z'
loop_
 _atom_site_type_symbol
 _atom_site_label
 _atom_site_symmetry_multiplicity
 _atom_site_fract_x
 _atom_site_fract_y
 _atom_site_fract_z
 _atom_site_occupancy
  Y  Y0  1  0.666875  0.332773  0.000000  1
  Y  Y1  1  0.333125  0.665898  0.000000  1
  Y  Y2  1  0.184795  0.183422  0.500000  1
  Y  Y3  1  0.815205  0.998627  0.500000  1
  Y  Y4  1  0.000000  0.810142  0.500000  1
  Sc  Sc5  1  0.563841  0.563235  0.000000  1
  Sc  Sc6  1  0.436159  0.999394  0.000000  1
  Ni  Ni7  1  0.000000  0.445980  0.000000  1
  Ni  Ni8  1  0.823112  0.202444  0.000000  1
  Ni  Ni9  1  0.810223  0.619399  0.000000  1
  Ni  Ni10  1  0.377253  0.187294  0.000000  1
  Ni  Ni11  1  0.189777  0.809175  0.000000  1
  Ni  Ni12  1  0.622747  0.810041  0.000000  1
  Ni  Ni13  1  0.176888  0.379332  0.000000  1
  Ni  Ni14  1  0.643812  0.125101  0.500000  1
  Ni  Ni15  1  0.877243  0.511500  0.500000  1
  Ni  Ni16  1  0.484433  0.361780  0.500000  1
  Ni  Ni17  1  0.122757  0.634256  0.500000  1
  Ni  Ni18  1  0.515567  0.877347  0.500000  1
  Ni  Ni19  1  0.356188  0.481289  0.500000  1
  Ni  Ni20  1  0.723272  0.723479  0.500000  1
  Ni  Ni21  1  0.276728  0.000207  0.500000  1
  Ni  Ni22  1  0.000000  0.282813  0.500000  1
  Ni  Ni23  1  0.000000  0.999242  0.000000  1
  P  P24  1  0.352844  0.359513  0.000000  1
  P  P25  1  0.647156  0.006669  0.000000  1
  P  P26  1  0.000000  0.629472  0.000000  1
  P  P27  1  0.835307  0.312267  0.500000  1
  P  P28  1  0.695734  0.523567  0.500000  1
  P  P29  1  0.476331  0.171073  0.500000  1
  P  P30  1  0.304266  0.827834  0.500000  1
  P  P31  1  0.523669  0.694743  0.500000  1
  P  P32  1  0.164693  0.476960  0.500000  1
  P  P33  1  0.823077  0.819599  0.000000  1
  P  P34  1  0.176923  0.996522  0.000000  1
  P  P35  1  0.000000  0.177616  0.000000  1
