# generated using pymatgen
data_Rb4Ba(SnSe3)2
_symmetry_space_group_name_H-M   'P 1'
_cell_length_a   7.97284204
_cell_length_b   7.97284089
_cell_length_c   9.34947026
_cell_angle_alpha   81.80248989
_cell_angle_beta   81.80249070
_cell_angle_gamma   119.73613169
_symmetry_Int_Tables_number   1
_chemical_formula_structural   Rb4Ba(SnSe3)2
_chemical_formula_sum   'Rb4 Ba1 Sn2 Se6'
_cell_volume   494.79603065
_cell_formula_units_Z   1
loop_
 _symmetry_equiv_pos_site_id
 _symmetry_equiv_pos_as_xyz
  1  'x, y, z'
loop_
 _atom_site_type_symbol
 _atom_site_label
 _atom_site_symmetry_multiplicity
 _atom_site_fract_x
 _atom_site_fract_y
 _atom_site_fract_z
 _atom_site_occupancy
  Rb  Rb0  1  0.821688  0.178312  0.000000  1
  Rb  Rb1  1  0.175161  0.824839  0.000000  1
  Rb  Rb2  1  0.503899  0.496101  0.000000  1
  Rb  Rb3  1  0.665947  0.334053  0.500000  1
  Ba  Ba4  1  0.334455  0.665545  0.500000  1
  Sn  Sn5  1  0.050823  0.051375  0.343202  1
  Sn  Sn6  1  0.948625  0.949177  0.656798  1
  Se  Se7  1  0.096089  0.397675  0.261541  1
  Se  Se8  1  0.380199  0.061259  0.262708  1
  Se  Se9  1  0.938741  0.619801  0.737292  1
  Se  Se10  1  0.602325  0.903911  0.738459  1
  Se  Se11  1  0.763007  0.780959  0.258228  1
  Se  Se12  1  0.219041  0.236993  0.741772  1
