# generated using pymatgen
data_Gd8Si13Pd3
_symmetry_space_group_name_H-M   'P 1'
_cell_length_a   8.16516700
_cell_length_b   8.16516757
_cell_length_c   8.15433800
_cell_angle_alpha   90.00002807
_cell_angle_beta   89.99995790
_cell_angle_gamma   119.99999362
_symmetry_Int_Tables_number   1
_chemical_formula_structural   Gd8Si13Pd3
_chemical_formula_sum   'Gd8 Si13 Pd3'
_cell_volume   470.81418886
_cell_formula_units_Z   1
loop_
 _symmetry_equiv_pos_site_id
 _symmetry_equiv_pos_as_xyz
  1  'x, y, z'
loop_
 _atom_site_type_symbol
 _atom_site_label
 _atom_site_symmetry_multiplicity
 _atom_site_fract_x
 _atom_site_fract_y
 _atom_site_fract_z
 _atom_site_occupancy
  Gd  Gd0  1  0.497240  0.994478  0.247359  1
  Gd  Gd1  1  0.497034  0.994068  0.752710  1
  Gd  Gd2  1  0.005522  0.502761  0.247358  1
  Gd  Gd3  1  0.005932  0.502965  0.752710  1
  Gd  Gd4  1  0.497240  0.502761  0.247358  1
  Gd  Gd5  1  0.497035  0.502966  0.752709  1
  Gd  Gd6  1  0.000000  0.000000  0.249096  1
  Gd  Gd7  1  0.000000  0.000000  0.750995  1
  Si  Si8  1  0.164904  0.329809  0.000273  1
  Si  Si9  1  0.833211  0.666424  0.999741  1
  Si  Si10  1  0.670191  0.835096  0.000273  1
  Si  Si11  1  0.834013  0.668028  0.499753  1
  Si  Si12  1  0.333577  0.166789  0.999741  1
  Si  Si13  1  0.165376  0.330752  0.500208  1
  Si  Si14  1  0.164904  0.835096  0.000272  1
  Si  Si15  1  0.331972  0.165986  0.499754  1
  Si  Si16  1  0.833211  0.166789  0.999741  1
  Si  Si17  1  0.669247  0.834624  0.500208  1
  Si  Si18  1  0.834014  0.165986  0.499754  1
  Si  Si19  1  0.165376  0.834624  0.500208  1
  Si  Si20  1  0.333333  0.666667  0.999792  1
  Pd  Pd21  1  0.666667  0.333334  0.999949  1
  Pd  Pd22  1  0.666666  0.333333  0.500048  1
  Pd  Pd23  1  0.333333  0.666667  0.499990  1
