# generated using pymatgen
data_Tb2Y5Er13Sn16
_symmetry_space_group_name_H-M   'P 1'
_cell_length_a   8.00185901
_cell_length_b   8.13429793
_cell_length_c   15.37758600
_cell_angle_alpha   90.01556664
_cell_angle_beta   90.09925625
_cell_angle_gamma   89.95387190
_symmetry_Int_Tables_number   1
_chemical_formula_structural   Tb2Y5Er13Sn16
_chemical_formula_sum   'Tb2 Y5 Er13 Sn16'
_cell_volume   1000.91760081
_cell_formula_units_Z   1
loop_
 _symmetry_equiv_pos_site_id
 _symmetry_equiv_pos_as_xyz
  1  'x, y, z'
loop_
 _atom_site_type_symbol
 _atom_site_label
 _atom_site_symmetry_multiplicity
 _atom_site_fract_x
 _atom_site_fract_y
 _atom_site_fract_z
 _atom_site_occupancy
  Tb  Tb0  1  0.020289  0.179237  0.597234  1
  Tb  Tb1  1  0.479901  0.679060  0.403322  1
  Y  Y2  1  0.979194  0.820603  0.096979  1
  Y  Y3  1  0.479570  0.679164  0.096910  1
  Y  Y4  1  0.979633  0.820551  0.403270  1
  Y  Y5  1  0.519916  0.320877  0.596625  1
  Y  Y6  1  0.020659  0.179580  0.903164  1
  Er  Er7  1  0.366943  0.837574  0.877020  1
  Er  Er8  1  0.866291  0.662594  0.623076  1
  Er  Er9  1  0.633278  0.162602  0.377263  1
  Er  Er10  1  0.132770  0.337678  0.122378  1
  Er  Er11  1  0.632613  0.162494  0.122374  1
  Er  Er12  1  0.133371  0.337261  0.377356  1
  Er  Er13  1  0.366669  0.837591  0.623212  1
  Er  Er14  1  0.867336  0.662450  0.877160  1
  Er  Er15  1  0.521623  0.321422  0.902517  1
  Er  Er16  1  0.198166  0.503680  0.750159  1
  Er  Er17  1  0.697969  0.996374  0.750219  1
  Er  Er18  1  0.801815  0.495799  0.249811  1
  Er  Er19  1  0.301879  0.003826  0.249994  1
  Sn  Sn20  1  0.294307  0.038604  0.041309  1
  Sn  Sn21  1  0.795028  0.460857  0.458766  1
  Sn  Sn22  1  0.704837  0.961073  0.541609  1
  Sn  Sn23  1  0.207658  0.537623  0.958001  1
  Sn  Sn24  1  0.705224  0.962003  0.957950  1
  Sn  Sn25  1  0.204479  0.539191  0.541735  1
  Sn  Sn26  1  0.295231  0.038678  0.458591  1
  Sn  Sn27  1  0.793449  0.460823  0.040846  1
  Sn  Sn28  1  0.564060  0.619418  0.750392  1
  Sn  Sn29  1  0.063798  0.880493  0.749962  1
  Sn  Sn30  1  0.435403  0.380590  0.249917  1
  Sn  Sn31  1  0.935726  0.119410  0.249800  1
  Sn  Sn32  1  0.331348  0.148941  0.750629  1
  Sn  Sn33  1  0.829718  0.352037  0.750346  1
  Sn  Sn34  1  0.670040  0.851760  0.249977  1
  Sn  Sn35  1  0.169806  0.648087  0.250127  1
