# generated using pymatgen
data_TbY3Ho8Co5Bi
_symmetry_space_group_name_H-M   'P 1'
_cell_length_a   8.28439714
_cell_length_b   8.28445901
_cell_length_c   8.28853590
_cell_angle_alpha   110.62450868
_cell_angle_beta   110.86601462
_cell_angle_gamma   106.93066099
_symmetry_Int_Tables_number   1
_chemical_formula_structural   TbY3Ho8Co5Bi
_chemical_formula_sum   'Tb1 Y3 Ho8 Co5 Bi1'
_cell_volume   437.38378782
_cell_formula_units_Z   1
loop_
 _symmetry_equiv_pos_site_id
 _symmetry_equiv_pos_as_xyz
  1  'x, y, z'
loop_
 _atom_site_type_symbol
 _atom_site_label
 _atom_site_symmetry_multiplicity
 _atom_site_fract_x
 _atom_site_fract_y
 _atom_site_fract_z
 _atom_site_occupancy
  Tb  Tb0  1  0.815278  0.711369  0.526639  1
  Y  Y1  1  0.184926  0.288514  0.473436  1
  Y  Y2  1  0.185044  0.711603  0.896647  1
  Y  Y3  1  0.815046  0.288376  0.103427  1
  Ho  Ho4  1  0.688604  0.378668  0.690070  1
  Ho  Ho5  1  0.311366  0.621308  0.309953  1
  Ho  Ho6  1  0.688633  0.998560  0.309941  1
  Ho  Ho7  1  0.311389  0.001438  0.690053  1
  Ho  Ho8  1  0.598474  0.792816  0.805713  1
  Ho  Ho9  1  0.401531  0.207181  0.194331  1
  Ho  Ho10  1  0.987161  0.792801  0.194345  1
  Ho  Ho11  1  0.012907  0.207238  0.805719  1
  Co  Co12  1  0.624046  0.000088  0.624134  1
  Co  Co13  1  0.375949  0.999968  0.375918  1
  Co  Co14  1  0.111498  0.611726  0.499926  1
  Co  Co15  1  0.888219  0.388441  0.499923  1
  Co  Co16  1  0.999976  0.999948  0.999921  1
  Bi  Bi17  1  0.499953  0.499958  0.999905  1
