# generated using pymatgen
data_Al10GaRe3Tc
_symmetry_space_group_name_H-M   'P 1'
_cell_length_a   5.19930344
_cell_length_b   5.18230002
_cell_length_c   9.01779028
_cell_angle_alpha   105.13476785
_cell_angle_beta   90.51372348
_cell_angle_gamma   99.61932826
_symmetry_Int_Tables_number   1
_chemical_formula_structural   Al10GaRe3Tc
_chemical_formula_sum   'Al10 Ga1 Re3 Tc1'
_cell_volume   230.89941991
_cell_formula_units_Z   1
loop_
 _symmetry_equiv_pos_site_id
 _symmetry_equiv_pos_as_xyz
  1  'x, y, z'
loop_
 _atom_site_type_symbol
 _atom_site_label
 _atom_site_symmetry_multiplicity
 _atom_site_fract_x
 _atom_site_fract_y
 _atom_site_fract_z
 _atom_site_occupancy
  Al  Al0  1  0.800695  0.258060  0.636946  1
  Al  Al1  1  0.198679  0.742047  0.363757  1
  Al  Al2  1  0.146840  0.463613  0.871617  1
  Al  Al3  1  0.853695  0.536293  0.128098  1
  Al  Al4  1  0.496295  0.096551  0.871514  1
  Al  Al5  1  0.503667  0.903611  0.128405  1
  Al  Al6  1  0.564925  0.319221  0.378047  1
  Al  Al7  1  0.434917  0.680071  0.622103  1
  Al  Al8  1  0.943791  0.797727  0.664384  1
  Al  Al9  1  0.057295  0.203520  0.335286  1
  Ga  Ga10  1  0.000016  0.999952  0.999945  1
  Re  Re11  1  0.719796  0.845355  0.395874  1
  Re  Re12  1  0.662007  0.610642  0.867730  1
  Re  Re13  1  0.337796  0.388922  0.132548  1
  Tc  Tc14  1  0.279587  0.154414  0.603746  1
