# generated using pymatgen
data_K4Y3Th(SbSe3)8
_symmetry_space_group_name_H-M   'P 1'
_cell_length_a   4.14602353
_cell_length_b   15.56531894
_cell_length_c   16.98616222
_cell_angle_alpha   90.02489222
_cell_angle_beta   90.66786310
_cell_angle_gamma   89.81598749
_symmetry_Int_Tables_number   1
_chemical_formula_structural   K4Y3Th(SbSe3)8
_chemical_formula_sum   'K4 Y3 Th1 Sb8 Se24'
_cell_volume   1096.10781742
_cell_formula_units_Z   1
loop_
 _symmetry_equiv_pos_site_id
 _symmetry_equiv_pos_as_xyz
  1  'x, y, z'
loop_
 _atom_site_type_symbol
 _atom_site_label
 _atom_site_symmetry_multiplicity
 _atom_site_fract_x
 _atom_site_fract_y
 _atom_site_fract_z
 _atom_site_occupancy
  K  K0  1  0.263839  0.714097  0.671739  1
  K  K1  1  0.266415  0.787747  0.166956  1
  K  K2  1  0.734635  0.285340  0.332646  1
  K  K3  1  0.735311  0.213183  0.832883  1
  Y  Y4  1  0.727243  0.137703  0.093485  1
  Y  Y5  1  0.271598  0.862314  0.907118  1
  Y  Y6  1  0.724274  0.361847  0.594228  1
  Th  Th7  1  0.280279  0.634993  0.408842  1
  Sb  Sb8  1  0.250963  0.126569  0.528608  1
  Sb  Sb9  1  0.253756  0.375275  0.026189  1
  Sb  Sb10  1  0.747255  0.627238  0.971236  1
  Sb  Sb11  1  0.242718  0.027623  0.289911  1
  Sb  Sb12  1  0.756832  0.523710  0.203057  1
  Sb  Sb13  1  0.751837  0.972466  0.709869  1
  Sb  Sb14  1  0.741286  0.878514  0.472743  1
  Sb  Sb15  1  0.243978  0.471312  0.791190  1
  Se  Se16  1  0.305301  0.471593  0.310322  1
  Se  Se17  1  0.709869  0.971985  0.183911  1
  Se  Se18  1  0.290756  0.028118  0.814464  1
  Se  Se19  1  0.260255  0.833343  0.371091  1
  Se  Se20  1  0.741703  0.164014  0.629977  1
  Se  Se21  1  0.721182  0.067495  0.404020  1
  Se  Se22  1  0.281022  0.928423  0.594591  1
  Se  Se23  1  0.231555  0.209449  0.988474  1
  Se  Se24  1  0.261367  0.664962  0.869789  1
  Se  Se25  1  0.230478  0.291684  0.487231  1
  Se  Se26  1  0.737200  0.340022  0.129909  1
  Se  Se27  1  0.287698  0.572845  0.094447  1
  Se  Se28  1  0.204383  0.988874  0.053656  1
  Se  Se29  1  0.767136  0.824929  0.788207  1
  Se  Se30  1  0.692985  0.527466  0.685329  1
  Se  Se31  1  0.774412  0.673781  0.286826  1
  Se  Se32  1  0.710767  0.428073  0.903383  1
  Se  Se33  1  0.231357  0.175664  0.213012  1
  Se  Se34  1  0.229428  0.323713  0.712366  1
  Se  Se35  1  0.767851  0.791675  0.013323  1
  Se  Se36  1  0.791087  0.012221  0.947616  1
  Se  Se37  1  0.201451  0.511818  0.555107  1
  Se  Se38  1  0.805602  0.488082  0.445613  1
  Se  Se39  1  0.772936  0.709837  0.516641  1
