# generated using pymatgen
data_Tb4Ga5Ir9
_symmetry_space_group_name_H-M   'P 1'
_cell_length_a   5.57242300
_cell_length_b   5.57242236
_cell_length_c   23.74700100
_cell_angle_alpha   90.00000000
_cell_angle_beta   90.00000000
_cell_angle_gamma   119.99998602
_symmetry_Int_Tables_number   1
_chemical_formula_structural   Tb4Ga5Ir9
_chemical_formula_sum   'Tb8 Ga10 Ir18'
_cell_volume   638.59801659
_cell_formula_units_Z   2
loop_
 _symmetry_equiv_pos_site_id
 _symmetry_equiv_pos_as_xyz
  1  'x, y, z'
loop_
 _atom_site_type_symbol
 _atom_site_label
 _atom_site_symmetry_multiplicity
 _atom_site_fract_x
 _atom_site_fract_y
 _atom_site_fract_z
 _atom_site_occupancy
  Tb  Tb0  1  0.333333  0.666667  0.530160  1
  Tb  Tb1  1  0.666667  0.333333  0.469840  1
  Tb  Tb2  1  0.666667  0.333333  0.030160  1
  Tb  Tb3  1  0.333333  0.666667  0.969840  1
  Tb  Tb4  1  0.333333  0.666667  0.678163  1
  Tb  Tb5  1  0.666667  0.333333  0.321837  1
  Tb  Tb6  1  0.666667  0.333333  0.178163  1
  Tb  Tb7  1  0.333333  0.666667  0.821837  1
  Ga  Ga8  1  0.000000  0.000000  0.000000  1
  Ga  Ga9  1  0.000000  0.000000  0.500000  1
  Ga  Ga10  1  0.333333  0.666667  0.168090  1
  Ga  Ga11  1  0.666667  0.333333  0.831910  1
  Ga  Ga12  1  0.666667  0.333333  0.668090  1
  Ga  Ga13  1  0.333333  0.666667  0.331910  1
  Ga  Ga14  1  0.000000  0.000000  0.165292  1
  Ga  Ga15  1  0.000000  0.000000  0.834708  1
  Ga  Ga16  1  0.000000  0.000000  0.665292  1
  Ga  Ga17  1  0.000000  0.000000  0.334708  1
  Ir  Ir18  1  0.170600  0.341199  0.083527  1
  Ir  Ir19  1  0.829400  0.658801  0.916473  1
  Ir  Ir20  1  0.658801  0.829400  0.083527  1
  Ir  Ir21  1  0.829400  0.658801  0.583527  1
  Ir  Ir22  1  0.341199  0.170600  0.916473  1
  Ir  Ir23  1  0.170600  0.341199  0.416473  1
  Ir  Ir24  1  0.170600  0.829400  0.083527  1
  Ir  Ir25  1  0.341199  0.170600  0.583527  1
  Ir  Ir26  1  0.829400  0.170600  0.916473  1
  Ir  Ir27  1  0.658801  0.829400  0.416473  1
  Ir  Ir28  1  0.829400  0.170600  0.583527  1
  Ir  Ir29  1  0.170600  0.829400  0.416473  1
  Ir  Ir30  1  0.165218  0.330434  0.250000  1
  Ir  Ir31  1  0.834782  0.669566  0.750000  1
  Ir  Ir32  1  0.669566  0.834782  0.250000  1
  Ir  Ir33  1  0.330434  0.165218  0.750000  1
  Ir  Ir34  1  0.165218  0.834782  0.250000  1
  Ir  Ir35  1  0.834782  0.165218  0.750000  1
