# generated using pymatgen
data_Pm4Sc(FeO4)3
_symmetry_space_group_name_H-M   'P 1'
_cell_length_a   5.48918047
_cell_length_b   5.72708306
_cell_length_c   7.88564113
_cell_angle_alpha   90.32608294
_cell_angle_beta   89.86925152
_cell_angle_gamma   90.06589886
_symmetry_Int_Tables_number   1
_chemical_formula_structural   Pm4Sc(FeO4)3
_chemical_formula_sum   'Pm4 Sc1 Fe3 O12'
_cell_volume   247.89602057
_cell_formula_units_Z   1
loop_
 _symmetry_equiv_pos_site_id
 _symmetry_equiv_pos_as_xyz
  1  'x, y, z'
loop_
 _atom_site_type_symbol
 _atom_site_label
 _atom_site_symmetry_multiplicity
 _atom_site_fract_x
 _atom_site_fract_y
 _atom_site_fract_z
 _atom_site_occupancy
  Pm  Pm0  1  0.985774  0.061616  0.252866  1
  Pm  Pm1  1  0.517042  0.558481  0.253126  1
  Pm  Pm2  1  0.482959  0.441519  0.746874  1
  Pm  Pm3  1  0.014225  0.938384  0.747134  1
  Sc  Sc4  1  0.500000  0.000000  0.000000  1
  Fe  Fe5  1  0.000000  0.499999  0.000000  1
  Fe  Fe6  1  0.500000  0.000000  0.500000  1
  Fe  Fe7  1  0.000000  0.499999  0.500000  1
  O  O8  1  0.702195  0.304710  0.054717  1
  O  O9  1  0.806928  0.797969  0.054543  1
  O  O10  1  0.104077  0.465423  0.251758  1
  O  O11  1  0.398571  0.965433  0.255279  1
  O  O12  1  0.700347  0.299986  0.446226  1
  O  O13  1  0.800797  0.799500  0.447027  1
  O  O14  1  0.199204  0.200500  0.552974  1
  O  O15  1  0.299654  0.700014  0.553775  1
  O  O16  1  0.601430  0.034567  0.744721  1
  O  O17  1  0.895924  0.534577  0.748242  1
  O  O18  1  0.193073  0.202031  0.945458  1
  O  O19  1  0.297806  0.695290  0.945284  1
