# generated using pymatgen
data_CeAl2Au5
_symmetry_space_group_name_H-M   'P 1'
_cell_length_a   7.36359900
_cell_length_b   8.68562000
_cell_length_c   9.79174500
_cell_angle_alpha   90.00000000
_cell_angle_beta   90.00000000
_cell_angle_gamma   90.00000000
_symmetry_Int_Tables_number   1
_chemical_formula_structural   CeAl2Au5
_chemical_formula_sum   'Ce4 Al8 Au20'
_cell_volume   626.25477439
_cell_formula_units_Z   4
loop_
 _symmetry_equiv_pos_site_id
 _symmetry_equiv_pos_as_xyz
  1  'x, y, z'
loop_
 _atom_site_type_symbol
 _atom_site_label
 _atom_site_symmetry_multiplicity
 _atom_site_fract_x
 _atom_site_fract_y
 _atom_site_fract_z
 _atom_site_occupancy
  Ce  Ce0  1  0.250000  0.253278  0.124465  1
  Ce  Ce1  1  0.250000  0.753278  0.375535  1
  Ce  Ce2  1  0.750000  0.746722  0.875535  1
  Ce  Ce3  1  0.750000  0.246722  0.624465  1
  Al  Al4  1  0.250000  0.044563  0.611211  1
  Al  Al5  1  0.250000  0.544563  0.888789  1
  Al  Al6  1  0.750000  0.955437  0.388789  1
  Al  Al7  1  0.750000  0.455437  0.111211  1
  Al  Al8  1  0.250000  0.355587  0.482866  1
  Al  Al9  1  0.250000  0.855587  0.017134  1
  Al  Al10  1  0.750000  0.644413  0.517134  1
  Al  Al11  1  0.750000  0.144413  0.982866  1
  Au  Au12  1  0.059343  0.107083  0.392614  1
  Au  Au13  1  0.440657  0.607083  0.107386  1
  Au  Au14  1  0.559343  0.892917  0.607386  1
  Au  Au15  1  0.940657  0.392917  0.892614  1
  Au  Au16  1  0.940657  0.892917  0.607386  1
  Au  Au17  1  0.559343  0.392917  0.892614  1
  Au  Au18  1  0.440657  0.107083  0.392614  1
  Au  Au19  1  0.059343  0.607083  0.107386  1
  Au  Au20  1  0.033335  0.053646  0.862137  1
  Au  Au21  1  0.466665  0.553646  0.637863  1
  Au  Au22  1  0.533335  0.946354  0.137863  1
  Au  Au23  1  0.966665  0.446354  0.362137  1
  Au  Au24  1  0.966665  0.946354  0.137863  1
  Au  Au25  1  0.533335  0.446354  0.362137  1
  Au  Au26  1  0.466665  0.053646  0.862137  1
  Au  Au27  1  0.033335  0.553646  0.637863  1
  Au  Au28  1  0.250000  0.292913  0.738807  1
  Au  Au29  1  0.250000  0.792913  0.761193  1
  Au  Au30  1  0.750000  0.707087  0.261193  1
  Au  Au31  1  0.750000  0.207087  0.238807  1
