# generated using pymatgen
data_Tm4Lu8Os3Rh
_symmetry_space_group_name_H-M   'P 1'
_cell_length_a   7.27501867
_cell_length_b   8.87755524
_cell_length_c   6.22500452
_cell_angle_alpha   90.07996543
_cell_angle_beta   90.12162949
_cell_angle_gamma   90.01508163
_symmetry_Int_Tables_number   1
_chemical_formula_structural   Tm4Lu8Os3Rh
_chemical_formula_sum   'Tm4 Lu8 Os3 Rh1'
_cell_volume   402.03674640
_cell_formula_units_Z   1
loop_
 _symmetry_equiv_pos_site_id
 _symmetry_equiv_pos_as_xyz
  1  'x, y, z'
loop_
 _atom_site_type_symbol
 _atom_site_label
 _atom_site_symmetry_multiplicity
 _atom_site_fract_x
 _atom_site_fract_y
 _atom_site_fract_z
 _atom_site_occupancy
  Tm  Tm0  1  0.672457  0.059267  0.334468  1
  Tm  Tm1  1  0.179005  0.439824  0.167811  1
  Tm  Tm2  1  0.539289  0.250159  0.874133  1
  Tm  Tm3  1  0.037968  0.249892  0.627934  1
  Lu  Lu4  1  0.324692  0.562302  0.669033  1
  Lu  Lu5  1  0.822839  0.933762  0.828247  1
  Lu  Lu6  1  0.324466  0.937720  0.669173  1
  Lu  Lu7  1  0.822584  0.566221  0.828255  1
  Lu  Lu8  1  0.672062  0.440776  0.334735  1
  Lu  Lu9  1  0.178687  0.060124  0.167775  1
  Lu  Lu10  1  0.462165  0.749965  0.123324  1
  Lu  Lu11  1  0.962717  0.750032  0.372855  1
  Os  Os12  1  0.383442  0.250025  0.463959  1
  Os  Os13  1  0.115725  0.750466  0.962935  1
  Os  Os14  1  0.616306  0.749521  0.534343  1
  Rh  Rh15  1  0.885595  0.249943  0.041021  1
