# generated using pymatgen
data_CaNdNb3Ni9As7
_symmetry_space_group_name_H-M   'P 1'
_cell_length_a   3.87674900
_cell_length_b   9.67041780
_cell_length_c   9.67041900
_cell_angle_alpha   119.99999384
_cell_angle_beta   90.00000000
_cell_angle_gamma   90.00000000
_symmetry_Int_Tables_number   1
_chemical_formula_structural   CaNdNb3Ni9As7
_chemical_formula_sum   'Ca1 Nd1 Nb3 Ni9 As7'
_cell_volume   313.97051945
_cell_formula_units_Z   1
loop_
 _symmetry_equiv_pos_site_id
 _symmetry_equiv_pos_as_xyz
  1  'x, y, z'
loop_
 _atom_site_type_symbol
 _atom_site_label
 _atom_site_symmetry_multiplicity
 _atom_site_fract_x
 _atom_site_fract_y
 _atom_site_fract_z
 _atom_site_occupancy
  Ca  Ca0  1  0.000000  0.666667  0.333333  1
  Nd  Nd1  1  0.500000  0.333333  0.666667  1
  Nb  Nb2  1  0.500000  0.778499  0.895076  1
  Nb  Nb3  1  0.500000  0.116576  0.221501  1
  Nb  Nb4  1  0.500000  0.104924  0.883424  1
  Ni  Ni5  1  0.000000  0.575224  0.935192  1
  Ni  Ni6  1  0.000000  0.359966  0.424776  1
  Ni  Ni7  1  0.000000  0.064808  0.640034  1
  Ni  Ni8  1  0.000000  0.870728  0.152731  1
  Ni  Ni9  1  0.000000  0.282003  0.129272  1
  Ni  Ni10  1  0.000000  0.847269  0.717997  1
  Ni  Ni11  1  0.500000  0.942352  0.378333  1
  Ni  Ni12  1  0.500000  0.435981  0.057648  1
  Ni  Ni13  1  0.500000  0.621667  0.564019  1
  As  As14  1  0.500000  0.704425  0.117205  1
  As  As15  1  0.500000  0.412782  0.295575  1
  As  As16  1  0.500000  0.882795  0.587218  1
  As  As17  1  0.000000  0.000000  0.000000  1
  As  As18  1  0.000000  0.585750  0.690998  1
  As  As19  1  0.000000  0.105248  0.414250  1
  As  As20  1  0.000000  0.309002  0.894752  1
