# generated using pymatgen
data_Sc4FeI4
_symmetry_space_group_name_H-M   'P 1'
_cell_length_a   11.18333401
_cell_length_b   11.18333610
_cell_length_c   5.60980323
_cell_angle_alpha   89.90924747
_cell_angle_beta   89.90924734
_cell_angle_gamma   88.76978695
_symmetry_Int_Tables_number   1
_chemical_formula_structural   Sc4FeI4
_chemical_formula_sum   'Sc8 Fe2 I8'
_cell_volume   701.43772464
_cell_formula_units_Z   2
loop_
 _symmetry_equiv_pos_site_id
 _symmetry_equiv_pos_as_xyz
  1  'x, y, z'
loop_
 _atom_site_type_symbol
 _atom_site_label
 _atom_site_symmetry_multiplicity
 _atom_site_fract_x
 _atom_site_fract_y
 _atom_site_fract_z
 _atom_site_occupancy
  Sc  Sc0  1  0.182575  0.923193  0.999825  1
  Sc  Sc1  1  0.817425  0.076807  0.000175  1
  Sc  Sc2  1  0.076807  0.817425  0.500175  1
  Sc  Sc3  1  0.923193  0.182575  0.499825  1
  Sc  Sc4  1  0.819027  0.927142  0.500738  1
  Sc  Sc5  1  0.180973  0.072858  0.499262  1
  Sc  Sc6  1  0.072858  0.180973  0.999262  1
  Sc  Sc7  1  0.927142  0.819027  0.000738  1
  Fe  Fe8  1  0.999794  0.000206  0.250000  1
  Fe  Fe9  1  0.000206  0.999794  0.750000  1
  I  I10  1  0.341318  0.854308  0.496145  1
  I  I11  1  0.658682  0.145692  0.503855  1
  I  I12  1  0.145692  0.658682  0.003855  1
  I  I13  1  0.854308  0.341318  0.996145  1
  I  I14  1  0.338160  0.138341  0.998493  1
  I  I15  1  0.661840  0.861659  0.001507  1
  I  I16  1  0.861659  0.661840  0.501507  1
  I  I17  1  0.138341  0.338160  0.498493  1
