# generated using pymatgen
data_Er4Al2Ga2IrPt3
_symmetry_space_group_name_H-M   'P 1'
_cell_length_a   4.40512400
_cell_length_b   6.78356306
_cell_length_c   7.74755663
_cell_angle_alpha   89.79914130
_cell_angle_beta   90.00000000
_cell_angle_gamma   90.00000000
_symmetry_Int_Tables_number   1
_chemical_formula_structural   Er4Al2Ga2IrPt3
_chemical_formula_sum   'Er4 Al2 Ga2 Ir1 Pt3'
_cell_volume   231.51444594
_cell_formula_units_Z   1
loop_
 _symmetry_equiv_pos_site_id
 _symmetry_equiv_pos_as_xyz
  1  'x, y, z'
loop_
 _atom_site_type_symbol
 _atom_site_label
 _atom_site_symmetry_multiplicity
 _atom_site_fract_x
 _atom_site_fract_y
 _atom_site_fract_z
 _atom_site_occupancy
  Er  Er0  1  0.250000  0.472183  0.180280  1
  Er  Er1  1  0.750000  0.528831  0.817880  1
  Er  Er2  1  0.750000  0.023974  0.684913  1
  Er  Er3  1  0.250000  0.968612  0.316646  1
  Al  Al4  1  0.750000  0.646407  0.439205  1
  Al  Al5  1  0.250000  0.359168  0.562525  1
  Ga  Ga6  1  0.250000  0.845147  0.934093  1
  Ga  Ga7  1  0.750000  0.153166  0.063258  1
  Ir  Ir8  1  0.250000  0.732802  0.614268  1
  Pt  Pt9  1  0.750000  0.270648  0.386218  1
  Pt  Pt10  1  0.750000  0.767467  0.121563  1
  Pt  Pt11  1  0.250000  0.231593  0.879154  1
