# generated using pymatgen
data_Ti5AlSn3
_symmetry_space_group_name_H-M   'P 1'
_cell_length_a   8.28520300
_cell_length_b   8.28520338
_cell_length_c   5.55958800
_cell_angle_alpha   90.00000000
_cell_angle_beta   90.00000000
_cell_angle_gamma   119.99999449
_symmetry_Int_Tables_number   1
_chemical_formula_structural   Ti5AlSn3
_chemical_formula_sum   'Ti10 Al2 Sn6'
_cell_volume   330.50618567
_cell_formula_units_Z   2
loop_
 _symmetry_equiv_pos_site_id
 _symmetry_equiv_pos_as_xyz
  1  'x, y, z'
loop_
 _atom_site_type_symbol
 _atom_site_label
 _atom_site_symmetry_multiplicity
 _atom_site_fract_x
 _atom_site_fract_y
 _atom_site_fract_z
 _atom_site_occupancy
  Ti  Ti0  1  0.272588  0.000000  0.750000  1
  Ti  Ti1  1  0.727412  0.000000  0.250000  1
  Ti  Ti2  1  0.000000  0.272588  0.750000  1
  Ti  Ti3  1  0.000000  0.727412  0.250000  1
  Ti  Ti4  1  0.727412  0.727412  0.750000  1
  Ti  Ti5  1  0.272588  0.272588  0.250000  1
  Ti  Ti6  1  0.333333  0.666667  0.500000  1
  Ti  Ti7  1  0.666667  0.333333  0.500000  1
  Ti  Ti8  1  0.666667  0.333333  0.000000  1
  Ti  Ti9  1  0.333333  0.666667  0.000000  1
  Al  Al10  1  0.000000  0.000000  0.500000  1
  Al  Al11  1  0.000000  0.000000  0.000000  1
  Sn  Sn12  1  0.615478  0.000000  0.750000  1
  Sn  Sn13  1  0.384522  0.000000  0.250000  1
  Sn  Sn14  1  0.000000  0.615478  0.750000  1
  Sn  Sn15  1  0.000000  0.384522  0.250000  1
  Sn  Sn16  1  0.384522  0.384522  0.750000  1
  Sn  Sn17  1  0.615478  0.615478  0.250000  1
