# generated using pymatgen
data_Li4Ca(ThGe2)2
_symmetry_space_group_name_H-M   'P 1'
_cell_length_a   4.41469009
_cell_length_b   6.93133489
_cell_length_c   8.39124854
_cell_angle_alpha   114.39403611
_cell_angle_beta   105.25131350
_cell_angle_gamma   89.99999089
_symmetry_Int_Tables_number   1
_chemical_formula_structural   Li4Ca(ThGe2)2
_chemical_formula_sum   'Li4 Ca1 Th2 Ge4'
_cell_volume   223.87987422
_cell_formula_units_Z   1
loop_
 _symmetry_equiv_pos_site_id
 _symmetry_equiv_pos_as_xyz
  1  'x, y, z'
loop_
 _atom_site_type_symbol
 _atom_site_label
 _atom_site_symmetry_multiplicity
 _atom_site_fract_x
 _atom_site_fract_y
 _atom_site_fract_z
 _atom_site_occupancy
  Li  Li0  1  0.673063  0.987708  0.346124  1
  Li  Li1  1  0.329649  0.023735  0.659298  1
  Li  Li2  1  0.329649  0.635564  0.659298  1
  Li  Li3  1  0.673063  0.358416  0.346124  1
  Ca  Ca4  1  0.867864  0.367864  0.735729  1
  Th  Th5  1  0.998751  0.998751  0.997501  1
  Th  Th6  1  0.129002  0.629002  0.258003  1
  Ge  Ge7  1  0.503551  0.692116  0.007102  1
  Ge  Ge8  1  0.503551  0.314986  0.007102  1
  Ge  Ge9  1  0.782706  0.782706  0.565414  1
  Ge  Ge10  1  0.209151  0.209151  0.418303  1
