# generated using pymatgen
data_Ca5Nd3(Si3Pd)4
_symmetry_space_group_name_H-M   'P 1'
_cell_length_a   8.26739100
_cell_length_b   8.26726463
_cell_length_c   8.42081800
_cell_angle_alpha   90.00000000
_cell_angle_beta   90.00000000
_cell_angle_gamma   120.00050164
_symmetry_Int_Tables_number   1
_chemical_formula_structural   Ca5Nd3(Si3Pd)4
_chemical_formula_sum   'Ca5 Nd3 Si12 Pd4'
_cell_volume   498.44016899
_cell_formula_units_Z   1
loop_
 _symmetry_equiv_pos_site_id
 _symmetry_equiv_pos_as_xyz
  1  'x, y, z'
loop_
 _atom_site_type_symbol
 _atom_site_label
 _atom_site_symmetry_multiplicity
 _atom_site_fract_x
 _atom_site_fract_y
 _atom_site_fract_z
 _atom_site_occupancy
  Ca  Ca0  1  0.498984  0.501074  0.750000  1
  Ca  Ca1  1  0.501072  0.499501  0.250000  1
  Ca  Ca2  1  0.002089  0.501074  0.750000  1
  Ca  Ca3  1  0.998429  0.499501  0.250000  1
  Ca  Ca4  1  0.498794  0.997588  0.750000  1
  Nd  Nd5  1  0.500968  0.001936  0.250000  1
  Nd  Nd6  1  0.000063  0.000127  0.750000  1
  Nd  Nd7  1  0.999909  0.999818  0.250000  1
  Si  Si8  1  0.835639  0.165303  0.000292  1
  Si  Si9  1  0.164374  0.834651  0.001885  1
  Si  Si10  1  0.329664  0.165303  0.000292  1
  Si  Si11  1  0.164374  0.834651  0.498115  1
  Si  Si12  1  0.670277  0.834651  0.001885  1
  Si  Si13  1  0.835639  0.165303  0.499708  1
  Si  Si14  1  0.834466  0.668933  0.999971  1
  Si  Si15  1  0.670277  0.834651  0.498115  1
  Si  Si16  1  0.165506  0.331012  0.001461  1
  Si  Si17  1  0.329664  0.165303  0.499708  1
  Si  Si18  1  0.165506  0.331012  0.498539  1
  Si  Si19  1  0.834466  0.668933  0.500029  1
  Pd  Pd20  1  0.666349  0.332697  0.997649  1
  Pd  Pd21  1  0.333570  0.667142  0.000387  1
  Pd  Pd22  1  0.333570  0.667142  0.499613  1
  Pd  Pd23  1  0.666349  0.332697  0.502351  1
