# generated using pymatgen
data_Tb6Th2MgInRh2
_symmetry_space_group_name_H-M   'P 1'
_cell_length_a   9.81315930
_cell_length_b   9.81309864
_cell_length_c   9.82260500
_cell_angle_alpha   59.96688856
_cell_angle_beta   59.96714334
_cell_angle_gamma   60.05820700
_symmetry_Int_Tables_number   1
_chemical_formula_structural   Tb6Th2MgInRh2
_chemical_formula_sum   'Tb12 Th4 Mg2 In2 Rh4'
_cell_volume   668.80650270
_cell_formula_units_Z   2
loop_
 _symmetry_equiv_pos_site_id
 _symmetry_equiv_pos_as_xyz
  1  'x, y, z'
loop_
 _atom_site_type_symbol
 _atom_site_label
 _atom_site_symmetry_multiplicity
 _atom_site_fract_x
 _atom_site_fract_y
 _atom_site_fract_z
 _atom_site_occupancy
  Tb  Tb0  1  0.811468  0.187878  0.189640  1
  Tb  Tb1  1  0.187878  0.811466  0.811015  1
  Tb  Tb2  1  0.187880  0.811470  0.189638  1
  Tb  Tb3  1  0.811465  0.187876  0.811017  1
  Tb  Tb4  1  0.187110  0.187109  0.812888  1
  Tb  Tb5  1  0.809986  0.809985  0.190012  1
  Tb  Tb6  1  0.935594  0.565507  0.565105  1
  Tb  Tb7  1  0.565508  0.935591  0.933795  1
  Tb  Tb8  1  0.565512  0.935591  0.565104  1
  Tb  Tb9  1  0.935592  0.565502  0.933797  1
  Tb  Tb10  1  0.564921  0.564916  0.935081  1
  Tb  Tb11  1  0.934701  0.934697  0.565300  1
  Th  Th12  1  0.347728  0.347729  0.346806  1
  Th  Th13  1  0.347726  0.347724  0.957743  1
  Th  Th14  1  0.348550  0.954484  0.348484  1
  Th  Th15  1  0.954478  0.348547  0.348486  1
  Mg  Mg16  1  0.579597  0.262685  0.578859  1
  Mg  Mg17  1  0.262684  0.579599  0.578858  1
  In  In18  1  0.582067  0.582067  0.583453  1
  In  In19  1  0.582068  0.582067  0.252418  1
  Rh  Rh20  1  0.143731  0.143737  0.145135  1
  Rh  Rh21  1  0.143737  0.143747  0.567388  1
  Rh  Rh22  1  0.143114  0.566904  0.144993  1
  Rh  Rh23  1  0.566905  0.143121  0.144985  1
