# generated using pymatgen
data_Cs3RbY4(Bi2Se5)4
_symmetry_space_group_name_H-M   'P 1'
_cell_length_a   4.18056500
_cell_length_b   12.46193928
_cell_length_c   22.94508356
_cell_angle_alpha   90.14446991
_cell_angle_beta   90.00000000
_cell_angle_gamma   90.00000000
_symmetry_Int_Tables_number   1
_chemical_formula_structural   Cs3RbY4(Bi2Se5)4
_chemical_formula_sum   'Cs3 Rb1 Y4 Bi8 Se20'
_cell_volume   1195.38795120
_cell_formula_units_Z   1
loop_
 _symmetry_equiv_pos_site_id
 _symmetry_equiv_pos_as_xyz
  1  'x, y, z'
loop_
 _atom_site_type_symbol
 _atom_site_label
 _atom_site_symmetry_multiplicity
 _atom_site_fract_x
 _atom_site_fract_y
 _atom_site_fract_z
 _atom_site_occupancy
  Cs  Cs0  1  0.250000  0.488746  0.210826  1
  Cs  Cs1  1  0.750000  0.510922  0.788746  1
  Cs  Cs2  1  0.750000  0.988942  0.289330  1
  Rb  Rb3  1  0.250000  0.011037  0.710287  1
  Y  Y4  1  0.250000  0.363601  0.022751  1
  Y  Y5  1  0.750000  0.635986  0.976452  1
  Y  Y6  1  0.750000  0.864148  0.477944  1
  Y  Y7  1  0.250000  0.136429  0.524438  1
  Bi  Bi8  1  0.250000  0.803058  0.121348  1
  Bi  Bi9  1  0.750000  0.195306  0.876622  1
  Bi  Bi10  1  0.750000  0.302532  0.378605  1
  Bi  Bi11  1  0.250000  0.699639  0.622620  1
  Bi  Bi12  1  0.250000  0.595016  0.426790  1
  Bi  Bi13  1  0.750000  0.404559  0.574672  1
  Bi  Bi14  1  0.750000  0.095013  0.073368  1
  Bi  Bi15  1  0.250000  0.905000  0.924955  1
  Se  Se16  1  0.250000  0.810235  0.394616  1
  Se  Se17  1  0.750000  0.189608  0.608000  1
  Se  Se18  1  0.750000  0.310302  0.106181  1
  Se  Se19  1  0.250000  0.689186  0.893171  1
  Se  Se20  1  0.250000  0.247594  0.302239  1
  Se  Se21  1  0.750000  0.756656  0.698646  1
  Se  Se22  1  0.750000  0.748126  0.197513  1
  Se  Se23  1  0.250000  0.246836  0.799809  1
  Se  Se24  1  0.250000  0.354353  0.481763  1
  Se  Se25  1  0.750000  0.645313  0.519517  1
  Se  Se26  1  0.750000  0.855432  0.017890  1
  Se  Se27  1  0.250000  0.145084  0.980549  1
  Se  Se28  1  0.250000  0.027104  0.153742  1
  Se  Se29  1  0.750000  0.972480  0.844008  1
  Se  Se30  1  0.750000  0.526387  0.346389  1
  Se  Se31  1  0.250000  0.474823  0.654462  1
  Se  Se32  1  0.250000  0.583413  0.057705  1
  Se  Se33  1  0.750000  0.416405  0.941498  1
  Se  Se34  1  0.750000  0.082978  0.442851  1
  Se  Se35  1  0.250000  0.917752  0.559698  1
