# generated using pymatgen
data_HoScAlB6
_symmetry_space_group_name_H-M   'P 1'
_cell_length_a   3.50257600
_cell_length_b   9.04791600
_cell_length_c   11.39882000
_cell_angle_alpha   90.00000000
_cell_angle_beta   90.00000000
_cell_angle_gamma   90.00000000
_symmetry_Int_Tables_number   1
_chemical_formula_structural   HoScAlB6
_chemical_formula_sum   'Ho4 Sc4 Al4 B24'
_cell_volume   361.24015772
_cell_formula_units_Z   4
loop_
 _symmetry_equiv_pos_site_id
 _symmetry_equiv_pos_as_xyz
  1  'x, y, z'
loop_
 _atom_site_type_symbol
 _atom_site_label
 _atom_site_symmetry_multiplicity
 _atom_site_fract_x
 _atom_site_fract_y
 _atom_site_fract_z
 _atom_site_occupancy
  Ho  Ho0  1  0.000000  0.820982  0.085451  1
  Ho  Ho1  1  0.000000  0.179018  0.914549  1
  Ho  Ho2  1  0.000000  0.320982  0.414549  1
  Ho  Ho3  1  0.000000  0.679018  0.585451  1
  Sc  Sc4  1  0.000000  0.444391  0.128087  1
  Sc  Sc5  1  0.000000  0.555609  0.871913  1
  Sc  Sc6  1  0.000000  0.944391  0.371913  1
  Sc  Sc7  1  0.000000  0.055609  0.628087  1
  Al  Al8  1  0.000000  0.141959  0.182030  1
  Al  Al9  1  0.000000  0.858041  0.817970  1
  Al  Al10  1  0.000000  0.641959  0.317970  1
  Al  Al11  1  0.000000  0.358041  0.682030  1
  B  B12  1  0.500000  0.051689  0.064872  1
  B  B13  1  0.500000  0.948311  0.935128  1
  B  B14  1  0.500000  0.551689  0.435128  1
  B  B15  1  0.500000  0.448311  0.564872  1
  B  B16  1  0.500000  0.255243  0.080948  1
  B  B17  1  0.500000  0.744757  0.919052  1
  B  B18  1  0.500000  0.755243  0.419052  1
  B  B19  1  0.500000  0.244757  0.580948  1
  B  B20  1  0.500000  0.298125  0.236994  1
  B  B21  1  0.500000  0.701875  0.763006  1
  B  B22  1  0.500000  0.798125  0.263006  1
  B  B23  1  0.500000  0.201875  0.736994  1
  B  B24  1  0.500000  0.129368  0.319083  1
  B  B25  1  0.500000  0.870632  0.680917  1
  B  B26  1  0.500000  0.629368  0.180917  1
  B  B27  1  0.500000  0.370632  0.819083  1
  B  B28  1  0.500000  0.479418  0.285974  1
  B  B29  1  0.500000  0.520582  0.714026  1
  B  B30  1  0.500000  0.979418  0.214026  1
  B  B31  1  0.500000  0.020582  0.785974  1
  B  B32  1  0.500000  0.097646  0.473610  1
  B  B33  1  0.500000  0.902354  0.526390  1
  B  B34  1  0.500000  0.597646  0.026390  1
  B  B35  1  0.500000  0.402354  0.973610  1
