# generated using pymatgen
data_LiEr3Hg5
_symmetry_space_group_name_H-M   'P 1'
_cell_length_a   7.94802727
_cell_length_b   7.94802714
_cell_length_c   7.94802700
_cell_angle_alpha   66.48891917
_cell_angle_beta   66.48891169
_cell_angle_gamma   66.48891144
_symmetry_Int_Tables_number   1
_chemical_formula_structural   LiEr3Hg5
_chemical_formula_sum   'Li2 Er6 Hg10'
_cell_volume   404.65293531
_cell_formula_units_Z   2
loop_
 _symmetry_equiv_pos_site_id
 _symmetry_equiv_pos_as_xyz
  1  'x, y, z'
loop_
 _atom_site_type_symbol
 _atom_site_label
 _atom_site_symmetry_multiplicity
 _atom_site_fract_x
 _atom_site_fract_y
 _atom_site_fract_z
 _atom_site_occupancy
  Li  Li0  1  0.657104  0.657104  0.657104  1
  Li  Li1  1  0.342896  0.342896  0.342896  1
  Er  Er2  1  0.889299  0.196142  0.605736  1
  Er  Er3  1  0.605736  0.889299  0.196142  1
  Er  Er4  1  0.196142  0.605736  0.889299  1
  Er  Er5  1  0.110701  0.803858  0.394264  1
  Er  Er6  1  0.394264  0.110701  0.803858  1
  Er  Er7  1  0.803858  0.394264  0.110701  1
  Hg  Hg8  1  0.000000  0.000000  0.000000  1
  Hg  Hg9  1  0.500000  0.500000  0.500000  1
  Hg  Hg10  1  0.807813  0.807813  0.807813  1
  Hg  Hg11  1  0.192187  0.192187  0.192187  1
  Hg  Hg12  1  0.942791  0.567664  0.310805  1
  Hg  Hg13  1  0.310805  0.942791  0.567664  1
  Hg  Hg14  1  0.567664  0.310805  0.942791  1
  Hg  Hg15  1  0.057209  0.432336  0.689195  1
  Hg  Hg16  1  0.689195  0.057209  0.432336  1
  Hg  Hg17  1  0.432336  0.689195  0.057209  1
