# generated using pymatgen
data_DyYEr10(GaCo2)2
_symmetry_space_group_name_H-M   'P 1'
_cell_length_a   8.21820069
_cell_length_b   8.21820014
_cell_length_c   8.19564805
_cell_angle_alpha   107.07832387
_cell_angle_beta   109.46644476
_cell_angle_gamma   112.01115185
_symmetry_Int_Tables_number   1
_chemical_formula_structural   DyYEr10(GaCo2)2
_chemical_formula_sum   'Dy1 Y1 Er10 Ga2 Co4'
_cell_volume   424.76210148
_cell_formula_units_Z   1
loop_
 _symmetry_equiv_pos_site_id
 _symmetry_equiv_pos_as_xyz
  1  'x, y, z'
loop_
 _atom_site_type_symbol
 _atom_site_label
 _atom_site_symmetry_multiplicity
 _atom_site_fract_x
 _atom_site_fract_y
 _atom_site_fract_z
 _atom_site_occupancy
  Dy  Dy0  1  0.698350  0.261805  0.960154  1
  Y  Y1  1  0.302942  0.739321  0.042263  1
  Er  Er2  1  0.698421  0.738855  0.437278  1
  Er  Er3  1  0.301753  0.260923  0.562675  1
  Er  Er4  1  0.812519  0.137981  0.327686  1
  Er  Er5  1  0.810248  0.484414  0.672402  1
  Er  Er6  1  0.187988  0.862154  0.672402  1
  Er  Er7  1  0.189705  0.515167  0.327686  1
  Er  Er8  1  0.600247  0.779928  0.818905  1
  Er  Er9  1  0.959244  0.780625  0.180769  1
  Er  Er10  1  0.038978  0.218658  0.818905  1
  Er  Er11  1  0.400143  0.221524  0.180769  1
  Ga  Ga12  1  0.499822  0.499592  0.999415  1
  Ga  Ga13  1  0.501054  0.000858  0.501913  1
  Co  Co14  1  0.838919  0.500302  0.339221  1
  Co  Co15  1  0.159492  0.498354  0.657846  1
  Co  Co16  1  0.003063  0.114781  0.117844  1
  Co  Co17  1  0.997110  0.884757  0.881867  1
