# generated using pymatgen
data_Y3HoPd3RuO14
_symmetry_space_group_name_H-M   'P 1'
_cell_length_a   7.28131618
_cell_length_b   7.28131615
_cell_length_c   7.28131685
_cell_angle_alpha   59.50428049
_cell_angle_beta   59.50428323
_cell_angle_gamma   59.50426952
_symmetry_Int_Tables_number   1
_chemical_formula_structural   Y3HoPd3RuO14
_chemical_formula_sum   'Y3 Ho1 Pd3 Ru1 O14'
_cell_volume   269.89247109
_cell_formula_units_Z   1
loop_
 _symmetry_equiv_pos_site_id
 _symmetry_equiv_pos_as_xyz
  1  'x, y, z'
loop_
 _atom_site_type_symbol
 _atom_site_label
 _atom_site_symmetry_multiplicity
 _atom_site_fract_x
 _atom_site_fract_y
 _atom_site_fract_z
 _atom_site_occupancy
  Y  Y0  1  0.625000  0.625000  0.125000  1
  Y  Y1  1  0.625000  0.125000  0.625000  1
  Y  Y2  1  0.125000  0.625000  0.625000  1
  Ho  Ho3  1  0.625000  0.625000  0.625000  1
  Pd  Pd4  1  0.125000  0.125000  0.625000  1
  Pd  Pd5  1  0.125000  0.625000  0.125000  1
  Pd  Pd6  1  0.625000  0.125000  0.125000  1
  Ru  Ru7  1  0.125000  0.125000  0.125000  1
  O  O8  1  0.467122  0.034460  0.467122  1
  O  O9  1  0.215540  0.782878  0.782878  1
  O  O10  1  0.791709  0.211167  0.211167  1
  O  O11  1  0.211167  0.791709  0.211167  1
  O  O12  1  0.782878  0.782878  0.215540  1
  O  O13  1  0.211167  0.211167  0.791709  1
  O  O14  1  0.467122  0.467122  0.034460  1
  O  O15  1  0.034460  0.467122  0.467122  1
  O  O16  1  0.458291  0.038833  0.038833  1
  O  O17  1  0.038833  0.038833  0.458291  1
  O  O18  1  0.782878  0.215540  0.782878  1
  O  O19  1  0.038833  0.458291  0.038833  1
  O  O20  1  0.500478  0.500478  0.500478  1
  O  O21  1  0.749522  0.749522  0.749522  1
