# generated using pymatgen
data_DyHo3Co16(MoP3)4
_symmetry_space_group_name_H-M   'P 1'
_cell_length_a   3.70206400
_cell_length_b   10.40237400
_cell_length_c   11.85157200
_cell_angle_alpha   89.99898565
_cell_angle_beta   90.00000000
_cell_angle_gamma   90.00000000
_symmetry_Int_Tables_number   1
_chemical_formula_structural   DyHo3Co16(MoP3)4
_chemical_formula_sum   'Dy1 Ho3 Co16 Mo4 P12'
_cell_volume   456.40705154
_cell_formula_units_Z   1
loop_
 _symmetry_equiv_pos_site_id
 _symmetry_equiv_pos_as_xyz
  1  'x, y, z'
loop_
 _atom_site_type_symbol
 _atom_site_label
 _atom_site_symmetry_multiplicity
 _atom_site_fract_x
 _atom_site_fract_y
 _atom_site_fract_z
 _atom_site_occupancy
  Dy  Dy0  1  0.750000  0.083022  0.795803  1
  Ho  Ho1  1  0.250000  0.582968  0.704192  1
  Ho  Ho2  1  0.250000  0.917014  0.204149  1
  Ho  Ho3  1  0.750000  0.417016  0.295846  1
  Co  Co4  1  0.250000  0.406186  0.489053  1
  Co  Co5  1  0.250000  0.093787  0.989382  1
  Co  Co6  1  0.750000  0.593806  0.510981  1
  Co  Co7  1  0.750000  0.906094  0.011005  1
  Co  Co8  1  0.250000  0.221913  0.177931  1
  Co  Co9  1  0.250000  0.278358  0.677816  1
  Co  Co10  1  0.750000  0.778053  0.822111  1
  Co  Co11  1  0.750000  0.721870  0.322115  1
  Co  Co12  1  0.250000  0.886996  0.700591  1
  Co  Co13  1  0.250000  0.612697  0.200801  1
  Co  Co14  1  0.750000  0.112707  0.299186  1
  Co  Co15  1  0.750000  0.387423  0.799240  1
  Co  Co16  1  0.250000  0.465834  0.932825  1
  Co  Co17  1  0.250000  0.034236  0.432747  1
  Co  Co18  1  0.750000  0.534260  0.067182  1
  Co  Co19  1  0.750000  0.965666  0.567048  1
  Mo  Mo20  1  0.250000  0.708697  0.987701  1
  Mo  Mo21  1  0.250000  0.791185  0.487614  1
  Mo  Mo22  1  0.750000  0.291286  0.012428  1
  Mo  Mo23  1  0.750000  0.208823  0.512323  1
  P  P24  1  0.250000  0.420405  0.115458  1
  P  P25  1  0.250000  0.079609  0.615116  1
  P  P26  1  0.750000  0.579634  0.884565  1
  P  P27  1  0.750000  0.920377  0.384515  1
  P  P28  1  0.250000  0.269178  0.864943  1
  P  P29  1  0.250000  0.231236  0.364821  1
  P  P30  1  0.750000  0.731192  0.135193  1
  P  P31  1  0.750000  0.768823  0.635169  1
  P  P32  1  0.250000  0.595306  0.391125  1
  P  P33  1  0.250000  0.904377  0.891264  1
  P  P34  1  0.750000  0.404634  0.608900  1
  P  P35  1  0.750000  0.095332  0.108862  1
