# generated using pymatgen
data_Nd8Si12PdRh3
_symmetry_space_group_name_H-M   'P 1'
_cell_length_a   8.26983100
_cell_length_b   8.26983185
_cell_length_c   8.42275400
_cell_angle_alpha   90.00000000
_cell_angle_beta   90.00000000
_cell_angle_gamma   119.99999260
_symmetry_Int_Tables_number   1
_chemical_formula_structural   Nd8Si12PdRh3
_chemical_formula_sum   'Nd8 Si12 Pd1 Rh3'
_cell_volume   498.85932449
_cell_formula_units_Z   1
loop_
 _symmetry_equiv_pos_site_id
 _symmetry_equiv_pos_as_xyz
  1  'x, y, z'
loop_
 _atom_site_type_symbol
 _atom_site_label
 _atom_site_symmetry_multiplicity
 _atom_site_fract_x
 _atom_site_fract_y
 _atom_site_fract_z
 _atom_site_occupancy
  Nd  Nd0  1  0.495761  0.504239  0.752455  1
  Nd  Nd1  1  0.501490  0.498510  0.247767  1
  Nd  Nd2  1  0.008478  0.504239  0.752455  1
  Nd  Nd3  1  0.997019  0.498510  0.247767  1
  Nd  Nd4  1  0.495761  0.991522  0.752455  1
  Nd  Nd5  1  0.501490  0.002981  0.247767  1
  Nd  Nd6  1  0.000000  0.000000  0.750296  1
  Nd  Nd7  1  0.000000  0.000000  0.249372  1
  Si  Si8  1  0.833244  0.166756  0.000323  1
  Si  Si9  1  0.166320  0.833680  0.999570  1
  Si  Si10  1  0.333512  0.166756  0.000323  1
  Si  Si11  1  0.167273  0.832727  0.500547  1
  Si  Si12  1  0.667360  0.833680  0.999570  1
  Si  Si13  1  0.835660  0.164340  0.499246  1
  Si  Si14  1  0.833244  0.666488  0.000323  1
  Si  Si15  1  0.665455  0.832727  0.500547  1
  Si  Si16  1  0.166320  0.332640  0.999570  1
  Si  Si17  1  0.328681  0.164340  0.499246  1
  Si  Si18  1  0.167273  0.334545  0.500547  1
  Si  Si19  1  0.835660  0.671319  0.499246  1
  Pd  Pd20  1  0.666667  0.333333  0.510659  1
  Rh  Rh21  1  0.666667  0.333333  0.989841  1
  Rh  Rh22  1  0.333333  0.666667  0.010868  1
  Rh  Rh23  1  0.333333  0.666667  0.489240  1
