# generated using pymatgen
data_Er2ThP4Pd6Pt
_symmetry_space_group_name_H-M   'P 1'
_cell_length_a   7.95013170
_cell_length_b   7.95013194
_cell_length_c   9.46301803
_cell_angle_alpha   55.58742485
_cell_angle_beta   55.58742342
_cell_angle_gamma   29.45486174
_symmetry_Int_Tables_number   1
_chemical_formula_structural   Er2ThP4Pd6Pt
_chemical_formula_sum   'Er2 Th1 P4 Pd6 Pt1'
_cell_volume   238.67273803
_cell_formula_units_Z   1
loop_
 _symmetry_equiv_pos_site_id
 _symmetry_equiv_pos_as_xyz
  1  'x, y, z'
loop_
 _atom_site_type_symbol
 _atom_site_label
 _atom_site_symmetry_multiplicity
 _atom_site_fract_x
 _atom_site_fract_y
 _atom_site_fract_z
 _atom_site_occupancy
  Er  Er0  1  0.821449  0.821449  0.173387  1
  Er  Er1  1  0.178551  0.178551  0.826613  1
  Th  Th2  1  0.500000  0.500000  0.500000  1
  P  P3  1  0.392123  0.392123  0.317154  1
  P  P4  1  0.607877  0.607877  0.682846  1
  P  P5  1  0.838944  0.838944  0.753877  1
  P  P6  1  0.161056  0.161056  0.246123  1
  Pd  Pd7  1  0.668396  0.668396  0.073524  1
  Pd  Pd8  1  0.009992  0.009992  0.212245  1
  Pd  Pd9  1  0.990008  0.990008  0.787755  1
  Pd  Pd10  1  0.194881  0.194881  0.471493  1
  Pd  Pd11  1  0.805119  0.805119  0.528507  1
  Pd  Pd12  1  0.331604  0.331604  0.926476  1
  Pt  Pt13  1  0.500000  0.500000  0.000000  1
