# generated using pymatgen
data_Li2Ca2Ni9As7Ir
_symmetry_space_group_name_H-M   'P 1'
_cell_length_a   3.88254800
_cell_length_b   9.47602705
_cell_length_c   9.50227573
_cell_angle_alpha   120.37088957
_cell_angle_beta   90.00000000
_cell_angle_gamma   90.00000000
_symmetry_Int_Tables_number   1
_chemical_formula_structural   Li2Ca2Ni9As7Ir
_chemical_formula_sum   'Li2 Ca2 Ni9 As7 Ir1'
_cell_volume   301.62415700
_cell_formula_units_Z   1
loop_
 _symmetry_equiv_pos_site_id
 _symmetry_equiv_pos_as_xyz
  1  'x, y, z'
loop_
 _atom_site_type_symbol
 _atom_site_label
 _atom_site_symmetry_multiplicity
 _atom_site_fract_x
 _atom_site_fract_y
 _atom_site_fract_z
 _atom_site_occupancy
  Li  Li0  1  0.500000  0.104714  0.217601  1
  Li  Li1  1  0.500000  0.107621  0.891835  1
  Ca  Ca2  1  0.000000  0.664168  0.330008  1
  Ca  Ca3  1  0.500000  0.333876  0.668650  1
  Ni  Ni4  1  0.000000  0.574332  0.940700  1
  Ni  Ni5  1  0.000000  0.373802  0.428072  1
  Ni  Ni6  1  0.000000  0.054033  0.626184  1
  Ni  Ni7  1  0.000000  0.875900  0.158079  1
  Ni  Ni8  1  0.000000  0.277328  0.122992  1
  Ni  Ni9  1  0.000000  0.840862  0.713141  1
  Ni  Ni10  1  0.500000  0.953513  0.385449  1
  Ni  Ni11  1  0.500000  0.430254  0.049232  1
  Ni  Ni12  1  0.500000  0.617483  0.565144  1
  As  As13  1  0.500000  0.707516  0.115321  1
  As  As14  1  0.500000  0.405278  0.290566  1
  As  As15  1  0.500000  0.885753  0.591622  1
  As  As16  1  0.000000  0.993273  0.996842  1
  As  As17  1  0.000000  0.588608  0.701210  1
  As  As18  1  0.000000  0.115227  0.414629  1
  As  As19  1  0.000000  0.303173  0.888624  1
  Ir  Ir20  1  0.500000  0.793287  0.904097  1
