# generated using pymatgen
data_HfZr2Ta7N12
_symmetry_space_group_name_H-M   'P 1'
_cell_length_a   5.30202800
_cell_length_b   5.30202805
_cell_length_c   10.56472700
_cell_angle_alpha   90.00000000
_cell_angle_beta   90.00000000
_cell_angle_gamma   119.99999967
_symmetry_Int_Tables_number   1
_chemical_formula_structural   HfZr2Ta7N12
_chemical_formula_sum   'Hf1 Zr2 Ta7 N12'
_cell_volume   257.20117618
_cell_formula_units_Z   1
loop_
 _symmetry_equiv_pos_site_id
 _symmetry_equiv_pos_as_xyz
  1  'x, y, z'
loop_
 _atom_site_type_symbol
 _atom_site_label
 _atom_site_symmetry_multiplicity
 _atom_site_fract_x
 _atom_site_fract_y
 _atom_site_fract_z
 _atom_site_occupancy
  Hf  Hf0  1  0.333333  0.666667  0.500000  1
  Zr  Zr1  1  0.666667  0.333333  0.000000  1
  Zr  Zr2  1  0.333333  0.666667  0.000000  1
  Ta  Ta3  1  0.677763  0.678851  0.747090  1
  Ta  Ta4  1  0.321149  0.998913  0.747090  1
  Ta  Ta5  1  0.001087  0.322237  0.747090  1
  Ta  Ta6  1  0.321149  0.322237  0.252910  1
  Ta  Ta7  1  0.677763  0.998913  0.252910  1
  Ta  Ta8  1  0.001087  0.678851  0.252910  1
  Ta  Ta9  1  0.666667  0.333333  0.500000  1
  N  N10  1  0.658879  0.652823  0.378623  1
  N  N11  1  0.347177  0.006057  0.378623  1
  N  N12  1  0.993943  0.341121  0.378623  1
  N  N13  1  0.347177  0.341121  0.621377  1
  N  N14  1  0.658879  0.006057  0.621377  1
  N  N15  1  0.993943  0.652823  0.621377  1
  N  N16  1  0.341505  0.341320  0.869354  1
  N  N17  1  0.658680  0.000186  0.869354  1
  N  N18  1  0.999814  0.658495  0.869354  1
  N  N19  1  0.658680  0.658495  0.130646  1
  N  N20  1  0.341505  0.000186  0.130646  1
  N  N21  1  0.999814  0.341320  0.130646  1
