# generated using pymatgen
data_TmMn4NbP3
_symmetry_space_group_name_H-M   'P 1'
_cell_length_a   3.59952700
_cell_length_b   10.91636200
_cell_length_c   12.46836800
_cell_angle_alpha   90.00000000
_cell_angle_beta   90.00000000
_cell_angle_gamma   90.00000000
_symmetry_Int_Tables_number   1
_chemical_formula_structural   TmMn4NbP3
_chemical_formula_sum   'Tm4 Mn16 Nb4 P12'
_cell_volume   489.92880743
_cell_formula_units_Z   4
loop_
 _symmetry_equiv_pos_site_id
 _symmetry_equiv_pos_as_xyz
  1  'x, y, z'
loop_
 _atom_site_type_symbol
 _atom_site_label
 _atom_site_symmetry_multiplicity
 _atom_site_fract_x
 _atom_site_fract_y
 _atom_site_fract_z
 _atom_site_occupancy
  Tm  Tm0  1  0.250000  0.587165  0.708243  1
  Tm  Tm1  1  0.250000  0.912835  0.208243  1
  Tm  Tm2  1  0.750000  0.412835  0.291757  1
  Tm  Tm3  1  0.750000  0.087165  0.791757  1
  Mn  Mn4  1  0.250000  0.411473  0.492478  1
  Mn  Mn5  1  0.250000  0.088527  0.992478  1
  Mn  Mn6  1  0.750000  0.588527  0.507522  1
  Mn  Mn7  1  0.750000  0.911473  0.007522  1
  Mn  Mn8  1  0.250000  0.212712  0.179688  1
  Mn  Mn9  1  0.250000  0.287288  0.679688  1
  Mn  Mn10  1  0.750000  0.787288  0.820312  1
  Mn  Mn11  1  0.750000  0.712712  0.320312  1
  Mn  Mn12  1  0.250000  0.883907  0.696581  1
  Mn  Mn13  1  0.250000  0.616093  0.196581  1
  Mn  Mn14  1  0.750000  0.116093  0.303419  1
  Mn  Mn15  1  0.750000  0.383907  0.803419  1
  Mn  Mn16  1  0.250000  0.463218  0.933876  1
  Mn  Mn17  1  0.250000  0.036782  0.433876  1
  Mn  Mn18  1  0.750000  0.536782  0.066124  1
  Mn  Mn19  1  0.750000  0.963218  0.566124  1
  Nb  Nb20  1  0.250000  0.710125  0.983385  1
  Nb  Nb21  1  0.250000  0.789875  0.483385  1
  Nb  Nb22  1  0.750000  0.289875  0.016615  1
  Nb  Nb23  1  0.750000  0.210125  0.516615  1
  P  P24  1  0.250000  0.417675  0.119178  1
  P  P25  1  0.250000  0.082325  0.619178  1
  P  P26  1  0.750000  0.582325  0.880822  1
  P  P27  1  0.750000  0.917675  0.380822  1
  P  P28  1  0.250000  0.264093  0.866737  1
  P  P29  1  0.250000  0.235907  0.366737  1
  P  P30  1  0.750000  0.735907  0.133263  1
  P  P31  1  0.750000  0.764093  0.633263  1
  P  P32  1  0.250000  0.584721  0.381578  1
  P  P33  1  0.250000  0.915279  0.881578  1
  P  P34  1  0.750000  0.415279  0.618422  1
  P  P35  1  0.750000  0.084721  0.118422  1
