# generated using pymatgen
data_TbSmFe4(PRh)6
_symmetry_space_group_name_H-M   'P 1'
_cell_length_a   3.81800100
_cell_length_b   10.59146200
_cell_length_c   12.30762000
_cell_angle_alpha   90.00000000
_cell_angle_beta   90.00000000
_cell_angle_gamma   90.00000000
_symmetry_Int_Tables_number   1
_chemical_formula_structural   TbSmFe4(PRh)6
_chemical_formula_sum   'Tb2 Sm2 Fe8 P12 Rh12'
_cell_volume   497.69815302
_cell_formula_units_Z   2
loop_
 _symmetry_equiv_pos_site_id
 _symmetry_equiv_pos_as_xyz
  1  'x, y, z'
loop_
 _atom_site_type_symbol
 _atom_site_label
 _atom_site_symmetry_multiplicity
 _atom_site_fract_x
 _atom_site_fract_y
 _atom_site_fract_z
 _atom_site_occupancy
  Tb  Tb0  1  0.750000  0.421376  0.290250  1
  Tb  Tb1  1  0.750000  0.078624  0.790250  1
  Sm  Sm2  1  0.250000  0.578734  0.709720  1
  Sm  Sm3  1  0.250000  0.921266  0.209720  1
  Fe  Fe4  1  0.250000  0.876555  0.698468  1
  Fe  Fe5  1  0.250000  0.623445  0.198468  1
  Fe  Fe6  1  0.750000  0.125274  0.302119  1
  Fe  Fe7  1  0.750000  0.374726  0.802119  1
  Fe  Fe8  1  0.250000  0.458563  0.935384  1
  Fe  Fe9  1  0.250000  0.041437  0.435384  1
  Fe  Fe10  1  0.750000  0.540001  0.065871  1
  Fe  Fe11  1  0.750000  0.959999  0.565871  1
  P  P12  1  0.250000  0.440759  0.111910  1
  P  P13  1  0.250000  0.059241  0.611910  1
  P  P14  1  0.750000  0.558337  0.889695  1
  P  P15  1  0.750000  0.941663  0.389695  1
  P  P16  1  0.250000  0.272912  0.863730  1
  P  P17  1  0.250000  0.227088  0.363730  1
  P  P18  1  0.750000  0.725901  0.135635  1
  P  P19  1  0.750000  0.774099  0.635635  1
  P  P20  1  0.250000  0.602584  0.381431  1
  P  P21  1  0.250000  0.897416  0.881431  1
  P  P22  1  0.750000  0.396209  0.617853  1
  P  P23  1  0.750000  0.103791  0.117853  1
  Rh  Rh24  1  0.250000  0.713314  0.991143  1
  Rh  Rh25  1  0.250000  0.786686  0.491143  1
  Rh  Rh26  1  0.750000  0.286432  0.008701  1
  Rh  Rh27  1  0.750000  0.213568  0.508701  1
  Rh  Rh28  1  0.250000  0.407570  0.479148  1
  Rh  Rh29  1  0.250000  0.092430  0.979148  1
  Rh  Rh30  1  0.750000  0.591924  0.518717  1
  Rh  Rh31  1  0.750000  0.908076  0.018717  1
  Rh  Rh32  1  0.250000  0.232498  0.173690  1
  Rh  Rh33  1  0.250000  0.267502  0.673690  1
  Rh  Rh34  1  0.750000  0.768274  0.826534  1
  Rh  Rh35  1  0.750000  0.731726  0.326534  1
