# generated using pymatgen
data_Y4UTc5Ir2
_symmetry_space_group_name_H-M   'P 1'
_cell_length_a   5.21388814
_cell_length_b   5.21388854
_cell_length_c   9.47524000
_cell_angle_alpha   90.00000000
_cell_angle_beta   90.00000000
_cell_angle_gamma   116.63121519
_symmetry_Int_Tables_number   1
_chemical_formula_structural   Y4UTc5Ir2
_chemical_formula_sum   'Y4 U1 Tc5 Ir2'
_cell_volume   230.25419193
_cell_formula_units_Z   1
loop_
 _symmetry_equiv_pos_site_id
 _symmetry_equiv_pos_as_xyz
  1  'x, y, z'
loop_
 _atom_site_type_symbol
 _atom_site_label
 _atom_site_symmetry_multiplicity
 _atom_site_fract_x
 _atom_site_fract_y
 _atom_site_fract_z
 _atom_site_occupancy
  Y  Y0  1  0.330367  0.669633  0.445133  1
  Y  Y1  1  0.664336  0.335664  0.573417  1
  Y  Y2  1  0.664336  0.335664  0.926583  1
  Y  Y3  1  0.330367  0.669633  0.054867  1
  U  U4  1  0.840300  0.159700  0.250000  1
  Tc  Tc5  1  0.832717  0.647104  0.250000  1
  Tc  Tc6  1  0.352896  0.167283  0.250000  1
  Tc  Tc7  1  0.169830  0.830170  0.750000  1
  Tc  Tc8  1  0.167310  0.340596  0.750000  1
  Tc  Tc9  1  0.659404  0.832690  0.750000  1
  Ir  Ir10  1  0.994067  0.005933  0.505328  1
  Ir  Ir11  1  0.994067  0.005933  0.994672  1
