# generated using pymatgen
data_Eu2In4PtRh
_symmetry_space_group_name_H-M   'P 1'
_cell_length_a   5.79803972
_cell_length_b   5.79803913
_cell_length_c   8.25627200
_cell_angle_alpha   90.00000000
_cell_angle_beta   90.00000000
_cell_angle_gamma   135.57105121
_symmetry_Int_Tables_number   1
_chemical_formula_structural   Eu2In4PtRh
_chemical_formula_sum   'Eu2 In4 Pt1 Rh1'
_cell_volume   194.29400416
_cell_formula_units_Z   1
loop_
 _symmetry_equiv_pos_site_id
 _symmetry_equiv_pos_as_xyz
  1  'x, y, z'
loop_
 _atom_site_type_symbol
 _atom_site_label
 _atom_site_symmetry_multiplicity
 _atom_site_fract_x
 _atom_site_fract_y
 _atom_site_fract_z
 _atom_site_occupancy
  Eu  Eu0  1  0.062535  0.937465  0.250000  1
  Eu  Eu1  1  0.935866  0.064134  0.750000  1
  In  In2  1  0.648672  0.351328  0.548265  1
  In  In3  1  0.351079  0.648921  0.445413  1
  In  In4  1  0.648672  0.351328  0.951735  1
  In  In5  1  0.351079  0.648921  0.054587  1
  Pt  Pt6  1  0.222202  0.777798  0.750000  1
  Rh  Rh7  1  0.779897  0.220103  0.250000  1
