# generated using pymatgen
data_Ba2Sr6Ca(BN2)6
_symmetry_space_group_name_H-M   'P 1'
_cell_length_a   7.69312770
_cell_length_b   7.69312770
_cell_length_c   7.69312770
_cell_angle_alpha   92.33480678
_cell_angle_beta   92.33480678
_cell_angle_gamma   87.66519322
_symmetry_Int_Tables_number   1
_chemical_formula_structural   Ba2Sr6Ca(BN2)6
_chemical_formula_sum   'Ba2 Sr6 Ca1 B6 N12'
_cell_volume   454.20767423
_cell_formula_units_Z   1
loop_
 _symmetry_equiv_pos_site_id
 _symmetry_equiv_pos_as_xyz
  1  'x, y, z'
loop_
 _atom_site_type_symbol
 _atom_site_label
 _atom_site_symmetry_multiplicity
 _atom_site_fract_x
 _atom_site_fract_y
 _atom_site_fract_z
 _atom_site_occupancy
  Ba  Ba0  1  0.740225  0.740225  0.259775  1
  Ba  Ba1  1  0.259775  0.259775  0.740225  1
  Sr  Sr2  1  0.738416  0.263113  0.736887  1
  Sr  Sr3  1  0.261584  0.736887  0.263113  1
  Sr  Sr4  1  0.736887  0.261584  0.263113  1
  Sr  Sr5  1  0.263113  0.738416  0.736887  1
  Sr  Sr6  1  0.736887  0.736887  0.738416  1
  Sr  Sr7  1  0.263113  0.263113  0.261584  1
  Ca  Ca8  1  0.000000  0.000000  0.000000  1
  B  B9  1  0.000000  0.000000  0.500000  1
  B  B10  1  0.500000  0.500000  0.000000  1
  B  B11  1  0.500000  0.000000  0.500000  1
  B  B12  1  0.000000  0.500000  0.000000  1
  B  B13  1  0.500000  0.000000  0.000000  1
  B  B14  1  0.000000  0.500000  0.500000  1
  N  N15  1  0.486646  0.486646  0.172349  1
  N  N16  1  0.990414  0.990414  0.674876  1
  N  N17  1  0.486646  0.827651  0.513354  1
  N  N18  1  0.990414  0.325124  0.009586  1
  N  N19  1  0.325124  0.990414  0.009586  1
  N  N20  1  0.827651  0.486646  0.513354  1
  N  N21  1  0.513354  0.513354  0.827651  1
  N  N22  1  0.009586  0.009586  0.325124  1
  N  N23  1  0.513354  0.172349  0.486646  1
  N  N24  1  0.009586  0.674876  0.990414  1
  N  N25  1  0.674876  0.009586  0.990414  1
  N  N26  1  0.172349  0.513354  0.486646  1
