# generated using pymatgen
data_Sr4Gd7DySe16
_symmetry_space_group_name_H-M   'P 1'
_cell_length_a   4.16598300
_cell_length_b   12.67317317
_cell_length_c   15.06721000
_cell_angle_alpha   89.99048323
_cell_angle_beta   90.00000000
_cell_angle_gamma   90.00000000
_symmetry_Int_Tables_number   1
_chemical_formula_structural   Sr4Gd7DySe16
_chemical_formula_sum   'Sr4 Gd7 Dy1 Se16'
_cell_volume   795.49178328
_cell_formula_units_Z   1
loop_
 _symmetry_equiv_pos_site_id
 _symmetry_equiv_pos_as_xyz
  1  'x, y, z'
loop_
 _atom_site_type_symbol
 _atom_site_label
 _atom_site_symmetry_multiplicity
 _atom_site_fract_x
 _atom_site_fract_y
 _atom_site_fract_z
 _atom_site_occupancy
  Sr  Sr0  1  0.250000  0.757960  0.664519  1
  Sr  Sr1  1  0.750000  0.741714  0.163812  1
  Sr  Sr2  1  0.250000  0.258148  0.836015  1
  Sr  Sr3  1  0.750000  0.241603  0.335558  1
  Gd  Gd4  1  0.250000  0.433622  0.610918  1
  Gd  Gd5  1  0.750000  0.066761  0.109559  1
  Gd  Gd6  1  0.250000  0.932653  0.890006  1
  Gd  Gd7  1  0.750000  0.566601  0.389847  1
  Gd  Gd8  1  0.250000  0.418671  0.098167  1
  Gd  Gd9  1  0.750000  0.081550  0.599283  1
  Gd  Gd10  1  0.250000  0.918720  0.401052  1
  Dy  Dy11  1  0.750000  0.581436  0.900985  1
  Se  Se12  1  0.250000  0.411289  0.420951  1
  Se  Se13  1  0.750000  0.088684  0.920275  1
  Se  Se14  1  0.250000  0.911083  0.079504  1
  Se  Se15  1  0.750000  0.588674  0.579620  1
  Se  Se16  1  0.250000  0.023609  0.716755  1
  Se  Se17  1  0.750000  0.476010  0.216220  1
  Se  Se18  1  0.250000  0.524777  0.784997  1
  Se  Se19  1  0.750000  0.976589  0.283477  1
  Se  Se20  1  0.250000  0.132464  0.471139  1
  Se  Se21  1  0.750000  0.368945  0.969672  1
  Se  Se22  1  0.250000  0.631995  0.027518  1
  Se  Se23  1  0.750000  0.867901  0.529268  1
  Se  Se24  1  0.250000  0.207717  0.175963  1
  Se  Se25  1  0.750000  0.292197  0.676943  1
  Se  Se26  1  0.250000  0.707829  0.323603  1
  Se  Se27  1  0.750000  0.790795  0.824377  1
