# generated using pymatgen
data_BeNb4Al4V3
_symmetry_space_group_name_H-M   'P 1'
_cell_length_a   4.96329078
_cell_length_b   4.96318891
_cell_length_c   8.44395900
_cell_angle_alpha   90.00000000
_cell_angle_beta   90.00000000
_cell_angle_gamma   61.34217402
_symmetry_Int_Tables_number   1
_chemical_formula_structural   BeNb4Al4V3
_chemical_formula_sum   'Be1 Nb4 Al4 V3'
_cell_volume   182.52546874
_cell_formula_units_Z   1
loop_
 _symmetry_equiv_pos_site_id
 _symmetry_equiv_pos_as_xyz
  1  'x, y, z'
loop_
 _atom_site_type_symbol
 _atom_site_label
 _atom_site_symmetry_multiplicity
 _atom_site_fract_x
 _atom_site_fract_y
 _atom_site_fract_z
 _atom_site_occupancy
  Be  Be0  1  0.835935  0.835972  0.750000  1
  Nb  Nb1  1  0.335107  0.335109  0.560710  1
  Nb  Nb2  1  0.663995  0.663955  0.440763  1
  Nb  Nb3  1  0.663995  0.663955  0.059237  1
  Nb  Nb4  1  0.335107  0.335109  0.939290  1
  Al  Al5  1  0.992783  0.992919  0.502269  1
  Al  Al6  1  0.992783  0.992919  0.997731  1
  Al  Al7  1  0.838338  0.352453  0.750000  1
  Al  Al8  1  0.352364  0.838426  0.750000  1
  V  V9  1  0.169133  0.650944  0.250000  1
  V  V10  1  0.651036  0.169048  0.250000  1
  V  V11  1  0.169422  0.169191  0.250000  1
