# generated using pymatgen
data_Hf3Sc5Co11Si16Ir
_symmetry_space_group_name_H-M   'P 1'
_cell_length_a   5.23118577
_cell_length_b   6.79388863
_cell_length_c   13.69544631
_cell_angle_alpha   90.31168770
_cell_angle_beta   90.03729509
_cell_angle_gamma   89.92666224
_symmetry_Int_Tables_number   1
_chemical_formula_structural   Hf3Sc5Co11Si16Ir
_chemical_formula_sum   'Hf3 Sc5 Co11 Si16 Ir1'
_cell_volume   486.72974148
_cell_formula_units_Z   1
loop_
 _symmetry_equiv_pos_site_id
 _symmetry_equiv_pos_as_xyz
  1  'x, y, z'
loop_
 _atom_site_type_symbol
 _atom_site_label
 _atom_site_symmetry_multiplicity
 _atom_site_fract_x
 _atom_site_fract_y
 _atom_site_fract_z
 _atom_site_occupancy
  Hf  Hf0  1  0.731993  0.901187  0.356361  1
  Hf  Hf1  1  0.265682  0.904821  0.854930  1
  Hf  Hf2  1  0.771844  0.600269  0.852549  1
  Sc  Sc3  1  0.232471  0.398661  0.148201  1
  Sc  Sc4  1  0.728843  0.100312  0.145698  1
  Sc  Sc5  1  0.270645  0.100463  0.641950  1
  Sc  Sc6  1  0.766531  0.401194  0.641328  1
  Sc  Sc7  1  0.230849  0.599384  0.356942  1
  Co  Co8  1  0.506416  0.224826  0.482899  1
  Co  Co9  1  0.772874  0.998599  0.750314  1
  Co  Co10  1  0.494054  0.221499  0.981999  1
  Co  Co11  1  0.724609  0.501283  0.251813  1
  Co  Co12  1  0.494483  0.774491  0.517560  1
  Co  Co13  1  0.004672  0.271888  0.482151  1
  Co  Co14  1  0.006894  0.723251  0.018708  1
  Co  Co15  1  0.225177  0.000594  0.250780  1
  Co  Co16  1  0.276825  0.503495  0.749607  1
  Co  Co17  1  0.507398  0.773522  0.018502  1
  Co  Co18  1  0.993896  0.727003  0.517645  1
  Si  Si19  1  0.221622  0.012008  0.070882  1
  Si  Si20  1  0.717659  0.518277  0.432852  1
  Si  Si21  1  0.783872  0.018349  0.567388  1
  Si  Si22  1  0.480061  0.752914  0.188346  1
  Si  Si23  1  0.020710  0.254277  0.804275  1
  Si  Si24  1  0.518919  0.248131  0.811695  1
  Si  Si25  1  0.218103  0.980240  0.433002  1
  Si  Si26  1  0.294246  0.525907  0.931567  1
  Si  Si27  1  0.978737  0.748005  0.187948  1
  Si  Si28  1  0.708252  0.485927  0.070772  1
  Si  Si29  1  0.281862  0.482070  0.566466  1
  Si  Si30  1  0.483589  0.246145  0.314915  1
  Si  Si31  1  0.020759  0.748493  0.686205  1
  Si  Si32  1  0.776167  0.972541  0.931729  1
  Si  Si33  1  0.518732  0.753591  0.686696  1
  Si  Si34  1  0.975658  0.251264  0.314090  1
  Ir  Ir35  1  0.994896  0.275119  0.981239  1
