# generated using pymatgen
data_Ho6Lu4Sn5Bi
_symmetry_space_group_name_H-M   'P 1'
_cell_length_a   8.88761478
_cell_length_b   8.88761624
_cell_length_c   6.41634400
_cell_angle_alpha   90.00000000
_cell_angle_beta   90.00000000
_cell_angle_gamma   119.84838918
_symmetry_Int_Tables_number   1
_chemical_formula_structural   Ho6Lu4Sn5Bi
_chemical_formula_sum   'Ho6 Lu4 Sn5 Bi1'
_cell_volume   439.59247337
_cell_formula_units_Z   1
loop_
 _symmetry_equiv_pos_site_id
 _symmetry_equiv_pos_as_xyz
  1  'x, y, z'
loop_
 _atom_site_type_symbol
 _atom_site_label
 _atom_site_symmetry_multiplicity
 _atom_site_fract_x
 _atom_site_fract_y
 _atom_site_fract_z
 _atom_site_occupancy
  Ho  Ho0  1  0.764332  0.764332  0.750000  1
  Ho  Ho1  1  0.236299  0.993540  0.750000  1
  Ho  Ho2  1  0.993540  0.236299  0.750000  1
  Ho  Ho3  1  0.238589  0.238589  0.250000  1
  Ho  Ho4  1  0.761838  0.001098  0.250000  1
  Ho  Ho5  1  0.001098  0.761838  0.250000  1
  Lu  Lu6  1  0.670534  0.332454  0.001691  1
  Lu  Lu7  1  0.332454  0.670534  0.001691  1
  Lu  Lu8  1  0.332454  0.670534  0.498309  1
  Lu  Lu9  1  0.670534  0.332454  0.498309  1
  Sn  Sn10  1  0.600947  0.998613  0.750000  1
  Sn  Sn11  1  0.998613  0.600947  0.750000  1
  Sn  Sn12  1  0.603491  0.603491  0.250000  1
  Sn  Sn13  1  0.398369  0.001846  0.250000  1
  Sn  Sn14  1  0.001846  0.398369  0.250000  1
  Bi  Bi15  1  0.395062  0.395062  0.750000  1
