# generated using pymatgen
data_Tb4Er8Co5Pb
_symmetry_space_group_name_H-M   'P 1'
_cell_length_a   8.24653592
_cell_length_b   8.24654582
_cell_length_c   8.24653667
_cell_angle_alpha   110.81231828
_cell_angle_beta   110.61678056
_cell_angle_gamma   107.01220591
_symmetry_Int_Tables_number   1
_chemical_formula_structural   Tb4Er8Co5Pb
_chemical_formula_sum   'Tb4 Er8 Co5 Pb1'
_cell_volume   431.11700892
_cell_formula_units_Z   1
loop_
 _symmetry_equiv_pos_site_id
 _symmetry_equiv_pos_as_xyz
  1  'x, y, z'
loop_
 _atom_site_type_symbol
 _atom_site_label
 _atom_site_symmetry_multiplicity
 _atom_site_fract_x
 _atom_site_fract_y
 _atom_site_fract_z
 _atom_site_occupancy
  Tb  Tb0  1  0.287919  0.185338  0.473250  1
  Tb  Tb1  1  0.712081  0.814662  0.526750  1
  Tb  Tb2  1  0.287912  0.814662  0.102580  1
  Tb  Tb3  1  0.712088  0.185338  0.897420  1
  Er  Er4  1  0.620496  0.313193  0.307271  1
  Er  Er5  1  0.379504  0.686807  0.692729  1
  Er  Er6  1  0.005923  0.313193  0.692696  1
  Er  Er7  1  0.994077  0.686807  0.307304  1
  Er  Er8  1  0.210005  0.403858  0.193854  1
  Er  Er9  1  0.789995  0.596142  0.806146  1
  Er  Er10  1  0.209991  0.016158  0.806168  1
  Er  Er11  1  0.790009  0.983842  0.193832  1
  Co  Co12  1  0.999999  0.376993  0.376994  1
  Co  Co13  1  0.000001  0.623007  0.623006  1
  Co  Co14  1  0.387370  0.887369  0.499998  1
  Co  Co15  1  0.612630  0.112631  0.500002  1
  Co  Co16  1  0.000000  0.000000  0.000000  1
  Pb  Pb17  1  0.500000  0.500000  0.000000  1
