# generated using pymatgen
data_Dy4Er8TlGaCo4
_symmetry_space_group_name_H-M   'P 1'
_cell_length_a   8.28370294
_cell_length_b   8.28370258
_cell_length_c   8.28370404
_cell_angle_alpha   106.81930264
_cell_angle_beta   109.39621100
_cell_angle_gamma   112.24370768
_symmetry_Int_Tables_number   1
_chemical_formula_structural   Dy4Er8TlGaCo4
_chemical_formula_sum   'Dy4 Er8 Tl1 Ga1 Co4'
_cell_volume   436.59165941
_cell_formula_units_Z   1
loop_
 _symmetry_equiv_pos_site_id
 _symmetry_equiv_pos_as_xyz
  1  'x, y, z'
loop_
 _atom_site_type_symbol
 _atom_site_label
 _atom_site_symmetry_multiplicity
 _atom_site_fract_x
 _atom_site_fract_y
 _atom_site_fract_z
 _atom_site_occupancy
  Dy  Dy0  1  0.700903  0.265628  0.966531  1
  Dy  Dy1  1  0.299097  0.734372  0.033469  1
  Dy  Dy2  1  0.700903  0.734372  0.435277  1
  Dy  Dy3  1  0.299097  0.265628  0.564723  1
  Er  Er4  1  0.813952  0.139526  0.325574  1
  Er  Er5  1  0.813952  0.488379  0.674426  1
  Er  Er6  1  0.186048  0.860474  0.674426  1
  Er  Er7  1  0.186048  0.511621  0.325574  1
  Er  Er8  1  0.602675  0.781523  0.821152  1
  Er  Er9  1  0.960370  0.781523  0.178848  1
  Er  Er10  1  0.039630  0.218477  0.821152  1
  Er  Er11  1  0.397325  0.218477  0.178848  1
  Tl  Tl12  1  0.500000  0.000000  0.500000  1
  Ga  Ga13  1  0.500000  0.500000  0.000000  1
  Co  Co14  1  0.840863  0.500000  0.340863  1
  Co  Co15  1  0.159137  0.500000  0.659137  1
  Co  Co16  1  0.000000  0.114650  0.114650  1
  Co  Co17  1  0.000000  0.885350  0.885350  1
