# generated using pymatgen
data_Tb3Ho7Si5Sn
_symmetry_space_group_name_H-M   'P 1'
_cell_length_a   8.51029800
_cell_length_b   8.53659216
_cell_length_c   6.38458300
_cell_angle_alpha   90.00000000
_cell_angle_beta   90.00000000
_cell_angle_gamma   119.89816871
_symmetry_Int_Tables_number   1
_chemical_formula_structural   Tb3Ho7Si5Sn
_chemical_formula_sum   'Tb3 Ho7 Si5 Sn1'
_cell_volume   402.10288978
_cell_formula_units_Z   1
loop_
 _symmetry_equiv_pos_site_id
 _symmetry_equiv_pos_as_xyz
  1  'x, y, z'
loop_
 _atom_site_type_symbol
 _atom_site_label
 _atom_site_symmetry_multiplicity
 _atom_site_fract_x
 _atom_site_fract_y
 _atom_site_fract_z
 _atom_site_occupancy
  Tb  Tb0  1  0.998835  0.242788  0.250000  1
  Tb  Tb1  1  0.756046  0.757212  0.250000  1
  Tb  Tb2  1  0.241375  0.000000  0.250000  1
  Ho  Ho3  1  0.989607  0.749050  0.750000  1
  Ho  Ho4  1  0.765046  0.000000  0.750000  1
  Ho  Ho5  1  0.240558  0.250950  0.750000  1
  Ho  Ho6  1  0.331558  0.658086  0.497064  1
  Ho  Ho7  1  0.673473  0.341914  0.002936  1
  Ho  Ho8  1  0.673473  0.341914  0.497064  1
  Ho  Ho9  1  0.331558  0.658086  0.002936  1
  Si  Si10  1  0.393970  0.392672  0.250000  1
  Si  Si11  1  0.001297  0.607328  0.250000  1
  Si  Si12  1  0.998740  0.394307  0.750000  1
  Si  Si13  1  0.604433  0.605693  0.750000  1
  Si  Si14  1  0.605185  0.000000  0.250000  1
  Sn  Sn15  1  0.394845  0.000000  0.750000  1
