# generated using pymatgen
data_Y3Ho5Ti11Si16Pd
_symmetry_space_group_name_H-M   'P 1'
_cell_length_a   7.05595485
_cell_length_b   7.05548671
_cell_length_c   12.88352207
_cell_angle_alpha   90.10495732
_cell_angle_beta   89.87778302
_cell_angle_gamma   89.68846744
_symmetry_Int_Tables_number   1
_chemical_formula_structural   Y3Ho5Ti11Si16Pd
_chemical_formula_sum   'Y3 Ho5 Ti11 Si16 Pd1'
_cell_volume   641.37087032
_cell_formula_units_Z   1
loop_
 _symmetry_equiv_pos_site_id
 _symmetry_equiv_pos_as_xyz
  1  'x, y, z'
loop_
 _atom_site_type_symbol
 _atom_site_label
 _atom_site_symmetry_multiplicity
 _atom_site_fract_x
 _atom_site_fract_y
 _atom_site_fract_z
 _atom_site_occupancy
  Y  Y0  1  0.340354  0.003282  0.466759  1
  Y  Y1  1  0.496829  0.841505  0.717621  1
  Y  Y2  1  0.501503  0.157782  0.214302  1
  Ho  Ho3  1  0.841930  0.497171  0.282536  1
  Ho  Ho4  1  0.157472  0.501047  0.785816  1
  Ho  Ho5  1  0.656209  0.999864  0.968232  1
  Ho  Ho6  1  0.002827  0.340780  0.533351  1
  Ho  Ho7  1  0.999774  0.656035  0.031604  1
  Ti  Ti8  1  0.175414  0.825793  0.248968  1
  Ti  Ti9  1  0.826126  0.175921  0.751014  1
  Ti  Ti10  1  0.673329  0.672805  0.499905  1
  Ti  Ti11  1  0.148299  0.005951  0.877119  1
  Ti  Ti12  1  0.494552  0.653067  0.123899  1
  Ti  Ti13  1  0.507647  0.350329  0.626676  1
  Ti  Ti14  1  0.653240  0.494434  0.876139  1
  Ti  Ti15  1  0.350106  0.507662  0.373457  1
  Ti  Ti16  1  0.849998  0.992826  0.374599  1
  Ti  Ti17  1  0.005882  0.148456  0.122928  1
  Ti  Ti18  1  0.992840  0.849853  0.625504  1
  Si  Si19  1  0.201357  0.133436  0.685445  1
  Si  Si20  1  0.372899  0.711004  0.931804  1
  Si  Si21  1  0.631640  0.294994  0.433092  1
  Si  Si22  1  0.711588  0.373254  0.067997  1
  Si  Si23  1  0.294189  0.630475  0.566897  1
  Si  Si24  1  0.797763  0.867409  0.183012  1
  Si  Si25  1  0.132239  0.202131  0.314560  1
  Si  Si26  1  0.868112  0.797169  0.817112  1
  Si  Si27  1  0.285823  0.943134  0.064629  1
  Si  Si28  1  0.547887  0.790623  0.314716  1
  Si  Si29  1  0.450588  0.210433  0.813906  1
  Si  Si30  1  0.791604  0.547218  0.685253  1
  Si  Si31  1  0.209535  0.450928  0.186240  1
  Si  Si32  1  0.709111  0.048099  0.564907  1
  Si  Si33  1  0.943351  0.286197  0.935202  1
  Si  Si34  1  0.047429  0.708132  0.434947  1
  Pd  Pd35  1  0.330554  0.330800  0.999850  1
