# generated using pymatgen
data_Be7FeCo3Ge(Mo6C)2
_symmetry_space_group_name_H-M   'P 1'
_cell_length_a   7.58445884
_cell_length_b   7.58445990
_cell_length_c   7.58379500
_cell_angle_alpha   59.99710348
_cell_angle_beta   59.99709884
_cell_angle_gamma   59.99999427
_symmetry_Int_Tables_number   1
_chemical_formula_structural   Be7FeCo3Ge(Mo6C)2
_chemical_formula_sum   'Be7 Fe1 Co3 Ge1 Mo12 C2'
_cell_volume   308.46208951
_cell_formula_units_Z   1
loop_
 _symmetry_equiv_pos_site_id
 _symmetry_equiv_pos_as_xyz
  1  'x, y, z'
loop_
 _atom_site_type_symbol
 _atom_site_label
 _atom_site_symmetry_multiplicity
 _atom_site_fract_x
 _atom_site_fract_y
 _atom_site_fract_z
 _atom_site_occupancy
  Be  Be0  1  0.420699  0.741959  0.416643  1
  Be  Be1  1  0.741959  0.420699  0.416643  1
  Be  Be2  1  0.420699  0.420699  0.416643  1
  Be  Be3  1  0.828553  0.828553  0.514341  1
  Be  Be4  1  0.828730  0.515490  0.827050  1
  Be  Be5  1  0.515490  0.828730  0.827050  1
  Be  Be6  1  0.828730  0.828730  0.827050  1
  Fe  Fe7  1  0.624983  0.624983  0.125051  1
  Co  Co8  1  0.629556  0.119810  0.621078  1
  Co  Co9  1  0.119810  0.629556  0.621078  1
  Co  Co10  1  0.629556  0.629556  0.621078  1
  Ge  Ge11  1  0.420857  0.420857  0.737428  1
  Mo  Mo12  1  0.049621  0.049621  0.450740  1
  Mo  Mo13  1  0.450018  0.049621  0.450740  1
  Mo  Mo14  1  0.049621  0.450018  0.450740  1
  Mo  Mo15  1  0.451031  0.451031  0.056240  1
  Mo  Mo16  1  0.041699  0.451031  0.056240  1
  Mo  Mo17  1  0.451031  0.041699  0.056240  1
  Mo  Mo18  1  0.196797  0.196797  0.800392  1
  Mo  Mo19  1  0.806015  0.196797  0.800392  1
  Mo  Mo20  1  0.196797  0.806015  0.800392  1
  Mo  Mo21  1  0.799123  0.799123  0.200484  1
  Mo  Mo22  1  0.201272  0.799123  0.200484  1
  Mo  Mo23  1  0.799123  0.201272  0.200484  1
  C  C24  1  0.249270  0.249270  0.252189  1
  C  C25  1  0.998962  0.998962  0.003113  1
