# generated using pymatgen
data_La10Sb9Br
_symmetry_space_group_name_H-M   'P 1'
_cell_length_a   7.97836891
_cell_length_b   9.24518519
_cell_length_c   10.28284213
_cell_angle_alpha   102.81074149
_cell_angle_beta   97.53186633
_cell_angle_gamma   106.85355447
_symmetry_Int_Tables_number   1
_chemical_formula_structural   La10Sb9Br
_chemical_formula_sum   'La10 Sb9 Br1'
_cell_volume   692.14736472
_cell_formula_units_Z   1
loop_
 _symmetry_equiv_pos_site_id
 _symmetry_equiv_pos_as_xyz
  1  'x, y, z'
loop_
 _atom_site_type_symbol
 _atom_site_label
 _atom_site_symmetry_multiplicity
 _atom_site_fract_x
 _atom_site_fract_y
 _atom_site_fract_z
 _atom_site_occupancy
  La  La0  1  0.901107  0.549767  0.800265  1
  La  La1  1  0.693560  0.153199  0.398215  1
  La  La2  1  0.500333  0.749621  0.000572  1
  La  La3  1  0.693720  0.642138  0.397492  1
  La  La4  1  0.306280  0.357862  0.602508  1
  La  La5  1  0.101703  0.947860  0.192908  1
  La  La6  1  0.499667  0.250379  0.999428  1
  La  La7  1  0.306440  0.846801  0.601785  1
  La  La8  1  0.098893  0.450233  0.199735  1
  La  La9  1  0.898297  0.052140  0.807092  1
  Sb  Sb10  1  0.800659  0.602196  0.102604  1
  Sb  Sb11  1  0.598669  0.198176  0.698596  1
  Sb  Sb12  1  0.401331  0.801824  0.301404  1
  Sb  Sb13  1  0.801135  0.099429  0.101962  1
  Sb  Sb14  1  0.199341  0.397804  0.897396  1
  Sb  Sb15  1  0.601797  0.701694  0.698978  1
  Sb  Sb16  1  0.398203  0.298306  0.301022  1
  Sb  Sb17  1  0.198865  0.900571  0.898038  1
  Sb  Sb18  1  0.000000  0.500000  0.500000  1
  Br  Br19  1  0.000000  0.000000  0.500000  1
