# generated using pymatgen
data_Ho12InCo5
_symmetry_space_group_name_H-M   'P 1'
_cell_length_a   8.23400299
_cell_length_b   8.23392171
_cell_length_c   8.23400343
_cell_angle_alpha   110.73915445
_cell_angle_beta   110.86637367
_cell_angle_gamma   106.84015406
_symmetry_Int_Tables_number   1
_chemical_formula_structural   Ho12InCo5
_chemical_formula_sum   'Ho12 In1 Co5'
_cell_volume   429.06273737
_cell_formula_units_Z   1
loop_
 _symmetry_equiv_pos_site_id
 _symmetry_equiv_pos_as_xyz
  1  'x, y, z'
loop_
 _atom_site_type_symbol
 _atom_site_label
 _atom_site_symmetry_multiplicity
 _atom_site_fract_x
 _atom_site_fract_y
 _atom_site_fract_z
 _atom_site_occupancy
  Ho  Ho0  1  0.814699  0.710244  0.524947  1
  Ho  Ho1  1  0.185301  0.289756  0.475053  1
  Ho  Ho2  1  0.185298  0.710244  0.895545  1
  Ho  Ho3  1  0.814702  0.289756  0.104455  1
  Ho  Ho4  1  0.685524  0.380451  0.694928  1
  Ho  Ho5  1  0.314476  0.619549  0.305072  1
  Ho  Ho6  1  0.685528  0.990602  0.305073  1
  Ho  Ho7  1  0.314472  0.009398  0.694927  1
  Ho  Ho8  1  0.596530  0.788626  0.807907  1
  Ho  Ho9  1  0.403470  0.211374  0.192093  1
  Ho  Ho10  1  0.980719  0.788626  0.192096  1
  Ho  Ho11  1  0.019281  0.211374  0.807904  1
  In  In12  1  0.500000  0.500000  0.000000  1
  Co  Co13  1  0.622284  0.000000  0.622284  1
  Co  Co14  1  0.377716  0.000000  0.377716  1
  Co  Co15  1  0.112500  0.612501  0.500001  1
  Co  Co16  1  0.887500  0.387499  0.499999  1
  Co  Co17  1  0.000000  0.000000  0.000000  1
