# generated using pymatgen
data_Y11Tm5(CdPt)4
_symmetry_space_group_name_H-M   'P 1'
_cell_length_a   9.64615091
_cell_length_b   9.68124336
_cell_length_c   9.68124334
_cell_angle_alpha   60.05997141
_cell_angle_beta   60.11984191
_cell_angle_gamma   60.11983546
_symmetry_Int_Tables_number   1
_chemical_formula_structural   Y11Tm5(CdPt)4
_chemical_formula_sum   'Y11 Tm5 Cd4 Pt4'
_cell_volume   640.74139475
_cell_formula_units_Z   1
loop_
 _symmetry_equiv_pos_site_id
 _symmetry_equiv_pos_as_xyz
  1  'x, y, z'
loop_
 _atom_site_type_symbol
 _atom_site_label
 _atom_site_symmetry_multiplicity
 _atom_site_fract_x
 _atom_site_fract_y
 _atom_site_fract_z
 _atom_site_occupancy
  Y  Y0  1  0.190280  0.809720  0.809720  1
  Y  Y1  1  0.189839  0.810389  0.190592  1
  Y  Y2  1  0.809180  0.190592  0.810389  1
  Y  Y3  1  0.189839  0.190592  0.810389  1
  Y  Y4  1  0.809180  0.810389  0.190592  1
  Y  Y5  1  0.935830  0.564170  0.564170  1
  Y  Y6  1  0.563387  0.936613  0.936613  1
  Y  Y7  1  0.564543  0.936858  0.562387  1
  Y  Y8  1  0.936213  0.562387  0.936858  1
  Y  Y9  1  0.564543  0.562387  0.936858  1
  Y  Y10  1  0.936213  0.936858  0.562387  1
  Tm  Tm11  1  0.351117  0.351655  0.351655  1
  Tm  Tm12  1  0.352079  0.352782  0.943060  1
  Tm  Tm13  1  0.352079  0.943060  0.352782  1
  Tm  Tm14  1  0.945573  0.351655  0.351655  1
  Tm  Tm15  1  0.809167  0.190833  0.190833  1
  Cd  Cd16  1  0.581686  0.581322  0.581322  1
  Cd  Cd17  1  0.581843  0.581162  0.255152  1
  Cd  Cd18  1  0.581843  0.255152  0.581162  1
  Cd  Cd19  1  0.255669  0.581322  0.581322  1
  Pt  Pt20  1  0.142684  0.145300  0.145300  1
  Pt  Pt21  1  0.145249  0.143602  0.565900  1
  Pt  Pt22  1  0.145249  0.565900  0.143602  1
  Pt  Pt23  1  0.566716  0.145300  0.145300  1
