# generated using pymatgen
data_Dy3Lu7(InSb2)2
_symmetry_space_group_name_H-M   'P 1'
_cell_length_a   6.35901401
_cell_length_b   8.82282295
_cell_length_c   8.84850497
_cell_angle_alpha   119.91435839
_cell_angle_beta   90.00160158
_cell_angle_gamma   89.99893471
_symmetry_Int_Tables_number   1
_chemical_formula_structural   Dy3Lu7(InSb2)2
_chemical_formula_sum   'Dy3 Lu7 In2 Sb4'
_cell_volume   430.30066651
_cell_formula_units_Z   1
loop_
 _symmetry_equiv_pos_site_id
 _symmetry_equiv_pos_as_xyz
  1  'x, y, z'
loop_
 _atom_site_type_symbol
 _atom_site_label
 _atom_site_symmetry_multiplicity
 _atom_site_fract_x
 _atom_site_fract_y
 _atom_site_fract_z
 _atom_site_occupancy
  Dy  Dy0  1  0.749996  0.239997  0.000234  1
  Dy  Dy1  1  0.750000  0.760667  0.758107  1
  Dy  Dy2  1  0.249994  0.762461  0.999989  1
  Lu  Lu3  1  0.500532  0.333039  0.664546  1
  Lu  Lu4  1  0.500263  0.669258  0.336052  1
  Lu  Lu5  1  0.999759  0.669261  0.336019  1
  Lu  Lu6  1  0.999454  0.333037  0.664546  1
  Lu  Lu7  1  0.750011  0.002532  0.242146  1
  Lu  Lu8  1  0.249954  0.236353  0.241784  1
  Lu  Lu9  1  0.249995  0.994536  0.757361  1
  In  In10  1  0.250033  0.604619  0.603629  1
  In  In11  1  0.250003  0.001170  0.397422  1
  Sb  Sb12  1  0.749996  0.608998  0.002026  1
  Sb  Sb13  1  0.750005  0.392005  0.392111  1
  Sb  Sb14  1  0.750002  0.002610  0.604274  1
  Sb  Sb15  1  0.250005  0.389458  0.999753  1
