# generated using pymatgen
data_Lu4InPd8Pt3
_symmetry_space_group_name_H-M   'P 1'
_cell_length_a   4.09043500
_cell_length_b   5.70566600
_cell_length_c   11.34947400
_cell_angle_alpha   87.00968848
_cell_angle_beta   90.00000000
_cell_angle_gamma   90.00000000
_symmetry_Int_Tables_number   1
_chemical_formula_structural   Lu4InPd8Pt3
_chemical_formula_sum   'Lu4 In1 Pd8 Pt3'
_cell_volume   264.52079811
_cell_formula_units_Z   1
loop_
 _symmetry_equiv_pos_site_id
 _symmetry_equiv_pos_as_xyz
  1  'x, y, z'
loop_
 _atom_site_type_symbol
 _atom_site_label
 _atom_site_symmetry_multiplicity
 _atom_site_fract_x
 _atom_site_fract_y
 _atom_site_fract_z
 _atom_site_occupancy
  Lu  Lu0  1  0.500000  0.757067  0.376247  1
  Lu  Lu1  1  0.500000  0.711088  0.860091  1
  Lu  Lu2  1  0.500000  0.288912  0.139909  1
  Lu  Lu3  1  0.500000  0.242933  0.623753  1
  In  In4  1  0.000000  0.000000  0.000000  1
  Pd  Pd5  1  0.000000  0.018789  0.249665  1
  Pd  Pd6  1  0.000000  0.981211  0.750335  1
  Pd  Pd7  1  0.000000  0.500000  0.500000  1
  Pd  Pd8  1  0.500000  0.256830  0.377935  1
  Pd  Pd9  1  0.500000  0.221517  0.881907  1
  Pd  Pd10  1  0.500000  0.778483  0.118093  1
  Pd  Pd11  1  0.500000  0.743170  0.622065  1
  Pd  Pd12  1  0.000000  0.000000  0.500000  1
  Pt  Pt13  1  0.000000  0.500000  0.000000  1
  Pt  Pt14  1  0.000000  0.522862  0.251060  1
  Pt  Pt15  1  0.000000  0.477138  0.748940  1
