# generated using pymatgen
data_Yb4Sc2TaSbO12
_symmetry_space_group_name_H-M   'P 1'
_cell_length_a   5.66283944
_cell_length_b   5.47819385
_cell_length_c   9.57551127
_cell_angle_alpha   55.08596326
_cell_angle_beta   90.07831802
_cell_angle_gamma   90.02398518
_symmetry_Int_Tables_number   1
_chemical_formula_structural   Yb4Sc2TaSbO12
_chemical_formula_sum   'Yb4 Sc2 Ta1 Sb1 O12'
_cell_volume   243.58649584
_cell_formula_units_Z   1
loop_
 _symmetry_equiv_pos_site_id
 _symmetry_equiv_pos_as_xyz
  1  'x, y, z'
loop_
 _atom_site_type_symbol
 _atom_site_label
 _atom_site_symmetry_multiplicity
 _atom_site_fract_x
 _atom_site_fract_y
 _atom_site_fract_z
 _atom_site_occupancy
  Yb  Yb0  1  0.554590  0.766362  0.750026  1
  Yb  Yb1  1  0.946016  0.763960  0.251093  1
  Yb  Yb2  1  0.445410  0.233638  0.249974  1
  Yb  Yb3  1  0.053984  0.236040  0.748907  1
  Sc  Sc4  1  0.500000  0.500000  0.500000  1
  Sc  Sc5  1  0.000000  0.500000  0.000000  1
  Ta  Ta6  1  0.000000  0.000000  0.500000  1
  Sb  Sb7  1  0.500000  0.000000  0.000000  1
  O  O8  1  0.803936  0.240178  0.552927  1
  O  O9  1  0.696559  0.238732  0.054617  1
  O  O10  1  0.196064  0.759822  0.447073  1
  O  O11  1  0.303441  0.761268  0.945383  1
  O  O12  1  0.791180  0.864482  0.942653  1
  O  O13  1  0.708824  0.863952  0.443554  1
  O  O14  1  0.208820  0.135518  0.057347  1
  O  O15  1  0.291176  0.136048  0.556446  1
  O  O16  1  0.963340  0.653408  0.743039  1
  O  O17  1  0.537444  0.651234  0.243135  1
  O  O18  1  0.036660  0.346592  0.256961  1
  O  O19  1  0.462556  0.348766  0.756865  1
