# generated using pymatgen
data_Li3Al3Pt2
_symmetry_space_group_name_H-M   'P 1'
_cell_length_a   6.07532300
_cell_length_b   6.07532300
_cell_length_c   6.07532300
_cell_angle_alpha   90.00000000
_cell_angle_beta   90.00000000
_cell_angle_gamma   90.00000000
_symmetry_Int_Tables_number   1
_chemical_formula_structural   Li3Al3Pt2
_chemical_formula_sum   'Li6 Al6 Pt4'
_cell_volume   224.23743533
_cell_formula_units_Z   2
loop_
 _symmetry_equiv_pos_site_id
 _symmetry_equiv_pos_as_xyz
  1  'x, y, z'
loop_
 _atom_site_type_symbol
 _atom_site_label
 _atom_site_symmetry_multiplicity
 _atom_site_fract_x
 _atom_site_fract_y
 _atom_site_fract_z
 _atom_site_occupancy
  Li  Li0  1  0.000000  0.000000  0.000000  1
  Li  Li1  1  0.500000  0.500000  0.500000  1
  Li  Li2  1  0.750000  0.250000  0.250000  1
  Li  Li3  1  0.250000  0.250000  0.750000  1
  Li  Li4  1  0.250000  0.750000  0.250000  1
  Li  Li5  1  0.750000  0.750000  0.750000  1
  Al  Al6  1  0.000000  0.500000  0.500000  1
  Al  Al7  1  0.000000  0.500000  0.000000  1
  Al  Al8  1  0.000000  0.000000  0.500000  1
  Al  Al9  1  0.500000  0.500000  0.000000  1
  Al  Al10  1  0.500000  0.000000  0.000000  1
  Al  Al11  1  0.500000  0.000000  0.500000  1
  Pt  Pt12  1  0.750000  0.250000  0.750000  1
  Pt  Pt13  1  0.250000  0.250000  0.250000  1
  Pt  Pt14  1  0.750000  0.750000  0.250000  1
  Pt  Pt15  1  0.250000  0.750000  0.750000  1
