# generated using pymatgen
data_La2Ga(GeRh2)3
_symmetry_space_group_name_H-M   'P 1'
_cell_length_a   6.84955613
_cell_length_b   6.85815766
_cell_length_c   6.84955603
_cell_angle_alpha   130.49330284
_cell_angle_beta   113.40114551
_cell_angle_gamma   87.28996093
_symmetry_Int_Tables_number   1
_chemical_formula_structural   La2Ga(GeRh2)3
_chemical_formula_sum   'La2 Ga1 Ge3 Rh6'
_cell_volume   214.09610926
_cell_formula_units_Z   1
loop_
 _symmetry_equiv_pos_site_id
 _symmetry_equiv_pos_as_xyz
  1  'x, y, z'
loop_
 _atom_site_type_symbol
 _atom_site_label
 _atom_site_symmetry_multiplicity
 _atom_site_fract_x
 _atom_site_fract_y
 _atom_site_fract_z
 _atom_site_occupancy
  La  La0  1  0.250007  0.547741  0.297734  1
  La  La1  1  0.751058  0.460503  0.709444  1
  Ga  Ga2  1  0.089189  0.882920  0.793731  1
  Ge  Ge3  1  0.929276  0.131116  0.201841  1
  Ge  Ge4  1  0.574990  0.778390  0.203400  1
  Ge  Ge5  1  0.406050  0.198075  0.792025  1
  Rh  Rh6  1  0.718950  0.004617  0.720907  1
  Rh  Rh7  1  0.222628  0.499371  0.726420  1
  Rh  Rh8  1  0.283710  0.004617  0.285666  1
  Rh  Rh9  1  0.772951  0.499371  0.276743  1
  Rh  Rh10  1  0.984206  0.996639  0.479656  1
  Rh  Rh11  1  0.516983  0.996639  0.012434  1
