# generated using pymatgen
data_HoLu2Fe(Co4P3)2
_symmetry_space_group_name_H-M   'P 1'
_cell_length_a   3.66184700
_cell_length_b   10.45712100
_cell_length_c   12.09522900
_cell_angle_alpha   90.00000000
_cell_angle_beta   90.00000000
_cell_angle_gamma   90.00000000
_symmetry_Int_Tables_number   1
_chemical_formula_structural   HoLu2Fe(Co4P3)2
_chemical_formula_sum   'Ho2 Lu4 Fe2 Co16 P12'
_cell_volume   463.15507073
_cell_formula_units_Z   2
loop_
 _symmetry_equiv_pos_site_id
 _symmetry_equiv_pos_as_xyz
  1  'x, y, z'
loop_
 _atom_site_type_symbol
 _atom_site_label
 _atom_site_symmetry_multiplicity
 _atom_site_fract_x
 _atom_site_fract_y
 _atom_site_fract_z
 _atom_site_occupancy
  Ho  Ho0  1  0.000000  0.500000  0.523063  1
  Ho  Ho1  1  0.500000  0.000000  0.476937  1
  Lu  Lu2  1  0.500000  0.818749  0.205288  1
  Lu  Lu3  1  0.500000  0.181251  0.205288  1
  Lu  Lu4  1  0.000000  0.681251  0.794712  1
  Lu  Lu5  1  0.000000  0.318749  0.794712  1
  Fe  Fe6  1  0.500000  0.500000  0.158538  1
  Fe  Fe7  1  0.000000  0.000000  0.841462  1
  Co  Co8  1  0.500000  0.500000  0.703922  1
  Co  Co9  1  0.000000  0.000000  0.296078  1
  Co  Co10  1  0.000000  0.500000  0.987093  1
  Co  Co11  1  0.500000  0.000000  0.012907  1
  Co  Co12  1  0.500000  0.332692  0.994579  1
  Co  Co13  1  0.500000  0.667308  0.994579  1
  Co  Co14  1  0.000000  0.167308  0.005421  1
  Co  Co15  1  0.000000  0.832692  0.005421  1
  Co  Co16  1  0.500000  0.296784  0.430530  1
  Co  Co17  1  0.500000  0.703216  0.430530  1
  Co  Co18  1  0.000000  0.203216  0.569470  1
  Co  Co19  1  0.000000  0.796784  0.569470  1
  Co  Co20  1  0.500000  0.877856  0.709193  1
  Co  Co21  1  0.500000  0.122144  0.709193  1
  Co  Co22  1  0.000000  0.622144  0.290807  1
  Co  Co23  1  0.000000  0.377856  0.290807  1
  P  P24  1  0.500000  0.500000  0.882413  1
  P  P25  1  0.000000  0.000000  0.117587  1
  P  P26  1  0.500000  0.500000  0.344442  1
  P  P27  1  0.000000  0.000000  0.655558  1
  P  P28  1  0.500000  0.311458  0.617318  1
  P  P29  1  0.500000  0.688542  0.617318  1
  P  P30  1  0.000000  0.188542  0.382682  1
  P  P31  1  0.000000  0.811458  0.382682  1
  P  P32  1  0.500000  0.846154  0.891258  1
  P  P33  1  0.500000  0.153846  0.891258  1
  P  P34  1  0.000000  0.653846  0.108742  1
  P  P35  1  0.000000  0.346154  0.108742  1
