# generated using pymatgen
data_Th5ZrV2(Ni4As3)4
_symmetry_space_group_name_H-M   'P 1'
_cell_length_a   12.76419289
_cell_length_b   12.75594712
_cell_length_c   3.98156300
_cell_angle_alpha   90.00000000
_cell_angle_beta   90.00000000
_cell_angle_gamma   119.97863564
_symmetry_Int_Tables_number   1
_chemical_formula_structural   Th5ZrV2(Ni4As3)4
_chemical_formula_sum   'Th5 Zr1 V2 Ni16 As12'
_cell_volume   561.54394347
_cell_formula_units_Z   1
loop_
 _symmetry_equiv_pos_site_id
 _symmetry_equiv_pos_as_xyz
  1  'x, y, z'
loop_
 _atom_site_type_symbol
 _atom_site_label
 _atom_site_symmetry_multiplicity
 _atom_site_fract_x
 _atom_site_fract_y
 _atom_site_fract_z
 _atom_site_occupancy
  Th  Th0  1  0.192294  0.193384  0.500000  1
  Th  Th1  1  0.807706  0.001090  0.500000  1
  Th  Th2  1  0.000000  0.814291  0.500000  1
  Th  Th3  1  0.336286  0.668846  0.000000  1
  Th  Th4  1  0.663714  0.332560  0.000000  1
  Zr  Zr5  1  0.000000  0.429002  0.000000  1
  V  V6  1  0.571639  0.571084  0.000000  1
  V  V7  1  0.428361  0.999446  0.000000  1
  Ni  Ni8  1  0.722762  0.721364  0.500000  1
  Ni  Ni9  1  0.277238  0.998602  0.500000  1
  Ni  Ni10  1  0.000000  0.274891  0.500000  1
  Ni  Ni11  1  0.192121  0.376694  0.000000  1
  Ni  Ni12  1  0.620360  0.806812  0.000000  1
  Ni  Ni13  1  0.195750  0.818272  0.000000  1
  Ni  Ni14  1  0.804250  0.622523  0.000000  1
  Ni  Ni15  1  0.807879  0.184574  0.000000  1
  Ni  Ni16  1  0.379640  0.186453  0.000000  1
  Ni  Ni17  1  0.367846  0.486633  0.500000  1
  Ni  Ni18  1  0.514472  0.876534  0.500000  1
  Ni  Ni19  1  0.122861  0.638223  0.500000  1
  Ni  Ni20  1  0.877139  0.515361  0.500000  1
  Ni  Ni21  1  0.632154  0.118786  0.500000  1
  Ni  Ni22  1  0.485528  0.362061  0.500000  1
  Ni  Ni23  1  0.000000  0.999522  0.000000  1
  As  As24  1  0.817157  0.820028  0.000000  1
  As  As25  1  0.182843  0.002871  0.000000  1
  As  As26  1  0.000000  0.180467  0.000000  1
  As  As27  1  0.172688  0.476063  0.500000  1
  As  As28  1  0.526257  0.688778  0.500000  1
  As  As29  1  0.312078  0.835910  0.500000  1
  As  As30  1  0.687922  0.523832  0.500000  1
  As  As31  1  0.827312  0.303375  0.500000  1
  As  As32  1  0.473743  0.162521  0.500000  1
  As  As33  1  0.381465  0.377836  0.000000  1
  As  As34  1  0.618535  0.996371  0.000000  1
  As  As35  1  0.000000  0.634939  0.000000  1
