# generated using pymatgen
data_MgSc4Sn(B2Rh5)2
_symmetry_space_group_name_H-M   'P 1'
_cell_length_a   9.44026000
_cell_length_b   9.44026000
_cell_length_c   3.13910100
_cell_angle_alpha   90.00000000
_cell_angle_beta   90.00000000
_cell_angle_gamma   90.00000000
_symmetry_Int_Tables_number   1
_chemical_formula_structural   MgSc4Sn(B2Rh5)2
_chemical_formula_sum   'Mg1 Sc4 Sn1 B4 Rh10'
_cell_volume   279.75200030
_cell_formula_units_Z   1
loop_
 _symmetry_equiv_pos_site_id
 _symmetry_equiv_pos_as_xyz
  1  'x, y, z'
loop_
 _atom_site_type_symbol
 _atom_site_label
 _atom_site_symmetry_multiplicity
 _atom_site_fract_x
 _atom_site_fract_y
 _atom_site_fract_z
 _atom_site_occupancy
  Mg  Mg0  1  0.000000  0.000000  0.000000  1
  Sc  Sc1  1  0.827628  0.323133  0.000000  1
  Sc  Sc2  1  0.323133  0.172372  0.000000  1
  Sc  Sc3  1  0.676867  0.827628  0.000000  1
  Sc  Sc4  1  0.172372  0.676867  0.000000  1
  Sn  Sn5  1  0.500000  0.500000  0.000000  1
  B  B6  1  0.626218  0.119734  0.000000  1
  B  B7  1  0.119734  0.373782  0.000000  1
  B  B8  1  0.880266  0.626218  0.000000  1
  B  B9  1  0.373782  0.880266  0.000000  1
  Rh  Rh10  1  0.071508  0.220926  0.500000  1
  Rh  Rh11  1  0.220926  0.928492  0.500000  1
  Rh  Rh12  1  0.779074  0.071508  0.500000  1
  Rh  Rh13  1  0.928492  0.779074  0.500000  1
  Rh  Rh14  1  0.428339  0.722636  0.500000  1
  Rh  Rh15  1  0.571661  0.277364  0.500000  1
  Rh  Rh16  1  0.722636  0.571661  0.500000  1
  Rh  Rh17  1  0.277364  0.428339  0.500000  1
  Rh  Rh18  1  0.500000  0.000000  0.500000  1
  Rh  Rh19  1  0.000000  0.500000  0.500000  1
