# generated using pymatgen
data_DyHoCo8(TcP3)2
_symmetry_space_group_name_H-M   'P 1'
_cell_length_a   3.71137900
_cell_length_b   10.34477700
_cell_length_c   11.82044200
_cell_angle_alpha   90.00000000
_cell_angle_beta   90.00000000
_cell_angle_gamma   90.00000000
_symmetry_Int_Tables_number   1
_chemical_formula_structural   DyHoCo8(TcP3)2
_chemical_formula_sum   'Dy2 Ho2 Co16 Tc4 P12'
_cell_volume   453.82681743
_cell_formula_units_Z   2
loop_
 _symmetry_equiv_pos_site_id
 _symmetry_equiv_pos_as_xyz
  1  'x, y, z'
loop_
 _atom_site_type_symbol
 _atom_site_label
 _atom_site_symmetry_multiplicity
 _atom_site_fract_x
 _atom_site_fract_y
 _atom_site_fract_z
 _atom_site_occupancy
  Dy  Dy0  1  0.750000  0.416019  0.295523  1
  Dy  Dy1  1  0.750000  0.083981  0.795523  1
  Ho  Ho2  1  0.250000  0.584131  0.704447  1
  Ho  Ho3  1  0.250000  0.915869  0.204447  1
  Co  Co4  1  0.250000  0.407050  0.489059  1
  Co  Co5  1  0.250000  0.092950  0.989059  1
  Co  Co6  1  0.750000  0.593156  0.511379  1
  Co  Co7  1  0.750000  0.906844  0.011379  1
  Co  Co8  1  0.250000  0.221770  0.176432  1
  Co  Co9  1  0.250000  0.278230  0.676432  1
  Co  Co10  1  0.750000  0.777979  0.823517  1
  Co  Co11  1  0.750000  0.722021  0.323517  1
  Co  Co12  1  0.250000  0.885507  0.702147  1
  Co  Co13  1  0.250000  0.614493  0.202147  1
  Co  Co14  1  0.750000  0.113928  0.297678  1
  Co  Co15  1  0.750000  0.386072  0.797678  1
  Co  Co16  1  0.250000  0.464262  0.931587  1
  Co  Co17  1  0.250000  0.035738  0.431587  1
  Co  Co18  1  0.750000  0.536118  0.068207  1
  Co  Co19  1  0.750000  0.963882  0.568207  1
  Tc  Tc20  1  0.250000  0.711039  0.989536  1
  Tc  Tc21  1  0.250000  0.788961  0.489536  1
  Tc  Tc22  1  0.750000  0.289088  0.010643  1
  Tc  Tc23  1  0.750000  0.210912  0.510643  1
  P  P24  1  0.250000  0.420710  0.112877  1
  P  P25  1  0.250000  0.079290  0.612877  1
  P  P26  1  0.750000  0.579396  0.886705  1
  P  P27  1  0.750000  0.920604  0.386705  1
  P  P28  1  0.250000  0.269925  0.865600  1
  P  P29  1  0.250000  0.230075  0.365600  1
  P  P30  1  0.750000  0.730480  0.134537  1
  P  P31  1  0.750000  0.769520  0.634537  1
  P  P32  1  0.250000  0.596674  0.391127  1
  P  P33  1  0.250000  0.903326  0.891127  1
  P  P34  1  0.750000  0.403657  0.608999  1
  P  P35  1  0.750000  0.096343  0.108999  1
