# generated using pymatgen
data_SiB12Te
_symmetry_space_group_name_H-M   'P 1'
_cell_length_a   5.40000371
_cell_length_b   5.40000530
_cell_length_c   5.40000533
_cell_angle_alpha   71.08036565
_cell_angle_beta   71.08036545
_cell_angle_gamma   71.08037504
_symmetry_Int_Tables_number   1
_chemical_formula_structural   SiB12Te
_chemical_formula_sum   'Si1 B12 Te1'
_cell_volume   136.62059277
_cell_formula_units_Z   1
loop_
 _symmetry_equiv_pos_site_id
 _symmetry_equiv_pos_as_xyz
  1  'x, y, z'
loop_
 _atom_site_type_symbol
 _atom_site_label
 _atom_site_symmetry_multiplicity
 _atom_site_fract_x
 _atom_site_fract_y
 _atom_site_fract_z
 _atom_site_occupancy
  Si  Si0  1  0.616242  0.616242  0.616242  1
  B  B1  1  0.015525  0.015525  0.322640  1
  B  B2  1  0.322640  0.015525  0.015525  1
  B  B3  1  0.273086  0.818657  0.818657  1
  B  B4  1  0.818657  0.818657  0.273086  1
  B  B5  1  0.818657  0.273086  0.818657  1
  B  B6  1  0.166802  0.741526  0.166802  1
  B  B7  1  0.741526  0.166802  0.166802  1
  B  B8  1  0.166802  0.166802  0.741526  1
  B  B9  1  0.674649  0.982269  0.982269  1
  B  B10  1  0.982269  0.982269  0.674649  1
  B  B11  1  0.982269  0.674649  0.982269  1
  B  B12  1  0.015525  0.322640  0.015525  1
  Te  Te13  1  0.405352  0.405352  0.405352  1
