# generated using pymatgen
data_Yb5LuPa2(Pt2Pb)4
_symmetry_space_group_name_H-M   'P 1'
_cell_length_a   7.91082402
_cell_length_b   7.91082378
_cell_length_c   7.29286500
_cell_angle_alpha   90.00000000
_cell_angle_beta   90.00000000
_cell_angle_gamma   91.95982608
_symmetry_Int_Tables_number   1
_chemical_formula_structural   Yb5LuPa2(Pt2Pb)4
_chemical_formula_sum   'Yb5 Lu1 Pa2 Pt8 Pb4'
_cell_volume   456.12879997
_cell_formula_units_Z   1
loop_
 _symmetry_equiv_pos_site_id
 _symmetry_equiv_pos_as_xyz
  1  'x, y, z'
loop_
 _atom_site_type_symbol
 _atom_site_label
 _atom_site_symmetry_multiplicity
 _atom_site_fract_x
 _atom_site_fract_y
 _atom_site_fract_z
 _atom_site_occupancy
  Yb  Yb0  1  0.664350  0.663607  0.000000  1
  Yb  Yb1  1  0.336393  0.335650  0.000000  1
  Yb  Yb2  1  0.167393  0.832607  0.500000  1
  Yb  Yb3  1  0.830315  0.169685  0.000000  1
  Yb  Yb4  1  0.168984  0.831016  0.000000  1
  Lu  Lu5  1  0.835292  0.164708  0.500000  1
  Pa  Pa6  1  0.326371  0.328581  0.500000  1
  Pa  Pa7  1  0.671419  0.673629  0.500000  1
  Pt  Pt8  1  0.865521  0.870214  0.737266  1
  Pt  Pt9  1  0.129786  0.134479  0.737266  1
  Pt  Pt10  1  0.629337  0.370663  0.724286  1
  Pt  Pt11  1  0.629337  0.370663  0.275714  1
  Pt  Pt12  1  0.377245  0.622755  0.269982  1
  Pt  Pt13  1  0.129786  0.134479  0.262734  1
  Pt  Pt14  1  0.865521  0.870214  0.262734  1
  Pt  Pt15  1  0.377245  0.622755  0.730018  1
  Pb  Pb16  1  0.497816  0.999964  0.756310  1
  Pb  Pb17  1  0.497816  0.999964  0.243690  1
  Pb  Pb18  1  0.000036  0.502184  0.756310  1
  Pb  Pb19  1  0.000036  0.502184  0.243690  1
