# generated using pymatgen
data_ErHf5(SnRu2)6
_symmetry_space_group_name_H-M   'P 1'
_cell_length_a   4.58059301
_cell_length_b   6.46702202
_cell_length_c   13.72072200
_cell_angle_alpha   89.99983672
_cell_angle_beta   89.99939913
_cell_angle_gamma   89.99145177
_symmetry_Int_Tables_number   1
_chemical_formula_structural   ErHf5(SnRu2)6
_chemical_formula_sum   'Er1 Hf5 Sn6 Ru12'
_cell_volume   406.44614244
_cell_formula_units_Z   1
loop_
 _symmetry_equiv_pos_site_id
 _symmetry_equiv_pos_as_xyz
  1  'x, y, z'
loop_
 _atom_site_type_symbol
 _atom_site_label
 _atom_site_symmetry_multiplicity
 _atom_site_fract_x
 _atom_site_fract_y
 _atom_site_fract_z
 _atom_site_occupancy
  Er  Er0  1  0.000000  0.000000  0.000000  1
  Hf  Hf1  1  0.499937  0.499990  0.166959  1
  Hf  Hf2  1  0.999927  0.000010  0.333309  1
  Hf  Hf3  1  0.500001  0.500000  0.500000  1
  Hf  Hf4  1  0.000073  0.999990  0.666691  1
  Hf  Hf5  1  0.500061  0.500010  0.833041  1
  Sn  Sn6  1  0.000000  0.500000  0.000000  1
  Sn  Sn7  1  0.499986  0.000002  0.166334  1
  Sn  Sn8  1  0.999925  0.499994  0.334379  1
  Sn  Sn9  1  0.500001  0.000000  0.500000  1
  Sn  Sn10  1  0.000075  0.500006  0.665620  1
  Sn  Sn11  1  0.500015  0.999998  0.833666  1
  Ru  Ru12  1  0.500138  0.259279  0.000002  1
  Ru  Ru13  1  0.499864  0.740721  0.999998  1
  Ru  Ru14  1  0.999894  0.254040  0.170748  1
  Ru  Ru15  1  0.000002  0.745955  0.170746  1
  Ru  Ru16  1  0.499988  0.249332  0.334245  1
  Ru  Ru17  1  0.499861  0.750667  0.334246  1
  Ru  Ru18  1  0.999939  0.250301  0.500000  1
  Ru  Ru19  1  0.000061  0.749700  0.500000  1
  Ru  Ru20  1  0.500140  0.249332  0.665754  1
  Ru  Ru21  1  0.500013  0.750667  0.665755  1
  Ru  Ru22  1  0.999998  0.254044  0.829254  1
  Ru  Ru23  1  0.000106  0.745959  0.829252  1
