# generated using pymatgen
data_Dy5Hf3(Ni4P3)4
_symmetry_space_group_name_H-M   'P 1'
_cell_length_a   12.30675713
_cell_length_b   12.30675654
_cell_length_c   3.79126600
_cell_angle_alpha   90.00000000
_cell_angle_beta   90.00000000
_cell_angle_gamma   119.98533229
_symmetry_Int_Tables_number   1
_chemical_formula_structural   Dy5Hf3(Ni4P3)4
_chemical_formula_sum   'Dy5 Hf3 Ni16 P12'
_cell_volume   497.35478137
_cell_formula_units_Z   1
loop_
 _symmetry_equiv_pos_site_id
 _symmetry_equiv_pos_as_xyz
  1  'x, y, z'
loop_
 _atom_site_type_symbol
 _atom_site_label
 _atom_site_symmetry_multiplicity
 _atom_site_fract_x
 _atom_site_fract_y
 _atom_site_fract_z
 _atom_site_occupancy
  Dy  Dy0  1  0.666684  0.333343  0.000000  1
  Dy  Dy1  1  0.333343  0.666685  0.000000  1
  Dy  Dy2  1  0.184900  0.999945  0.499999  1
  Dy  Dy3  1  0.999945  0.184901  0.499999  1
  Dy  Dy4  1  0.815128  0.815128  0.499999  1
  Hf  Hf5  1  0.562203  0.999974  0.000000  1
  Hf  Hf6  1  0.437820  0.437820  0.000000  1
  Hf  Hf7  1  0.999974  0.562203  0.000000  1
  Ni  Ni8  1  0.000011  0.000011  0.000000  1
  Ni  Ni9  1  0.807666  0.184985  0.000000  1
  Ni  Ni10  1  0.377306  0.192319  0.000000  1
  Ni  Ni11  1  0.192319  0.377306  0.000000  1
  Ni  Ni12  1  0.815000  0.622690  0.000000  1
  Ni  Ni13  1  0.184986  0.807666  0.000000  1
  Ni  Ni14  1  0.622691  0.815001  0.000000  1
  Ni  Ni15  1  0.725279  0.000009  0.499999  1
  Ni  Ni16  1  0.484869  0.123323  0.499999  1
  Ni  Ni17  1  0.274728  0.274727  0.499999  1
  Ni  Ni18  1  0.876678  0.361538  0.499999  1
  Ni  Ni19  1  0.123323  0.484869  0.499999  1
  Ni  Ni20  1  0.638450  0.515120  0.499999  1
  Ni  Ni21  1  0.515120  0.638451  0.499999  1
  Ni  Ni22  1  0.000009  0.725280  0.499999  1
  Ni  Ni23  1  0.361539  0.876677  0.499999  1
  P  P24  1  0.357050  0.000029  0.000000  1
  P  P25  1  0.822016  0.999994  0.000000  1
  P  P26  1  0.177974  0.177974  0.000000  1
  P  P27  1  0.000029  0.357050  0.000000  1
  P  P28  1  0.643022  0.643022  0.000000  1
  P  P29  1  0.999994  0.822015  0.000000  1
  P  P30  1  0.693981  0.170398  0.499999  1
  P  P31  1  0.476429  0.306024  0.499999  1
  P  P32  1  0.306024  0.476429  0.499999  1
  P  P33  1  0.829611  0.523582  0.499999  1
  P  P34  1  0.170398  0.693981  0.499999  1
  P  P35  1  0.523582  0.829612  0.499999  1
