# generated using pymatgen
data_Ta4Si3Os2
_symmetry_space_group_name_H-M   'P 1'
_cell_length_a   7.57338511
_cell_length_b   7.57338374
_cell_length_c   7.57338403
_cell_angle_alpha   126.67150612
_cell_angle_beta   124.48490699
_cell_angle_gamma   80.59479916
_symmetry_Int_Tables_number   1
_chemical_formula_structural   Ta4Si3Os2
_chemical_formula_sum   'Ta8 Si6 Os4'
_cell_volume   276.97027094
_cell_formula_units_Z   2
loop_
 _symmetry_equiv_pos_site_id
 _symmetry_equiv_pos_as_xyz
  1  'x, y, z'
loop_
 _atom_site_type_symbol
 _atom_site_label
 _atom_site_symmetry_multiplicity
 _atom_site_fract_x
 _atom_site_fract_y
 _atom_site_fract_z
 _atom_site_occupancy
  Ta  Ta0  1  0.941384  0.908191  0.466809  1
  Ta  Ta1  1  0.058616  0.525427  0.966809  1
  Ta  Ta2  1  0.539502  0.516722  0.477218  1
  Ta  Ta3  1  0.460498  0.937715  0.977218  1
  Ta  Ta4  1  0.747245  0.083919  0.836674  1
  Ta  Ta5  1  0.252755  0.089430  0.336674  1
  Ta  Ta6  1  0.500000  0.748869  0.248869  1
  Ta  Ta7  1  0.000000  0.748869  0.748869  1
  Si  Si8  1  0.716567  0.440534  0.223968  1
  Si  Si9  1  0.283433  0.507402  0.723968  1
  Si  Si10  1  0.675940  0.181282  0.517438  1
  Si  Si11  1  0.324060  0.841499  0.505341  1
  Si  Si12  1  0.163842  0.181282  0.005341  1
  Si  Si13  1  0.836158  0.841499  0.017438  1
  Os  Os14  1  0.911151  0.248932  0.414801  1
  Os  Os15  1  0.088849  0.503650  0.337781  1
  Os  Os16  1  0.334132  0.248932  0.837781  1
  Os  Os17  1  0.665868  0.503650  0.914801  1
