# generated using pymatgen
data_Nd8Sc12Si15Sn
_symmetry_space_group_name_H-M   'P 1'
_cell_length_a   7.26337954
_cell_length_b   7.54486987
_cell_length_c   14.28514523
_cell_angle_alpha   89.95112240
_cell_angle_beta   89.64009862
_cell_angle_gamma   90.07157021
_symmetry_Int_Tables_number   1
_chemical_formula_structural   Nd8Sc12Si15Sn
_chemical_formula_sum   'Nd8 Sc12 Si15 Sn1'
_cell_volume   782.82751944
_cell_formula_units_Z   1
loop_
 _symmetry_equiv_pos_site_id
 _symmetry_equiv_pos_as_xyz
  1  'x, y, z'
loop_
 _atom_site_type_symbol
 _atom_site_label
 _atom_site_symmetry_multiplicity
 _atom_site_fract_x
 _atom_site_fract_y
 _atom_site_fract_z
 _atom_site_occupancy
  Nd  Nd0  1  0.012046  0.173254  0.097328  1
  Nd  Nd1  1  0.987804  0.827424  0.903423  1
  Nd  Nd2  1  0.488928  0.672948  0.903348  1
  Nd  Nd3  1  0.988319  0.833026  0.599032  1
  Nd  Nd4  1  0.511250  0.327221  0.097415  1
  Nd  Nd5  1  0.007387  0.167117  0.398691  1
  Nd  Nd6  1  0.512896  0.324130  0.398737  1
  Nd  Nd7  1  0.499796  0.680702  0.600578  1
  Sc  Sc8  1  0.160940  0.499300  0.755367  1
  Sc  Sc9  1  0.839199  0.501624  0.248917  1
  Sc  Sc10  1  0.339738  0.998433  0.248882  1
  Sc  Sc11  1  0.661775  0.001300  0.752189  1
  Sc  Sc12  1  0.342542  0.163429  0.630905  1
  Sc  Sc13  1  0.664382  0.824891  0.372465  1
  Sc  Sc14  1  0.166147  0.681693  0.369410  1
  Sc  Sc15  1  0.669207  0.824084  0.124488  1
  Sc  Sc16  1  0.821036  0.323957  0.627052  1
  Sc  Sc17  1  0.329824  0.174963  0.875035  1
  Sc  Sc18  1  0.831063  0.324350  0.875355  1
  Sc  Sc19  1  0.168946  0.675410  0.125274  1
  Si  Si20  1  0.034942  0.126202  0.751210  1
  Si  Si21  1  0.962797  0.876789  0.247388  1
  Si  Si22  1  0.464541  0.623619  0.248521  1
  Si  Si23  1  0.534013  0.377278  0.751949  1
  Si  Si24  1  0.287517  0.878508  0.752069  1
  Si  Si25  1  0.710910  0.117297  0.247759  1
  Si  Si26  1  0.210692  0.381997  0.249153  1
  Si  Si27  1  0.791223  0.618718  0.751532  1
  Si  Si28  1  0.836278  0.541167  0.457921  1
  Si  Si29  1  0.345324  0.962400  0.460093  1
  Si  Si30  1  0.847951  0.536217  0.039773  1
  Si  Si31  1  0.654545  0.039474  0.538079  1
  Si  Si32  1  0.151915  0.463541  0.961139  1
  Si  Si33  1  0.651236  0.036977  0.960651  1
  Si  Si34  1  0.347746  0.963454  0.039628  1
  Sn  Sn35  1  0.165149  0.457106  0.539247  1
