# generated using pymatgen
data_Th3Si6Pd19Pt
_symmetry_space_group_name_H-M   'P 1'
_cell_length_a   8.79620522
_cell_length_b   8.79620613
_cell_length_c   8.79620514
_cell_angle_alpha   59.87233523
_cell_angle_beta   59.87233214
_cell_angle_gamma   59.87233552
_symmetry_Int_Tables_number   1
_chemical_formula_structural   Th3Si6Pd19Pt
_chemical_formula_sum   'Th3 Si6 Pd19 Pt1'
_cell_volume   479.85630476
_cell_formula_units_Z   1
loop_
 _symmetry_equiv_pos_site_id
 _symmetry_equiv_pos_as_xyz
  1  'x, y, z'
loop_
 _atom_site_type_symbol
 _atom_site_label
 _atom_site_symmetry_multiplicity
 _atom_site_fract_x
 _atom_site_fract_y
 _atom_site_fract_z
 _atom_site_occupancy
  Th  Th0  1  0.250133  0.250133  0.250133  1
  Th  Th1  1  0.749615  0.749615  0.749615  1
  Th  Th2  1  0.999956  0.999956  0.999956  1
  Si  Si3  1  0.730640  0.268797  0.268797  1
  Si  Si4  1  0.268454  0.731917  0.731917  1
  Si  Si5  1  0.268797  0.730640  0.268797  1
  Si  Si6  1  0.731917  0.268454  0.731917  1
  Si  Si7  1  0.268797  0.268797  0.730640  1
  Si  Si8  1  0.731917  0.731917  0.268454  1
  Pd  Pd9  1  0.615625  0.615625  0.615625  1
  Pd  Pd10  1  0.383648  0.383648  0.848355  1
  Pd  Pd11  1  0.383648  0.848355  0.383648  1
  Pd  Pd12  1  0.617266  0.617266  0.151337  1
  Pd  Pd13  1  0.617266  0.151337  0.617266  1
  Pd  Pd14  1  0.848355  0.383648  0.383648  1
  Pd  Pd15  1  0.151337  0.617266  0.617266  1
  Pd  Pd16  1  0.346703  0.999431  0.999431  1
  Pd  Pd17  1  0.653656  0.999452  0.999452  1
  Pd  Pd18  1  0.999454  0.346614  0.653578  1
  Pd  Pd19  1  0.999454  0.653578  0.346614  1
  Pd  Pd20  1  0.999431  0.346703  0.999431  1
  Pd  Pd21  1  0.653578  0.999454  0.346614  1
  Pd  Pd22  1  0.999452  0.653656  0.999452  1
  Pd  Pd23  1  0.346614  0.999454  0.653578  1
  Pd  Pd24  1  0.999431  0.999431  0.346703  1
  Pd  Pd25  1  0.999452  0.999452  0.653656  1
  Pd  Pd26  1  0.653578  0.346614  0.999454  1
  Pd  Pd27  1  0.346614  0.653578  0.999454  1
  Pt  Pt28  1  0.385212  0.385212  0.385212  1
