# generated using pymatgen
data_HoCoPH2
_symmetry_space_group_name_H-M   'P 1'
_cell_length_a   3.89806800
_cell_length_b   3.89806994
_cell_length_c   8.08444900
_cell_angle_alpha   90.00000000
_cell_angle_beta   90.00000000
_cell_angle_gamma   120.00001747
_symmetry_Int_Tables_number   1
_chemical_formula_structural   HoCoPH2
_chemical_formula_sum   'Ho2 Co2 P2 H4'
_cell_volume   106.38490717
_cell_formula_units_Z   2
loop_
 _symmetry_equiv_pos_site_id
 _symmetry_equiv_pos_as_xyz
  1  'x, y, z'
loop_
 _atom_site_type_symbol
 _atom_site_label
 _atom_site_symmetry_multiplicity
 _atom_site_fract_x
 _atom_site_fract_y
 _atom_site_fract_z
 _atom_site_occupancy
  Ho  Ho0  1  0.000000  0.000000  0.000000  1
  Ho  Ho1  1  0.000000  0.000000  0.500000  1
  Co  Co2  1  0.666667  0.333333  0.250000  1
  Co  Co3  1  0.333333  0.666667  0.750000  1
  P  P4  1  0.333333  0.666667  0.250000  1
  P  P5  1  0.666667  0.333333  0.750000  1
  H  H6  1  0.333333  0.666667  0.946213  1
  H  H7  1  0.666667  0.333333  0.053787  1
  H  H8  1  0.333333  0.666667  0.553787  1
  H  H9  1  0.666667  0.333333  0.446213  1
