# generated using pymatgen
data_Ba2NbReO8
_symmetry_space_group_name_H-M   'P 1'
_cell_length_a   7.59459420
_cell_length_b   7.59459293
_cell_length_c   7.59459313
_cell_angle_alpha   135.45282637
_cell_angle_beta   135.45281952
_cell_angle_gamma   64.82743050
_symmetry_Int_Tables_number   1
_chemical_formula_structural   Ba2NbReO8
_chemical_formula_sum   'Ba2 Nb1 Re1 O8'
_cell_volume   212.50299600
_cell_formula_units_Z   1
loop_
 _symmetry_equiv_pos_site_id
 _symmetry_equiv_pos_as_xyz
  1  'x, y, z'
loop_
 _atom_site_type_symbol
 _atom_site_label
 _atom_site_symmetry_multiplicity
 _atom_site_fract_x
 _atom_site_fract_y
 _atom_site_fract_z
 _atom_site_occupancy
  Ba  Ba0  1  0.125000  0.375000  0.750000  1
  Ba  Ba1  1  0.875000  0.625000  0.250000  1
  Nb  Nb2  1  0.625000  0.875000  0.750000  1
  Re  Re3  1  0.375000  0.125000  0.250000  1
  O  O4  1  0.675827  0.318566  0.592305  1
  O  O5  1  0.844305  0.723972  0.651212  1
  O  O6  1  0.572761  0.193093  0.848788  1
  O  O7  1  0.226260  0.083522  0.907695  1
  O  O8  1  0.776028  0.927239  0.120332  1
  O  O9  1  0.416478  0.824173  0.142739  1
  O  O10  1  0.181434  0.273740  0.357261  1
  O  O11  1  0.306907  0.655695  0.379668  1
