# generated using pymatgen
data_Np2GeH4
_symmetry_space_group_name_H-M   'P 1'
_cell_length_a   5.92382404
_cell_length_b   5.92382413
_cell_length_c   5.92382345
_cell_angle_alpha   106.41633056
_cell_angle_beta   106.41633127
_cell_angle_gamma   115.77067749
_symmetry_Int_Tables_number   1
_chemical_formula_structural   Np2GeH4
_chemical_formula_sum   'Np4 Ge2 H8'
_cell_volume   158.55731062
_cell_formula_units_Z   2
loop_
 _symmetry_equiv_pos_site_id
 _symmetry_equiv_pos_as_xyz
  1  'x, y, z'
loop_
 _atom_site_type_symbol
 _atom_site_label
 _atom_site_symmetry_multiplicity
 _atom_site_fract_x
 _atom_site_fract_y
 _atom_site_fract_z
 _atom_site_occupancy
  Np  Np0  1  0.835132  0.664868  0.500000  1
  Np  Np1  1  0.664868  0.164868  0.829737  1
  Np  Np2  1  0.164868  0.335132  0.500000  1
  Np  Np3  1  0.335132  0.835132  0.170263  1
  Ge  Ge4  1  0.750000  0.750000  0.000000  1
  Ge  Ge5  1  0.250000  0.250000  0.000000  1
  H  H6  1  0.222027  0.975748  0.500000  1
  H  H7  1  0.475748  0.722027  0.500000  1
  H  H8  1  0.722027  0.222027  0.246280  1
  H  H9  1  0.975748  0.475748  0.753720  1
  H  H10  1  0.277973  0.777973  0.753720  1
  H  H11  1  0.524252  0.277973  0.500000  1
  H  H12  1  0.024252  0.524252  0.246280  1
  H  H13  1  0.777973  0.024252  0.500000  1
