# generated using pymatgen
data_Sr2FeNiF10
_symmetry_space_group_name_H-M   'P 1'
_cell_length_a   5.78809439
_cell_length_b   5.79391602
_cell_length_c   7.94505550
_cell_angle_alpha   69.91617686
_cell_angle_beta   69.83024440
_cell_angle_gamma   71.16111569
_symmetry_Int_Tables_number   1
_chemical_formula_structural   Sr2FeNiF10
_chemical_formula_sum   'Sr2 Fe1 Ni1 F10'
_cell_volume   228.48786381
_cell_formula_units_Z   1
loop_
 _symmetry_equiv_pos_site_id
 _symmetry_equiv_pos_as_xyz
  1  'x, y, z'
loop_
 _atom_site_type_symbol
 _atom_site_label
 _atom_site_symmetry_multiplicity
 _atom_site_fract_x
 _atom_site_fract_y
 _atom_site_fract_z
 _atom_site_occupancy
  Sr  Sr0  1  0.546194  0.452011  0.250584  1
  Sr  Sr1  1  0.453806  0.547989  0.749416  1
  Fe  Fe2  1  0.000000  0.000000  0.000000  1
  Ni  Ni3  1  0.000000  0.000000  0.500000  1
  F  F4  1  0.767297  0.800777  0.610444  1
  F  F5  1  0.205157  0.239233  0.886291  1
  F  F6  1  0.232703  0.199223  0.389556  1
  F  F7  1  0.794843  0.760767  0.113709  1
  F  F8  1  0.067349  0.932635  0.749457  1
  F  F9  1  0.932651  0.067365  0.250543  1
  F  F10  1  0.298729  0.722788  0.027558  1
  F  F11  1  0.271125  0.706826  0.473553  1
  F  F12  1  0.701271  0.277212  0.972442  1
  F  F13  1  0.728875  0.293174  0.526447  1
