# generated using pymatgen
data_Ta12CrRe6Tc5
_symmetry_space_group_name_H-M   'P 1'
_cell_length_a   4.50446804
_cell_length_b   6.38073211
_cell_length_c   13.56181712
_cell_angle_alpha   90.01496200
_cell_angle_beta   90.00002446
_cell_angle_gamma   90.01492098
_symmetry_Int_Tables_number   1
_chemical_formula_structural   Ta12CrRe6Tc5
_chemical_formula_sum   'Ta12 Cr1 Re6 Tc5'
_cell_volume   389.79106078
_cell_formula_units_Z   1
loop_
 _symmetry_equiv_pos_site_id
 _symmetry_equiv_pos_as_xyz
  1  'x, y, z'
loop_
 _atom_site_type_symbol
 _atom_site_label
 _atom_site_symmetry_multiplicity
 _atom_site_fract_x
 _atom_site_fract_y
 _atom_site_fract_z
 _atom_site_occupancy
  Ta  Ta0  1  0.500013  0.253656  0.000004  1
  Ta  Ta1  1  0.499987  0.746344  0.999996  1
  Ta  Ta2  1  0.999976  0.251987  0.164065  1
  Ta  Ta3  1  0.000025  0.748088  0.164016  1
  Ta  Ta4  1  0.499882  0.249918  0.332663  1
  Ta  Ta5  1  0.499874  0.750148  0.332689  1
  Ta  Ta6  1  0.999988  0.250274  0.499985  1
  Ta  Ta7  1  0.000012  0.749727  0.500015  1
  Ta  Ta8  1  0.500127  0.249853  0.667311  1
  Ta  Ta9  1  0.500119  0.750083  0.667337  1
  Ta  Ta10  1  0.999975  0.251912  0.835984  1
  Ta  Ta11  1  0.000024  0.748013  0.835935  1
  Cr  Cr12  1  0.000000  0.500000  0.000000  1
  Re  Re13  1  0.000000  0.000000  0.000000  1
  Re  Re14  1  0.500094  0.500064  0.165746  1
  Re  Re15  1  0.999844  0.000080  0.332722  1
  Re  Re16  1  0.500001  0.500000  0.500000  1
  Re  Re17  1  0.000156  0.999920  0.667278  1
  Re  Re18  1  0.499907  0.499936  0.834254  1
  Tc  Tc19  1  0.499866  0.000051  0.166209  1
  Tc  Tc20  1  0.000014  0.500108  0.333044  1
  Tc  Tc21  1  0.500001  0.000000  0.500000  1
  Tc  Tc22  1  0.999986  0.499892  0.666956  1
  Tc  Tc23  1  0.500136  0.999949  0.833792  1
