# generated using pymatgen
data_Y7Er9Cd4Pd3Ru
_symmetry_space_group_name_H-M   'P 1'
_cell_length_a   9.66943092
_cell_length_b   9.66943108
_cell_length_c   9.66827492
_cell_angle_alpha   59.61475697
_cell_angle_beta   59.61476501
_cell_angle_gamma   59.67628737
_symmetry_Int_Tables_number   1
_chemical_formula_structural   Y7Er9Cd4Pd3Ru
_chemical_formula_sum   'Y7 Er9 Cd4 Pd3 Ru1'
_cell_volume   633.90038546
_cell_formula_units_Z   1
loop_
 _symmetry_equiv_pos_site_id
 _symmetry_equiv_pos_as_xyz
  1  'x, y, z'
loop_
 _atom_site_type_symbol
 _atom_site_label
 _atom_site_symmetry_multiplicity
 _atom_site_fract_x
 _atom_site_fract_y
 _atom_site_fract_z
 _atom_site_occupancy
  Y  Y0  1  0.810970  0.810970  0.188091  1
  Y  Y1  1  0.935356  0.565157  0.565788  1
  Y  Y2  1  0.560240  0.936698  0.936348  1
  Y  Y3  1  0.565157  0.935356  0.565788  1
  Y  Y4  1  0.936698  0.560240  0.936348  1
  Y  Y5  1  0.565399  0.565399  0.935217  1
  Y  Y6  1  0.936517  0.936517  0.560461  1
  Er  Er7  1  0.353425  0.353425  0.353403  1
  Er  Er8  1  0.350161  0.350161  0.944778  1
  Er  Er9  1  0.349805  0.945047  0.350294  1
  Er  Er10  1  0.945047  0.349805  0.350294  1
  Er  Er11  1  0.817358  0.187903  0.187657  1
  Er  Er12  1  0.188244  0.811034  0.810960  1
  Er  Er13  1  0.187903  0.817358  0.187657  1
  Er  Er14  1  0.811034  0.188244  0.810960  1
  Er  Er15  1  0.187643  0.187643  0.817418  1
  Cd  Cd16  1  0.580493  0.580493  0.580600  1
  Cd  Cd17  1  0.581360  0.581360  0.254220  1
  Cd  Cd18  1  0.581287  0.254277  0.581419  1
  Cd  Cd19  1  0.254277  0.581287  0.581419  1
  Pd  Pd20  1  0.144536  0.144536  0.568231  1
  Pd  Pd21  1  0.146050  0.567063  0.144325  1
  Pd  Pd22  1  0.567063  0.146050  0.144325  1
  Ru  Ru23  1  0.143976  0.143976  0.143998  1
