# generated using pymatgen
data_Zr5NbRh10
_symmetry_space_group_name_H-M   'P 1'
_cell_length_a   5.63234208
_cell_length_b   5.63234189
_cell_length_c   8.67737300
_cell_angle_alpha   90.00000000
_cell_angle_beta   90.00000000
_cell_angle_gamma   102.37290178
_symmetry_Int_Tables_number   1
_chemical_formula_structural   Zr5NbRh10
_chemical_formula_sum   'Zr5 Nb1 Rh10'
_cell_volume   268.88109597
_cell_formula_units_Z   1
loop_
 _symmetry_equiv_pos_site_id
 _symmetry_equiv_pos_as_xyz
  1  'x, y, z'
loop_
 _atom_site_type_symbol
 _atom_site_label
 _atom_site_symmetry_multiplicity
 _atom_site_fract_x
 _atom_site_fract_y
 _atom_site_fract_z
 _atom_site_occupancy
  Zr  Zr0  1  0.427671  0.427671  0.250000  1
  Zr  Zr1  1  0.792869  0.210197  0.499860  1
  Zr  Zr2  1  0.210197  0.792869  0.000140  1
  Zr  Zr3  1  0.210197  0.792869  0.499860  1
  Zr  Zr4  1  0.792869  0.210197  0.000140  1
  Nb  Nb5  1  0.572118  0.572118  0.750000  1
  Rh  Rh6  1  0.710724  0.710724  0.022282  1
  Rh  Rh7  1  0.710724  0.710724  0.477718  1
  Rh  Rh8  1  0.297529  0.297529  0.963464  1
  Rh  Rh9  1  0.297529  0.297529  0.536536  1
  Rh  Rh10  1  0.489495  0.008409  0.750000  1
  Rh  Rh11  1  0.509447  0.971627  0.250000  1
  Rh  Rh12  1  0.014310  0.014310  0.250000  1
  Rh  Rh13  1  0.984283  0.984283  0.750000  1
  Rh  Rh14  1  0.008409  0.489495  0.750000  1
  Rh  Rh15  1  0.971627  0.509447  0.250000  1
