# generated using pymatgen
data_Ce3Dy3Ho4(SiB4)4
_symmetry_space_group_name_H-M   'P 1'
_cell_length_a   7.25299707
_cell_length_b   7.25280684
_cell_length_c   8.16232400
_cell_angle_alpha   89.99840932
_cell_angle_beta   89.99814434
_cell_angle_gamma   90.11595356
_symmetry_Int_Tables_number   1
_chemical_formula_structural   Ce3Dy3Ho4(SiB4)4
_chemical_formula_sum   'Ce3 Dy3 Ho4 Si4 B16'
_cell_volume   429.37480152
_cell_formula_units_Z   1
loop_
 _symmetry_equiv_pos_site_id
 _symmetry_equiv_pos_as_xyz
  1  'x, y, z'
loop_
 _atom_site_type_symbol
 _atom_site_label
 _atom_site_symmetry_multiplicity
 _atom_site_fract_x
 _atom_site_fract_y
 _atom_site_fract_z
 _atom_site_occupancy
  Ce  Ce0  1  0.681770  0.181810  0.228879  1
  Ce  Ce1  1  0.317587  0.817617  0.770833  1
  Ce  Ce2  1  0.318356  0.818389  0.229758  1
  Dy  Dy3  1  0.819953  0.679911  0.220953  1
  Dy  Dy4  1  0.819745  0.680268  0.778894  1
  Dy  Dy5  1  0.681557  0.181578  0.778468  1
  Ho  Ho6  1  0.180298  0.319697  0.779408  1
  Ho  Ho7  1  0.179934  0.319928  0.220436  1
  Ho  Ho8  1  0.999334  0.001050  0.500507  1
  Ho  Ho9  1  0.500815  0.499194  0.500497  1
  Si  Si10  1  0.114118  0.613838  0.500573  1
  Si  Si11  1  0.884414  0.384156  0.501074  1
  Si  Si12  1  0.384795  0.115840  0.501319  1
  Si  Si13  1  0.615644  0.885019  0.501308  1
  B  B14  1  0.172472  0.039076  0.998838  1
  B  B15  1  0.827196  0.961550  0.999297  1
  B  B16  1  0.959958  0.172617  0.999078  1
  B  B17  1  0.328248  0.539261  0.998980  1
  B  B18  1  0.039454  0.828393  0.998982  1
  B  B19  1  0.672478  0.459769  0.999078  1
  B  B20  1  0.538863  0.672371  0.998836  1
  B  B21  1  0.461333  0.327097  0.999299  1
  B  B22  1  0.091320  0.591110  0.999150  1
  B  B23  1  0.909153  0.408944  0.000643  1
  B  B24  1  0.409830  0.090517  0.999417  1
  B  B25  1  0.590493  0.909861  0.999406  1
  B  B26  1  0.999982  0.000284  0.160293  1
  B  B27  1  0.000559  0.000685  0.837751  1
  B  B28  1  0.500374  0.500376  0.837755  1
  B  B29  1  0.499969  0.499795  0.160292  1
