# generated using pymatgen
data_Ce8Sc12Si13Ir3
_symmetry_space_group_name_H-M   'P 1'
_cell_length_a   7.12680000
_cell_length_b   7.63611050
_cell_length_c   14.21869400
_cell_angle_alpha   90.00000000
_cell_angle_beta   90.00000000
_cell_angle_gamma   90.17469885
_symmetry_Int_Tables_number   1
_chemical_formula_structural   Ce8Sc12Si13Ir3
_chemical_formula_sum   'Ce8 Sc12 Si13 Ir3'
_cell_volume   773.79240825
_cell_formula_units_Z   1
loop_
 _symmetry_equiv_pos_site_id
 _symmetry_equiv_pos_as_xyz
  1  'x, y, z'
loop_
 _atom_site_type_symbol
 _atom_site_label
 _atom_site_symmetry_multiplicity
 _atom_site_fract_x
 _atom_site_fract_y
 _atom_site_fract_z
 _atom_site_occupancy
  Ce  Ce0  1  0.005130  0.173859  0.096377  1
  Ce  Ce1  1  0.993639  0.824532  0.903938  1
  Ce  Ce2  1  0.491834  0.676840  0.906318  1
  Ce  Ce3  1  0.993639  0.824532  0.596062  1
  Ce  Ce4  1  0.505494  0.327240  0.097219  1
  Ce  Ce5  1  0.005130  0.173859  0.403623  1
  Ce  Ce6  1  0.505494  0.327240  0.402781  1
  Ce  Ce7  1  0.491834  0.676840  0.593682  1
  Sc  Sc8  1  0.157971  0.506782  0.750000  1
  Sc  Sc9  1  0.832016  0.500129  0.250000  1
  Sc  Sc10  1  0.329998  0.003299  0.250000  1
  Sc  Sc11  1  0.668569  0.996164  0.750000  1
  Sc  Sc12  1  0.319831  0.173011  0.627673  1
  Sc  Sc13  1  0.676095  0.827904  0.369897  1
  Sc  Sc14  1  0.175962  0.674636  0.369835  1
  Sc  Sc15  1  0.676095  0.827904  0.130103  1
  Sc  Sc16  1  0.834601  0.318686  0.627561  1
  Sc  Sc17  1  0.319831  0.173011  0.872327  1
  Sc  Sc18  1  0.834601  0.318686  0.872439  1
  Sc  Sc19  1  0.175962  0.674636  0.130165  1
  Si  Si20  1  0.530035  0.389348  0.750000  1
  Si  Si21  1  0.289798  0.869894  0.750000  1
  Si  Si22  1  0.714279  0.130424  0.250000  1
  Si  Si23  1  0.212661  0.372464  0.250000  1
  Si  Si24  1  0.782071  0.622261  0.750000  1
  Si  Si25  1  0.155682  0.466349  0.538402  1
  Si  Si26  1  0.846744  0.532998  0.462548  1
  Si  Si27  1  0.344985  0.968450  0.461905  1
  Si  Si28  1  0.846744  0.532998  0.037452  1
  Si  Si29  1  0.651996  0.035606  0.538155  1
  Si  Si30  1  0.155682  0.466349  0.961598  1
  Si  Si31  1  0.651996  0.035606  0.961845  1
  Si  Si32  1  0.344985  0.968450  0.038095  1
  Ir  Ir33  1  0.030064  0.106638  0.750000  1
  Ir  Ir34  1  0.973209  0.895382  0.250000  1
  Ir  Ir35  1  0.475345  0.606992  0.250000  1
