# generated using pymatgen
data_Hf8Ti10ReSi16Mo
_symmetry_space_group_name_H-M   'P 1'
_cell_length_a   6.57682932
_cell_length_b   6.71445722
_cell_length_c   12.94117800
_cell_angle_alpha   90.00000000
_cell_angle_beta   90.00000000
_cell_angle_gamma   90.00301864
_symmetry_Int_Tables_number   1
_chemical_formula_structural   Hf8Ti10ReSi16Mo
_chemical_formula_sum   'Hf8 Ti10 Re1 Si16 Mo1'
_cell_volume   571.48033767
_cell_formula_units_Z   1
loop_
 _symmetry_equiv_pos_site_id
 _symmetry_equiv_pos_as_xyz
  1  'x, y, z'
loop_
 _atom_site_type_symbol
 _atom_site_label
 _atom_site_symmetry_multiplicity
 _atom_site_fract_x
 _atom_site_fract_y
 _atom_site_fract_z
 _atom_site_occupancy
  Hf  Hf0  1  0.996666  0.173543  0.094062  1
  Hf  Hf1  1  0.002194  0.827126  0.905745  1
  Hf  Hf2  1  0.503509  0.673987  0.906024  1
  Hf  Hf3  1  0.002194  0.827126  0.594255  1
  Hf  Hf4  1  0.495881  0.327553  0.094037  1
  Hf  Hf5  1  0.996666  0.173543  0.405938  1
  Hf  Hf6  1  0.495881  0.327553  0.405963  1
  Hf  Hf7  1  0.503509  0.673987  0.593976  1
  Ti  Ti8  1  0.163289  0.493155  0.750000  1
  Ti  Ti9  1  0.337075  0.993469  0.250000  1
  Ti  Ti10  1  0.335596  0.171053  0.624834  1
  Ti  Ti11  1  0.664347  0.829426  0.375215  1
  Ti  Ti12  1  0.165505  0.670518  0.375016  1
  Ti  Ti13  1  0.664347  0.829426  0.124785  1
  Ti  Ti14  1  0.835235  0.328728  0.624232  1
  Ti  Ti15  1  0.335596  0.171053  0.875166  1
  Ti  Ti16  1  0.835235  0.328728  0.875768  1
  Ti  Ti17  1  0.165505  0.670518  0.124984  1
  Re  Re18  1  0.837730  0.504661  0.250000  1
  Si  Si19  1  0.037599  0.118338  0.750000  1
  Si  Si20  1  0.963512  0.882051  0.250000  1
  Si  Si21  1  0.464461  0.617073  0.250000  1
  Si  Si22  1  0.537446  0.382420  0.750000  1
  Si  Si23  1  0.296539  0.860461  0.750000  1
  Si  Si24  1  0.701209  0.138606  0.250000  1
  Si  Si25  1  0.201701  0.360995  0.250000  1
  Si  Si26  1  0.798868  0.635851  0.750000  1
  Si  Si27  1  0.170035  0.461927  0.537889  1
  Si  Si28  1  0.830137  0.539012  0.460569  1
  Si  Si29  1  0.329863  0.962594  0.461829  1
  Si  Si30  1  0.830137  0.539012  0.039431  1
  Si  Si31  1  0.669729  0.038758  0.538566  1
  Si  Si32  1  0.170035  0.461927  0.962111  1
  Si  Si33  1  0.669729  0.038758  0.961434  1
  Si  Si34  1  0.329863  0.962594  0.038171  1
  Mo  Mo35  1  0.663174  0.004470  0.750000  1
