# generated using pymatgen
data_NaPr21Fe8(BiC2)6
_symmetry_space_group_name_H-M   'P 1'
_cell_length_a   11.62952604
_cell_length_b   11.62952775
_cell_length_c   11.62952700
_cell_angle_alpha   60.00000498
_cell_angle_beta   60.00000012
_cell_angle_gamma   60.00000001
_symmetry_Int_Tables_number   1
_chemical_formula_structural   NaPr21Fe8(BiC2)6
_chemical_formula_sum   'Na1 Pr21 Fe8 Bi6 C12'
_cell_volume   1112.16997192
_cell_formula_units_Z   1
loop_
 _symmetry_equiv_pos_site_id
 _symmetry_equiv_pos_as_xyz
  1  'x, y, z'
loop_
 _atom_site_type_symbol
 _atom_site_label
 _atom_site_symmetry_multiplicity
 _atom_site_fract_x
 _atom_site_fract_y
 _atom_site_fract_z
 _atom_site_occupancy
  Na  Na0  1  0.000000  0.000000  0.000000  1
  Pr  Pr1  1  0.362757  0.911730  0.362757  1
  Pr  Pr2  1  0.000000  0.652539  0.347461  1
  Pr  Pr3  1  0.362757  0.362757  0.362757  1
  Pr  Pr4  1  0.637243  0.088270  0.637243  1
  Pr  Pr5  1  0.911730  0.362757  0.362757  1
  Pr  Pr6  1  0.652539  0.347461  0.000000  1
  Pr  Pr7  1  0.000000  0.347461  0.000000  1
  Pr  Pr8  1  0.637243  0.637243  0.637243  1
  Pr  Pr9  1  0.000000  0.000000  0.347461  1
  Pr  Pr10  1  0.637243  0.637243  0.088270  1
  Pr  Pr11  1  0.362757  0.362757  0.911730  1
  Pr  Pr12  1  0.652539  0.000000  0.000000  1
  Pr  Pr13  1  0.000000  0.000000  0.652539  1
  Pr  Pr14  1  0.652539  0.000000  0.347461  1
  Pr  Pr15  1  0.088270  0.637243  0.637243  1
  Pr  Pr16  1  0.347461  0.000000  0.000000  1
  Pr  Pr17  1  0.000000  0.347461  0.652539  1
  Pr  Pr18  1  0.347461  0.000000  0.652539  1
  Pr  Pr19  1  0.500000  0.500000  0.500000  1
  Pr  Pr20  1  0.347461  0.652539  0.000000  1
  Pr  Pr21  1  0.000000  0.652539  0.000000  1
  Fe  Fe22  1  0.196007  0.411978  0.196007  1
  Fe  Fe23  1  0.196007  0.196007  0.411978  1
  Fe  Fe24  1  0.588022  0.803993  0.803993  1
  Fe  Fe25  1  0.196007  0.196007  0.196007  1
  Fe  Fe26  1  0.411978  0.196007  0.196007  1
  Fe  Fe27  1  0.803993  0.803993  0.803993  1
  Fe  Fe28  1  0.803993  0.803993  0.588022  1
  Fe  Fe29  1  0.803993  0.588022  0.803993  1
  Bi  Bi30  1  0.287762  0.712238  0.712238  1
  Bi  Bi31  1  0.712238  0.712238  0.287762  1
  Bi  Bi32  1  0.712238  0.287762  0.287762  1
  Bi  Bi33  1  0.712238  0.287762  0.712238  1
  Bi  Bi34  1  0.287762  0.712238  0.287762  1
  Bi  Bi35  1  0.287762  0.287762  0.712238  1
  C  C36  1  0.109479  0.109479  0.390521  1
  C  C37  1  0.890521  0.890521  0.609479  1
  C  C38  1  0.109479  0.390521  0.390521  1
  C  C39  1  0.109479  0.390521  0.109479  1
  C  C40  1  0.609479  0.609479  0.890521  1
  C  C41  1  0.890521  0.609479  0.890521  1
  C  C42  1  0.390521  0.390521  0.109479  1
  C  C43  1  0.390521  0.109479  0.390521  1
  C  C44  1  0.890521  0.609479  0.609479  1
  C  C45  1  0.609479  0.890521  0.609479  1
  C  C46  1  0.390521  0.109479  0.109479  1
  C  C47  1  0.609479  0.890521  0.890521  1
