# generated using pymatgen
data_Th4Ga24CoPt8
_symmetry_space_group_name_H-M   'P 1'
_cell_length_a   7.59342475
_cell_length_b   7.63226373
_cell_length_c   13.25140900
_cell_angle_alpha   84.60101395
_cell_angle_beta   79.03187297
_cell_angle_gamma   59.81416784
_symmetry_Int_Tables_number   1
_chemical_formula_structural   Th4Ga24CoPt8
_chemical_formula_sum   'Th4 Ga24 Co1 Pt8'
_cell_volume   651.71869183
_cell_formula_units_Z   1
loop_
 _symmetry_equiv_pos_site_id
 _symmetry_equiv_pos_as_xyz
  1  'x, y, z'
loop_
 _atom_site_type_symbol
 _atom_site_label
 _atom_site_symmetry_multiplicity
 _atom_site_fract_x
 _atom_site_fract_y
 _atom_site_fract_z
 _atom_site_occupancy
  Th  Th0  1  0.397364  0.165645  0.808272  1
  Th  Th1  1  0.602636  0.834355  0.191728  1
  Th  Th2  1  0.730622  0.499091  0.808050  1
  Th  Th3  1  0.269378  0.500909  0.191950  1
  Ga  Ga4  1  0.695777  0.823876  0.944546  1
  Ga  Ga5  1  0.304223  0.176124  0.055454  1
  Ga  Ga6  1  0.146588  0.832399  0.560965  1
  Ga  Ga7  1  0.853412  0.167601  0.439035  1
  Ga  Ga8  1  0.480986  0.166625  0.557349  1
  Ga  Ga9  1  0.519014  0.833375  0.442651  1
  Ga  Ga10  1  0.213472  0.166497  0.330435  1
  Ga  Ga11  1  0.786528  0.833503  0.669565  1
  Ga  Ga12  1  0.434798  0.508624  0.669909  1
  Ga  Ga13  1  0.565202  0.491376  0.330091  1
  Ga  Ga14  1  0.110811  0.158218  0.667591  1
  Ga  Ga15  1  0.889189  0.841782  0.332409  1
  Ga  Ga16  1  0.341193  0.501292  0.944427  1
  Ga  Ga17  1  0.658807  0.498708  0.055573  1
  Ga  Ga18  1  0.016570  0.178619  0.950159  1
  Ga  Ga19  1  0.983430  0.821381  0.049841  1
  Ga  Ga20  1  0.185764  0.499997  0.443485  1
  Ga  Ga21  1  0.814236  0.500003  0.556515  1
  Ga  Ga22  1  0.742578  0.162557  0.181676  1
  Ga  Ga23  1  0.257422  0.837443  0.818324  1
  Ga  Ga24  1  0.058565  0.626606  0.823160  1
  Ga  Ga25  1  0.941435  0.373394  0.176840  1
  Ga  Ga26  1  0.862656  0.035011  0.817931  1
  Ga  Ga27  1  0.137344  0.964989  0.182070  1
  Co  Co28  1  0.000000  0.500000  0.000000  1
  Pt  Pt29  1  0.119746  0.492388  0.641170  1
  Pt  Pt30  1  0.880254  0.507612  0.358830  1
  Pt  Pt31  1  0.658440  0.171049  0.999983  1
  Pt  Pt32  1  0.341560  0.828951  0.000017  1
  Pt  Pt33  1  0.537875  0.167954  0.360223  1
  Pt  Pt34  1  0.462125  0.832046  0.639777  1
  Pt  Pt35  1  0.779936  0.173293  0.637913  1
  Pt  Pt36  1  0.220064  0.826707  0.362087  1
