# generated using pymatgen
data_AcNdIr2F14
_symmetry_space_group_name_H-M   'P 1'
_cell_length_a   5.85561060
_cell_length_b   6.20208129
_cell_length_c   8.59618652
_cell_angle_alpha   101.74969662
_cell_angle_beta   90.10598141
_cell_angle_gamma   89.96513874
_symmetry_Int_Tables_number   1
_chemical_formula_structural   AcNdIr2F14
_chemical_formula_sum   'Ac1 Nd1 Ir2 F14'
_cell_volume   305.64553771
_cell_formula_units_Z   1
loop_
 _symmetry_equiv_pos_site_id
 _symmetry_equiv_pos_as_xyz
  1  'x, y, z'
loop_
 _atom_site_type_symbol
 _atom_site_label
 _atom_site_symmetry_multiplicity
 _atom_site_fract_x
 _atom_site_fract_y
 _atom_site_fract_z
 _atom_site_occupancy
  Ac  Ac0  1  0.704934  0.659132  0.688682  1
  Nd  Nd1  1  0.199972  0.338325  0.304141  1
  Ir  Ir2  1  0.709807  0.811791  0.222299  1
  Ir  Ir3  1  0.209759  0.192687  0.780653  1
  F  F4  1  0.901856  0.432046  0.472209  1
  F  F5  1  0.388571  0.539151  0.512185  1
  F  F6  1  0.380754  0.920375  0.774617  1
  F  F7  1  0.939531  0.042670  0.226900  1
  F  F8  1  0.924723  0.015824  0.767416  1
  F  F9  1  0.463003  0.040420  0.244146  1
  F  F10  1  0.038033  0.467217  0.793063  1
  F  F11  1  0.483540  0.574808  0.211012  1
  F  F12  1  0.697623  0.769689  0.992645  1
  F  F13  1  0.203202  0.239818  0.012077  1
  F  F14  1  0.725069  0.861913  0.452998  1
  F  F15  1  0.219560  0.136921  0.549949  1
  F  F16  1  0.498629  0.364024  0.794099  1
  F  F17  1  0.964154  0.593190  0.200907  1
