# generated using pymatgen
data_DyY(Er2Rh9)2
_symmetry_space_group_name_H-M   'P 1'
_cell_length_a   5.25509900
_cell_length_b   5.25510028
_cell_length_c   17.55662100
_cell_angle_alpha   90.00000000
_cell_angle_beta   90.00000000
_cell_angle_gamma   119.99998565
_symmetry_Int_Tables_number   1
_chemical_formula_structural   DyY(Er2Rh9)2
_chemical_formula_sum   'Dy1 Y1 Er4 Rh18'
_cell_volume   419.88807278
_cell_formula_units_Z   1
loop_
 _symmetry_equiv_pos_site_id
 _symmetry_equiv_pos_as_xyz
  1  'x, y, z'
loop_
 _atom_site_type_symbol
 _atom_site_label
 _atom_site_symmetry_multiplicity
 _atom_site_fract_x
 _atom_site_fract_y
 _atom_site_fract_z
 _atom_site_occupancy
  Dy  Dy0  1  0.333333  0.666667  0.750000  1
  Y  Y1  1  0.666667  0.333333  0.250000  1
  Er  Er2  1  0.333333  0.666667  0.958122  1
  Er  Er3  1  0.666667  0.333333  0.041907  1
  Er  Er4  1  0.666667  0.333333  0.458093  1
  Er  Er5  1  0.333333  0.666667  0.541878  1
  Rh  Rh6  1  0.167545  0.832455  0.374760  1
  Rh  Rh7  1  0.167545  0.335089  0.374760  1
  Rh  Rh8  1  0.664911  0.832455  0.374760  1
  Rh  Rh9  1  0.832516  0.167484  0.625300  1
  Rh  Rh10  1  0.832516  0.665033  0.625300  1
  Rh  Rh11  1  0.334967  0.167484  0.625300  1
  Rh  Rh12  1  0.832516  0.167484  0.874700  1
  Rh  Rh13  1  0.832516  0.665033  0.874700  1
  Rh  Rh14  1  0.334967  0.167484  0.874700  1
  Rh  Rh15  1  0.167545  0.832455  0.125240  1
  Rh  Rh16  1  0.167545  0.335089  0.125240  1
  Rh  Rh17  1  0.664911  0.832455  0.125240  1
  Rh  Rh18  1  0.333333  0.666667  0.250000  1
  Rh  Rh19  1  0.666667  0.333333  0.750000  1
  Rh  Rh20  1  0.000000  0.000000  0.250000  1
  Rh  Rh21  1  0.000000  0.000000  0.750000  1
  Rh  Rh22  1  0.000000  0.000000  0.500003  1
  Rh  Rh23  1  0.000000  0.000000  0.999997  1
