# generated using pymatgen
data_KCe3F12
_symmetry_space_group_name_H-M   'P 1'
_cell_length_a   6.96939834
_cell_length_b   6.96939780
_cell_length_c   6.96939742
_cell_angle_alpha   108.78003987
_cell_angle_beta   108.78003958
_cell_angle_gamma   110.86259873
_symmetry_Int_Tables_number   1
_chemical_formula_structural   KCe3F12
_chemical_formula_sum   'K1 Ce3 F12'
_cell_volume   260.47812946
_cell_formula_units_Z   1
loop_
 _symmetry_equiv_pos_site_id
 _symmetry_equiv_pos_as_xyz
  1  'x, y, z'
loop_
 _atom_site_type_symbol
 _atom_site_label
 _atom_site_symmetry_multiplicity
 _atom_site_fract_x
 _atom_site_fract_y
 _atom_site_fract_z
 _atom_site_occupancy
  K  K0  1  0.000000  0.000000  0.000000  1
  Ce  Ce1  1  0.250000  0.750000  0.500000  1
  Ce  Ce2  1  0.500000  0.500000  0.000000  1
  Ce  Ce3  1  0.750000  0.250000  0.500000  1
  F  F4  1  0.555631  0.344319  0.248343  1
  F  F5  1  0.307287  0.555631  0.211311  1
  F  F6  1  0.344319  0.095977  0.788689  1
  F  F7  1  0.095977  0.307287  0.751657  1
  F  F8  1  0.342347  0.012474  0.354821  1
  F  F9  1  0.987526  0.342347  0.329873  1
  F  F10  1  0.012474  0.657653  0.670127  1
  F  F11  1  0.657653  0.987526  0.645179  1
  F  F12  1  0.904023  0.692713  0.248343  1
  F  F13  1  0.655681  0.904023  0.211311  1
  F  F14  1  0.692713  0.444369  0.788689  1
  F  F15  1  0.444369  0.655681  0.751657  1
