# generated using pymatgen
data_Sn3Mo(SeO3)8
_symmetry_space_group_name_H-M   'P 1'
_cell_length_a   8.29659693
_cell_length_b   8.29659599
_cell_length_c   8.29659600
_cell_angle_alpha   90.14046692
_cell_angle_beta   89.85953309
_cell_angle_gamma   89.85953257
_symmetry_Int_Tables_number   1
_chemical_formula_structural   Sn3Mo(SeO3)8
_chemical_formula_sum   'Sn3 Mo1 Se8 O24'
_cell_volume   571.07869013
_cell_formula_units_Z   1
loop_
 _symmetry_equiv_pos_site_id
 _symmetry_equiv_pos_as_xyz
  1  'x, y, z'
loop_
 _atom_site_type_symbol
 _atom_site_label
 _atom_site_symmetry_multiplicity
 _atom_site_fract_x
 _atom_site_fract_y
 _atom_site_fract_z
 _atom_site_occupancy
  Sn  Sn0  1  0.500000  0.000000  0.500000  1
  Sn  Sn1  1  0.000000  0.000000  0.000000  1
  Sn  Sn2  1  0.000000  0.500000  0.500000  1
  Mo  Mo3  1  0.500000  0.500000  0.000000  1
  Se  Se4  1  0.834551  0.165449  0.665449  1
  Se  Se5  1  0.165449  0.834551  0.334551  1
  Se  Se6  1  0.665644  0.665694  0.668457  1
  Se  Se7  1  0.168457  0.665644  0.834306  1
  Se  Se8  1  0.334306  0.168457  0.834356  1
  Se  Se9  1  0.831543  0.334356  0.165694  1
  Se  Se10  1  0.665694  0.831543  0.165644  1
  Se  Se11  1  0.334356  0.334306  0.331543  1
  O  O12  1  0.245704  0.468742  0.465509  1
  O  O13  1  0.965509  0.245704  0.031258  1
  O  O14  1  0.029516  0.746376  0.466860  1
  O  O15  1  0.469662  0.256144  0.967415  1
  O  O16  1  0.253624  0.966860  0.470484  1
  O  O17  1  0.532585  0.530338  0.756144  1
  O  O18  1  0.966860  0.029516  0.753624  1
  O  O19  1  0.530338  0.743856  0.032585  1
  O  O20  1  0.531258  0.965509  0.254296  1
  O  O21  1  0.468742  0.034491  0.745704  1
  O  O22  1  0.754120  0.963998  0.030729  1
  O  O23  1  0.256144  0.532585  0.969662  1
  O  O24  1  0.036002  0.530729  0.745880  1
  O  O25  1  0.033140  0.970484  0.246376  1
  O  O26  1  0.245880  0.036002  0.969271  1
  O  O27  1  0.467415  0.469662  0.243856  1
  O  O28  1  0.754296  0.531258  0.534491  1
  O  O29  1  0.963998  0.469271  0.254120  1
  O  O30  1  0.034491  0.754296  0.968742  1
  O  O31  1  0.469271  0.245880  0.463998  1
  O  O32  1  0.530729  0.754120  0.536002  1
  O  O33  1  0.970484  0.253624  0.533140  1
  O  O34  1  0.746376  0.033140  0.529516  1
  O  O35  1  0.743856  0.467415  0.030338  1
