# generated using pymatgen
data_HfTcSeBr12
_symmetry_space_group_name_H-M   'P 1'
_cell_length_a   9.56319655
_cell_length_b   9.56319761
_cell_length_c   7.25141303
_cell_angle_alpha   71.38726680
_cell_angle_beta   71.38726427
_cell_angle_gamma   80.64002645
_symmetry_Int_Tables_number   1
_chemical_formula_structural   HfTcSeBr12
_chemical_formula_sum   'Hf1 Tc1 Se1 Br12'
_cell_volume   594.25380809
_cell_formula_units_Z   1
loop_
 _symmetry_equiv_pos_site_id
 _symmetry_equiv_pos_as_xyz
  1  'x, y, z'
loop_
 _atom_site_type_symbol
 _atom_site_label
 _atom_site_symmetry_multiplicity
 _atom_site_fract_x
 _atom_site_fract_y
 _atom_site_fract_z
 _atom_site_occupancy
  Hf  Hf0  1  0.267568  0.267568  0.739181  1
  Tc  Tc1  1  0.000901  0.000901  0.000709  1
  Se  Se2  1  0.722369  0.722369  0.269239  1
  Br  Br3  1  0.972837  0.255853  0.749623  1
  Br  Br4  1  0.255853  0.972837  0.749623  1
  Br  Br5  1  0.039996  0.755257  0.242582  1
  Br  Br6  1  0.755257  0.039996  0.242582  1
  Br  Br7  1  0.206361  0.515563  0.798793  1
  Br  Br8  1  0.515563  0.206361  0.798793  1
  Br  Br9  1  0.778096  0.484817  0.212639  1
  Br  Br10  1  0.484817  0.778096  0.212639  1
  Br  Br11  1  0.131722  0.131722  0.151675  1
  Br  Br12  1  0.879530  0.879530  0.838682  1
  Br  Br13  1  0.648146  0.648146  0.632417  1
  Br  Br14  1  0.340986  0.340986  0.360823  1
