# generated using pymatgen
data_Ho2Hf2ZrSi4
_symmetry_space_group_name_H-M   'P 1'
_cell_length_a   7.28394800
_cell_length_b   7.28394800
_cell_length_c   13.38747900
_cell_angle_alpha   90.00000000
_cell_angle_beta   90.00000000
_cell_angle_gamma   90.00000000
_symmetry_Int_Tables_number   1
_chemical_formula_structural   Ho2Hf2ZrSi4
_chemical_formula_sum   'Ho8 Hf8 Zr4 Si16'
_cell_volume   710.28472655
_cell_formula_units_Z   4
loop_
 _symmetry_equiv_pos_site_id
 _symmetry_equiv_pos_as_xyz
  1  'x, y, z'
loop_
 _atom_site_type_symbol
 _atom_site_label
 _atom_site_symmetry_multiplicity
 _atom_site_fract_x
 _atom_site_fract_y
 _atom_site_fract_z
 _atom_site_occupancy
  Ho  Ho0  1  0.996756  0.344262  0.214829  1
  Ho  Ho1  1  0.003244  0.655738  0.714829  1
  Ho  Ho2  1  0.155738  0.496756  0.464829  1
  Ho  Ho3  1  0.503244  0.844262  0.035171  1
  Ho  Ho4  1  0.844262  0.503244  0.964829  1
  Ho  Ho5  1  0.496756  0.155738  0.535171  1
  Ho  Ho6  1  0.344262  0.996756  0.785171  1
  Ho  Ho7  1  0.655738  0.003244  0.285171  1
  Hf  Hf8  1  0.148762  0.996004  0.374556  1
  Hf  Hf9  1  0.851238  0.003996  0.874556  1
  Hf  Hf10  1  0.503996  0.648762  0.624556  1
  Hf  Hf11  1  0.351238  0.496004  0.875444  1
  Hf  Hf12  1  0.496004  0.351238  0.124556  1
  Hf  Hf13  1  0.648762  0.503996  0.375444  1
  Hf  Hf14  1  0.996004  0.148762  0.625444  1
  Hf  Hf15  1  0.003996  0.851238  0.125444  1
  Zr  Zr16  1  0.174525  0.174525  0.000000  1
  Zr  Zr17  1  0.825475  0.825475  0.500000  1
  Zr  Zr18  1  0.325475  0.674525  0.250000  1
  Zr  Zr19  1  0.674525  0.325475  0.750000  1
  Si  Si20  1  0.362551  0.293769  0.317472  1
  Si  Si21  1  0.637449  0.706231  0.817472  1
  Si  Si22  1  0.206231  0.862551  0.567472  1
  Si  Si23  1  0.137449  0.793769  0.932528  1
  Si  Si24  1  0.793769  0.137449  0.067472  1
  Si  Si25  1  0.862551  0.206231  0.432528  1
  Si  Si26  1  0.293769  0.362551  0.682528  1
  Si  Si27  1  0.706231  0.637449  0.182528  1
  Si  Si28  1  0.295963  0.049547  0.186568  1
  Si  Si29  1  0.704037  0.950453  0.686568  1
  Si  Si30  1  0.450453  0.795963  0.436568  1
  Si  Si31  1  0.204037  0.549547  0.063432  1
  Si  Si32  1  0.549547  0.204037  0.936568  1
  Si  Si33  1  0.795963  0.450453  0.563432  1
  Si  Si34  1  0.049547  0.295963  0.813432  1
  Si  Si35  1  0.950453  0.704037  0.313432  1
