# generated using pymatgen
data_YbPr3Ga24NiPd
_symmetry_space_group_name_H-M   'P 1'
_cell_length_a   6.17427507
_cell_length_b   6.17427536
_cell_length_c   15.50454100
_cell_angle_alpha   90.00000000
_cell_angle_beta   90.00000000
_cell_angle_gamma   90.09701988
_symmetry_Int_Tables_number   1
_chemical_formula_structural   YbPr3Ga24NiPd
_chemical_formula_sum   'Yb1 Pr3 Ga24 Ni1 Pd1'
_cell_volume   591.05821688
_cell_formula_units_Z   1
loop_
 _symmetry_equiv_pos_site_id
 _symmetry_equiv_pos_as_xyz
  1  'x, y, z'
loop_
 _atom_site_type_symbol
 _atom_site_label
 _atom_site_symmetry_multiplicity
 _atom_site_fract_x
 _atom_site_fract_y
 _atom_site_fract_z
 _atom_site_occupancy
  Yb  Yb0  1  0.750000  0.250000  0.245438  1
  Pr  Pr1  1  0.250000  0.750000  0.239004  1
  Pr  Pr2  1  0.250000  0.750000  0.759408  1
  Pr  Pr3  1  0.750000  0.250000  0.756086  1
  Ga  Ga4  1  0.250000  0.250000  0.184694  1
  Ga  Ga5  1  0.750000  0.750000  0.184694  1
  Ga  Ga6  1  0.750000  0.750000  0.815023  1
  Ga  Ga7  1  0.250000  0.250000  0.815023  1
  Ga  Ga8  1  0.250000  0.250000  0.344586  1
  Ga  Ga9  1  0.750000  0.750000  0.344586  1
  Ga  Ga10  1  0.750000  0.750000  0.654251  1
  Ga  Ga11  1  0.250000  0.250000  0.654251  1
  Ga  Ga12  1  0.506468  0.006468  0.915304  1
  Ga  Ga13  1  0.993539  0.006461  0.914970  1
  Ga  Ga14  1  0.506461  0.493539  0.914970  1
  Ga  Ga15  1  0.993532  0.493532  0.915304  1
  Ga  Ga16  1  0.510558  0.010558  0.086878  1
  Ga  Ga17  1  0.989556  0.010444  0.086827  1
  Ga  Ga18  1  0.510444  0.489556  0.086827  1
  Ga  Ga19  1  0.989442  0.489442  0.086878  1
  Ga  Ga20  1  0.580911  0.080911  0.430460  1
  Ga  Ga21  1  0.080056  0.919944  0.430656  1
  Ga  Ga22  1  0.419944  0.580056  0.430656  1
  Ga  Ga23  1  0.919089  0.419089  0.430460  1
  Ga  Ga24  1  0.415301  0.915301  0.568791  1
  Ga  Ga25  1  0.916057  0.083943  0.567892  1
  Ga  Ga26  1  0.583943  0.416057  0.567892  1
  Ga  Ga27  1  0.084699  0.584699  0.568791  1
  Ni  Ni28  1  0.750000  0.250000  0.998633  1
  Pd  Pd29  1  0.250000  0.750000  0.000762  1
