# generated using pymatgen
data_Dy7TmSc12Si11Ge5
_symmetry_space_group_name_H-M   'P 1'
_cell_length_a   7.13700289
_cell_length_b   7.40220585
_cell_length_c   14.03860258
_cell_angle_alpha   89.96649979
_cell_angle_beta   89.37502644
_cell_angle_gamma   90.04793746
_symmetry_Int_Tables_number   1
_chemical_formula_structural   Dy7TmSc12Si11Ge5
_chemical_formula_sum   'Dy7 Tm1 Sc12 Si11 Ge5'
_cell_volume   741.60874906
_cell_formula_units_Z   1
loop_
 _symmetry_equiv_pos_site_id
 _symmetry_equiv_pos_as_xyz
  1  'x, y, z'
loop_
 _atom_site_type_symbol
 _atom_site_label
 _atom_site_symmetry_multiplicity
 _atom_site_fract_x
 _atom_site_fract_y
 _atom_site_fract_z
 _atom_site_occupancy
  Dy  Dy0  1  0.011172  0.174954  0.096494  1
  Dy  Dy1  1  0.990317  0.824770  0.902785  1
  Dy  Dy2  1  0.488777  0.676390  0.902923  1
  Dy  Dy3  1  0.994118  0.821438  0.598716  1
  Dy  Dy4  1  0.507945  0.323222  0.096771  1
  Dy  Dy5  1  0.005817  0.177909  0.401520  1
  Dy  Dy6  1  0.505006  0.322080  0.401524  1
  Tm  Tm7  1  0.494878  0.678124  0.599316  1
  Sc  Sc8  1  0.165664  0.501661  0.750850  1
  Sc  Sc9  1  0.834729  0.498675  0.250320  1
  Sc  Sc10  1  0.334829  0.001639  0.249168  1
  Sc  Sc11  1  0.665031  0.998353  0.750812  1
  Sc  Sc12  1  0.338544  0.172034  0.627024  1
  Sc  Sc13  1  0.661582  0.828309  0.373013  1
  Sc  Sc14  1  0.161770  0.671754  0.373083  1
  Sc  Sc15  1  0.665754  0.826163  0.125809  1
  Sc  Sc16  1  0.838327  0.328543  0.626984  1
  Sc  Sc17  1  0.332975  0.175835  0.874440  1
  Sc  Sc18  1  0.833704  0.322660  0.874614  1
  Sc  Sc19  1  0.168642  0.676262  0.124705  1
  Si  Si20  1  0.037303  0.116084  0.750893  1
  Si  Si21  1  0.962918  0.883128  0.248660  1
  Si  Si22  1  0.462724  0.616383  0.248931  1
  Si  Si23  1  0.537872  0.384095  0.750970  1
  Si  Si24  1  0.289954  0.871290  0.750401  1
  Si  Si25  1  0.710792  0.128627  0.248921  1
  Si  Si26  1  0.209880  0.372163  0.248792  1
  Si  Si27  1  0.788987  0.627927  0.750838  1
  Si  Si28  1  0.162596  0.463396  0.959717  1
  Si  Si29  1  0.657854  0.035063  0.960443  1
  Si  Si30  1  0.342313  0.964629  0.039242  1
  Ge  Ge31  1  0.176570  0.460926  0.541155  1
  Ge  Ge32  1  0.824215  0.540207  0.459621  1
  Ge  Ge33  1  0.325775  0.959302  0.459667  1
  Ge  Ge34  1  0.836317  0.536850  0.039814  1
  Ge  Ge35  1  0.674350  0.039157  0.541064  1
