# generated using pymatgen
data_TbMnCo3NiP3
_symmetry_space_group_name_H-M   'P 1'
_cell_length_a   3.67931600
_cell_length_b   10.34745300
_cell_length_c   11.86953700
_cell_angle_alpha   90.00000000
_cell_angle_beta   90.00000000
_cell_angle_gamma   90.00000000
_symmetry_Int_Tables_number   1
_chemical_formula_structural   TbMnCo3NiP3
_chemical_formula_sum   'Tb4 Mn4 Co12 Ni4 P12'
_cell_volume   451.89166404
_cell_formula_units_Z   4
loop_
 _symmetry_equiv_pos_site_id
 _symmetry_equiv_pos_as_xyz
  1  'x, y, z'
loop_
 _atom_site_type_symbol
 _atom_site_label
 _atom_site_symmetry_multiplicity
 _atom_site_fract_x
 _atom_site_fract_y
 _atom_site_fract_z
 _atom_site_occupancy
  Tb  Tb0  1  0.250000  0.581832  0.705053  1
  Tb  Tb1  1  0.250000  0.918168  0.205053  1
  Tb  Tb2  1  0.750000  0.418168  0.294947  1
  Tb  Tb3  1  0.750000  0.081832  0.794947  1
  Mn  Mn4  1  0.250000  0.708956  0.987460  1
  Mn  Mn5  1  0.250000  0.791044  0.487460  1
  Mn  Mn6  1  0.750000  0.291044  0.012540  1
  Mn  Mn7  1  0.750000  0.208956  0.512540  1
  Co  Co8  1  0.250000  0.221340  0.176274  1
  Co  Co9  1  0.250000  0.278660  0.676274  1
  Co  Co10  1  0.750000  0.778660  0.823726  1
  Co  Co11  1  0.750000  0.721340  0.323726  1
  Co  Co12  1  0.250000  0.882906  0.697475  1
  Co  Co13  1  0.250000  0.617094  0.197475  1
  Co  Co14  1  0.750000  0.117094  0.302525  1
  Co  Co15  1  0.750000  0.382906  0.802525  1
  Co  Co16  1  0.250000  0.466548  0.932681  1
  Co  Co17  1  0.250000  0.033452  0.432681  1
  Co  Co18  1  0.750000  0.533452  0.067319  1
  Co  Co19  1  0.750000  0.966548  0.567319  1
  Ni  Ni20  1  0.250000  0.407385  0.486993  1
  Ni  Ni21  1  0.250000  0.092615  0.986993  1
  Ni  Ni22  1  0.750000  0.592615  0.513007  1
  Ni  Ni23  1  0.750000  0.907385  0.013007  1
  P  P24  1  0.250000  0.418956  0.112102  1
  P  P25  1  0.250000  0.081044  0.612102  1
  P  P26  1  0.750000  0.581044  0.887898  1
  P  P27  1  0.750000  0.918956  0.387898  1
  P  P28  1  0.250000  0.272263  0.865855  1
  P  P29  1  0.250000  0.227737  0.365855  1
  P  P30  1  0.750000  0.727737  0.134145  1
  P  P31  1  0.750000  0.772263  0.634145  1
  P  P32  1  0.250000  0.604706  0.388099  1
  P  P33  1  0.250000  0.895294  0.888099  1
  P  P34  1  0.750000  0.395294  0.611901  1
  P  P35  1  0.750000  0.104706  0.111901  1
