# generated using pymatgen
data_ScNb2Re3SiGe2
_symmetry_space_group_name_H-M   'P 1'
_cell_length_a   6.95936600
_cell_length_b   7.04301377
_cell_length_c   3.32009200
_cell_angle_alpha   90.00000000
_cell_angle_beta   90.00000000
_cell_angle_gamma   119.60788411
_symmetry_Int_Tables_number   1
_chemical_formula_structural   ScNb2Re3SiGe2
_chemical_formula_sum   'Sc1 Nb2 Re3 Si1 Ge2'
_cell_volume   141.48533656
_cell_formula_units_Z   1
loop_
 _symmetry_equiv_pos_site_id
 _symmetry_equiv_pos_as_xyz
  1  'x, y, z'
loop_
 _atom_site_type_symbol
 _atom_site_label
 _atom_site_symmetry_multiplicity
 _atom_site_fract_x
 _atom_site_fract_y
 _atom_site_fract_z
 _atom_site_occupancy
  Sc  Sc0  1  0.397798  0.000000  0.500000  1
  Nb  Nb1  1  0.003626  0.400188  0.500000  1
  Nb  Nb2  1  0.603438  0.599812  0.500000  1
  Re  Re3  1  0.749669  0.000000  0.000000  1
  Re  Re4  1  0.992638  0.741205  0.000000  1
  Re  Re5  1  0.251433  0.258795  0.000000  1
  Si  Si6  1  0.000875  0.000000  0.500000  1
  Ge  Ge7  1  0.335000  0.669477  0.000000  1
  Ge  Ge8  1  0.665524  0.330523  0.000000  1
