# generated using pymatgen
data_YTh(GaRh)2
_symmetry_space_group_name_H-M   'P 1'
_cell_length_a   4.36020900
_cell_length_b   6.93541600
_cell_length_c   7.90995600
_cell_angle_alpha   90.00000000
_cell_angle_beta   90.00000000
_cell_angle_gamma   90.00000000
_symmetry_Int_Tables_number   1
_chemical_formula_structural   YTh(GaRh)2
_chemical_formula_sum   'Y2 Th2 Ga4 Rh4'
_cell_volume   239.19598785
_cell_formula_units_Z   2
loop_
 _symmetry_equiv_pos_site_id
 _symmetry_equiv_pos_as_xyz
  1  'x, y, z'
loop_
 _atom_site_type_symbol
 _atom_site_label
 _atom_site_symmetry_multiplicity
 _atom_site_fract_x
 _atom_site_fract_y
 _atom_site_fract_z
 _atom_site_occupancy
  Y  Y0  1  0.750000  0.033556  0.693003  1
  Y  Y1  1  0.750000  0.533556  0.806997  1
  Th  Th2  1  0.250000  0.968372  0.319534  1
  Th  Th3  1  0.250000  0.468372  0.180466  1
  Ga  Ga4  1  0.250000  0.352870  0.575369  1
  Ga  Ga5  1  0.250000  0.852870  0.924631  1
  Ga  Ga6  1  0.750000  0.644883  0.441587  1
  Ga  Ga7  1  0.750000  0.144883  0.058413  1
  Rh  Rh8  1  0.250000  0.241210  0.893450  1
  Rh  Rh9  1  0.250000  0.741210  0.606550  1
  Rh  Rh10  1  0.750000  0.759109  0.118692  1
  Rh  Rh11  1  0.750000  0.259109  0.381308  1
