# generated using pymatgen
data_Ce7Pa(TcB6)4
_symmetry_space_group_name_H-M   'P 1'
_cell_length_a   3.73178200
_cell_length_b   9.43108022
_cell_length_c   11.53790827
_cell_angle_alpha   90.02461491
_cell_angle_beta   90.00000000
_cell_angle_gamma   90.00000000
_symmetry_Int_Tables_number   1
_chemical_formula_structural   Ce7Pa(TcB6)4
_chemical_formula_sum   'Ce7 Pa1 Tc4 B24'
_cell_volume   406.07359098
_cell_formula_units_Z   1
loop_
 _symmetry_equiv_pos_site_id
 _symmetry_equiv_pos_as_xyz
  1  'x, y, z'
loop_
 _atom_site_type_symbol
 _atom_site_label
 _atom_site_symmetry_multiplicity
 _atom_site_fract_x
 _atom_site_fract_y
 _atom_site_fract_z
 _atom_site_occupancy
  Ce  Ce0  1  0.000000  0.664473  0.592571  1
  Ce  Ce1  1  0.000000  0.835936  0.091809  1
  Ce  Ce2  1  0.000000  0.163761  0.907914  1
  Ce  Ce3  1  0.000000  0.953730  0.389580  1
  Ce  Ce4  1  0.000000  0.045505  0.610500  1
  Ce  Ce5  1  0.000000  0.454264  0.109920  1
  Ce  Ce6  1  0.000000  0.546437  0.889041  1
  Pa  Pa7  1  0.000000  0.335491  0.408269  1
  Tc  Tc8  1  0.000000  0.641357  0.322009  1
  Tc  Tc9  1  0.000000  0.355528  0.676619  1
  Tc  Tc10  1  0.000000  0.146116  0.180875  1
  Tc  Tc11  1  0.000000  0.855790  0.821310  1
  B  B12  1  0.500000  0.550701  0.430428  1
  B  B13  1  0.500000  0.447537  0.568883  1
  B  B14  1  0.500000  0.053122  0.070531  1
  B  B15  1  0.500000  0.947367  0.930336  1
  B  B16  1  0.500000  0.741318  0.423057  1
  B  B17  1  0.500000  0.258787  0.576273  1
  B  B18  1  0.500000  0.242312  0.077125  1
  B  B19  1  0.500000  0.758092  0.923140  1
  B  B20  1  0.500000  0.798219  0.275425  1
  B  B21  1  0.500000  0.200940  0.724565  1
  B  B22  1  0.500000  0.300462  0.225545  1
  B  B23  1  0.500000  0.700982  0.775148  1
  B  B24  1  0.500000  0.644701  0.190119  1
  B  B25  1  0.500000  0.354857  0.809573  1
  B  B26  1  0.500000  0.146514  0.310327  1
  B  B27  1  0.500000  0.854700  0.689994  1
  B  B28  1  0.500000  0.991361  0.217723  1
  B  B29  1  0.500000  0.008722  0.782503  1
  B  B30  1  0.500000  0.488983  0.282954  1
  B  B31  1  0.500000  0.508657  0.717178  1
  B  B32  1  0.500000  0.647329  0.041733  1
  B  B33  1  0.500000  0.352681  0.958300  1
  B  B34  1  0.500000  0.150793  0.457682  1
  B  B35  1  0.500000  0.852472  0.541043  1
