# generated using pymatgen
data_Be5B4Ru9
_symmetry_space_group_name_H-M   'P 1'
_cell_length_a   8.32040600
_cell_length_b   8.00688800
_cell_length_c   2.87518600
_cell_angle_alpha   90.00000000
_cell_angle_beta   90.00000000
_cell_angle_gamma   90.00000000
_symmetry_Int_Tables_number   1
_chemical_formula_structural   Be5B4Ru9
_chemical_formula_sum   'Be5 B4 Ru9'
_cell_volume   191.54649842
_cell_formula_units_Z   1
loop_
 _symmetry_equiv_pos_site_id
 _symmetry_equiv_pos_as_xyz
  1  'x, y, z'
loop_
 _atom_site_type_symbol
 _atom_site_label
 _atom_site_symmetry_multiplicity
 _atom_site_fract_x
 _atom_site_fract_y
 _atom_site_fract_z
 _atom_site_occupancy
  Be  Be0  1  0.000000  0.997717  0.500000  1
  Be  Be1  1  0.500000  0.500416  0.500000  1
  Be  Be2  1  0.000000  0.341606  0.500000  1
  Be  Be3  1  0.359964  0.009220  0.500000  1
  Be  Be4  1  0.640036  0.009220  0.500000  1
  B  B5  1  0.307463  0.295627  0.500000  1
  B  B6  1  0.313187  0.703508  0.500000  1
  B  B7  1  0.692537  0.295627  0.500000  1
  B  B8  1  0.686813  0.703508  0.500000  1
  Ru  Ru9  1  0.000000  0.624580  0.500000  1
  Ru  Ru10  1  0.827343  0.836710  0.000000  1
  Ru  Ru11  1  0.833857  0.166656  0.000000  1
  Ru  Ru12  1  0.172657  0.836710  0.000000  1
  Ru  Ru13  1  0.166143  0.166656  0.000000  1
  Ru  Ru14  1  0.500000  0.777510  0.000000  1
  Ru  Ru15  1  0.737563  0.502264  0.000000  1
  Ru  Ru16  1  0.262437  0.502264  0.000000  1
  Ru  Ru17  1  0.500000  0.230202  0.000000  1
