# generated using pymatgen
data_Tb3Zn3CuPdPt
_symmetry_space_group_name_H-M   'P 1'
_cell_length_a   7.38188100
_cell_length_b   7.38188121
_cell_length_c   3.74662200
_cell_angle_alpha   90.00000000
_cell_angle_beta   90.00000000
_cell_angle_gamma   119.99999460
_symmetry_Int_Tables_number   1
_chemical_formula_structural   Tb3Zn3CuPdPt
_chemical_formula_sum   'Tb3 Zn3 Cu1 Pd1 Pt1'
_cell_volume   176.80910513
_cell_formula_units_Z   1
loop_
 _symmetry_equiv_pos_site_id
 _symmetry_equiv_pos_as_xyz
  1  'x, y, z'
loop_
 _atom_site_type_symbol
 _atom_site_label
 _atom_site_symmetry_multiplicity
 _atom_site_fract_x
 _atom_site_fract_y
 _atom_site_fract_z
 _atom_site_occupancy
  Tb  Tb0  1  0.003698  0.408747  0.000000  1
  Tb  Tb1  1  0.591253  0.594951  0.000000  1
  Tb  Tb2  1  0.405049  0.996302  0.000000  1
  Zn  Zn3  1  0.999157  0.754604  0.500000  1
  Zn  Zn4  1  0.245396  0.244553  0.500000  1
  Zn  Zn5  1  0.755447  0.000843  0.500000  1
  Cu  Cu6  1  0.000000  0.000000  0.000000  1
  Pd  Pd7  1  0.666667  0.333333  0.500000  1
  Pt  Pt8  1  0.333333  0.666667  0.500000  1
