# generated using pymatgen
data_Er6Tm2Tc3B24Rh
_symmetry_space_group_name_H-M   'P 1'
_cell_length_a   3.65129800
_cell_length_b   9.10884811
_cell_length_c   11.48494204
_cell_angle_alpha   90.11833071
_cell_angle_beta   90.00000000
_cell_angle_gamma   90.00000000
_symmetry_Int_Tables_number   1
_chemical_formula_structural   Er6Tm2Tc3B24Rh
_chemical_formula_sum   'Er6 Tm2 Tc3 B24 Rh1'
_cell_volume   381.97823817
_cell_formula_units_Z   1
loop_
 _symmetry_equiv_pos_site_id
 _symmetry_equiv_pos_as_xyz
  1  'x, y, z'
loop_
 _atom_site_type_symbol
 _atom_site_label
 _atom_site_symmetry_multiplicity
 _atom_site_fract_x
 _atom_site_fract_y
 _atom_site_fract_z
 _atom_site_occupancy
  Er  Er0  1  0.500000  0.318087  0.415824  1
  Er  Er1  1  0.500000  0.678370  0.590999  1
  Er  Er2  1  0.500000  0.177275  0.912778  1
  Er  Er3  1  0.500000  0.827134  0.081180  1
  Er  Er4  1  0.500000  0.440613  0.129040  1
  Er  Er5  1  0.500000  0.557092  0.870998  1
  Tm  Tm6  1  0.500000  0.056109  0.629521  1
  Tm  Tm7  1  0.500000  0.943878  0.369873  1
  Tc  Tc8  1  0.500000  0.138293  0.180451  1
  Tc  Tc9  1  0.500000  0.861742  0.820532  1
  Tc  Tc10  1  0.500000  0.362242  0.677794  1
  B  B11  1  0.000000  0.101072  0.471532  1
  B  B12  1  0.000000  0.895872  0.527993  1
  B  B13  1  0.000000  0.397324  0.972016  1
  B  B14  1  0.000000  0.603794  0.029191  1
  B  B15  1  0.000000  0.130542  0.315481  1
  B  B16  1  0.000000  0.868776  0.684973  1
  B  B17  1  0.000000  0.369361  0.814555  1
  B  B18  1  0.000000  0.631665  0.183760  1
  B  B19  1  0.000000  0.053634  0.066329  1
  B  B20  1  0.000000  0.947320  0.932769  1
  B  B21  1  0.000000  0.446407  0.566331  1
  B  B22  1  0.000000  0.553996  0.434045  1
  B  B23  1  0.000000  0.482694  0.288068  1
  B  B24  1  0.000000  0.518340  0.712232  1
  B  B25  1  0.000000  0.018031  0.787051  1
  B  B26  1  0.000000  0.982293  0.211948  1
  B  B27  1  0.000000  0.249379  0.081027  1
  B  B28  1  0.000000  0.751548  0.919102  1
  B  B29  1  0.000000  0.249823  0.580775  1
  B  B30  1  0.000000  0.749448  0.420468  1
  B  B31  1  0.000000  0.291982  0.235769  1
  B  B32  1  0.000000  0.708080  0.765379  1
  B  B33  1  0.000000  0.208009  0.734557  1
  B  B34  1  0.000000  0.791562  0.264598  1
  Rh  Rh35  1  0.500000  0.638212  0.321061  1
