# generated using pymatgen
data_Ho3Zr5(Ta3Si4)4
_symmetry_space_group_name_H-M   'P 1'
_cell_length_a   6.93251622
_cell_length_b   6.93061698
_cell_length_c   12.85116745
_cell_angle_alpha   89.96549698
_cell_angle_beta   90.07665430
_cell_angle_gamma   89.86713691
_symmetry_Int_Tables_number   1
_chemical_formula_structural   Ho3Zr5(Ta3Si4)4
_chemical_formula_sum   'Ho3 Zr5 Ta12 Si16'
_cell_volume   617.45276352
_cell_formula_units_Z   1
loop_
 _symmetry_equiv_pos_site_id
 _symmetry_equiv_pos_as_xyz
  1  'x, y, z'
loop_
 _atom_site_type_symbol
 _atom_site_label
 _atom_site_symmetry_multiplicity
 _atom_site_fract_x
 _atom_site_fract_y
 _atom_site_fract_z
 _atom_site_occupancy
  Ho  Ho0  1  0.998772  0.660285  0.031368  1
  Ho  Ho1  1  0.001648  0.338719  0.530816  1
  Ho  Ho2  1  0.660433  0.998775  0.968731  1
  Zr  Zr3  1  0.160608  0.497725  0.781497  1
  Zr  Zr4  1  0.839656  0.502001  0.282487  1
  Zr  Zr5  1  0.497836  0.160944  0.218872  1
  Zr  Zr6  1  0.501861  0.840478  0.717946  1
  Zr  Zr7  1  0.343014  0.995401  0.468243  1
  Ta  Ta8  1  0.347332  0.506858  0.375724  1
  Ta  Ta9  1  0.844582  0.996081  0.373558  1
  Ta  Ta10  1  0.005458  0.155012  0.128245  1
  Ta  Ta11  1  0.994895  0.847238  0.625645  1
  Ta  Ta12  1  0.651967  0.492969  0.874225  1
  Ta  Ta13  1  0.504333  0.347840  0.623617  1
  Ta  Ta14  1  0.493200  0.652288  0.125914  1
  Ta  Ta15  1  0.155402  0.004482  0.872074  1
  Ta  Ta16  1  0.668125  0.671451  0.500106  1
  Ta  Ta17  1  0.829978  0.169725  0.749156  1
  Ta  Ta18  1  0.170553  0.830849  0.251136  1
  Ta  Ta19  1  0.330478  0.330567  0.000171  1
  Si  Si20  1  0.044249  0.704800  0.436164  1
  Si  Si21  1  0.957514  0.296400  0.935912  1
  Si  Si22  1  0.700129  0.043683  0.563542  1
  Si  Si23  1  0.202360  0.455293  0.187781  1
  Si  Si24  1  0.797799  0.543871  0.686885  1
  Si  Si25  1  0.455453  0.202405  0.812598  1
  Si  Si26  1  0.543347  0.798860  0.313483  1
  Si  Si27  1  0.297032  0.957479  0.064022  1
  Si  Si28  1  0.866717  0.792156  0.818470  1
  Si  Si29  1  0.136162  0.205579  0.321125  1
  Si  Si30  1  0.792116  0.866760  0.181707  1
  Si  Si31  1  0.294707  0.637927  0.572439  1
  Si  Si32  1  0.705153  0.364855  0.073093  1
  Si  Si33  1  0.632577  0.293033  0.426678  1
  Si  Si34  1  0.364881  0.704721  0.927074  1
  Si  Si35  1  0.209672  0.132490  0.679495  1
