# generated using pymatgen
data_Nd7SmSi13Ge
_symmetry_space_group_name_H-M   'P 1'
_cell_length_a   7.52353558
_cell_length_b   7.52183865
_cell_length_c   11.75305018
_cell_angle_alpha   90.00865721
_cell_angle_beta   89.95755477
_cell_angle_gamma   134.31963191
_symmetry_Int_Tables_number   1
_chemical_formula_structural   Nd7SmSi13Ge
_chemical_formula_sum   'Nd7 Sm1 Si13 Ge1'
_cell_volume   475.85841060
_cell_formula_units_Z   1
loop_
 _symmetry_equiv_pos_site_id
 _symmetry_equiv_pos_as_xyz
  1  'x, y, z'
loop_
 _atom_site_type_symbol
 _atom_site_label
 _atom_site_symmetry_multiplicity
 _atom_site_fract_x
 _atom_site_fract_y
 _atom_site_fract_z
 _atom_site_occupancy
  Nd  Nd0  1  0.499286  0.993961  0.376202  1
  Nd  Nd1  1  0.994862  0.498050  0.623325  1
  Nd  Nd2  1  0.502188  0.005256  0.876872  1
  Nd  Nd3  1  0.005889  0.501120  0.123366  1
  Nd  Nd4  1  0.996748  0.001711  0.249748  1
  Nd  Nd5  1  0.000916  0.997883  0.750315  1
  Nd  Nd6  1  0.503879  0.503361  0.497163  1
  Sm  Sm7  1  0.496228  0.495949  0.003078  1
  Si  Si8  1  0.911654  0.082917  0.995280  1
  Si  Si9  1  0.079206  0.907955  0.004246  1
  Si  Si10  1  0.091973  0.919916  0.495873  1
  Si  Si11  1  0.917148  0.088628  0.504591  1
  Si  Si12  1  0.575057  0.909661  0.127306  1
  Si  Si13  1  0.912615  0.574172  0.873395  1
  Si  Si14  1  0.425423  0.087506  0.627274  1
  Si  Si15  1  0.090382  0.424436  0.371829  1
  Si  Si16  1  0.432623  0.111004  0.133005  1
  Si  Si17  1  0.118865  0.436332  0.864682  1
  Si  Si18  1  0.564221  0.883531  0.635467  1
  Si  Si19  1  0.890574  0.566958  0.366628  1
  Si  Si20  1  0.428517  0.571434  0.248866  1
  Ge  Ge21  1  0.561744  0.438260  0.751490  1
