# generated using pymatgen
data_Er8Nb9Si16Mo3
_symmetry_space_group_name_H-M   'P 1'
_cell_length_a   6.78460039
_cell_length_b   7.03442182
_cell_length_c   13.32718100
_cell_angle_alpha   90.00000000
_cell_angle_beta   90.00000000
_cell_angle_gamma   89.99173539
_symmetry_Int_Tables_number   1
_chemical_formula_structural   Er8Nb9Si16Mo3
_chemical_formula_sum   'Er8 Nb9 Si16 Mo3'
_cell_volume   636.04958170
_cell_formula_units_Z   1
loop_
 _symmetry_equiv_pos_site_id
 _symmetry_equiv_pos_as_xyz
  1  'x, y, z'
loop_
 _atom_site_type_symbol
 _atom_site_label
 _atom_site_symmetry_multiplicity
 _atom_site_fract_x
 _atom_site_fract_y
 _atom_site_fract_z
 _atom_site_occupancy
  Er  Er0  1  0.501988  0.328154  0.094910  1
  Er  Er1  1  0.002074  0.172077  0.405000  1
  Er  Er2  1  0.497619  0.672130  0.595048  1
  Er  Er3  1  0.997227  0.827914  0.905346  1
  Er  Er4  1  0.497619  0.672130  0.904952  1
  Er  Er5  1  0.997227  0.827914  0.594654  1
  Er  Er6  1  0.501988  0.328154  0.405090  1
  Er  Er7  1  0.002074  0.172077  0.095000  1
  Nb  Nb8  1  0.835180  0.329571  0.625629  1
  Nb  Nb9  1  0.334961  0.171301  0.874615  1
  Nb  Nb10  1  0.165165  0.669927  0.126324  1
  Nb  Nb11  1  0.665680  0.829864  0.373108  1
  Nb  Nb12  1  0.165165  0.669927  0.373676  1
  Nb  Nb13  1  0.665680  0.829864  0.126892  1
  Nb  Nb14  1  0.835180  0.329571  0.874371  1
  Nb  Nb15  1  0.334961  0.171301  0.625385  1
  Nb  Nb16  1  0.660739  0.007997  0.750000  1
  Si  Si17  1  0.663885  0.037943  0.541041  1
  Si  Si18  1  0.163724  0.461265  0.957592  1
  Si  Si19  1  0.336749  0.961419  0.043038  1
  Si  Si20  1  0.836394  0.538644  0.457300  1
  Si  Si21  1  0.336749  0.961419  0.456962  1
  Si  Si22  1  0.836394  0.538644  0.042700  1
  Si  Si23  1  0.663885  0.037943  0.958959  1
  Si  Si24  1  0.163724  0.461265  0.542408  1
  Si  Si25  1  0.533793  0.381080  0.750000  1
  Si  Si26  1  0.038723  0.121750  0.750000  1
  Si  Si27  1  0.464793  0.620894  0.250000  1
  Si  Si28  1  0.965886  0.879744  0.250000  1
  Si  Si29  1  0.797906  0.628997  0.750000  1
  Si  Si30  1  0.292945  0.866440  0.750000  1
  Si  Si31  1  0.202112  0.367927  0.250000  1
  Si  Si32  1  0.702293  0.132454  0.250000  1
  Mo  Mo33  1  0.160646  0.491980  0.750000  1
  Mo  Mo34  1  0.339663  0.992394  0.250000  1
  Mo  Mo35  1  0.839211  0.507930  0.250000  1
