# generated using pymatgen
data_DyEr2UIn2Ir3
_symmetry_space_group_name_H-M   'P 1'
_cell_length_a   7.47055664
_cell_length_b   7.32360336
_cell_length_c   4.15166300
_cell_angle_alpha   90.00000000
_cell_angle_beta   90.00000000
_cell_angle_gamma   119.35139782
_symmetry_Int_Tables_number   1
_chemical_formula_structural   DyEr2UIn2Ir3
_chemical_formula_sum   'Dy1 Er2 U1 In2 Ir3'
_cell_volume   197.98486818
_cell_formula_units_Z   1
loop_
 _symmetry_equiv_pos_site_id
 _symmetry_equiv_pos_as_xyz
  1  'x, y, z'
loop_
 _atom_site_type_symbol
 _atom_site_label
 _atom_site_symmetry_multiplicity
 _atom_site_fract_x
 _atom_site_fract_y
 _atom_site_fract_z
 _atom_site_occupancy
  Dy  Dy0  1  0.000000  0.380311  0.000000  1
  Er  Er1  1  0.571222  0.595624  0.000000  1
  Er  Er2  1  0.428778  0.024403  0.000000  1
  U  U3  1  0.000000  0.733082  0.500000  1
  In  In4  1  0.257933  0.255579  0.500000  1
  In  In5  1  0.742067  0.997646  0.500000  1
  Ir  Ir6  1  0.000000  0.977172  0.000000  1
  Ir  Ir7  1  0.683389  0.359784  0.500000  1
  Ir  Ir8  1  0.316611  0.676396  0.500000  1
