# generated using pymatgen
data_Li8GeP4
_symmetry_space_group_name_H-M   'P 1'
_cell_length_a   7.12710498
_cell_length_b   7.13410455
_cell_length_c   5.88119387
_cell_angle_alpha   65.64879783
_cell_angle_beta   114.05068412
_cell_angle_gamma   131.22387625
_symmetry_Int_Tables_number   1
_chemical_formula_structural   Li8GeP4
_chemical_formula_sum   'Li8 Ge1 P4'
_cell_volume   200.83940549
_cell_formula_units_Z   1
loop_
 _symmetry_equiv_pos_site_id
 _symmetry_equiv_pos_as_xyz
  1  'x, y, z'
loop_
 _atom_site_type_symbol
 _atom_site_label
 _atom_site_symmetry_multiplicity
 _atom_site_fract_x
 _atom_site_fract_y
 _atom_site_fract_z
 _atom_site_occupancy
  Li  Li0  1  0.556307  0.174704  0.613947  1
  Li  Li1  1  0.946378  0.299711  0.477782  1
  Li  Li2  1  0.423777  0.776757  0.004828  1
  Li  Li3  1  0.170276  0.045511  0.751333  1
  Li  Li4  1  0.155469  0.036766  0.217336  1
  Li  Li5  1  0.707942  0.567504  0.757608  1
  Li  Li6  1  0.952069  0.305072  0.004517  1
  Li  Li7  1  0.690637  0.564355  0.223174  1
  Ge  Ge8  1  0.428734  0.778210  0.485746  1
  P  P9  1  0.541721  0.147837  0.138147  1
  P  P10  1  0.081158  0.686222  0.599967  1
  P  P11  1  0.779325  0.923358  0.835724  1
  P  P12  1  0.335389  0.427583  0.391574  1
