# generated using pymatgen
data_NdThNi7Rh3
_symmetry_space_group_name_H-M   'P 1'
_cell_length_a   4.04130200
_cell_length_b   5.06379241
_cell_length_c   8.79295436
_cell_angle_alpha   93.06826269
_cell_angle_beta   90.00000000
_cell_angle_gamma   90.00000000
_symmetry_Int_Tables_number   1
_chemical_formula_structural   NdThNi7Rh3
_chemical_formula_sum   'Nd1 Th1 Ni7 Rh3'
_cell_volume   179.68383087
_cell_formula_units_Z   1
loop_
 _symmetry_equiv_pos_site_id
 _symmetry_equiv_pos_as_xyz
  1  'x, y, z'
loop_
 _atom_site_type_symbol
 _atom_site_label
 _atom_site_symmetry_multiplicity
 _atom_site_fract_x
 _atom_site_fract_y
 _atom_site_fract_z
 _atom_site_occupancy
  Nd  Nd0  1  0.000000  0.500000  0.500000  1
  Th  Th1  1  0.000000  0.000000  0.000000  1
  Ni  Ni2  1  0.000000  0.980182  0.325377  1
  Ni  Ni3  1  0.000000  0.483386  0.842818  1
  Ni  Ni4  1  0.000000  0.516614  0.157182  1
  Ni  Ni5  1  0.000000  0.019818  0.674623  1
  Ni  Ni6  1  0.500000  0.500000  0.000000  1
  Ni  Ni7  1  0.500000  0.744914  0.245709  1
  Ni  Ni8  1  0.500000  0.255086  0.754291  1
  Rh  Rh9  1  0.500000  0.000000  0.500000  1
  Rh  Rh10  1  0.500000  0.247914  0.241698  1
  Rh  Rh11  1  0.500000  0.752086  0.758302  1
