# generated using pymatgen
data_Pu2PaS5
_symmetry_space_group_name_H-M   'P 1'
_cell_length_a   7.37065700
_cell_length_b   8.02168000
_cell_length_c   11.58213300
_cell_angle_alpha   90.00000000
_cell_angle_beta   90.00000000
_cell_angle_gamma   90.00000000
_symmetry_Int_Tables_number   1
_chemical_formula_structural   Pu2PaS5
_chemical_formula_sum   'Pu8 Pa4 S20'
_cell_volume   684.79421409
_cell_formula_units_Z   4
loop_
 _symmetry_equiv_pos_site_id
 _symmetry_equiv_pos_as_xyz
  1  'x, y, z'
loop_
 _atom_site_type_symbol
 _atom_site_label
 _atom_site_symmetry_multiplicity
 _atom_site_fract_x
 _atom_site_fract_y
 _atom_site_fract_z
 _atom_site_occupancy
  Pu  Pu0  1  0.524851  0.502255  0.323128  1
  Pu  Pu1  1  0.975149  0.997745  0.823128  1
  Pu  Pu2  1  0.475149  0.002255  0.676872  1
  Pu  Pu3  1  0.024851  0.497745  0.176872  1
  Pu  Pu4  1  0.475149  0.497745  0.676872  1
  Pu  Pu5  1  0.024851  0.002255  0.176872  1
  Pu  Pu6  1  0.524851  0.997745  0.323128  1
  Pu  Pu7  1  0.975149  0.502255  0.823128  1
  Pa  Pa8  1  0.078551  0.750000  0.489637  1
  Pa  Pa9  1  0.421449  0.750000  0.989637  1
  Pa  Pa10  1  0.921449  0.250000  0.510363  1
  Pa  Pa11  1  0.578551  0.250000  0.010363  1
  S  S12  1  0.833898  0.953009  0.593407  1
  S  S13  1  0.666102  0.546991  0.093407  1
  S  S14  1  0.166102  0.453009  0.406593  1
  S  S15  1  0.333898  0.046991  0.906593  1
  S  S16  1  0.166102  0.046991  0.406593  1
  S  S17  1  0.333898  0.453009  0.906593  1
  S  S18  1  0.833898  0.546991  0.593407  1
  S  S19  1  0.666102  0.953009  0.093407  1
  S  S20  1  0.835239  0.750000  0.311391  1
  S  S21  1  0.664761  0.750000  0.811391  1
  S  S22  1  0.164761  0.250000  0.688609  1
  S  S23  1  0.335239  0.250000  0.188609  1
  S  S24  1  0.458096  0.750000  0.499609  1
  S  S25  1  0.041904  0.750000  0.999609  1
  S  S26  1  0.541904  0.250000  0.500391  1
  S  S27  1  0.958096  0.250000  0.000391  1
  S  S28  1  0.197436  0.750000  0.716801  1
  S  S29  1  0.302564  0.750000  0.216801  1
  S  S30  1  0.802564  0.250000  0.283199  1
  S  S31  1  0.697436  0.250000  0.783199  1
