# generated using pymatgen
data_YbHoIrRu3
_symmetry_space_group_name_H-M   'P 1'
_cell_length_a   5.21893905
_cell_length_b   5.21893803
_cell_length_c   8.98855800
_cell_angle_alpha   90.00084501
_cell_angle_beta   89.99915748
_cell_angle_gamma   119.98826717
_symmetry_Int_Tables_number   1
_chemical_formula_structural   YbHoIrRu3
_chemical_formula_sum   'Yb2 Ho2 Ir2 Ru6'
_cell_volume   212.04906192
_cell_formula_units_Z   2
loop_
 _symmetry_equiv_pos_site_id
 _symmetry_equiv_pos_as_xyz
  1  'x, y, z'
loop_
 _atom_site_type_symbol
 _atom_site_label
 _atom_site_symmetry_multiplicity
 _atom_site_fract_x
 _atom_site_fract_y
 _atom_site_fract_z
 _atom_site_occupancy
  Yb  Yb0  1  0.333320  0.666680  0.062093  1
  Yb  Yb1  1  0.666680  0.333320  0.937907  1
  Ho  Ho2  1  0.666682  0.333318  0.573980  1
  Ho  Ho3  1  0.333318  0.666682  0.426020  1
  Ir  Ir4  1  0.000000  0.000000  0.500000  1
  Ir  Ir5  1  0.000000  0.000000  0.000000  1
  Ru  Ru6  1  0.170676  0.341258  0.748553  1
  Ru  Ru7  1  0.170655  0.829345  0.748569  1
  Ru  Ru8  1  0.658742  0.829324  0.748553  1
  Ru  Ru9  1  0.829324  0.658742  0.251447  1
  Ru  Ru10  1  0.829345  0.170655  0.251431  1
  Ru  Ru11  1  0.341258  0.170676  0.251447  1
