# generated using pymatgen
data_HoEr3TmIr3
_symmetry_space_group_name_H-M   'P 1'
_cell_length_a   10.79399100
_cell_length_b   10.79190200
_cell_length_c   6.32151900
_cell_angle_alpha   90.00000000
_cell_angle_beta   90.00000000
_cell_angle_gamma   90.00000000
_symmetry_Int_Tables_number   1
_chemical_formula_structural   HoEr3TmIr3
_chemical_formula_sum   'Ho4 Er12 Tm4 Ir12'
_cell_volume   736.37916495
_cell_formula_units_Z   4
loop_
 _symmetry_equiv_pos_site_id
 _symmetry_equiv_pos_as_xyz
  1  'x, y, z'
loop_
 _atom_site_type_symbol
 _atom_site_label
 _atom_site_symmetry_multiplicity
 _atom_site_fract_x
 _atom_site_fract_y
 _atom_site_fract_z
 _atom_site_occupancy
  Ho  Ho0  1  0.290845  0.087810  0.376969  1
  Ho  Ho1  1  0.290845  0.912190  0.876969  1
  Ho  Ho2  1  0.709155  0.087810  0.876969  1
  Ho  Ho3  1  0.709155  0.912190  0.376969  1
  Er  Er4  1  0.587708  0.790865  0.877082  1
  Er  Er5  1  0.587708  0.209135  0.377082  1
  Er  Er6  1  0.412292  0.790865  0.377082  1
  Er  Er7  1  0.412292  0.209135  0.877082  1
  Er  Er8  1  0.208934  0.412353  0.622881  1
  Er  Er9  1  0.208934  0.587647  0.122881  1
  Er  Er10  1  0.791066  0.412353  0.122881  1
  Er  Er11  1  0.791066  0.587647  0.622881  1
  Er  Er12  1  0.912450  0.708915  0.122765  1
  Er  Er13  1  0.912450  0.291085  0.622765  1
  Er  Er14  1  0.087550  0.708915  0.622765  1
  Er  Er15  1  0.087550  0.291085  0.122765  1
  Tm  Tm16  1  0.000000  0.000000  0.500133  1
  Tm  Tm17  1  0.000000  0.000000  0.000133  1
  Tm  Tm18  1  0.500000  0.500000  0.000094  1
  Tm  Tm19  1  0.500000  0.500000  0.500094  1
  Ir  Ir20  1  0.847011  0.153375  0.250259  1
  Ir  Ir21  1  0.847011  0.846625  0.750259  1
  Ir  Ir22  1  0.152989  0.153375  0.750259  1
  Ir  Ir23  1  0.152989  0.846625  0.250259  1
  Ir  Ir24  1  0.653088  0.347036  0.749881  1
  Ir  Ir25  1  0.653088  0.652964  0.249881  1
  Ir  Ir26  1  0.346912  0.347036  0.249881  1
  Ir  Ir27  1  0.346912  0.652964  0.749881  1
  Ir  Ir28  1  0.500000  0.000000  0.122136  1
  Ir  Ir29  1  0.500000  0.000000  0.622136  1
  Ir  Ir30  1  0.000000  0.500000  0.877964  1
  Ir  Ir31  1  0.000000  0.500000  0.377964  1
