# generated using pymatgen
data_Dy16Hf4Ir11Rh
_symmetry_space_group_name_H-M   'P 1'
_cell_length_a   10.84222400
_cell_length_b   10.84222400
_cell_length_c   6.25663300
_cell_angle_alpha   90.00000000
_cell_angle_beta   90.00000000
_cell_angle_gamma   90.00000000
_symmetry_Int_Tables_number   1
_chemical_formula_structural   Dy16Hf4Ir11Rh
_chemical_formula_sum   'Dy16 Hf4 Ir11 Rh1'
_cell_volume   735.49111741
_cell_formula_units_Z   1
loop_
 _symmetry_equiv_pos_site_id
 _symmetry_equiv_pos_as_xyz
  1  'x, y, z'
loop_
 _atom_site_type_symbol
 _atom_site_label
 _atom_site_symmetry_multiplicity
 _atom_site_fract_x
 _atom_site_fract_y
 _atom_site_fract_z
 _atom_site_occupancy
  Dy  Dy0  1  0.288857  0.085722  0.376386  1
  Dy  Dy1  1  0.288522  0.914066  0.874407  1
  Dy  Dy2  1  0.711478  0.085934  0.874407  1
  Dy  Dy3  1  0.711143  0.914278  0.376386  1
  Dy  Dy4  1  0.585934  0.788522  0.874407  1
  Dy  Dy5  1  0.585722  0.211143  0.376386  1
  Dy  Dy6  1  0.414278  0.788857  0.376386  1
  Dy  Dy7  1  0.414066  0.211478  0.874407  1
  Dy  Dy8  1  0.210886  0.414242  0.624647  1
  Dy  Dy9  1  0.210874  0.585970  0.124647  1
  Dy  Dy10  1  0.789126  0.414030  0.124647  1
  Dy  Dy11  1  0.789114  0.585758  0.624647  1
  Dy  Dy12  1  0.914030  0.710874  0.124647  1
  Dy  Dy13  1  0.914242  0.289114  0.624647  1
  Dy  Dy14  1  0.085758  0.710886  0.624647  1
  Dy  Dy15  1  0.085970  0.289126  0.124647  1
  Hf  Hf16  1  0.000000  0.000000  0.499953  1
  Hf  Hf17  1  0.000000  0.000000  0.000076  1
  Hf  Hf18  1  0.500000  0.500000  0.000076  1
  Hf  Hf19  1  0.500000  0.500000  0.499953  1
  Ir  Ir20  1  0.856709  0.142561  0.249739  1
  Ir  Ir21  1  0.856906  0.857391  0.749965  1
  Ir  Ir22  1  0.143094  0.142609  0.749965  1
  Ir  Ir23  1  0.143291  0.857439  0.249739  1
  Ir  Ir24  1  0.642609  0.356906  0.749965  1
  Ir  Ir25  1  0.642561  0.643291  0.249739  1
  Ir  Ir26  1  0.357439  0.356709  0.249739  1
  Ir  Ir27  1  0.357391  0.643094  0.749965  1
  Ir  Ir28  1  0.500000  0.000000  0.622487  1
  Ir  Ir29  1  0.000000  0.500000  0.878457  1
  Ir  Ir30  1  0.000000  0.500000  0.378478  1
  Rh  Rh31  1  0.500000  0.000000  0.121353  1
