# generated using pymatgen
data_La14OsRh5
_symmetry_space_group_name_H-M   'P 1'
_cell_length_a   10.20918400
_cell_length_b   10.23553322
_cell_length_c   6.57017052
_cell_angle_alpha   90.13325775
_cell_angle_beta   90.00000000
_cell_angle_gamma   119.91488615
_symmetry_Int_Tables_number   1
_chemical_formula_structural   La14OsRh5
_chemical_formula_sum   'La14 Os1 Rh5'
_cell_volume   595.08506764
_cell_formula_units_Z   1
loop_
 _symmetry_equiv_pos_site_id
 _symmetry_equiv_pos_as_xyz
  1  'x, y, z'
loop_
 _atom_site_type_symbol
 _atom_site_label
 _atom_site_symmetry_multiplicity
 _atom_site_fract_x
 _atom_site_fract_y
 _atom_site_fract_z
 _atom_site_occupancy
  La  La0  1  0.666215  0.332430  0.561616  1
  La  La1  1  0.333109  0.666220  0.060935  1
  La  La2  1  0.875360  0.750719  0.777184  1
  La  La3  1  0.248296  0.128379  0.779809  1
  La  La4  1  0.880083  0.128379  0.779809  1
  La  La5  1  0.124277  0.248554  0.272079  1
  La  La6  1  0.748497  0.873574  0.278885  1
  La  La7  1  0.125077  0.873574  0.278885  1
  La  La8  1  0.461641  0.923283  0.599118  1
  La  La9  1  0.080089  0.537208  0.599400  1
  La  La10  1  0.457118  0.537208  0.599400  1
  La  La11  1  0.539181  0.078361  0.095913  1
  La  La12  1  0.923043  0.458665  0.095875  1
  La  La13  1  0.535623  0.458665  0.095875  1
  Os  Os14  1  0.188659  0.377316  0.847311  1
  Rh  Rh15  1  0.626456  0.814487  0.838442  1
  Rh  Rh16  1  0.188032  0.814487  0.838442  1
  Rh  Rh17  1  0.811526  0.623054  0.337721  1
  Rh  Rh18  1  0.378950  0.187718  0.339177  1
  Rh  Rh19  1  0.808768  0.187718  0.339177  1
