# generated using pymatgen
data_Cd(Sn2Ir)3
_symmetry_space_group_name_H-M   'P 1'
_cell_length_a   8.25116608
_cell_length_b   8.25116659
_cell_length_c   8.24470697
_cell_angle_alpha   108.95888658
_cell_angle_beta   108.95888458
_cell_angle_gamma   110.53193423
_symmetry_Int_Tables_number   1
_chemical_formula_structural   Cd(Sn2Ir)3
_chemical_formula_sum   'Cd2 Sn12 Ir6'
_cell_volume   431.82570773
_cell_formula_units_Z   2
loop_
 _symmetry_equiv_pos_site_id
 _symmetry_equiv_pos_as_xyz
  1  'x, y, z'
loop_
 _atom_site_type_symbol
 _atom_site_label
 _atom_site_symmetry_multiplicity
 _atom_site_fract_x
 _atom_site_fract_y
 _atom_site_fract_z
 _atom_site_occupancy
  Cd  Cd0  1  0.252177  0.502742  0.754919  1
  Cd  Cd1  1  0.497258  0.747823  0.245081  1
  Sn  Sn2  1  0.747658  0.502827  0.250485  1
  Sn  Sn3  1  0.497173  0.252342  0.749515  1
  Sn  Sn4  1  0.752215  0.247785  0.500000  1
  Sn  Sn5  1  0.252215  0.747785  0.500000  1
  Sn  Sn6  1  0.003872  0.674057  0.000000  1
  Sn  Sn7  1  0.670492  0.993925  0.000000  1
  Sn  Sn8  1  0.999992  0.002620  0.673718  1
  Sn  Sn9  1  0.326274  0.328902  0.326282  1
  Sn  Sn10  1  0.325943  0.996128  0.000000  1
  Sn  Sn11  1  0.006075  0.329508  0.000000  1
  Sn  Sn12  1  0.997380  0.000008  0.326282  1
  Sn  Sn13  1  0.671098  0.673726  0.673718  1
  Ir  Ir14  1  0.668298  0.654295  0.000000  1
  Ir  Ir15  1  0.658399  0.007325  0.665724  1
  Ir  Ir16  1  0.345705  0.331702  0.000000  1
  Ir  Ir17  1  0.342929  0.007828  0.350756  1
  Ir  Ir18  1  0.992172  0.657071  0.649244  1
  Ir  Ir19  1  0.992675  0.341601  0.334276  1
