# generated using pymatgen
data_Th4Ni4SnPd
_symmetry_space_group_name_H-M   'P 1'
_cell_length_a   7.50617600
_cell_length_b   7.50617600
_cell_length_c   3.71170700
_cell_angle_alpha   90.00000000
_cell_angle_beta   90.00000000
_cell_angle_gamma   90.00000000
_symmetry_Int_Tables_number   1
_chemical_formula_structural   Th4Ni4SnPd
_chemical_formula_sum   'Th4 Ni4 Sn1 Pd1'
_cell_volume   209.12751286
_cell_formula_units_Z   1
loop_
 _symmetry_equiv_pos_site_id
 _symmetry_equiv_pos_as_xyz
  1  'x, y, z'
loop_
 _atom_site_type_symbol
 _atom_site_label
 _atom_site_symmetry_multiplicity
 _atom_site_fract_x
 _atom_site_fract_y
 _atom_site_fract_z
 _atom_site_occupancy
  Th  Th0  1  0.666769  0.185519  0.500000  1
  Th  Th1  1  0.333231  0.814481  0.500000  1
  Th  Th2  1  0.185519  0.333231  0.500000  1
  Th  Th3  1  0.814481  0.666769  0.500000  1
  Ni  Ni4  1  0.878280  0.374598  0.000000  1
  Ni  Ni5  1  0.121720  0.625402  0.000000  1
  Ni  Ni6  1  0.374598  0.121720  0.000000  1
  Ni  Ni7  1  0.625402  0.878280  0.000000  1
  Sn  Sn8  1  0.000000  0.000000  0.000000  1
  Pd  Pd9  1  0.500000  0.500000  0.000000  1
