# generated using pymatgen
data_Ho2Er2Lu(ReO6)2
_symmetry_space_group_name_H-M   'P 1'
_cell_length_a   6.78431767
_cell_length_b   6.78431792
_cell_length_c   7.45877473
_cell_angle_alpha   73.82338393
_cell_angle_beta   73.82338487
_cell_angle_gamma   49.19745007
_symmetry_Int_Tables_number   1
_chemical_formula_structural   Ho2Er2Lu(ReO6)2
_chemical_formula_sum   'Ho2 Er2 Lu1 Re2 O12'
_cell_volume   247.37044771
_cell_formula_units_Z   1
loop_
 _symmetry_equiv_pos_site_id
 _symmetry_equiv_pos_as_xyz
  1  'x, y, z'
loop_
 _atom_site_type_symbol
 _atom_site_label
 _atom_site_symmetry_multiplicity
 _atom_site_fract_x
 _atom_site_fract_y
 _atom_site_fract_z
 _atom_site_occupancy
  Ho  Ho0  1  0.697396  0.697396  0.640883  1
  Ho  Ho1  1  0.302604  0.302604  0.359117  1
  Er  Er2  1  0.314908  0.314908  0.823389  1
  Er  Er3  1  0.685092  0.685092  0.176611  1
  Lu  Lu4  1  0.000000  0.000000  0.500000  1
  Re  Re5  1  0.214225  0.785775  0.000000  1
  Re  Re6  1  0.785775  0.214225  0.000000  1
  O  O7  1  0.499106  0.499106  0.179019  1
  O  O8  1  0.500894  0.500894  0.820981  1
  O  O9  1  0.000941  0.000941  0.209674  1
  O  O10  1  0.999059  0.999059  0.790326  1
  O  O11  1  0.913171  0.419970  0.914487  1
  O  O12  1  0.580030  0.086829  0.085513  1
  O  O13  1  0.086829  0.580030  0.085513  1
  O  O14  1  0.597927  0.098580  0.572893  1
  O  O15  1  0.901420  0.402073  0.427107  1
  O  O16  1  0.402073  0.901420  0.427107  1
  O  O17  1  0.098580  0.597927  0.572893  1
  O  O18  1  0.419970  0.913171  0.914487  1
