# generated using pymatgen
data_Cs5As(PSe3)4
_symmetry_space_group_name_H-M   'P 1'
_cell_length_a   14.24338700
_cell_length_b   14.24338700
_cell_length_c   7.76650400
_cell_angle_alpha   90.00000000
_cell_angle_beta   90.00000000
_cell_angle_gamma   90.00000000
_symmetry_Int_Tables_number   1
_chemical_formula_structural   Cs5As(PSe3)4
_chemical_formula_sum   'Cs10 As2 P8 Se24'
_cell_volume   1575.62230125
_cell_formula_units_Z   2
loop_
 _symmetry_equiv_pos_site_id
 _symmetry_equiv_pos_as_xyz
  1  'x, y, z'
loop_
 _atom_site_type_symbol
 _atom_site_label
 _atom_site_symmetry_multiplicity
 _atom_site_fract_x
 _atom_site_fract_y
 _atom_site_fract_z
 _atom_site_occupancy
  Cs  Cs0  1  0.000000  0.000000  0.500000  1
  Cs  Cs1  1  0.000000  0.000000  0.000000  1
  Cs  Cs2  1  0.316323  0.341474  0.500000  1
  Cs  Cs3  1  0.683677  0.658526  0.500000  1
  Cs  Cs4  1  0.658526  0.316323  0.000000  1
  Cs  Cs5  1  0.341474  0.683677  0.000000  1
  Cs  Cs6  1  0.319393  0.969207  0.500000  1
  Cs  Cs7  1  0.680607  0.030793  0.500000  1
  Cs  Cs8  1  0.030793  0.319393  0.000000  1
  Cs  Cs9  1  0.969207  0.680607  0.000000  1
  As  As10  1  0.000000  0.500000  0.500000  1
  As  As11  1  0.500000  0.000000  0.000000  1
  P  P12  1  0.199265  0.607381  0.500000  1
  P  P13  1  0.800735  0.392619  0.500000  1
  P  P14  1  0.392619  0.199265  0.000000  1
  P  P15  1  0.607381  0.800735  0.000000  1
  P  P16  1  0.113818  0.744371  0.500000  1
  P  P17  1  0.886182  0.255629  0.500000  1
  P  P18  1  0.255629  0.113818  0.000000  1
  P  P19  1  0.744371  0.886182  0.000000  1
  Se  Se20  1  0.150098  0.819567  0.263835  1
  Se  Se21  1  0.849902  0.180433  0.263835  1
  Se  Se22  1  0.180433  0.150098  0.763835  1
  Se  Se23  1  0.819567  0.849902  0.763835  1
  Se  Se24  1  0.849902  0.180433  0.736165  1
  Se  Se25  1  0.150098  0.819567  0.736165  1
  Se  Se26  1  0.819567  0.849902  0.236165  1
  Se  Se27  1  0.180433  0.150098  0.236165  1
  Se  Se28  1  0.033337  0.311230  0.500000  1
  Se  Se29  1  0.966663  0.688770  0.500000  1
  Se  Se30  1  0.688770  0.033337  0.000000  1
  Se  Se31  1  0.311230  0.966663  0.000000  1
  Se  Se32  1  0.347956  0.631348  0.500000  1
  Se  Se33  1  0.652044  0.368652  0.500000  1
  Se  Se34  1  0.368652  0.347956  0.000000  1
  Se  Se35  1  0.631348  0.652044  0.000000  1
  Se  Se36  1  0.144412  0.528616  0.271886  1
  Se  Se37  1  0.855588  0.471384  0.271886  1
  Se  Se38  1  0.471384  0.144412  0.771886  1
  Se  Se39  1  0.528616  0.855588  0.771886  1
  Se  Se40  1  0.855588  0.471384  0.728114  1
  Se  Se41  1  0.144412  0.528616  0.728114  1
  Se  Se42  1  0.528616  0.855588  0.228114  1
  Se  Se43  1  0.471384  0.144412  0.228114  1
