# generated using pymatgen
data_Li4MgIn7Rh4
_symmetry_space_group_name_H-M   'P 1'
_cell_length_a   6.50881019
_cell_length_b   4.61567100
_cell_length_c   9.23329527
_cell_angle_alpha   90.00000000
_cell_angle_beta   90.02750362
_cell_angle_gamma   90.00000000
_symmetry_Int_Tables_number   1
_chemical_formula_structural   Li4MgIn7Rh4
_chemical_formula_sum   'Li4 Mg1 In7 Rh4'
_cell_volume   277.39148507
_cell_formula_units_Z   1
loop_
 _symmetry_equiv_pos_site_id
 _symmetry_equiv_pos_as_xyz
  1  'x, y, z'
loop_
 _atom_site_type_symbol
 _atom_site_label
 _atom_site_symmetry_multiplicity
 _atom_site_fract_x
 _atom_site_fract_y
 _atom_site_fract_z
 _atom_site_occupancy
  Li  Li0  1  0.250024  0.250000  0.123203  1
  Li  Li1  1  0.750515  0.750001  0.377099  1
  Li  Li2  1  0.249377  0.250000  0.623248  1
  Li  Li3  1  0.750068  0.750001  0.876400  1
  Mg  Mg4  1  0.000595  0.750001  0.125784  1
  In  In5  1  0.498878  0.750001  0.125928  1
  In  In6  1  0.000631  0.250000  0.372392  1
  In  In7  1  0.499506  0.250000  0.374039  1
  In  In8  1  0.501125  0.750001  0.625821  1
  In  In9  1  0.999466  0.750001  0.625941  1
  In  In10  1  0.499485  0.250000  0.874154  1
  In  In11  1  0.000591  0.250000  0.875916  1
  Rh  Rh12  1  0.750333  0.250000  0.124029  1
  Rh  Rh13  1  0.250667  0.750001  0.375685  1
  Rh  Rh14  1  0.747774  0.250000  0.623978  1
  Rh  Rh15  1  0.250962  0.750001  0.876383  1
