# generated using pymatgen
data_PrAl7Cu5
_symmetry_space_group_name_H-M   'P 1'
_cell_length_a   6.72452344
_cell_length_b   6.72452334
_cell_length_c   6.72452331
_cell_angle_alpha   134.59141292
_cell_angle_beta   99.04371258
_cell_angle_gamma   98.09215762
_symmetry_Int_Tables_number   1
_chemical_formula_structural   PrAl7Cu5
_chemical_formula_sum   'Pr1 Al7 Cu5'
_cell_volume   199.75380059
_cell_formula_units_Z   1
loop_
 _symmetry_equiv_pos_site_id
 _symmetry_equiv_pos_as_xyz
  1  'x, y, z'
loop_
 _atom_site_type_symbol
 _atom_site_label
 _atom_site_symmetry_multiplicity
 _atom_site_fract_x
 _atom_site_fract_y
 _atom_site_fract_z
 _atom_site_occupancy
  Pr  Pr0  1  0.999991  0.000000  0.999991  1
  Al  Al1  1  0.350574  0.000000  0.350574  1
  Al  Al2  1  0.652821  0.000000  0.652821  1
  Al  Al3  1  0.658122  0.649913  0.008210  1
  Al  Al4  1  0.358296  0.350087  0.008210  1
  Al  Al5  1  0.229131  0.500000  0.729131  1
  Al  Al6  1  0.208134  0.714802  0.493332  1
  Al  Al7  1  0.778529  0.285198  0.493332  1
  Cu  Cu8  1  0.495736  0.995583  0.995728  1
  Cu  Cu9  1  0.495736  0.500008  0.500153  1
  Cu  Cu10  1  0.000145  0.499992  0.995728  1
  Cu  Cu11  1  0.000145  0.004417  0.500153  1
  Cu  Cu12  1  0.772640  0.500000  0.272640  1
