# generated using pymatgen
data_Dy3HoCo17(Si4Ni)3
_symmetry_space_group_name_H-M   'P 1'
_cell_length_a   3.72404900
_cell_length_b   6.77155719
_cell_length_c   18.34695238
_cell_angle_alpha   89.85546039
_cell_angle_beta   90.00000000
_cell_angle_gamma   90.00000000
_symmetry_Int_Tables_number   1
_chemical_formula_structural   Dy3HoCo17(Si4Ni)3
_chemical_formula_sum   'Dy3 Ho1 Co17 Si12 Ni3'
_cell_volume   462.66483229
_cell_formula_units_Z   1
loop_
 _symmetry_equiv_pos_site_id
 _symmetry_equiv_pos_as_xyz
  1  'x, y, z'
loop_
 _atom_site_type_symbol
 _atom_site_label
 _atom_site_symmetry_multiplicity
 _atom_site_fract_x
 _atom_site_fract_y
 _atom_site_fract_z
 _atom_site_occupancy
  Dy  Dy0  1  0.750000  0.127064  0.643333  1
  Dy  Dy1  1  0.750000  0.373235  0.142178  1
  Dy  Dy2  1  0.250000  0.625307  0.857352  1
  Ho  Ho3  1  0.250000  0.872988  0.356925  1
  Co  Co4  1  0.250000  0.056747  0.203524  1
  Co  Co5  1  0.750000  0.942983  0.795955  1
  Co  Co6  1  0.750000  0.557422  0.295127  1
  Co  Co7  1  0.250000  0.442367  0.705020  1
  Co  Co8  1  0.250000  0.625276  0.488487  1
  Co  Co9  1  0.750000  0.374366  0.511486  1
  Co  Co10  1  0.750000  0.121338  0.009652  1
  Co  Co11  1  0.250000  0.873934  0.990120  1
  Co  Co12  1  0.250000  0.679138  0.202022  1
  Co  Co13  1  0.750000  0.321544  0.799079  1
  Co  Co14  1  0.750000  0.178393  0.297184  1
  Co  Co15  1  0.250000  0.821064  0.702696  1
  Co  Co16  1  0.250000  0.358180  0.386466  1
  Co  Co17  1  0.750000  0.641878  0.613226  1
  Co  Co18  1  0.750000  0.864389  0.111111  1
  Co  Co19  1  0.250000  0.136401  0.889332  1
  Co  Co20  1  0.250000  0.374841  0.005118  1
  Si  Si21  1  0.250000  0.092916  0.080539  1
  Si  Si22  1  0.750000  0.911208  0.917979  1
  Si  Si23  1  0.750000  0.584360  0.417706  1
  Si  Si24  1  0.250000  0.415432  0.582261  1
  Si  Si25  1  0.250000  0.649823  0.077077  1
  Si  Si26  1  0.750000  0.349290  0.924648  1
  Si  Si27  1  0.750000  0.155610  0.422199  1
  Si  Si28  1  0.250000  0.844268  0.577440  1
  Si  Si29  1  0.250000  0.367281  0.262943  1
  Si  Si30  1  0.750000  0.631771  0.736784  1
  Si  Si31  1  0.750000  0.868249  0.235927  1
  Si  Si32  1  0.250000  0.132257  0.764404  1
  Ni  Ni33  1  0.750000  0.628760  0.995064  1
  Ni  Ni34  1  0.750000  0.874063  0.494400  1
  Ni  Ni35  1  0.250000  0.125856  0.505234  1
