# generated using pymatgen
data_SrPr4Tm2CoBr12
_symmetry_space_group_name_H-M   'P 1'
_cell_length_a   9.34986726
_cell_length_b   9.62903263
_cell_length_c   9.37701944
_cell_angle_alpha   104.50623439
_cell_angle_beta   106.48087891
_cell_angle_gamma   106.96748045
_symmetry_Int_Tables_number   1
_chemical_formula_structural   SrPr4Tm2CoBr12
_chemical_formula_sum   'Sr1 Pr4 Tm2 Co1 Br12'
_cell_volume   721.36373418
_cell_formula_units_Z   1
loop_
 _symmetry_equiv_pos_site_id
 _symmetry_equiv_pos_as_xyz
  1  'x, y, z'
loop_
 _atom_site_type_symbol
 _atom_site_label
 _atom_site_symmetry_multiplicity
 _atom_site_fract_x
 _atom_site_fract_y
 _atom_site_fract_z
 _atom_site_occupancy
  Sr  Sr0  1  0.500000  0.500000  0.500000  1
  Pr  Pr1  1  0.101624  0.306221  0.009189  1
  Pr  Pr2  1  0.299509  0.021132  0.097453  1
  Pr  Pr3  1  0.898376  0.693779  0.990811  1
  Pr  Pr4  1  0.700491  0.978868  0.902547  1
  Tm  Tm5  1  0.978291  0.902698  0.698576  1
  Tm  Tm6  1  0.021709  0.097302  0.301424  1
  Co  Co7  1  0.000000  0.000000  0.000000  1
  Br  Br8  1  0.543526  0.631665  0.850741  1
  Br  Br9  1  0.456474  0.368335  0.149259  1
  Br  Br10  1  0.305779  0.924792  0.768967  1
  Br  Br11  1  0.359625  0.150940  0.450815  1
  Br  Br12  1  0.938714  0.801697  0.341158  1
  Br  Br13  1  0.694221  0.075208  0.231033  1
  Br  Br14  1  0.061286  0.198303  0.658842  1
  Br  Br15  1  0.773967  0.315692  0.919766  1
  Br  Br16  1  0.226033  0.684308  0.080234  1
  Br  Br17  1  0.864547  0.572729  0.639347  1
  Br  Br18  1  0.135453  0.427271  0.360653  1
  Br  Br19  1  0.640375  0.849060  0.549185  1
