# generated using pymatgen
data_Ho3Pa5Ti3Si16W9
_symmetry_space_group_name_H-M   'P 1'
_cell_length_a   6.91876048
_cell_length_b   6.91145856
_cell_length_c   12.86883002
_cell_angle_alpha   89.78450524
_cell_angle_beta   90.14060449
_cell_angle_gamma   89.60067041
_symmetry_Int_Tables_number   1
_chemical_formula_structural   Ho3Pa5Ti3Si16W9
_chemical_formula_sum   'Ho3 Pa5 Ti3 Si16 W9'
_cell_volume   615.34987000
_cell_formula_units_Z   1
loop_
 _symmetry_equiv_pos_site_id
 _symmetry_equiv_pos_as_xyz
  1  'x, y, z'
loop_
 _atom_site_type_symbol
 _atom_site_label
 _atom_site_symmetry_multiplicity
 _atom_site_fract_x
 _atom_site_fract_y
 _atom_site_fract_z
 _atom_site_occupancy
  Ho  Ho0  1  0.337168  0.000307  0.469462  1
  Ho  Ho1  1  0.499754  0.836072  0.719280  1
  Ho  Ho2  1  0.497688  0.163267  0.219083  1
  Pa  Pa3  1  0.839588  0.501295  0.279298  1
  Pa  Pa4  1  0.162156  0.495514  0.779850  1
  Pa  Pa5  1  0.661201  0.001479  0.971082  1
  Pa  Pa6  1  0.997240  0.338969  0.528934  1
  Pa  Pa7  1  0.002609  0.661317  0.028043  1
  Ti  Ti8  1  0.162694  0.827396  0.249158  1
  Ti  Ti9  1  0.836328  0.171602  0.751231  1
  Ti  Ti10  1  0.673110  0.661476  0.498877  1
  Si  Si11  1  0.200725  0.121594  0.681945  1
  Si  Si12  1  0.381394  0.700282  0.931198  1
  Si  Si13  1  0.622715  0.298113  0.432053  1
  Si  Si14  1  0.697906  0.378613  0.068119  1
  Si  Si15  1  0.299035  0.627357  0.566523  1
  Si  Si16  1  0.798397  0.876711  0.184038  1
  Si  Si17  1  0.128268  0.200726  0.316907  1
  Si  Si18  1  0.873853  0.798990  0.815553  1
  Si  Si19  1  0.279623  0.967371  0.064061  1
  Si  Si20  1  0.535592  0.789689  0.314776  1
  Si  Si21  1  0.464884  0.211756  0.814033  1
  Si  Si22  1  0.785246  0.535167  0.686400  1
  Si  Si23  1  0.215634  0.463063  0.184314  1
  Si  Si24  1  0.709734  0.036125  0.564389  1
  Si  Si25  1  0.966985  0.279899  0.937635  1
  Si  Si26  1  0.037812  0.713846  0.435634  1
  W  W27  1  0.329788  0.336050  0.997890  1
  W  W28  1  0.165624  0.991379  0.871416  1
  W  W29  1  0.503676  0.671892  0.124588  1
  W  W30  1  0.497592  0.336864  0.624252  1
  W  W31  1  0.676085  0.503557  0.878432  1
  W  W32  1  0.332136  0.500010  0.377834  1
  W  W33  1  0.838250  0.001592  0.376328  1
  W  W34  1  0.990827  0.169262  0.130893  1
  W  W35  1  0.998681  0.831402  0.626494  1
