# generated using pymatgen
data_CaSmNiRh3
_symmetry_space_group_name_H-M   'P 1'
_cell_length_a   5.40012705
_cell_length_b   5.40012746
_cell_length_c   5.23050968
_cell_angle_alpha   58.92134609
_cell_angle_beta   58.92133559
_cell_angle_gamma   59.99999994
_symmetry_Int_Tables_number   1
_chemical_formula_structural   CaSmNiRh3
_chemical_formula_sum   'Ca1 Sm1 Ni1 Rh3'
_cell_volume   106.06215499
_cell_formula_units_Z   1
loop_
 _symmetry_equiv_pos_site_id
 _symmetry_equiv_pos_as_xyz
  1  'x, y, z'
loop_
 _atom_site_type_symbol
 _atom_site_label
 _atom_site_symmetry_multiplicity
 _atom_site_fract_x
 _atom_site_fract_y
 _atom_site_fract_z
 _atom_site_occupancy
  Ca  Ca0  1  0.751622  0.751622  0.745135  1
  Sm  Sm1  1  0.499061  0.499061  0.502817  1
  Ni  Ni2  1  0.124604  0.124604  0.626188  1
  Rh  Rh3  1  0.124790  0.625133  0.125287  1
  Rh  Rh4  1  0.124790  0.124790  0.125287  1
  Rh  Rh5  1  0.625133  0.124790  0.125287  1
