# generated using pymatgen
data_LiTm8CdCo2
_symmetry_space_group_name_H-M   'P 1'
_cell_length_a   9.38418307
_cell_length_b   9.38418468
_cell_length_c   9.41390500
_cell_angle_alpha   59.89517541
_cell_angle_beta   59.89516969
_cell_angle_gamma   59.76753153
_symmetry_Int_Tables_number   1
_chemical_formula_structural   LiTm8CdCo2
_chemical_formula_sum   'Li2 Tm16 Cd2 Co4'
_cell_volume   584.24026739
_cell_formula_units_Z   2
loop_
 _symmetry_equiv_pos_site_id
 _symmetry_equiv_pos_as_xyz
  1  'x, y, z'
loop_
 _atom_site_type_symbol
 _atom_site_label
 _atom_site_symmetry_multiplicity
 _atom_site_fract_x
 _atom_site_fract_y
 _atom_site_fract_z
 _atom_site_occupancy
  Li  Li0  1  0.822362  0.822362  0.529393  1
  Li  Li1  1  0.822362  0.822362  0.825881  1
  Tm  Tm2  1  0.438938  0.438938  0.061062  1
  Tm  Tm3  1  0.594933  0.594933  0.596972  1
  Tm  Tm4  1  0.187533  0.813221  0.812778  1
  Tm  Tm5  1  0.066070  0.066070  0.433930  1
  Tm  Tm6  1  0.436012  0.064173  0.062582  1
  Tm  Tm7  1  0.813221  0.187533  0.812778  1
  Tm  Tm8  1  0.436012  0.064173  0.437234  1
  Tm  Tm9  1  0.593129  0.218610  0.594131  1
  Tm  Tm10  1  0.810824  0.810824  0.189176  1
  Tm  Tm11  1  0.218610  0.593129  0.594131  1
  Tm  Tm12  1  0.813221  0.187533  0.186468  1
  Tm  Tm13  1  0.064173  0.436012  0.437234  1
  Tm  Tm14  1  0.187533  0.813221  0.186468  1
  Tm  Tm15  1  0.594933  0.594933  0.213163  1
  Tm  Tm16  1  0.186402  0.186402  0.813598  1
  Tm  Tm17  1  0.064173  0.436012  0.062582  1
  Cd  Cd18  1  0.508745  0.833247  0.829003  1
  Cd  Cd19  1  0.833247  0.508745  0.829003  1
  Co  Co20  1  0.392631  0.392631  0.388140  1
  Co  Co21  1  0.827978  0.394332  0.388845  1
  Co  Co22  1  0.394332  0.827978  0.388845  1
  Co  Co23  1  0.392631  0.392631  0.826600  1
