# generated using pymatgen
data_Li4Er6Zn19S
_symmetry_space_group_name_H-M   'P 1'
_cell_length_a   9.04292134
_cell_length_b   9.04295645
_cell_length_c   9.04373000
_cell_angle_alpha   59.77518504
_cell_angle_beta   59.77528278
_cell_angle_gamma   59.77409268
_symmetry_Int_Tables_number   1
_chemical_formula_structural   Li4Er6Zn19S
_chemical_formula_sum   'Li4 Er6 Zn19 S1'
_cell_volume   520.26673136
_cell_formula_units_Z   1
loop_
 _symmetry_equiv_pos_site_id
 _symmetry_equiv_pos_as_xyz
  1  'x, y, z'
loop_
 _atom_site_type_symbol
 _atom_site_label
 _atom_site_symmetry_multiplicity
 _atom_site_fract_x
 _atom_site_fract_y
 _atom_site_fract_z
 _atom_site_occupancy
  Li  Li0  1  0.626267  0.125058  0.125018  1
  Li  Li1  1  0.125047  0.626269  0.125025  1
  Li  Li2  1  0.125053  0.125038  0.626246  1
  Li  Li3  1  0.001466  0.001485  0.001476  1
  Er  Er4  1  0.713966  0.288610  0.288588  1
  Er  Er5  1  0.709423  0.290518  0.709417  1
  Er  Er6  1  0.709427  0.709430  0.290511  1
  Er  Er7  1  0.290517  0.709428  0.709428  1
  Er  Er8  1  0.288629  0.713965  0.288595  1
  Er  Er9  1  0.288597  0.288602  0.713988  1
  Zn  Zn10  1  0.122718  0.122720  0.122723  1
  Zn  Zn11  1  0.368793  0.875063  0.875085  1
  Zn  Zn12  1  0.875070  0.368792  0.875080  1
  Zn  Zn13  1  0.875078  0.875072  0.368792  1
  Zn  Zn14  1  0.877651  0.877656  0.877649  1
  Zn  Zn15  1  0.501184  0.000065  0.000078  1
  Zn  Zn16  1  0.499714  0.001777  0.499709  1
  Zn  Zn17  1  0.499708  0.499708  0.001782  1
  Zn  Zn18  1  0.001784  0.499704  0.499712  1
  Zn  Zn19  1  0.000064  0.501186  0.000082  1
  Zn  Zn20  1  0.000068  0.000068  0.501200  1
  Zn  Zn21  1  0.012879  0.330096  0.330103  1
  Zn  Zn22  1  0.330098  0.012885  0.330099  1
  Zn  Zn23  1  0.330106  0.330098  0.012865  1
  Zn  Zn24  1  0.328504  0.328504  0.328506  1
  Zn  Zn25  1  0.987864  0.670523  0.670529  1
  Zn  Zn26  1  0.670524  0.987859  0.670532  1
  Zn  Zn27  1  0.670516  0.670521  0.987884  1
  Zn  Zn28  1  0.670106  0.670111  0.670122  1
  S  S29  1  0.499179  0.499188  0.499178  1
