# generated using pymatgen
data_PmTh(NiP)2
_symmetry_space_group_name_H-M   'P 1'
_cell_length_a   5.66035578
_cell_length_b   5.66035568
_cell_length_c   5.66035550
_cell_angle_alpha   138.38698427
_cell_angle_beta   104.31407596
_cell_angle_gamma   90.29310158
_symmetry_Int_Tables_number   1
_chemical_formula_structural   PmTh(NiP)2
_chemical_formula_sum   'Pm1 Th1 Ni2 P2'
_cell_volume   111.49762344
_cell_formula_units_Z   1
loop_
 _symmetry_equiv_pos_site_id
 _symmetry_equiv_pos_as_xyz
  1  'x, y, z'
loop_
 _atom_site_type_symbol
 _atom_site_label
 _atom_site_symmetry_multiplicity
 _atom_site_fract_x
 _atom_site_fract_y
 _atom_site_fract_z
 _atom_site_occupancy
  Pm  Pm0  1  0.000079  0.000000  0.000079  1
  Th  Th1  1  0.499663  0.500000  0.999663  1
  Ni  Ni2  1  0.915551  0.248733  0.666819  1
  Ni  Ni3  1  0.418087  0.751268  0.666820  1
  P  P4  1  0.581851  0.248542  0.333309  1
  P  P5  1  0.084769  0.751459  0.333310  1
