# generated using pymatgen
data_Ca4Hf(TcO4)3
_symmetry_space_group_name_H-M   'P 1'
_cell_length_a   5.40238058
_cell_length_b   5.63549880
_cell_length_c   7.76843800
_cell_angle_alpha   89.72333615
_cell_angle_beta   89.73776368
_cell_angle_gamma   90.06786824
_symmetry_Int_Tables_number   1
_chemical_formula_structural   Ca4Hf(TcO4)3
_chemical_formula_sum   'Ca4 Hf1 Tc3 O12'
_cell_volume   236.50553745
_cell_formula_units_Z   1
loop_
 _symmetry_equiv_pos_site_id
 _symmetry_equiv_pos_as_xyz
  1  'x, y, z'
loop_
 _atom_site_type_symbol
 _atom_site_label
 _atom_site_symmetry_multiplicity
 _atom_site_fract_x
 _atom_site_fract_y
 _atom_site_fract_z
 _atom_site_occupancy
  Ca  Ca0  1  0.984012  0.055502  0.244735  1
  Ca  Ca1  1  0.515022  0.559163  0.245633  1
  Ca  Ca2  1  0.484980  0.440839  0.754367  1
  Ca  Ca3  1  0.015988  0.944496  0.755265  1
  Hf  Hf4  1  0.000000  0.500000  0.500000  1
  Tc  Tc5  1  0.500000  0.000000  0.000000  1
  Tc  Tc6  1  0.000000  0.500000  0.000000  1
  Tc  Tc7  1  0.500000  0.000000  0.500000  1
  O  O8  1  0.701198  0.294196  0.047397  1
  O  O9  1  0.799686  0.794391  0.047841  1
  O  O10  1  0.102060  0.466407  0.247261  1
  O  O11  1  0.403591  0.971210  0.250680  1
  O  O12  1  0.692688  0.298000  0.446180  1
  O  O13  1  0.801228  0.801937  0.444755  1
  O  O14  1  0.198772  0.198065  0.555246  1
  O  O15  1  0.307310  0.701998  0.553821  1
  O  O16  1  0.596409  0.028791  0.749320  1
  O  O17  1  0.897942  0.533592  0.752739  1
  O  O18  1  0.200314  0.205611  0.952158  1
  O  O19  1  0.298800  0.705802  0.952602  1
