# generated using pymatgen
data_LiYb(ScHg2)2
_symmetry_space_group_name_H-M   'P 1'
_cell_length_a   7.15632101
_cell_length_b   7.15353300
_cell_length_c   6.93912301
_cell_angle_alpha   89.99962563
_cell_angle_beta   89.99365959
_cell_angle_gamma   90.00000000
_symmetry_Int_Tables_number   1
_chemical_formula_structural   LiYb(ScHg2)2
_chemical_formula_sum   'Li2 Yb2 Sc4 Hg8'
_cell_volume   355.23437299
_cell_formula_units_Z   2
loop_
 _symmetry_equiv_pos_site_id
 _symmetry_equiv_pos_as_xyz
  1  'x, y, z'
loop_
 _atom_site_type_symbol
 _atom_site_label
 _atom_site_symmetry_multiplicity
 _atom_site_fract_x
 _atom_site_fract_y
 _atom_site_fract_z
 _atom_site_occupancy
  Li  Li0  1  0.749904  0.249994  0.499969  1
  Li  Li1  1  0.250096  0.750007  0.500031  1
  Yb  Yb2  1  0.750059  0.250003  0.000033  1
  Yb  Yb3  1  0.249942  0.749997  0.999967  1
  Sc  Sc4  1  0.249953  0.249951  0.999925  1
  Sc  Sc5  1  0.750046  0.750049  0.000075  1
  Sc  Sc6  1  0.749908  0.749994  0.499991  1
  Sc  Sc7  1  0.250092  0.250006  0.500010  1
  Hg  Hg8  1  0.499964  0.000003  0.264625  1
  Hg  Hg9  1  0.499983  0.500011  0.264620  1
  Hg  Hg10  1  0.999993  0.999992  0.264796  1
  Hg  Hg11  1  0.000001  0.500002  0.264781  1
  Hg  Hg12  1  0.000007  0.000008  0.735204  1
  Hg  Hg13  1  0.999999  0.499998  0.735219  1
  Hg  Hg14  1  0.500017  0.499989  0.735379  1
  Hg  Hg15  1  0.500035  0.999997  0.735375  1
