# generated using pymatgen
data_Zr6Zn22IrS
_symmetry_space_group_name_H-M   'P 1'
_cell_length_a   8.72072761
_cell_length_b   8.78480095
_cell_length_c   8.78480581
_cell_angle_alpha   59.65597377
_cell_angle_beta   60.24085943
_cell_angle_gamma   60.24092354
_symmetry_Int_Tables_number   1
_chemical_formula_structural   Zr6Zn22IrS
_chemical_formula_sum   'Zr6 Zn22 Ir1 S1'
_cell_volume   476.34715462
_cell_formula_units_Z   1
loop_
 _symmetry_equiv_pos_site_id
 _symmetry_equiv_pos_as_xyz
  1  'x, y, z'
loop_
 _atom_site_type_symbol
 _atom_site_label
 _atom_site_symmetry_multiplicity
 _atom_site_fract_x
 _atom_site_fract_y
 _atom_site_fract_z
 _atom_site_occupancy
  Zr  Zr0  1  0.704735  0.295266  0.295265  1
  Zr  Zr1  1  0.295265  0.704735  0.704734  1
  Zr  Zr2  1  0.299370  0.709090  0.290909  1
  Zr  Zr3  1  0.700632  0.290911  0.709089  1
  Zr  Zr4  1  0.299371  0.290911  0.709088  1
  Zr  Zr5  1  0.700629  0.709089  0.290911  1
  Zn  Zn6  1  0.124446  0.121662  0.121659  1
  Zn  Zn7  1  0.875555  0.878340  0.878339  1
  Zn  Zn8  1  0.120813  0.121397  0.636979  1
  Zn  Zn9  1  0.120815  0.636973  0.121397  1
  Zn  Zn10  1  0.879184  0.878601  0.363029  1
  Zn  Zn11  1  0.879188  0.363023  0.878602  1
  Zn  Zn12  1  0.632234  0.121660  0.121660  1
  Zn  Zn13  1  0.367764  0.878342  0.878339  1
  Zn  Zn14  1  0.000000  0.500000  0.500000  1
  Zn  Zn15  1  0.999999  0.500000  0.000001  1
  Zn  Zn16  1  0.500000  0.999999  0.500000  1
  Zn  Zn17  1  0.000001  0.999999  0.500000  1
  Zn  Zn18  1  0.500000  0.500000  0.000001  1
  Zn  Zn19  1  0.333294  0.334652  0.334653  1
  Zn  Zn20  1  0.666705  0.665347  0.665349  1
  Zn  Zn21  1  0.332165  0.335581  0.000090  1
  Zn  Zn22  1  0.332162  0.000096  0.335579  1
  Zn  Zn23  1  0.667837  0.664422  0.999903  1
  Zn  Zn24  1  0.667836  0.999909  0.664420  1
  Zn  Zn25  1  0.997404  0.334650  0.334653  1
  Zn  Zn26  1  0.002598  0.665348  0.665348  1
  Zn  Zn27  1  0.999998  0.999997  0.000006  1
  Ir  Ir28  1  0.500000  0.999999  0.000001  1
  S  S29  1  0.500000  0.500001  0.499999  1
