# generated using pymatgen
data_Zr3Zn2AuN
_symmetry_space_group_name_H-M   'P 1'
_cell_length_a   8.68207431
_cell_length_b   8.68207535
_cell_length_c   8.68207600
_cell_angle_alpha   60.00000516
_cell_angle_beta   60.00000118
_cell_angle_gamma   59.99999817
_symmetry_Int_Tables_number   1
_chemical_formula_structural   Zr3Zn2AuN
_chemical_formula_sum   'Zr12 Zn8 Au4 N4'
_cell_volume   462.75982671
_cell_formula_units_Z   4
loop_
 _symmetry_equiv_pos_site_id
 _symmetry_equiv_pos_as_xyz
  1  'x, y, z'
loop_
 _atom_site_type_symbol
 _atom_site_label
 _atom_site_symmetry_multiplicity
 _atom_site_fract_x
 _atom_site_fract_y
 _atom_site_fract_z
 _atom_site_occupancy
  Zr  Zr0  1  0.813739  0.186261  0.186261  1
  Zr  Zr1  1  0.186261  0.813739  0.186261  1
  Zr  Zr2  1  0.813739  0.813739  0.186261  1
  Zr  Zr3  1  0.186261  0.813739  0.813739  1
  Zr  Zr4  1  0.813739  0.186261  0.813739  1
  Zr  Zr5  1  0.186261  0.186261  0.813739  1
  Zr  Zr6  1  0.436261  0.063739  0.063739  1
  Zr  Zr7  1  0.063739  0.436261  0.063739  1
  Zr  Zr8  1  0.436261  0.436261  0.063739  1
  Zr  Zr9  1  0.063739  0.436261  0.436261  1
  Zr  Zr10  1  0.436261  0.063739  0.436261  1
  Zr  Zr11  1  0.063739  0.063739  0.436261  1
  Zn  Zn12  1  0.416421  0.416421  0.750736  1
  Zn  Zn13  1  0.416421  0.416421  0.416421  1
  Zn  Zn14  1  0.750736  0.416421  0.416421  1
  Zn  Zn15  1  0.416421  0.750736  0.416421  1
  Zn  Zn16  1  0.833579  0.833579  0.499264  1
  Zn  Zn17  1  0.833579  0.833579  0.833579  1
  Zn  Zn18  1  0.499264  0.833579  0.833579  1
  Zn  Zn19  1  0.833579  0.499264  0.833579  1
  Au  Au20  1  0.625000  0.625000  0.125000  1
  Au  Au21  1  0.625000  0.625000  0.625000  1
  Au  Au22  1  0.125000  0.625000  0.625000  1
  Au  Au23  1  0.625000  0.125000  0.625000  1
  N  N24  1  0.125000  0.125000  0.625000  1
  N  N25  1  0.125000  0.125000  0.125000  1
  N  N26  1  0.625000  0.125000  0.125000  1
  N  N27  1  0.125000  0.625000  0.125000  1
