# generated using pymatgen
data_ErTm9(Al3C4)2
_symmetry_space_group_name_H-M   'P 1'
_cell_length_a   10.76846800
_cell_length_b   10.77346408
_cell_length_c   3.45959200
_cell_angle_alpha   90.00000000
_cell_angle_beta   90.00000000
_cell_angle_gamma   90.04329041
_symmetry_Int_Tables_number   1
_chemical_formula_structural   ErTm9(Al3C4)2
_chemical_formula_sum   'Er1 Tm9 Al6 C8'
_cell_volume   401.35996472
_cell_formula_units_Z   1
loop_
 _symmetry_equiv_pos_site_id
 _symmetry_equiv_pos_as_xyz
  1  'x, y, z'
loop_
 _atom_site_type_symbol
 _atom_site_label
 _atom_site_symmetry_multiplicity
 _atom_site_fract_x
 _atom_site_fract_y
 _atom_site_fract_z
 _atom_site_occupancy
  Er  Er0  1  0.769296  0.950069  0.500000  1
  Tm  Tm1  1  0.549893  0.731373  0.500000  1
  Tm  Tm2  1  0.450129  0.268619  0.500000  1
  Tm  Tm3  1  0.050115  0.768624  0.500000  1
  Tm  Tm4  1  0.950115  0.231428  0.500000  1
  Tm  Tm5  1  0.268515  0.549968  0.500000  1
  Tm  Tm6  1  0.731328  0.450049  0.500000  1
  Tm  Tm7  1  0.231216  0.049846  0.500000  1
  Tm  Tm8  1  0.499849  0.999932  0.000000  1
  Tm  Tm9  1  0.000080  0.499962  0.000000  1
  Al  Al10  1  0.703344  0.203477  0.000000  1
  Al  Al11  1  0.296673  0.796440  0.000000  1
  Al  Al12  1  0.203508  0.296657  0.000000  1
  Al  Al13  1  0.796453  0.703521  0.000000  1
  Al  Al14  1  0.500024  0.500048  0.000000  1
  Al  Al15  1  0.000260  0.000043  0.000000  1
  C  C16  1  0.628957  0.129603  0.500000  1
  C  C17  1  0.370857  0.870817  0.500000  1
  C  C18  1  0.129141  0.370816  0.500000  1
  C  C19  1  0.870780  0.629176  0.500000  1
  C  C20  1  0.161486  0.661468  0.000000  1
  C  C21  1  0.838447  0.338621  0.000000  1
  C  C22  1  0.661062  0.837918  0.000000  1
  C  C23  1  0.338472  0.161527  0.000000  1
