# generated using pymatgen
data_TbPr2Nd3(Co3P2)6
_symmetry_space_group_name_H-M   'P 1'
_cell_length_a   3.77122700
_cell_length_b   10.65424116
_cell_length_c   12.37023034
_cell_angle_alpha   90.05347169
_cell_angle_beta   90.00000000
_cell_angle_gamma   90.00000000
_symmetry_Int_Tables_number   1
_chemical_formula_structural   TbPr2Nd3(Co3P2)6
_chemical_formula_sum   'Tb1 Pr2 Nd3 Co18 P12'
_cell_volume   497.03021982
_cell_formula_units_Z   1
loop_
 _symmetry_equiv_pos_site_id
 _symmetry_equiv_pos_as_xyz
  1  'x, y, z'
loop_
 _atom_site_type_symbol
 _atom_site_label
 _atom_site_symmetry_multiplicity
 _atom_site_fract_x
 _atom_site_fract_y
 _atom_site_fract_z
 _atom_site_occupancy
  Tb  Tb0  1  0.000000  0.316507  0.794954  1
  Pr  Pr1  1  0.000000  0.499874  0.521756  1
  Pr  Pr2  1  0.500000  0.000069  0.478837  1
  Nd  Nd3  1  0.500000  0.817136  0.205264  1
  Nd  Nd4  1  0.500000  0.183087  0.205583  1
  Nd  Nd5  1  0.000000  0.681965  0.794374  1
  Co  Co6  1  0.500000  0.499643  0.156337  1
  Co  Co7  1  0.000000  0.000629  0.843381  1
  Co  Co8  1  0.500000  0.497192  0.706415  1
  Co  Co9  1  0.000000  0.000298  0.294362  1
  Co  Co10  1  0.000000  0.498777  0.986258  1
  Co  Co11  1  0.500000  0.001177  0.011368  1
  Co  Co12  1  0.500000  0.333381  0.994491  1
  Co  Co13  1  0.500000  0.665332  0.995471  1
  Co  Co14  1  0.000000  0.167447  0.002809  1
  Co  Co15  1  0.000000  0.833641  0.003687  1
  Co  Co16  1  0.500000  0.297057  0.430842  1
  Co  Co17  1  0.500000  0.702747  0.429709  1
  Co  Co18  1  0.000000  0.203670  0.572291  1
  Co  Co19  1  0.000000  0.797024  0.570474  1
  Co  Co20  1  0.500000  0.882119  0.711789  1
  Co  Co21  1  0.500000  0.120268  0.713057  1
  Co  Co22  1  0.000000  0.618320  0.288063  1
  Co  Co23  1  0.000000  0.381707  0.288488  1
  P  P24  1  0.500000  0.497615  0.885103  1
  P  P25  1  0.000000  0.000548  0.112571  1
  P  P26  1  0.500000  0.500059  0.338516  1
  P  P27  1  0.000000  0.000179  0.661721  1
  P  P28  1  0.500000  0.305972  0.617770  1
  P  P29  1  0.500000  0.694503  0.614547  1
  P  P30  1  0.000000  0.195187  0.386356  1
  P  P31  1  0.000000  0.805210  0.385594  1
  P  P32  1  0.500000  0.848220  0.895795  1
  P  P33  1  0.500000  0.153846  0.894347  1
  P  P34  1  0.000000  0.650900  0.103486  1
  P  P35  1  0.000000  0.348696  0.104134  1
