# generated using pymatgen
data_TbHo15In4(PdRh)2
_symmetry_space_group_name_H-M   'P 1'
_cell_length_a   9.66295099
_cell_length_b   9.65705382
_cell_length_c   9.66174339
_cell_angle_alpha   59.93301760
_cell_angle_beta   60.04003990
_cell_angle_gamma   59.95070685
_symmetry_Int_Tables_number   1
_chemical_formula_structural   TbHo15In4(PdRh)2
_chemical_formula_sum   'Tb1 Ho15 In4 Pd2 Rh2'
_cell_volume   637.15299175
_cell_formula_units_Z   1
loop_
 _symmetry_equiv_pos_site_id
 _symmetry_equiv_pos_as_xyz
  1  'x, y, z'
loop_
 _atom_site_type_symbol
 _atom_site_label
 _atom_site_symmetry_multiplicity
 _atom_site_fract_x
 _atom_site_fract_y
 _atom_site_fract_z
 _atom_site_occupancy
  Tb  Tb0  1  0.064774  0.437480  0.434242  1
  Ho  Ho1  1  0.809722  0.811264  0.193897  1
  Ho  Ho2  1  0.809596  0.190095  0.810415  1
  Ho  Ho3  1  0.194057  0.185551  0.810299  1
  Ho  Ho4  1  0.647089  0.051164  0.647130  1
  Ho  Ho5  1  0.061467  0.062138  0.435670  1
  Ho  Ho6  1  0.435301  0.438134  0.063522  1
  Ho  Ho7  1  0.649214  0.654727  0.649238  1
  Ho  Ho8  1  0.809791  0.185841  0.194053  1
  Ho  Ho9  1  0.193854  0.810875  0.810115  1
  Ho  Ho10  1  0.057415  0.649204  0.642212  1
  Ho  Ho11  1  0.435724  0.062683  0.061613  1
  Ho  Ho12  1  0.436215  0.065025  0.435728  1
  Ho  Ho13  1  0.061570  0.438207  0.061162  1
  Ho  Ho14  1  0.642184  0.649175  0.057364  1
  Ho  Ho15  1  0.189027  0.811471  0.188741  1
  In  In16  1  0.417013  0.415842  0.416695  1
  In  In17  1  0.417694  0.416750  0.749223  1
  In  In18  1  0.417083  0.749745  0.417152  1
  In  In19  1  0.748282  0.416809  0.418039  1
  Pd  Pd20  1  0.857853  0.430013  0.858572  1
  Pd  Pd21  1  0.857109  0.854215  0.856964  1
  Rh  Rh22  1  0.859059  0.857007  0.428769  1
  Rh  Rh23  1  0.428902  0.856586  0.859183  1
