# generated using pymatgen
data_Ho2TmTh(AlRh)4
_symmetry_space_group_name_H-M   'P 1'
_cell_length_a   4.20933200
_cell_length_b   6.92215088
_cell_length_c   8.02115349
_cell_angle_alpha   90.09469606
_cell_angle_beta   90.00000000
_cell_angle_gamma   90.00000000
_symmetry_Int_Tables_number   1
_chemical_formula_structural   Ho2TmTh(AlRh)4
_chemical_formula_sum   'Ho2 Tm1 Th1 Al4 Rh4'
_cell_volume   233.71709314
_cell_formula_units_Z   1
loop_
 _symmetry_equiv_pos_site_id
 _symmetry_equiv_pos_as_xyz
  1  'x, y, z'
loop_
 _atom_site_type_symbol
 _atom_site_label
 _atom_site_symmetry_multiplicity
 _atom_site_fract_x
 _atom_site_fract_y
 _atom_site_fract_z
 _atom_site_occupancy
  Ho  Ho0  1  0.750000  0.958698  0.680099  1
  Ho  Ho1  1  0.250000  0.040375  0.322879  1
  Tm  Tm2  1  0.750000  0.457722  0.813795  1
  Th  Th3  1  0.250000  0.538992  0.176035  1
  Al  Al4  1  0.250000  0.632925  0.565312  1
  Al  Al5  1  0.750000  0.360545  0.444665  1
  Al  Al6  1  0.750000  0.876965  0.057927  1
  Al  Al7  1  0.250000  0.132040  0.936616  1
  Rh  Rh8  1  0.250000  0.759880  0.881796  1
  Rh  Rh9  1  0.750000  0.245248  0.122590  1
  Rh  Rh10  1  0.750000  0.736116  0.376276  1
  Rh  Rh11  1  0.250000  0.260495  0.622009  1
