# generated using pymatgen
data_LaY2Ho3Ta2O14
_symmetry_space_group_name_H-M   'P 1'
_cell_length_a   6.50509052
_cell_length_b   6.51268353
_cell_length_c   7.53979814
_cell_angle_alpha   89.86418860
_cell_angle_beta   90.15886697
_cell_angle_gamma   108.62791584
_symmetry_Int_Tables_number   1
_chemical_formula_structural   LaY2Ho3Ta2O14
_chemical_formula_sum   'La1 Y2 Ho3 Ta2 O14'
_cell_volume   302.69259507
_cell_formula_units_Z   1
loop_
 _symmetry_equiv_pos_site_id
 _symmetry_equiv_pos_as_xyz
  1  'x, y, z'
loop_
 _atom_site_type_symbol
 _atom_site_label
 _atom_site_symmetry_multiplicity
 _atom_site_fract_x
 _atom_site_fract_y
 _atom_site_fract_z
 _atom_site_occupancy
  La  La0  1  0.508792  0.509219  0.500420  1
  Y  Y1  1  0.461320  0.461279  0.999643  1
  Y  Y2  1  0.999382  0.534718  0.240391  1
  Ho  Ho3  1  0.998093  0.466356  0.746842  1
  Ho  Ho4  1  0.534402  0.000171  0.759682  1
  Ho  Ho5  1  0.466589  0.998029  0.253093  1
  Ta  Ta6  1  0.000803  0.000497  0.500458  1
  Ta  Ta7  1  0.997113  0.997272  0.999704  1
  O  O8  1  0.933037  0.067029  0.749623  1
  O  O9  1  0.067229  0.934511  0.250385  1
  O  O10  1  0.358886  0.643529  0.238620  1
  O  O11  1  0.643233  0.356897  0.761269  1
  O  O12  1  0.365903  0.633621  0.760972  1
  O  O13  1  0.631708  0.365044  0.239077  1
  O  O14  1  0.326366  0.079038  0.973836  1
  O  O15  1  0.676938  0.929374  0.471997  1
  O  O16  1  0.314838  0.060779  0.541539  1
  O  O17  1  0.692755  0.952301  0.042305  1
  O  O18  1  0.061679  0.314411  0.460035  1
  O  O19  1  0.951854  0.693028  0.956595  1
  O  O20  1  0.928984  0.676976  0.528887  1
  O  O21  1  0.080098  0.325923  0.024627  1
