# generated using pymatgen
data_Cs3RbNa32(GaAs2)12
_symmetry_space_group_name_H-M   'P 1'
_cell_length_a   23.22824543
_cell_length_b   4.86221900
_cell_length_c   17.03223132
_cell_angle_alpha   90.00000000
_cell_angle_beta   90.02204534
_cell_angle_gamma   90.00000000
_symmetry_Int_Tables_number   1
_chemical_formula_structural   Cs3RbNa32(GaAs2)12
_chemical_formula_sum   'Cs3 Rb1 Na32 Ga12 As24'
_cell_volume   1923.63396517
_cell_formula_units_Z   1
loop_
 _symmetry_equiv_pos_site_id
 _symmetry_equiv_pos_as_xyz
  1  'x, y, z'
loop_
 _atom_site_type_symbol
 _atom_site_label
 _atom_site_symmetry_multiplicity
 _atom_site_fract_x
 _atom_site_fract_y
 _atom_site_fract_z
 _atom_site_occupancy
  Cs  Cs0  1  0.501292  0.250000  0.808662  1
  Cs  Cs1  1  0.001407  0.250000  0.691273  1
  Cs  Cs2  1  0.498683  0.750000  0.191345  1
  Rb  Rb3  1  0.997421  0.750000  0.308973  1
  Na  Na4  1  0.552577  0.250000  0.032351  1
  Na  Na5  1  0.052485  0.250000  0.466946  1
  Na  Na6  1  0.447366  0.750000  0.967626  1
  Na  Na7  1  0.947788  0.750000  0.531785  1
  Na  Na8  1  0.557776  0.250000  0.351641  1
  Na  Na9  1  0.057670  0.250000  0.148743  1
  Na  Na10  1  0.442186  0.750000  0.648382  1
  Na  Na11  1  0.942305  0.750000  0.851687  1
  Na  Na12  1  0.678801  0.250000  0.920716  1
  Na  Na13  1  0.178671  0.250000  0.579355  1
  Na  Na14  1  0.321163  0.750000  0.079291  1
  Na  Na15  1  0.821376  0.750000  0.420201  1
  Na  Na16  1  0.681530  0.250000  0.692214  1
  Na  Na17  1  0.181515  0.250000  0.807797  1
  Na  Na18  1  0.318372  0.750000  0.307804  1
  Na  Na19  1  0.818571  0.750000  0.192429  1
  Na  Na20  1  0.690205  0.250000  0.458738  1
  Na  Na21  1  0.190101  0.250000  0.041170  1
  Na  Na22  1  0.309737  0.750000  0.541244  1
  Na  Na23  1  0.809877  0.750000  0.958918  1
  Na  Na24  1  0.836847  0.250000  0.798169  1
  Na  Na25  1  0.336789  0.250000  0.701899  1
  Na  Na26  1  0.162615  0.750000  0.201896  1
  Na  Na27  1  0.663211  0.750000  0.298153  1
  Na  Na28  1  0.840349  0.250000  0.581791  1
  Na  Na29  1  0.339998  0.250000  0.917918  1
  Na  Na30  1  0.159347  0.750000  0.417872  1
  Na  Na31  1  0.659932  0.750000  0.082107  1
  Na  Na32  1  0.041125  0.250000  0.945424  1
  Na  Na33  1  0.541083  0.250000  0.554562  1
  Na  Na34  1  0.959146  0.750000  0.054946  1
  Na  Na35  1  0.458870  0.750000  0.445431  1
  Ga  Ga36  1  0.716432  0.250000  0.190837  1
  Ga  Ga37  1  0.215023  0.250000  0.309213  1
  Ga  Ga38  1  0.283721  0.750000  0.809331  1
  Ga  Ga39  1  0.783688  0.750000  0.690693  1
  Ga  Ga40  1  0.864218  0.250000  0.068708  1
  Ga  Ga41  1  0.363382  0.250000  0.431846  1
  Ga  Ga42  1  0.136453  0.750000  0.931997  1
  Ga  Ga43  1  0.636460  0.750000  0.567939  1
  Ga  Ga44  1  0.872586  0.250000  0.309818  1
  Ga  Ga45  1  0.371634  0.250000  0.190075  1
  Ga  Ga46  1  0.128217  0.750000  0.689927  1
  Ga  Ga47  1  0.628196  0.750000  0.810071  1
  As  As48  1  0.614787  0.250000  0.192133  1
  As  As49  1  0.113009  0.250000  0.308002  1
  As  As50  1  0.385356  0.750000  0.807928  1
  As  As51  1  0.885279  0.750000  0.691915  1
  As  As52  1  0.760045  0.250000  0.061458  1
  As  As53  1  0.259226  0.250000  0.438585  1
  As  As54  1  0.240507  0.750000  0.938929  1
  As  As55  1  0.740512  0.750000  0.561001  1
  As  As56  1  0.767114  0.250000  0.316147  1
  As  As57  1  0.266272  0.250000  0.184214  1
  As  As58  1  0.233434  0.750000  0.683981  1
  As  As59  1  0.733380  0.750000  0.816067  1
  As  As60  1  0.910683  0.250000  0.943615  1
  As  As61  1  0.410660  0.250000  0.556534  1
  As  As62  1  0.089259  0.750000  0.056520  1
  As  As63  1  0.589206  0.750000  0.443295  1
  As  As64  1  0.917199  0.250000  0.436385  1
  As  As65  1  0.415160  0.250000  0.062490  1
  As  As66  1  0.084697  0.750000  0.562494  1
  As  As67  1  0.584773  0.750000  0.937672  1
  As  As68  1  0.925336  0.250000  0.184386  1
  As  As69  1  0.424210  0.250000  0.316398  1
  As  As70  1  0.075861  0.750000  0.816347  1
  As  As71  1  0.575842  0.750000  0.683590  1
