# generated using pymatgen
data_Ta17Ti7As8
_symmetry_space_group_name_H-M   'P 1'
_cell_length_a   7.76398773
_cell_length_b   7.76085163
_cell_length_c   14.48550689
_cell_angle_alpha   89.89949907
_cell_angle_beta   89.89504976
_cell_angle_gamma   38.83315646
_symmetry_Int_Tables_number   1
_chemical_formula_structural   Ta17Ti7As8
_chemical_formula_sum   'Ta17 Ti7 As8'
_cell_volume   547.30896027
_cell_formula_units_Z   1
loop_
 _symmetry_equiv_pos_site_id
 _symmetry_equiv_pos_as_xyz
  1  'x, y, z'
loop_
 _atom_site_type_symbol
 _atom_site_label
 _atom_site_symmetry_multiplicity
 _atom_site_fract_x
 _atom_site_fract_y
 _atom_site_fract_z
 _atom_site_occupancy
  Ta  Ta0  1  0.092026  0.065196  0.818553  1
  Ta  Ta1  1  0.498316  0.976605  0.200328  1
  Ta  Ta2  1  0.024977  0.502455  0.299815  1
  Ta  Ta3  1  0.501922  0.022467  0.797892  1
  Ta  Ta4  1  0.977219  0.495040  0.699976  1
  Ta  Ta5  1  0.806355  0.295376  0.988355  1
  Ta  Ta6  1  0.704039  0.194505  0.512817  1
  Ta  Ta7  1  0.193577  0.705399  0.011980  1
  Ta  Ta8  1  0.297003  0.804768  0.487102  1
  Ta  Ta9  1  0.893631  0.423133  0.492939  1
  Ta  Ta10  1  0.577173  0.107568  0.007209  1
  Ta  Ta11  1  0.106323  0.578066  0.506630  1
  Ta  Ta12  1  0.423934  0.892982  0.994190  1
  Ta  Ta13  1  0.024937  0.488588  0.908574  1
  Ta  Ta14  1  0.511721  0.974442  0.590787  1
  Ta  Ta15  1  0.975743  0.511522  0.092116  1
  Ta  Ta16  1  0.488477  0.026201  0.407929  1
  Ti  Ti17  1  0.575403  0.547287  0.164771  1
  Ti  Ti18  1  0.455416  0.423623  0.335549  1
  Ti  Ti19  1  0.424404  0.453756  0.835695  1
  Ti  Ti20  1  0.543366  0.578675  0.665520  1
  Ti  Ti21  1  0.068391  0.091924  0.317512  1
  Ti  Ti22  1  0.908123  0.932982  0.182267  1
  Ti  Ti23  1  0.931515  0.908025  0.682111  1
  As  As24  1  0.070424  0.106690  0.634954  1
  As  As25  1  0.892060  0.921713  0.862921  1
  As  As26  1  0.928189  0.894071  0.363187  1
  As  As27  1  0.106233  0.073623  0.137421  1
  As  As28  1  0.401158  0.365114  0.666313  1
  As  As29  1  0.633299  0.600343  0.834729  1
  As  As30  1  0.599061  0.635267  0.333483  1
  As  As31  1  0.365586  0.402596  0.166377  1
