# generated using pymatgen
data_Tb3Co4P6Rh5
_symmetry_space_group_name_H-M   'P 1'
_cell_length_a   3.77770200
_cell_length_b   11.02399400
_cell_length_c   12.55098500
_cell_angle_alpha   90.00000000
_cell_angle_beta   90.00000000
_cell_angle_gamma   90.00000000
_symmetry_Int_Tables_number   1
_chemical_formula_structural   Tb3Co4P6Rh5
_chemical_formula_sum   'Tb6 Co8 P12 Rh10'
_cell_volume   522.69034117
_cell_formula_units_Z   2
loop_
 _symmetry_equiv_pos_site_id
 _symmetry_equiv_pos_as_xyz
  1  'x, y, z'
loop_
 _atom_site_type_symbol
 _atom_site_label
 _atom_site_symmetry_multiplicity
 _atom_site_fract_x
 _atom_site_fract_y
 _atom_site_fract_z
 _atom_site_occupancy
  Tb  Tb0  1  0.000000  0.500000  0.519070  1
  Tb  Tb1  1  0.500000  0.000000  0.476458  1
  Tb  Tb2  1  0.500000  0.818387  0.199625  1
  Tb  Tb3  1  0.500000  0.181613  0.199625  1
  Tb  Tb4  1  0.000000  0.680487  0.801588  1
  Tb  Tb5  1  0.000000  0.319513  0.801588  1
  Co  Co6  1  0.000000  0.500000  0.989959  1
  Co  Co7  1  0.500000  0.000000  0.011228  1
  Co  Co8  1  0.500000  0.333978  0.995748  1
  Co  Co9  1  0.500000  0.666022  0.995748  1
  Co  Co10  1  0.000000  0.166905  0.005517  1
  Co  Co11  1  0.000000  0.833095  0.005517  1
  Co  Co12  1  0.500000  0.295536  0.429203  1
  Co  Co13  1  0.500000  0.704464  0.429203  1
  P  P14  1  0.500000  0.500000  0.892611  1
  P  P15  1  0.000000  0.000000  0.108059  1
  P  P16  1  0.500000  0.500000  0.349748  1
  P  P17  1  0.000000  0.000000  0.654083  1
  P  P18  1  0.500000  0.316634  0.613805  1
  P  P19  1  0.500000  0.683366  0.613805  1
  P  P20  1  0.000000  0.190844  0.380749  1
  P  P21  1  0.000000  0.809156  0.380749  1
  P  P22  1  0.500000  0.841466  0.904399  1
  P  P23  1  0.500000  0.158534  0.904399  1
  P  P24  1  0.000000  0.658018  0.097288  1
  P  P25  1  0.000000  0.341982  0.097288  1
  Rh  Rh26  1  0.500000  0.500000  0.157293  1
  Rh  Rh27  1  0.000000  0.000000  0.843791  1
  Rh  Rh28  1  0.500000  0.500000  0.705751  1
  Rh  Rh29  1  0.000000  0.000000  0.295212  1
  Rh  Rh30  1  0.000000  0.206062  0.568139  1
  Rh  Rh31  1  0.000000  0.793938  0.568139  1
  Rh  Rh32  1  0.500000  0.873220  0.715567  1
  Rh  Rh33  1  0.500000  0.126780  0.715567  1
  Rh  Rh34  1  0.000000  0.625361  0.286742  1
  Rh  Rh35  1  0.000000  0.374639  0.286742  1
