# generated using pymatgen
data_Nd2BeSi3
_symmetry_space_group_name_H-M   'P 1'
_cell_length_a   7.95312100
_cell_length_b   7.95312090
_cell_length_c   8.58373200
_cell_angle_alpha   90.00000000
_cell_angle_beta   90.00000000
_cell_angle_gamma   119.99999625
_symmetry_Int_Tables_number   1
_chemical_formula_structural   Nd2BeSi3
_chemical_formula_sum   'Nd8 Be4 Si12'
_cell_volume   470.19929351
_cell_formula_units_Z   4
loop_
 _symmetry_equiv_pos_site_id
 _symmetry_equiv_pos_as_xyz
  1  'x, y, z'
loop_
 _atom_site_type_symbol
 _atom_site_label
 _atom_site_symmetry_multiplicity
 _atom_site_fract_x
 _atom_site_fract_y
 _atom_site_fract_z
 _atom_site_occupancy
  Nd  Nd0  1  0.000000  0.000000  0.750000  1
  Nd  Nd1  1  0.000000  0.000000  0.250000  1
  Nd  Nd2  1  0.499285  0.500715  0.750000  1
  Nd  Nd3  1  0.499285  0.998571  0.750000  1
  Nd  Nd4  1  0.001429  0.500715  0.750000  1
  Nd  Nd5  1  0.500715  0.499285  0.250000  1
  Nd  Nd6  1  0.998571  0.499285  0.250000  1
  Nd  Nd7  1  0.500715  0.001429  0.250000  1
  Be  Be8  1  0.666667  0.333333  0.996320  1
  Be  Be9  1  0.666667  0.333333  0.503680  1
  Be  Be10  1  0.333333  0.666667  0.496320  1
  Be  Be11  1  0.333333  0.666667  0.003680  1
  Si  Si12  1  0.827613  0.172387  0.999019  1
  Si  Si13  1  0.827613  0.655226  0.999019  1
  Si  Si14  1  0.344774  0.172387  0.999019  1
  Si  Si15  1  0.827613  0.172387  0.500981  1
  Si  Si16  1  0.827613  0.655226  0.500981  1
  Si  Si17  1  0.344774  0.172387  0.500981  1
  Si  Si18  1  0.172387  0.827613  0.499019  1
  Si  Si19  1  0.655226  0.827613  0.499019  1
  Si  Si20  1  0.172387  0.344774  0.499019  1
  Si  Si21  1  0.172387  0.827613  0.000981  1
  Si  Si22  1  0.655226  0.827613  0.000981  1
  Si  Si23  1  0.172387  0.344774  0.000981  1
