# generated using pymatgen
data_Ho3Er2FeSb2
_symmetry_space_group_name_H-M   'P 1'
_cell_length_a   7.78597400
_cell_length_b   8.76790500
_cell_length_c   12.10495800
_cell_angle_alpha   90.00000000
_cell_angle_beta   90.00000000
_cell_angle_gamma   90.00000000
_symmetry_Int_Tables_number   1
_chemical_formula_structural   Ho3Er2FeSb2
_chemical_formula_sum   'Ho12 Er8 Fe4 Sb8'
_cell_volume   826.36529861
_cell_formula_units_Z   4
loop_
 _symmetry_equiv_pos_site_id
 _symmetry_equiv_pos_as_xyz
  1  'x, y, z'
loop_
 _atom_site_type_symbol
 _atom_site_label
 _atom_site_symmetry_multiplicity
 _atom_site_fract_x
 _atom_site_fract_y
 _atom_site_fract_z
 _atom_site_occupancy
  Ho  Ho0  1  0.156376  0.750000  0.205364  1
  Ho  Ho1  1  0.656376  0.250000  0.294636  1
  Ho  Ho2  1  0.843624  0.250000  0.794636  1
  Ho  Ho3  1  0.343624  0.750000  0.705364  1
  Ho  Ho4  1  0.449897  0.750000  0.995987  1
  Ho  Ho5  1  0.949897  0.250000  0.504013  1
  Ho  Ho6  1  0.550103  0.250000  0.004013  1
  Ho  Ho7  1  0.050103  0.750000  0.495987  1
  Ho  Ho8  1  0.623875  0.750000  0.307726  1
  Ho  Ho9  1  0.123875  0.250000  0.192274  1
  Ho  Ho10  1  0.376125  0.250000  0.692274  1
  Ho  Ho11  1  0.876125  0.750000  0.807726  1
  Er  Er12  1  0.824192  0.964004  0.064200  1
  Er  Er13  1  0.324192  0.035996  0.435800  1
  Er  Er14  1  0.175808  0.464004  0.935800  1
  Er  Er15  1  0.675808  0.535996  0.564200  1
  Er  Er16  1  0.175808  0.035996  0.935800  1
  Er  Er17  1  0.675808  0.964004  0.564200  1
  Er  Er18  1  0.824192  0.535996  0.064200  1
  Er  Er19  1  0.324192  0.464004  0.435800  1
  Fe  Fe20  1  0.427950  0.750000  0.489073  1
  Fe  Fe21  1  0.927950  0.250000  0.010927  1
  Fe  Fe22  1  0.572050  0.250000  0.510927  1
  Fe  Fe23  1  0.072050  0.750000  0.989073  1
  Sb  Sb24  1  0.930358  0.993259  0.327688  1
  Sb  Sb25  1  0.430358  0.006741  0.172312  1
  Sb  Sb26  1  0.069642  0.493259  0.672312  1
  Sb  Sb27  1  0.569642  0.506741  0.827688  1
  Sb  Sb28  1  0.069642  0.006741  0.672312  1
  Sb  Sb29  1  0.569642  0.993259  0.827688  1
  Sb  Sb30  1  0.930358  0.506741  0.327688  1
  Sb  Sb31  1  0.430358  0.493259  0.172312  1
