# generated using pymatgen
data_CaLa2(BiRh)3
_symmetry_space_group_name_H-M   'P 1'
_cell_length_a   7.79302122
_cell_length_b   7.79302259
_cell_length_c   4.16682500
_cell_angle_alpha   90.00000000
_cell_angle_beta   90.00000000
_cell_angle_gamma   120.72595749
_symmetry_Int_Tables_number   1
_chemical_formula_structural   CaLa2(BiRh)3
_chemical_formula_sum   'Ca1 La2 Bi3 Rh3'
_cell_volume   217.53243103
_cell_formula_units_Z   1
loop_
 _symmetry_equiv_pos_site_id
 _symmetry_equiv_pos_as_xyz
  1  'x, y, z'
loop_
 _atom_site_type_symbol
 _atom_site_label
 _atom_site_symmetry_multiplicity
 _atom_site_fract_x
 _atom_site_fract_y
 _atom_site_fract_z
 _atom_site_occupancy
  Ca  Ca0  1  0.401776  0.401776  0.000000  1
  La  La1  1  0.590536  0.997608  0.000000  1
  La  La2  1  0.997608  0.590536  0.000000  1
  Bi  Bi3  1  0.261239  0.009201  0.500000  1
  Bi  Bi4  1  0.009201  0.261239  0.500000  1
  Bi  Bi5  1  0.730389  0.730389  0.500000  1
  Rh  Rh6  1  0.332815  0.680432  0.500000  1
  Rh  Rh7  1  0.680432  0.332815  0.500000  1
  Rh  Rh8  1  0.996006  0.996006  0.000000  1
