# generated using pymatgen
data_Tb10PrNd5(CdIr)4
_symmetry_space_group_name_H-M   'P 1'
_cell_length_a   9.78584407
_cell_length_b   9.78690527
_cell_length_c   9.78690406
_cell_angle_alpha   60.01219597
_cell_angle_beta   60.00357645
_cell_angle_gamma   60.00357918
_symmetry_Int_Tables_number   1
_chemical_formula_structural   Tb10PrNd5(CdIr)4
_chemical_formula_sum   'Tb10 Pr1 Nd5 Cd4 Ir4'
_cell_volume   662.88396048
_cell_formula_units_Z   1
loop_
 _symmetry_equiv_pos_site_id
 _symmetry_equiv_pos_as_xyz
  1  'x, y, z'
loop_
 _atom_site_type_symbol
 _atom_site_label
 _atom_site_symmetry_multiplicity
 _atom_site_fract_x
 _atom_site_fract_y
 _atom_site_fract_z
 _atom_site_occupancy
  Tb  Tb0  1  0.347383  0.347786  0.347786  1
  Tb  Tb1  1  0.347915  0.348227  0.955944  1
  Tb  Tb2  1  0.347915  0.955944  0.348227  1
  Tb  Tb3  1  0.957045  0.347786  0.347786  1
  Tb  Tb4  1  0.811757  0.188243  0.188243  1
  Tb  Tb5  1  0.188253  0.811747  0.811747  1
  Tb  Tb6  1  0.188970  0.811521  0.187411  1
  Tb  Tb7  1  0.812098  0.187411  0.811521  1
  Tb  Tb8  1  0.188970  0.187411  0.811521  1
  Tb  Tb9  1  0.812098  0.811521  0.187411  1
  Pr  Pr10  1  0.940007  0.559993  0.559993  1
  Nd  Nd11  1  0.559084  0.940916  0.940916  1
  Nd  Nd12  1  0.559073  0.941149  0.559082  1
  Nd  Nd13  1  0.940697  0.559082  0.941149  1
  Nd  Nd14  1  0.559073  0.559082  0.941149  1
  Nd  Nd15  1  0.940697  0.941149  0.559082  1
  Cd  Cd16  1  0.579135  0.579660  0.579660  1
  Cd  Cd17  1  0.579822  0.579742  0.260613  1
  Cd  Cd18  1  0.579822  0.260613  0.579742  1
  Cd  Cd19  1  0.261544  0.579660  0.579660  1
  Ir  Ir20  1  0.140497  0.141865  0.141865  1
  Ir  Ir21  1  0.141187  0.141662  0.575964  1
  Ir  Ir22  1  0.141187  0.575964  0.141662  1
  Ir  Ir23  1  0.575772  0.141865  0.141865  1
