# generated using pymatgen
data_Nb9CoSe16
_symmetry_space_group_name_H-M   'P 1'
_cell_length_a   6.98434100
_cell_length_b   6.98433975
_cell_length_c   12.91901000
_cell_angle_alpha   90.00000000
_cell_angle_beta   90.00000000
_cell_angle_gamma   120.00001067
_symmetry_Int_Tables_number   1
_chemical_formula_structural   Nb9CoSe16
_chemical_formula_sum   'Nb9 Co1 Se16'
_cell_volume   545.77119628
_cell_formula_units_Z   1
loop_
 _symmetry_equiv_pos_site_id
 _symmetry_equiv_pos_as_xyz
  1  'x, y, z'
loop_
 _atom_site_type_symbol
 _atom_site_label
 _atom_site_symmetry_multiplicity
 _atom_site_fract_x
 _atom_site_fract_y
 _atom_site_fract_z
 _atom_site_occupancy
  Nb  Nb0  1  0.000000  0.000000  0.500000  1
  Nb  Nb1  1  0.000000  0.000000  0.244131  1
  Nb  Nb2  1  0.000000  0.000000  0.755869  1
  Nb  Nb3  1  0.507441  0.014883  0.243861  1
  Nb  Nb4  1  0.985117  0.492559  0.243861  1
  Nb  Nb5  1  0.507441  0.492559  0.243861  1
  Nb  Nb6  1  0.492559  0.985117  0.756139  1
  Nb  Nb7  1  0.014883  0.507441  0.756139  1
  Nb  Nb8  1  0.492559  0.507441  0.756139  1
  Co  Co9  1  0.000000  0.000000  0.000000  1
  Se  Se10  1  0.333333  0.666667  0.889697  1
  Se  Se11  1  0.666667  0.333333  0.110303  1
  Se  Se12  1  0.666667  0.333333  0.378800  1
  Se  Se13  1  0.333333  0.666667  0.621200  1
  Se  Se14  1  0.168697  0.831303  0.373359  1
  Se  Se15  1  0.168697  0.337393  0.373359  1
  Se  Se16  1  0.662607  0.831303  0.373359  1
  Se  Se17  1  0.831303  0.168697  0.626641  1
  Se  Se18  1  0.831303  0.662607  0.626641  1
  Se  Se19  1  0.337393  0.168697  0.626641  1
  Se  Se20  1  0.832462  0.167538  0.884147  1
  Se  Se21  1  0.832462  0.664924  0.884147  1
  Se  Se22  1  0.335076  0.167538  0.884147  1
  Se  Se23  1  0.167538  0.832462  0.115853  1
  Se  Se24  1  0.167538  0.335076  0.115853  1
  Se  Se25  1  0.664924  0.832462  0.115853  1
