# generated using pymatgen
data_CePrDy2(ReB6)2
_symmetry_space_group_name_H-M   'P 1'
_cell_length_a   3.73925200
_cell_length_b   9.24847434
_cell_length_c   11.67345770
_cell_angle_alpha   90.16414195
_cell_angle_beta   90.00000000
_cell_angle_gamma   90.00000000
_symmetry_Int_Tables_number   1
_chemical_formula_structural   CePrDy2(ReB6)2
_chemical_formula_sum   'Ce2 Pr2 Dy4 Re4 B24'
_cell_volume   403.69424877
_cell_formula_units_Z   2
loop_
 _symmetry_equiv_pos_site_id
 _symmetry_equiv_pos_as_xyz
  1  'x, y, z'
loop_
 _atom_site_type_symbol
 _atom_site_label
 _atom_site_symmetry_multiplicity
 _atom_site_fract_x
 _atom_site_fract_y
 _atom_site_fract_z
 _atom_site_occupancy
  Ce  Ce0  1  0.000000  0.322653  0.414385  1
  Ce  Ce1  1  0.000000  0.677347  0.585615  1
  Pr  Pr2  1  0.000000  0.823220  0.086047  1
  Pr  Pr3  1  0.000000  0.176780  0.913953  1
  Dy  Dy4  1  0.000000  0.943544  0.371538  1
  Dy  Dy5  1  0.000000  0.056456  0.628462  1
  Dy  Dy6  1  0.000000  0.443005  0.130329  1
  Dy  Dy7  1  0.000000  0.556995  0.869671  1
  Re  Re8  1  0.000000  0.636503  0.323263  1
  Re  Re9  1  0.000000  0.363497  0.676737  1
  Re  Re10  1  0.000000  0.141389  0.182981  1
  Re  Re11  1  0.000000  0.858611  0.817019  1
  B  B12  1  0.500000  0.554053  0.431772  1
  B  B13  1  0.500000  0.445947  0.568228  1
  B  B14  1  0.500000  0.055795  0.070298  1
  B  B15  1  0.500000  0.944205  0.929702  1
  B  B16  1  0.500000  0.748373  0.418164  1
  B  B17  1  0.500000  0.251627  0.581836  1
  B  B18  1  0.500000  0.249610  0.084605  1
  B  B19  1  0.500000  0.750390  0.915395  1
  B  B20  1  0.500000  0.790134  0.268002  1
  B  B21  1  0.500000  0.209866  0.731998  1
  B  B22  1  0.500000  0.291698  0.235307  1
  B  B23  1  0.500000  0.708302  0.764693  1
  B  B24  1  0.500000  0.629234  0.187857  1
  B  B25  1  0.500000  0.370766  0.812143  1
  B  B26  1  0.500000  0.132099  0.314939  1
  B  B27  1  0.500000  0.867901  0.685061  1
  B  B28  1  0.500000  0.985487  0.214277  1
  B  B29  1  0.500000  0.014513  0.785723  1
  B  B30  1  0.500000  0.483324  0.288137  1
  B  B31  1  0.500000  0.516676  0.711863  1
  B  B32  1  0.500000  0.596732  0.026991  1
  B  B33  1  0.500000  0.403268  0.973009  1
  B  B34  1  0.500000  0.104324  0.471310  1
  B  B35  1  0.500000  0.895676  0.528690  1
