# generated using pymatgen
data_Ba7Os4O19
_symmetry_space_group_name_H-M   'P 1'
_cell_length_a   7.65893845
_cell_length_b   7.65894526
_cell_length_c   10.79713500
_cell_angle_alpha   81.73365032
_cell_angle_beta   81.73364291
_cell_angle_gamma   43.78840150
_symmetry_Int_Tables_number   1
_chemical_formula_structural   Ba7Os4O19
_chemical_formula_sum   'Ba7 Os4 O19'
_cell_volume   432.98518907
_cell_formula_units_Z   1
loop_
 _symmetry_equiv_pos_site_id
 _symmetry_equiv_pos_as_xyz
  1  'x, y, z'
loop_
 _atom_site_type_symbol
 _atom_site_label
 _atom_site_symmetry_multiplicity
 _atom_site_fract_x
 _atom_site_fract_y
 _atom_site_fract_z
 _atom_site_occupancy
  Ba  Ba0  1  0.210445  0.210445  0.406009  1
  Ba  Ba1  1  0.789555  0.789555  0.593991  1
  Ba  Ba2  1  0.420372  0.420372  0.166904  1
  Ba  Ba3  1  0.579628  0.579628  0.833096  1
  Ba  Ba4  1  0.500000  0.500000  0.500000  1
  Ba  Ba5  1  0.855677  0.855677  0.958505  1
  Ba  Ba6  1  0.144323  0.144323  0.041495  1
  Os  Os7  1  0.970095  0.970096  0.326886  1
  Os  Os8  1  0.029905  0.029904  0.673114  1
  Os  Os9  1  0.666020  0.666020  0.225132  1
  Os  Os10  1  0.333980  0.333980  0.774868  1
  O  O11  1  0.000000  0.000000  0.500000  1
  O  O12  1  0.694245  0.694245  0.387163  1
  O  O13  1  0.305755  0.305755  0.612837  1
  O  O14  1  0.044714  0.044714  0.844159  1
  O  O15  1  0.955286  0.955286  0.155841  1
  O  O16  1  0.387970  0.387970  0.930905  1
  O  O17  1  0.612030  0.612030  0.069095  1
  O  O18  1  0.822426  0.318161  0.283100  1
  O  O19  1  0.681839  0.177574  0.716901  1
  O  O20  1  0.177574  0.681839  0.716900  1
  O  O21  1  0.318161  0.822426  0.283099  1
  O  O22  1  0.641660  0.115542  0.374702  1
  O  O23  1  0.884458  0.358339  0.625298  1
  O  O24  1  0.358340  0.884458  0.625298  1
  O  O25  1  0.115542  0.641661  0.374702  1
  O  O26  1  0.988860  0.519412  0.164816  1
  O  O27  1  0.480588  0.011141  0.835184  1
  O  O28  1  0.011140  0.480588  0.835184  1
  O  O29  1  0.519412  0.988859  0.164816  1
