# generated using pymatgen
data_LaCdGa3Co
_symmetry_space_group_name_H-M   'P 1'
_cell_length_a   4.23457972
_cell_length_b   6.67958700
_cell_length_c   8.47743448
_cell_angle_alpha   90.00000000
_cell_angle_beta   104.46309032
_cell_angle_gamma   90.00000000
_symmetry_Int_Tables_number   1
_chemical_formula_structural   LaCdGa3Co
_chemical_formula_sum   'La2 Cd2 Ga6 Co2'
_cell_volume   232.18716819
_cell_formula_units_Z   2
loop_
 _symmetry_equiv_pos_site_id
 _symmetry_equiv_pos_as_xyz
  1  'x, y, z'
loop_
 _atom_site_type_symbol
 _atom_site_label
 _atom_site_symmetry_multiplicity
 _atom_site_fract_x
 _atom_site_fract_y
 _atom_site_fract_z
 _atom_site_occupancy
  La  La0  1  0.875311  0.750000  0.750621  1
  La  La1  1  0.124689  0.250000  0.249379  1
  Cd  Cd2  1  0.500000  0.500000  0.000000  1
  Cd  Cd3  1  0.500000  0.000000  0.000000  1
  Ga  Ga4  1  0.080047  0.750000  0.160095  1
  Ga  Ga5  1  0.919953  0.250000  0.839905  1
  Ga  Ga6  1  0.691835  0.553080  0.383670  1
  Ga  Ga7  1  0.308165  0.446920  0.616330  1
  Ga  Ga8  1  0.691835  0.946920  0.383670  1
  Ga  Ga9  1  0.308165  0.053080  0.616330  1
  Co  Co10  1  0.224435  0.750000  0.448870  1
  Co  Co11  1  0.775565  0.250000  0.551130  1
