# generated using pymatgen
data_Ho6CuTcSn
_symmetry_space_group_name_H-M   'P 1'
_cell_length_a   8.49803439
_cell_length_b   8.49803534
_cell_length_c   8.49803520
_cell_angle_alpha   113.35182982
_cell_angle_beta   111.08771054
_cell_angle_gamma   104.11254161
_symmetry_Int_Tables_number   1
_chemical_formula_structural   Ho6CuTcSn
_chemical_formula_sum   'Ho12 Cu2 Tc2 Sn2'
_cell_volume   469.16238330
_cell_formula_units_Z   2
loop_
 _symmetry_equiv_pos_site_id
 _symmetry_equiv_pos_as_xyz
  1  'x, y, z'
loop_
 _atom_site_type_symbol
 _atom_site_label
 _atom_site_symmetry_multiplicity
 _atom_site_fract_x
 _atom_site_fract_y
 _atom_site_fract_z
 _atom_site_occupancy
  Ho  Ho0  1  0.439051  0.239528  0.199522  1
  Ho  Ho1  1  0.560949  0.760472  0.800478  1
  Ho  Ho2  1  0.040004  0.239528  0.800478  1
  Ho  Ho3  1  0.959996  0.760472  0.199522  1
  Ho  Ho4  1  0.186606  0.280936  0.467543  1
  Ho  Ho5  1  0.813394  0.719064  0.532457  1
  Ho  Ho6  1  0.186606  0.719064  0.905670  1
  Ho  Ho7  1  0.813394  0.280936  0.094330  1
  Ho  Ho8  1  0.335816  0.649707  0.313891  1
  Ho  Ho9  1  0.664184  0.350293  0.686109  1
  Ho  Ho10  1  0.335816  0.021926  0.686109  1
  Ho  Ho11  1  0.664184  0.978074  0.313891  1
  Cu  Cu12  1  0.118655  0.618655  0.500000  1
  Cu  Cu13  1  0.881345  0.381345  0.500000  1
  Tc  Tc14  1  0.325616  0.000000  0.325616  1
  Tc  Tc15  1  0.674384  0.000000  0.674384  1
  Sn  Sn16  1  0.500000  0.500000  0.000000  1
  Sn  Sn17  1  0.000000  0.000000  0.000000  1
