# generated using pymatgen
data_Hf3Sc5P12Ir13Ru3
_symmetry_space_group_name_H-M   'P 1'
_cell_length_a   12.78112500
_cell_length_b   12.78112394
_cell_length_c   3.90480800
_cell_angle_alpha   90.00000000
_cell_angle_beta   90.00000000
_cell_angle_gamma   120.00000016
_symmetry_Int_Tables_number   1
_chemical_formula_structural   Hf3Sc5P12Ir13Ru3
_chemical_formula_sum   'Hf3 Sc5 P12 Ir13 Ru3'
_cell_volume   552.41879200
_cell_formula_units_Z   1
loop_
 _symmetry_equiv_pos_site_id
 _symmetry_equiv_pos_as_xyz
  1  'x, y, z'
loop_
 _atom_site_type_symbol
 _atom_site_label
 _atom_site_symmetry_multiplicity
 _atom_site_fract_x
 _atom_site_fract_y
 _atom_site_fract_z
 _atom_site_occupancy
  Hf  Hf0  1  0.449276  0.002428  0.000000  1
  Hf  Hf1  1  0.997572  0.446848  0.000000  1
  Hf  Hf2  1  0.553152  0.550724  0.000000  1
  Sc  Sc3  1  0.333333  0.666667  0.000000  1
  Sc  Sc4  1  0.666667  0.333333  0.000000  1
  Sc  Sc5  1  0.813905  0.999499  0.500000  1
  Sc  Sc6  1  0.000501  0.814405  0.500000  1
  Sc  Sc7  1  0.185595  0.186095  0.500000  1
  P  P8  1  0.173577  0.996386  0.000000  1
  P  P9  1  0.003614  0.177192  0.000000  1
  P  P10  1  0.822808  0.826423  0.000000  1
  P  P11  1  0.172170  0.481172  0.500000  1
  P  P12  1  0.518828  0.690997  0.500000  1
  P  P13  1  0.309003  0.827830  0.500000  1
  P  P14  1  0.691768  0.518444  0.500000  1
  P  P15  1  0.826675  0.308232  0.500000  1
  P  P16  1  0.481556  0.173325  0.500000  1
  P  P17  1  0.650319  0.993877  0.000000  1
  P  P18  1  0.006123  0.656442  0.000000  1
  P  P19  1  0.343558  0.349681  0.000000  1
  Ir  Ir20  1  0.361819  0.492816  0.500000  1
  Ir  Ir21  1  0.507184  0.869003  0.500000  1
  Ir  Ir22  1  0.130997  0.638181  0.500000  1
  Ir  Ir23  1  0.863965  0.501546  0.500000  1
  Ir  Ir24  1  0.637582  0.136035  0.500000  1
  Ir  Ir25  1  0.498454  0.362418  0.500000  1
  Ir  Ir26  1  0.812834  0.631367  0.000000  1
  Ir  Ir27  1  0.818534  0.187166  0.000000  1
  Ir  Ir28  1  0.368633  0.181466  0.000000  1
  Ir  Ir29  1  0.276075  0.002725  0.500000  1
  Ir  Ir30  1  0.997275  0.273350  0.500000  1
  Ir  Ir31  1  0.726650  0.723925  0.500000  1
  Ir  Ir32  1  0.000000  0.000000  0.000000  1
  Ru  Ru33  1  0.177372  0.374134  0.000000  1
  Ru  Ru34  1  0.625866  0.803238  0.000000  1
  Ru  Ru35  1  0.196762  0.822628  0.000000  1
