# generated using pymatgen
data_Sm6Ta4Al12Os7
_symmetry_space_group_name_H-M   'P 1'
_cell_length_a   9.10273633
_cell_length_b   9.10273628
_cell_length_c   9.10273700
_cell_angle_alpha   60.00000101
_cell_angle_beta   60.00000120
_cell_angle_gamma   59.99999852
_symmetry_Int_Tables_number   1
_chemical_formula_structural   Sm6Ta4Al12Os7
_chemical_formula_sum   'Sm6 Ta4 Al12 Os7'
_cell_volume   533.33602951
_cell_formula_units_Z   1
loop_
 _symmetry_equiv_pos_site_id
 _symmetry_equiv_pos_as_xyz
  1  'x, y, z'
loop_
 _atom_site_type_symbol
 _atom_site_label
 _atom_site_symmetry_multiplicity
 _atom_site_fract_x
 _atom_site_fract_y
 _atom_site_fract_z
 _atom_site_occupancy
  Sm  Sm0  1  0.704638  0.704638  0.295362  1
  Sm  Sm1  1  0.295362  0.704638  0.295362  1
  Sm  Sm2  1  0.704638  0.295362  0.295362  1
  Sm  Sm3  1  0.295362  0.295362  0.704638  1
  Sm  Sm4  1  0.704638  0.295362  0.704638  1
  Sm  Sm5  1  0.295362  0.704638  0.704638  1
  Ta  Ta6  1  0.879462  0.879462  0.361612  1
  Ta  Ta7  1  0.879462  0.361612  0.879462  1
  Ta  Ta8  1  0.361612  0.879462  0.879462  1
  Ta  Ta9  1  0.879462  0.879462  0.879462  1
  Al  Al10  1  0.119899  0.119899  0.640304  1
  Al  Al11  1  0.119899  0.640304  0.119899  1
  Al  Al12  1  0.640304  0.119899  0.119899  1
  Al  Al13  1  0.119899  0.119899  0.119899  1
  Al  Al14  1  0.668131  0.668131  0.995608  1
  Al  Al15  1  0.668131  0.995608  0.668131  1
  Al  Al16  1  0.995608  0.668131  0.668131  1
  Al  Al17  1  0.668131  0.668131  0.668131  1
  Al  Al18  1  0.329174  0.329174  0.012477  1
  Al  Al19  1  0.329174  0.012477  0.329174  1
  Al  Al20  1  0.012477  0.329174  0.329174  1
  Al  Al21  1  0.329174  0.329174  0.329174  1
  Os  Os22  1  0.000000  0.000000  0.000000  1
  Os  Os23  1  0.995436  0.995436  0.504564  1
  Os  Os24  1  0.504564  0.995436  0.504564  1
  Os  Os25  1  0.995436  0.504564  0.504564  1
  Os  Os26  1  0.504564  0.504564  0.995436  1
  Os  Os27  1  0.995436  0.504564  0.995436  1
  Os  Os28  1  0.504564  0.995436  0.995436  1
