# generated using pymatgen
data_Y2Er2Co3SiI2
_symmetry_space_group_name_H-M   'P 1'
_cell_length_a   4.01348400
_cell_length_b   4.01348355
_cell_length_c   16.98563600
_cell_angle_alpha   90.00000000
_cell_angle_beta   90.00000000
_cell_angle_gamma   120.00002023
_symmetry_Int_Tables_number   1
_chemical_formula_structural   Y2Er2Co3SiI2
_chemical_formula_sum   'Y2 Er2 Co3 Si1 I2'
_cell_volume   236.94927214
_cell_formula_units_Z   1
loop_
 _symmetry_equiv_pos_site_id
 _symmetry_equiv_pos_as_xyz
  1  'x, y, z'
loop_
 _atom_site_type_symbol
 _atom_site_label
 _atom_site_symmetry_multiplicity
 _atom_site_fract_x
 _atom_site_fract_y
 _atom_site_fract_z
 _atom_site_occupancy
  Y  Y0  1  0.000000  0.000000  0.605219  1
  Y  Y1  1  0.000000  0.000000  0.397002  1
  Er  Er2  1  0.000000  0.000000  0.100220  1
  Er  Er3  1  0.000000  0.000000  0.900096  1
  Co  Co4  1  0.666667  0.333333  0.494746  1
  Co  Co5  1  0.666667  0.333333  0.001528  1
  Co  Co6  1  0.333333  0.666667  0.998559  1
  Si  Si7  1  0.333333  0.666667  0.503721  1
  I  I8  1  0.333333  0.666667  0.249248  1
  I  I9  1  0.666667  0.333333  0.749659  1
