# generated using pymatgen
data_Dy5NbV2Co(Ni5P4)3
_symmetry_space_group_name_H-M   'P 1'
_cell_length_a   12.11348300
_cell_length_b   12.14928029
_cell_length_c   3.71747100
_cell_angle_alpha   90.00000000
_cell_angle_beta   90.00000000
_cell_angle_gamma   120.09780045
_symmetry_Int_Tables_number   1
_chemical_formula_structural   Dy5NbV2Co(Ni5P4)3
_chemical_formula_sum   'Dy5 Nb1 V2 Co1 Ni15 P12'
_cell_volume   473.33537657
_cell_formula_units_Z   1
loop_
 _symmetry_equiv_pos_site_id
 _symmetry_equiv_pos_as_xyz
  1  'x, y, z'
loop_
 _atom_site_type_symbol
 _atom_site_label
 _atom_site_symmetry_multiplicity
 _atom_site_fract_x
 _atom_site_fract_y
 _atom_site_fract_z
 _atom_site_occupancy
  Dy  Dy0  1  0.667756  0.332912  0.000000  1
  Dy  Dy1  1  0.331491  0.667351  0.000000  1
  Dy  Dy2  1  0.184377  0.183906  0.500000  1
  Dy  Dy3  1  0.812974  0.000294  0.500000  1
  Dy  Dy4  1  0.000713  0.812926  0.500000  1
  Nb  Nb5  1  0.559200  0.559638  0.000000  1
  V  V6  1  0.440419  0.000466  0.000000  1
  V  V7  1  0.000147  0.440390  0.000000  1
  Co  Co8  1  0.000004  0.279762  0.500000  1
  Ni  Ni9  1  0.819378  0.195450  0.000000  1
  Ni  Ni10  1  0.808861  0.623166  0.000000  1
  Ni  Ni11  1  0.378112  0.181609  0.000000  1
  Ni  Ni12  1  0.195204  0.816953  0.000000  1
  Ni  Ni13  1  0.622632  0.808386  0.000000  1
  Ni  Ni14  1  0.179357  0.375204  0.000000  1
  Ni  Ni15  1  0.642468  0.126132  0.500000  1
  Ni  Ni16  1  0.877026  0.515582  0.500000  1
  Ni  Ni17  1  0.482932  0.356860  0.500000  1
  Ni  Ni18  1  0.124336  0.640550  0.500000  1
  Ni  Ni19  1  0.516091  0.877350  0.500000  1
  Ni  Ni20  1  0.355065  0.483297  0.500000  1
  Ni  Ni21  1  0.723311  0.723132  0.500000  1
  Ni  Ni22  1  0.279944  0.999779  0.500000  1
  Ni  Ni23  1  0.000593  0.001563  0.000000  1
  P  P24  1  0.360061  0.359413  0.000000  1
  P  P25  1  0.633018  0.001445  0.000000  1
  P  P26  1  0.001805  0.633122  0.000000  1
  P  P27  1  0.838516  0.315141  0.500000  1
  P  P28  1  0.689628  0.521150  0.500000  1
  P  P29  1  0.478562  0.162697  0.500000  1
  P  P30  1  0.314672  0.837166  0.500000  1
  P  P31  1  0.520780  0.689715  0.500000  1
  P  P32  1  0.160836  0.477130  0.500000  1
  P  P33  1  0.822470  0.822507  0.000000  1
  P  P34  1  0.178229  0.998934  0.000000  1
  P  P35  1  0.999031  0.178919  0.000000  1
