# generated using pymatgen
data_NdYB6Ru
_symmetry_space_group_name_H-M   'P 1'
_cell_length_a   3.72096100
_cell_length_b   9.24318200
_cell_length_c   11.66173900
_cell_angle_alpha   90.00000000
_cell_angle_beta   90.00000000
_cell_angle_gamma   90.00000000
_symmetry_Int_Tables_number   1
_chemical_formula_structural   NdYB6Ru
_chemical_formula_sum   'Nd4 Y4 B24 Ru4'
_cell_volume   401.08825047
_cell_formula_units_Z   4
loop_
 _symmetry_equiv_pos_site_id
 _symmetry_equiv_pos_as_xyz
  1  'x, y, z'
loop_
 _atom_site_type_symbol
 _atom_site_label
 _atom_site_symmetry_multiplicity
 _atom_site_fract_x
 _atom_site_fract_y
 _atom_site_fract_z
 _atom_site_occupancy
  Nd  Nd0  1  0.000000  0.323457  0.414214  1
  Nd  Nd1  1  0.000000  0.676543  0.585786  1
  Nd  Nd2  1  0.000000  0.823457  0.085786  1
  Nd  Nd3  1  0.000000  0.176543  0.914214  1
  Y  Y4  1  0.000000  0.943928  0.371915  1
  Y  Y5  1  0.000000  0.056072  0.628085  1
  Y  Y6  1  0.000000  0.443928  0.128085  1
  Y  Y7  1  0.000000  0.556072  0.871915  1
  B  B8  1  0.500000  0.556089  0.430647  1
  B  B9  1  0.500000  0.443911  0.569353  1
  B  B10  1  0.500000  0.056089  0.069353  1
  B  B11  1  0.500000  0.943911  0.930647  1
  B  B12  1  0.500000  0.748715  0.417704  1
  B  B13  1  0.500000  0.251285  0.582296  1
  B  B14  1  0.500000  0.248715  0.082296  1
  B  B15  1  0.500000  0.751285  0.917704  1
  B  B16  1  0.500000  0.790156  0.266864  1
  B  B17  1  0.500000  0.209844  0.733136  1
  B  B18  1  0.500000  0.290156  0.233136  1
  B  B19  1  0.500000  0.709844  0.766864  1
  B  B20  1  0.500000  0.631341  0.185528  1
  B  B21  1  0.500000  0.368659  0.814472  1
  B  B22  1  0.500000  0.131341  0.314472  1
  B  B23  1  0.500000  0.868659  0.685528  1
  B  B24  1  0.500000  0.986134  0.213713  1
  B  B25  1  0.500000  0.013866  0.786287  1
  B  B26  1  0.500000  0.486134  0.286287  1
  B  B27  1  0.500000  0.513866  0.713713  1
  B  B28  1  0.500000  0.604176  0.028619  1
  B  B29  1  0.500000  0.395824  0.971381  1
  B  B30  1  0.500000  0.104176  0.471381  1
  B  B31  1  0.500000  0.895824  0.528619  1
  Ru  Ru32  1  0.000000  0.639089  0.319993  1
  Ru  Ru33  1  0.000000  0.360911  0.680007  1
  Ru  Ru34  1  0.000000  0.139089  0.180007  1
  Ru  Ru35  1  0.000000  0.860911  0.819993  1
