# generated using pymatgen
data_LiTb2Ho3(P2Ru3)6
_symmetry_space_group_name_H-M   'P 1'
_cell_length_a   12.62826413
_cell_length_b   12.43482571
_cell_length_c   3.97564400
_cell_angle_alpha   90.00000000
_cell_angle_beta   90.00000000
_cell_angle_gamma   119.49660550
_symmetry_Int_Tables_number   1
_chemical_formula_structural   LiTb2Ho3(P2Ru3)6
_chemical_formula_sum   'Li1 Tb2 Ho3 P12 Ru18'
_cell_volume   543.37816150
_cell_formula_units_Z   1
loop_
 _symmetry_equiv_pos_site_id
 _symmetry_equiv_pos_as_xyz
  1  'x, y, z'
loop_
 _atom_site_type_symbol
 _atom_site_label
 _atom_site_symmetry_multiplicity
 _atom_site_fract_x
 _atom_site_fract_y
 _atom_site_fract_z
 _atom_site_occupancy
  Li  Li0  1  0.000018  0.561685  0.000000  1
  Tb  Tb1  1  0.000473  0.182020  0.500000  1
  Tb  Tb2  1  0.817010  0.816048  0.500000  1
  Ho  Ho3  1  0.183081  0.999767  0.500000  1
  Ho  Ho4  1  0.659342  0.329193  0.000000  1
  Ho  Ho5  1  0.340209  0.669315  0.000000  1
  P  P6  1  0.000033  0.808350  0.000000  1
  P  P7  1  0.182341  0.183407  0.000000  1
  P  P8  1  0.817553  0.001098  0.000000  1
  P  P9  1  0.691974  0.173378  0.500000  1
  P  P10  1  0.819684  0.518657  0.500000  1
  P  P11  1  0.474222  0.306735  0.500000  1
  P  P12  1  0.180345  0.699014  0.500000  1
  P  P13  1  0.525856  0.832668  0.500000  1
  P  P14  1  0.307996  0.481327  0.500000  1
  P  P15  1  0.000046  0.367734  0.000000  1
  P  P16  1  0.626075  0.625081  0.000000  1
  P  P17  1  0.373711  0.999005  0.000000  1
  Ru  Ru18  1  0.444134  0.444513  0.000000  1
  Ru  Ru19  1  0.555724  0.000422  0.000000  1
  Ru  Ru20  1  0.000239  0.712030  0.500000  1
  Ru  Ru21  1  0.281095  0.283381  0.500000  1
  Ru  Ru22  1  0.719089  0.002612  0.500000  1
  Ru  Ru23  1  0.805612  0.186606  0.000000  1
  Ru  Ru24  1  0.813311  0.618411  0.000000  1
  Ru  Ru25  1  0.372532  0.188355  0.000000  1
  Ru  Ru26  1  0.187032  0.806014  0.000000  1
  Ru  Ru27  1  0.626611  0.816141  0.000000  1
  Ru  Ru28  1  0.194476  0.380933  0.000000  1
  Ru  Ru29  1  0.876427  0.367493  0.500000  1
  Ru  Ru30  1  0.630897  0.508806  0.500000  1
  Ru  Ru31  1  0.492604  0.128570  0.500000  1
  Ru  Ru32  1  0.368833  0.877689  0.500000  1
  Ru  Ru33  1  0.507485  0.635815  0.500000  1
  Ru  Ru34  1  0.123477  0.491259  0.500000  1
  Ru  Ru35  1  0.000453  0.996470  0.000000  1
