# generated using pymatgen
data_Tm12Mn2In2Hg
_symmetry_space_group_name_H-M   'P 1'
_cell_length_a   8.33467868
_cell_length_b   8.33467828
_cell_length_c   8.33467886
_cell_angle_alpha   109.84814897
_cell_angle_beta   109.84815131
_cell_angle_gamma   108.71996077
_symmetry_Int_Tables_number   1
_chemical_formula_structural   Tm12Mn2In2Hg
_chemical_formula_sum   'Tm12 Mn2 In2 Hg1'
_cell_volume   445.64473757
_cell_formula_units_Z   1
loop_
 _symmetry_equiv_pos_site_id
 _symmetry_equiv_pos_as_xyz
  1  'x, y, z'
loop_
 _atom_site_type_symbol
 _atom_site_label
 _atom_site_symmetry_multiplicity
 _atom_site_fract_x
 _atom_site_fract_y
 _atom_site_fract_z
 _atom_site_occupancy
  Tm  Tm0  1  0.208082  0.453647  0.245564  1
  Tm  Tm1  1  0.791918  0.546353  0.754436  1
  Tm  Tm2  1  0.208082  0.962519  0.754436  1
  Tm  Tm3  1  0.962519  0.208082  0.754436  1
  Tm  Tm4  1  0.791918  0.037481  0.245564  1
  Tm  Tm5  1  0.037481  0.791918  0.245564  1
  Tm  Tm6  1  0.453647  0.208082  0.245564  1
  Tm  Tm7  1  0.546353  0.791918  0.754436  1
  Tm  Tm8  1  0.304884  0.304884  0.609767  1
  Tm  Tm9  1  0.695116  0.695116  0.390233  1
  Tm  Tm10  1  0.695116  0.304884  0.000000  1
  Tm  Tm11  1  0.304884  0.695116  0.000000  1
  Mn  Mn12  1  0.392102  0.392102  0.000000  1
  Mn  Mn13  1  0.607898  0.607898  0.000000  1
  In  In14  1  0.000000  0.500000  0.500000  1
  In  In15  1  0.500000  0.000000  0.500000  1
  Hg  Hg16  1  0.000000  0.000000  0.000000  1
