# generated using pymatgen
data_ErLu2ReB7
_symmetry_space_group_name_H-M   'P 1'
_cell_length_a   7.93890002
_cell_length_b   7.93890037
_cell_length_c   9.25934600
_cell_angle_alpha   90.00000000
_cell_angle_beta   90.00000000
_cell_angle_gamma   154.58673463
_symmetry_Int_Tables_number   1
_chemical_formula_structural   ErLu2ReB7
_chemical_formula_sum   'Er2 Lu4 Re2 B14'
_cell_volume   250.44035524
_cell_formula_units_Z   2
loop_
 _symmetry_equiv_pos_site_id
 _symmetry_equiv_pos_as_xyz
  1  'x, y, z'
loop_
 _atom_site_type_symbol
 _atom_site_label
 _atom_site_symmetry_multiplicity
 _atom_site_fract_x
 _atom_site_fract_y
 _atom_site_fract_z
 _atom_site_occupancy
  Er  Er0  1  0.243872  0.756128  0.250000  1
  Er  Er1  1  0.756128  0.243872  0.750000  1
  Lu  Lu2  1  0.894536  0.105464  0.440844  1
  Lu  Lu3  1  0.105464  0.894536  0.559156  1
  Lu  Lu4  1  0.894536  0.105464  0.059156  1
  Lu  Lu5  1  0.105464  0.894536  0.940844  1
  Re  Re6  1  0.051935  0.948065  0.250000  1
  Re  Re7  1  0.948065  0.051935  0.750000  1
  B  B8  1  0.727519  0.272481  0.466682  1
  B  B9  1  0.272481  0.727519  0.533318  1
  B  B10  1  0.727519  0.272481  0.033318  1
  B  B11  1  0.272481  0.727519  0.966682  1
  B  B12  1  0.632343  0.367657  0.149864  1
  B  B13  1  0.367657  0.632343  0.850136  1
  B  B14  1  0.632343  0.367657  0.350136  1
  B  B15  1  0.367657  0.632343  0.649864  1
  B  B16  1  0.519685  0.480315  0.094098  1
  B  B17  1  0.480315  0.519685  0.905902  1
  B  B18  1  0.519685  0.480315  0.405902  1
  B  B19  1  0.480315  0.519685  0.594098  1
  B  B20  1  0.453198  0.546802  0.250000  1
  B  B21  1  0.546802  0.453198  0.750000  1
