# generated using pymatgen
data_Na3SbAsPt2
_symmetry_space_group_name_H-M   'P 1'
_cell_length_a   6.09711100
_cell_length_b   7.91364600
_cell_length_c   13.55128100
_cell_angle_alpha   90.00000000
_cell_angle_beta   90.00000000
_cell_angle_gamma   90.00000000
_symmetry_Int_Tables_number   1
_chemical_formula_structural   Na3SbAsPt2
_chemical_formula_sum   'Na12 Sb4 As4 Pt8'
_cell_volume   653.85443167
_cell_formula_units_Z   4
loop_
 _symmetry_equiv_pos_site_id
 _symmetry_equiv_pos_as_xyz
  1  'x, y, z'
loop_
 _atom_site_type_symbol
 _atom_site_label
 _atom_site_symmetry_multiplicity
 _atom_site_fract_x
 _atom_site_fract_y
 _atom_site_fract_z
 _atom_site_occupancy
  Na  Na0  1  0.641289  0.241992  0.250000  1
  Na  Na1  1  0.358711  0.758008  0.750000  1
  Na  Na2  1  0.358711  0.741992  0.250000  1
  Na  Na3  1  0.641289  0.258008  0.750000  1
  Na  Na4  1  0.131301  0.387430  0.105727  1
  Na  Na5  1  0.868699  0.612570  0.894273  1
  Na  Na6  1  0.868699  0.612570  0.605727  1
  Na  Na7  1  0.868699  0.887430  0.394273  1
  Na  Na8  1  0.131301  0.387430  0.394273  1
  Na  Na9  1  0.131301  0.112570  0.605727  1
  Na  Na10  1  0.131301  0.112570  0.894273  1
  Na  Na11  1  0.868699  0.887430  0.105727  1
  Sb  Sb12  1  0.641053  0.250000  0.000000  1
  Sb  Sb13  1  0.358947  0.750000  0.000000  1
  Sb  Sb14  1  0.358947  0.750000  0.500000  1
  Sb  Sb15  1  0.641053  0.250000  0.500000  1
  As  As16  1  0.170702  0.085666  0.250000  1
  As  As17  1  0.829298  0.914334  0.750000  1
  As  As18  1  0.829298  0.585666  0.250000  1
  As  As19  1  0.170702  0.414334  0.750000  1
  Pt  Pt20  1  0.381986  0.042765  0.097622  1
  Pt  Pt21  1  0.618014  0.957235  0.902378  1
  Pt  Pt22  1  0.618014  0.957235  0.597622  1
  Pt  Pt23  1  0.618014  0.542765  0.402378  1
  Pt  Pt24  1  0.381986  0.042765  0.402378  1
  Pt  Pt25  1  0.381986  0.457235  0.597622  1
  Pt  Pt26  1  0.381986  0.457235  0.902378  1
  Pt  Pt27  1  0.618014  0.542765  0.097622  1
