# generated using pymatgen
data_Co2GeMo3N
_symmetry_space_group_name_H-M   'P 1'
_cell_length_a   7.86667578
_cell_length_b   7.86667574
_cell_length_c   7.86667500
_cell_angle_alpha   59.99999889
_cell_angle_beta   59.99999906
_cell_angle_gamma   60.00000406
_symmetry_Int_Tables_number   1
_chemical_formula_structural   Co2GeMo3N
_chemical_formula_sum   'Co8 Ge4 Mo12 N4'
_cell_volume   344.23792648
_cell_formula_units_Z   4
loop_
 _symmetry_equiv_pos_site_id
 _symmetry_equiv_pos_as_xyz
  1  'x, y, z'
loop_
 _atom_site_type_symbol
 _atom_site_label
 _atom_site_symmetry_multiplicity
 _atom_site_fract_x
 _atom_site_fract_y
 _atom_site_fract_z
 _atom_site_occupancy
  Co  Co0  1  0.254427  0.915191  0.915191  1
  Co  Co1  1  0.915191  0.254427  0.915191  1
  Co  Co2  1  0.915191  0.915191  0.915191  1
  Co  Co3  1  0.915191  0.915191  0.254427  1
  Co  Co4  1  0.995573  0.334809  0.334809  1
  Co  Co5  1  0.334809  0.334809  0.995573  1
  Co  Co6  1  0.334809  0.995573  0.334809  1
  Co  Co7  1  0.334809  0.334809  0.334809  1
  Ge  Ge8  1  0.625000  0.125000  0.125000  1
  Ge  Ge9  1  0.125000  0.125000  0.625000  1
  Ge  Ge10  1  0.125000  0.625000  0.125000  1
  Ge  Ge11  1  0.125000  0.125000  0.125000  1
  Mo  Mo12  1  0.693680  0.306320  0.693680  1
  Mo  Mo13  1  0.556320  0.556320  0.943680  1
  Mo  Mo14  1  0.556320  0.943680  0.556320  1
  Mo  Mo15  1  0.943680  0.943680  0.556320  1
  Mo  Mo16  1  0.943680  0.556320  0.556320  1
  Mo  Mo17  1  0.943680  0.556320  0.943680  1
  Mo  Mo18  1  0.693680  0.306320  0.306320  1
  Mo  Mo19  1  0.306320  0.693680  0.306320  1
  Mo  Mo20  1  0.306320  0.306320  0.693680  1
  Mo  Mo21  1  0.306320  0.693680  0.693680  1
  Mo  Mo22  1  0.693680  0.693680  0.306320  1
  Mo  Mo23  1  0.556320  0.943680  0.943680  1
  N  N24  1  0.625000  0.625000  0.625000  1
  N  N25  1  0.125000  0.625000  0.625000  1
  N  N26  1  0.625000  0.125000  0.625000  1
  N  N27  1  0.625000  0.625000  0.125000  1
