# generated using pymatgen
data_Tb16Ni3Hg4Os
_symmetry_space_group_name_H-M   'P 1'
_cell_length_a   9.59634659
_cell_length_b   9.59707066
_cell_length_c   9.59688658
_cell_angle_alpha   59.68152353
_cell_angle_beta   59.67641670
_cell_angle_gamma   59.68136944
_symmetry_Int_Tables_number   1
_chemical_formula_structural   Tb16Ni3Hg4Os
_chemical_formula_sum   'Tb16 Ni3 Hg4 Os1'
_cell_volume   620.42456194
_cell_formula_units_Z   1
loop_
 _symmetry_equiv_pos_site_id
 _symmetry_equiv_pos_as_xyz
  1  'x, y, z'
loop_
 _atom_site_type_symbol
 _atom_site_label
 _atom_site_symmetry_multiplicity
 _atom_site_fract_x
 _atom_site_fract_y
 _atom_site_fract_z
 _atom_site_occupancy
  Tb  Tb0  1  0.348864  0.348804  0.348785  1
  Tb  Tb1  1  0.353078  0.353088  0.947786  1
  Tb  Tb2  1  0.353157  0.947669  0.353068  1
  Tb  Tb3  1  0.947726  0.353141  0.353043  1
  Tb  Tb4  1  0.811087  0.188694  0.188652  1
  Tb  Tb5  1  0.187050  0.810527  0.810573  1
  Tb  Tb6  1  0.188686  0.811077  0.188677  1
  Tb  Tb7  1  0.810508  0.187082  0.810577  1
  Tb  Tb8  1  0.188668  0.188703  0.811116  1
  Tb  Tb9  1  0.810550  0.810575  0.187029  1
  Tb  Tb10  1  0.937710  0.564284  0.564301  1
  Tb  Tb11  1  0.555355  0.939553  0.939534  1
  Tb  Tb12  1  0.564283  0.937726  0.564294  1
  Tb  Tb13  1  0.939549  0.555341  0.939534  1
  Tb  Tb14  1  0.564293  0.564288  0.937701  1
  Tb  Tb15  1  0.939547  0.939550  0.555361  1
  Ni  Ni16  1  0.142639  0.142624  0.574107  1
  Ni  Ni17  1  0.142616  0.574119  0.142651  1
  Ni  Ni18  1  0.574088  0.142631  0.142679  1
  Hg  Hg19  1  0.584260  0.584252  0.584256  1
  Hg  Hg20  1  0.584022  0.584021  0.244399  1
  Hg  Hg21  1  0.584034  0.244382  0.584026  1
  Hg  Hg22  1  0.244394  0.584025  0.584018  1
  Os  Os23  1  0.143836  0.143842  0.143834  1
