# generated using pymatgen
data_HoTaC2
_symmetry_space_group_name_H-M   'P 1'
_cell_length_a   5.87222321
_cell_length_b   5.87222265
_cell_length_c   5.87222274
_cell_angle_alpha   32.63282758
_cell_angle_beta   32.63283902
_cell_angle_gamma   32.63283718
_symmetry_Int_Tables_number   1
_chemical_formula_structural   HoTaC2
_chemical_formula_sum   'Ho1 Ta1 C2'
_cell_volume   52.37023494
_cell_formula_units_Z   1
loop_
 _symmetry_equiv_pos_site_id
 _symmetry_equiv_pos_as_xyz
  1  'x, y, z'
loop_
 _atom_site_type_symbol
 _atom_site_label
 _atom_site_symmetry_multiplicity
 _atom_site_fract_x
 _atom_site_fract_y
 _atom_site_fract_z
 _atom_site_occupancy
  Ho  Ho0  1  0.000000  0.000000  0.000000  1
  Ta  Ta1  1  0.500000  0.500000  0.500000  1
  C  C2  1  0.239578  0.239578  0.239578  1
  C  C3  1  0.760422  0.760422  0.760422  1
