# generated using pymatgen
data_Ho2LuGa2Co9B4
_symmetry_space_group_name_H-M   'P 1'
_cell_length_a   5.12069102
_cell_length_b   5.12067423
_cell_length_c   9.54173400
_cell_angle_alpha   90.00024493
_cell_angle_beta   90.00007066
_cell_angle_gamma   120.00239357
_symmetry_Int_Tables_number   1
_chemical_formula_structural   Ho2LuGa2Co9B4
_chemical_formula_sum   'Ho2 Lu1 Ga2 Co9 B4'
_cell_volume   216.67219380
_cell_formula_units_Z   1
loop_
 _symmetry_equiv_pos_site_id
 _symmetry_equiv_pos_as_xyz
  1  'x, y, z'
loop_
 _atom_site_type_symbol
 _atom_site_label
 _atom_site_symmetry_multiplicity
 _atom_site_fract_x
 _atom_site_fract_y
 _atom_site_fract_z
 _atom_site_occupancy
  Ho  Ho0  1  0.999967  0.999991  0.000499  1
  Ho  Ho1  1  0.000004  0.000022  0.659293  1
  Lu  Lu2  1  0.999992  0.000003  0.339809  1
  Ga  Ga3  1  0.333167  0.666810  0.000327  1
  Ga  Ga4  1  0.666875  0.333201  0.000243  1
  Co  Co5  1  0.499994  0.000021  0.499340  1
  Co  Co6  1  0.500000  0.499979  0.499298  1
  Co  Co7  1  0.999933  0.499979  0.499331  1
  Co  Co8  1  0.500009  0.000055  0.208107  1
  Co  Co9  1  0.500001  0.499941  0.208061  1
  Co  Co10  1  0.999931  0.499962  0.208167  1
  Co  Co11  1  0.499964  0.999934  0.792631  1
  Co  Co12  1  0.499965  0.500039  0.792721  1
  Co  Co13  1  0.000081  0.500046  0.792666  1
  B  B14  1  0.333405  0.666698  0.349292  1
  B  B15  1  0.666595  0.333306  0.349436  1
  B  B16  1  0.666615  0.333389  0.650361  1
  B  B17  1  0.333399  0.666624  0.650418  1
