# generated using pymatgen
data_Ho11Tm3(LuBi2)6
_symmetry_space_group_name_H-M   'P 1'
_cell_length_a   8.18883968
_cell_length_b   9.44594147
_cell_length_c   11.96240095
_cell_angle_alpha   89.99904650
_cell_angle_beta   89.95471078
_cell_angle_gamma   90.01334128
_symmetry_Int_Tables_number   1
_chemical_formula_structural   Ho11Tm3(LuBi2)6
_chemical_formula_sum   'Ho11 Tm3 Lu6 Bi12'
_cell_volume   925.30695289
_cell_formula_units_Z   1
loop_
 _symmetry_equiv_pos_site_id
 _symmetry_equiv_pos_as_xyz
  1  'x, y, z'
loop_
 _atom_site_type_symbol
 _atom_site_label
 _atom_site_symmetry_multiplicity
 _atom_site_fract_x
 _atom_site_fract_y
 _atom_site_fract_z
 _atom_site_occupancy
  Ho  Ho0  1  0.524956  0.249925  0.988547  1
  Ho  Ho1  1  0.354512  0.250195  0.283378  1
  Ho  Ho2  1  0.644784  0.750926  0.716646  1
  Ho  Ho3  1  0.145093  0.750604  0.782889  1
  Ho  Ho4  1  0.855825  0.250445  0.216686  1
  Ho  Ho5  1  0.187232  0.249886  0.781532  1
  Ho  Ho6  1  0.812855  0.750347  0.218416  1
  Ho  Ho7  1  0.312958  0.750193  0.282063  1
  Ho  Ho8  1  0.687324  0.250151  0.718175  1
  Ho  Ho9  1  0.807279  0.564868  0.940573  1
  Ho  Ho10  1  0.693624  0.064631  0.440675  1
  Tm  Tm11  1  0.192427  0.434549  0.059410  1
  Tm  Tm12  1  0.693170  0.434361  0.440628  1
  Tm  Tm13  1  0.306522  0.565502  0.559436  1
  Lu  Lu14  1  0.025155  0.250347  0.511054  1
  Lu  Lu15  1  0.975839  0.750132  0.489049  1
  Lu  Lu16  1  0.475079  0.750435  0.010902  1
  Lu  Lu17  1  0.193330  0.066184  0.059793  1
  Lu  Lu18  1  0.806519  0.933610  0.940252  1
  Lu  Lu19  1  0.306401  0.933507  0.559604  1
  Bi  Bi20  1  0.405153  0.249219  0.542923  1
  Bi  Bi21  1  0.593917  0.748987  0.457770  1
  Bi  Bi22  1  0.094952  0.751717  0.042884  1
  Bi  Bi23  1  0.907254  0.247450  0.957337  1
  Bi  Bi24  1  0.066530  0.003849  0.327055  1
  Bi  Bi25  1  0.933625  0.996509  0.672845  1
  Bi  Bi26  1  0.432768  0.995518  0.826489  1
  Bi  Bi27  1  0.933659  0.504084  0.672663  1
  Bi  Bi28  1  0.565834  0.003322  0.173355  1
  Bi  Bi29  1  0.066572  0.496571  0.327173  1
  Bi  Bi30  1  0.566312  0.497089  0.173437  1
  Bi  Bi31  1  0.432540  0.504887  0.826358  1
