# generated using pymatgen
data_EuMnF5
_symmetry_space_group_name_H-M   'P 1'
_cell_length_a   5.79819901
_cell_length_b   5.79797505
_cell_length_c   8.08979293
_cell_angle_alpha   112.59219926
_cell_angle_beta   96.82007593
_cell_angle_gamma   107.11742262
_symmetry_Int_Tables_number   1
_chemical_formula_structural   EuMnF5
_chemical_formula_sum   'Eu2 Mn2 F10'
_cell_volume   231.53873747
_cell_formula_units_Z   2
loop_
 _symmetry_equiv_pos_site_id
 _symmetry_equiv_pos_as_xyz
  1  'x, y, z'
loop_
 _atom_site_type_symbol
 _atom_site_label
 _atom_site_symmetry_multiplicity
 _atom_site_fract_x
 _atom_site_fract_y
 _atom_site_fract_z
 _atom_site_occupancy
  Eu  Eu0  1  0.549062  0.799205  0.249859  1
  Eu  Eu1  1  0.451189  0.201028  0.750236  1
  Mn  Mn2  1  0.000094  0.999911  0.999990  1
  Mn  Mn3  1  0.999947  0.500046  0.499993  1
  F  F4  1  0.290908  0.353931  0.029076  1
  F  F5  1  0.266609  0.921807  0.123158  1
  F  F6  1  0.902143  0.152224  0.249921  1
  F  F7  1  0.798591  0.643831  0.376726  1
  F  F8  1  0.324673  0.761701  0.470775  1
  F  F9  1  0.675132  0.238305  0.529295  1
  F  F10  1  0.201146  0.355950  0.623141  1
  F  F11  1  0.097799  0.847689  0.750054  1
  F  F12  1  0.733689  0.078379  0.876931  1
  F  F13  1  0.709013  0.645987  0.970841  1
