# generated using pymatgen
data_Y4Lu6Si5P
_symmetry_space_group_name_H-M   'P 1'
_cell_length_a   8.30561800
_cell_length_b   8.32082592
_cell_length_c   6.17320300
_cell_angle_alpha   90.00000000
_cell_angle_beta   90.00000000
_cell_angle_gamma   119.93955085
_symmetry_Int_Tables_number   1
_chemical_formula_structural   Y4Lu6Si5P
_chemical_formula_sum   'Y4 Lu6 Si5 P1'
_cell_volume   369.69518715
_cell_formula_units_Z   1
loop_
 _symmetry_equiv_pos_site_id
 _symmetry_equiv_pos_as_xyz
  1  'x, y, z'
loop_
 _atom_site_type_symbol
 _atom_site_label
 _atom_site_symmetry_multiplicity
 _atom_site_fract_x
 _atom_site_fract_y
 _atom_site_fract_z
 _atom_site_occupancy
  Y  Y0  1  0.999988  0.754816  0.750000  1
  Y  Y1  1  0.754160  0.000000  0.750000  1
  Y  Y2  1  0.245171  0.245184  0.750000  1
  Y  Y3  1  0.244679  0.000000  0.250000  1
  Lu  Lu4  1  0.000894  0.245203  0.250000  1
  Lu  Lu5  1  0.755692  0.754797  0.250000  1
  Lu  Lu6  1  0.333762  0.667304  0.499863  1
  Lu  Lu7  1  0.666460  0.332696  0.000137  1
  Lu  Lu8  1  0.666460  0.332696  0.499863  1
  Lu  Lu9  1  0.333762  0.667304  0.000137  1
  Si  Si10  1  0.395109  0.396140  0.250000  1
  Si  Si11  1  0.998969  0.603860  0.250000  1
  Si  Si12  1  0.999853  0.395282  0.750000  1
  Si  Si13  1  0.604571  0.604718  0.750000  1
  Si  Si14  1  0.609414  0.000000  0.250000  1
  P  P15  1  0.391053  0.000000  0.750000  1
