# generated using pymatgen
data_Tb8Zr9Si16Mo3
_symmetry_space_group_name_H-M   'P 1'
_cell_length_a   7.25737257
_cell_length_b   7.25737290
_cell_length_c   13.30111001
_cell_angle_alpha   90.11241048
_cell_angle_beta   90.11241309
_cell_angle_gamma   90.03401308
_symmetry_Int_Tables_number   1
_chemical_formula_structural   Tb8Zr9Si16Mo3
_chemical_formula_sum   'Tb8 Zr9 Si16 Mo3'
_cell_volume   700.55944712
_cell_formula_units_Z   1
loop_
 _symmetry_equiv_pos_site_id
 _symmetry_equiv_pos_as_xyz
  1  'x, y, z'
loop_
 _atom_site_type_symbol
 _atom_site_label
 _atom_site_symmetry_multiplicity
 _atom_site_fract_x
 _atom_site_fract_y
 _atom_site_fract_z
 _atom_site_occupancy
  Tb  Tb0  1  0.999742  0.346702  0.214185  1
  Tb  Tb1  1  0.003348  0.654446  0.713330  1
  Tb  Tb2  1  0.153158  0.500573  0.462406  1
  Tb  Tb3  1  0.499427  0.846842  0.037594  1
  Tb  Tb4  1  0.848657  0.501550  0.966856  1
  Tb  Tb5  1  0.498450  0.151343  0.533144  1
  Tb  Tb6  1  0.345554  0.996652  0.786670  1
  Tb  Tb7  1  0.653298  0.000258  0.285815  1
  Zr  Zr8  1  0.676713  0.323287  0.750000  1
  Zr  Zr9  1  0.145370  0.993191  0.373553  1
  Zr  Zr10  1  0.856222  0.004934  0.876915  1
  Zr  Zr11  1  0.505103  0.647051  0.621552  1
  Zr  Zr12  1  0.352949  0.494897  0.878448  1
  Zr  Zr13  1  0.493214  0.354268  0.126316  1
  Zr  Zr14  1  0.645732  0.506786  0.373684  1
  Zr  Zr15  1  0.995066  0.143778  0.623085  1
  Zr  Zr16  1  0.006809  0.854630  0.126447  1
  Si  Si17  1  0.359017  0.297283  0.316287  1
  Si  Si18  1  0.639993  0.706159  0.816739  1
  Si  Si19  1  0.203403  0.859697  0.564998  1
  Si  Si20  1  0.140303  0.796597  0.935002  1
  Si  Si21  1  0.796780  0.140114  0.066924  1
  Si  Si22  1  0.859886  0.203220  0.433076  1
  Si  Si23  1  0.293841  0.360007  0.683261  1
  Si  Si24  1  0.702717  0.640983  0.183713  1
  Si  Si25  1  0.294555  0.053138  0.184650  1
  Si  Si26  1  0.705707  0.944237  0.682329  1
  Si  Si27  1  0.446712  0.794083  0.432683  1
  Si  Si28  1  0.205917  0.553288  0.067317  1
  Si  Si29  1  0.548526  0.203417  0.937811  1
  Si  Si30  1  0.796583  0.451474  0.562189  1
  Si  Si31  1  0.055763  0.294293  0.817671  1
  Si  Si32  1  0.946862  0.705445  0.315350  1
  Mo  Mo33  1  0.177275  0.175808  0.001770  1
  Mo  Mo34  1  0.824192  0.822725  0.498230  1
  Mo  Mo35  1  0.323158  0.676842  0.250000  1
