# generated using pymatgen
data_Er12Si12Os3Rh
_symmetry_space_group_name_H-M   'P 1'
_cell_length_a   4.19988200
_cell_length_b   10.64083774
_cell_length_c   12.24859629
_cell_angle_alpha   90.11400007
_cell_angle_beta   90.00000000
_cell_angle_gamma   90.00000000
_symmetry_Int_Tables_number   1
_chemical_formula_structural   Er12Si12Os3Rh
_chemical_formula_sum   'Er12 Si12 Os3 Rh1'
_cell_volume   547.39190445
_cell_formula_units_Z   1
loop_
 _symmetry_equiv_pos_site_id
 _symmetry_equiv_pos_as_xyz
  1  'x, y, z'
loop_
 _atom_site_type_symbol
 _atom_site_label
 _atom_site_symmetry_multiplicity
 _atom_site_fract_x
 _atom_site_fract_y
 _atom_site_fract_z
 _atom_site_occupancy
  Er  Er0  1  0.250000  0.880492  0.021528  1
  Er  Er1  1  0.250000  0.619902  0.520914  1
  Er  Er2  1  0.750000  0.119978  0.979516  1
  Er  Er3  1  0.750000  0.381185  0.478609  1
  Er  Er4  1  0.250000  0.919881  0.603847  1
  Er  Er5  1  0.250000  0.579431  0.104760  1
  Er  Er6  1  0.750000  0.079682  0.396035  1
  Er  Er7  1  0.750000  0.419840  0.895277  1
  Er  Er8  1  0.250000  0.661028  0.800110  1
  Er  Er9  1  0.250000  0.837957  0.299682  1
  Er  Er10  1  0.750000  0.338737  0.199758  1
  Er  Er11  1  0.750000  0.160756  0.698699  1
  Si  Si12  1  0.250000  0.012534  0.822016  1
  Si  Si13  1  0.250000  0.490846  0.320591  1
  Si  Si14  1  0.750000  0.991151  0.179409  1
  Si  Si15  1  0.750000  0.508506  0.679617  1
  Si  Si16  1  0.250000  0.248368  0.840411  1
  Si  Si17  1  0.250000  0.251052  0.341098  1
  Si  Si18  1  0.750000  0.750526  0.158782  1
  Si  Si19  1  0.750000  0.748528  0.657750  1
  Si  Si20  1  0.250000  0.203822  0.544161  1
  Si  Si21  1  0.250000  0.297761  0.044189  1
  Si  Si22  1  0.750000  0.798623  0.455343  1
  Si  Si23  1  0.750000  0.698354  0.957509  1
  Os  Os24  1  0.250000  0.390391  0.680956  1
  Os  Os25  1  0.250000  0.109815  0.180046  1
  Os  Os26  1  0.750000  0.610590  0.319685  1
  Rh  Rh27  1  0.750000  0.890267  0.819701  1
