# generated using pymatgen
data_LuU3(SnRu2)2
_symmetry_space_group_name_H-M   'P 1'
_cell_length_a   7.56180314
_cell_length_b   7.56180314
_cell_length_c   3.51769500
_cell_angle_alpha   90.00000000
_cell_angle_beta   90.00000000
_cell_angle_gamma   86.86253317
_symmetry_Int_Tables_number   1
_chemical_formula_structural   LuU3(SnRu2)2
_chemical_formula_sum   'Lu1 U3 Sn2 Ru4'
_cell_volume   200.84335168
_cell_formula_units_Z   1
loop_
 _symmetry_equiv_pos_site_id
 _symmetry_equiv_pos_as_xyz
  1  'x, y, z'
loop_
 _atom_site_type_symbol
 _atom_site_label
 _atom_site_symmetry_multiplicity
 _atom_site_fract_x
 _atom_site_fract_y
 _atom_site_fract_z
 _atom_site_occupancy
  Lu  Lu0  1  0.331906  0.831906  0.500000  1
  U  U1  1  0.834022  0.671680  0.500000  1
  U  U2  1  0.171680  0.334022  0.500000  1
  U  U3  1  0.667454  0.167454  0.500000  1
  Sn  Sn4  1  0.012542  0.998584  0.000000  1
  Sn  Sn5  1  0.498584  0.512542  0.000000  1
  Ru  Ru6  1  0.368812  0.155788  0.000000  1
  Ru  Ru7  1  0.850784  0.350784  0.000000  1
  Ru  Ru8  1  0.108427  0.608427  0.000000  1
  Ru  Ru9  1  0.655788  0.868812  0.000000  1
