# generated using pymatgen
data_LiSm2Ho4Co17P12
_symmetry_space_group_name_H-M   'P 1'
_cell_length_a   3.70473800
_cell_length_b   10.52918100
_cell_length_c   12.17641400
_cell_angle_alpha   90.00000000
_cell_angle_beta   90.00000000
_cell_angle_gamma   90.00000000
_symmetry_Int_Tables_number   1
_chemical_formula_structural   LiSm2Ho4Co17P12
_chemical_formula_sum   'Li1 Sm2 Ho4 Co17 P12'
_cell_volume   474.97581559
_cell_formula_units_Z   1
loop_
 _symmetry_equiv_pos_site_id
 _symmetry_equiv_pos_as_xyz
  1  'x, y, z'
loop_
 _atom_site_type_symbol
 _atom_site_label
 _atom_site_symmetry_multiplicity
 _atom_site_fract_x
 _atom_site_fract_y
 _atom_site_fract_z
 _atom_site_occupancy
  Li  Li0  1  0.500000  0.500000  0.150486  1
  Sm  Sm1  1  0.000000  0.500000  0.522910  1
  Sm  Sm2  1  0.500000  0.000000  0.478164  1
  Ho  Ho3  1  0.500000  0.819349  0.205827  1
  Ho  Ho4  1  0.500000  0.180651  0.205827  1
  Ho  Ho5  1  0.000000  0.682165  0.794923  1
  Ho  Ho6  1  0.000000  0.317835  0.794923  1
  Co  Co7  1  0.000000  0.500000  0.986234  1
  Co  Co8  1  0.500000  0.000000  0.011845  1
  Co  Co9  1  0.500000  0.296008  0.431048  1
  Co  Co10  1  0.500000  0.703992  0.431048  1
  Co  Co11  1  0.000000  0.202675  0.571410  1
  Co  Co12  1  0.000000  0.797325  0.571410  1
  Co  Co13  1  0.500000  0.879825  0.710990  1
  Co  Co14  1  0.500000  0.120175  0.710990  1
  Co  Co15  1  0.000000  0.622153  0.290947  1
  Co  Co16  1  0.000000  0.377847  0.290947  1
  Co  Co17  1  0.500000  0.330943  0.995229  1
  Co  Co18  1  0.500000  0.669057  0.995229  1
  Co  Co19  1  0.000000  0.165117  0.003102  1
  Co  Co20  1  0.000000  0.834883  0.003102  1
  Co  Co21  1  0.000000  0.000000  0.841701  1
  Co  Co22  1  0.500000  0.500000  0.706500  1
  Co  Co23  1  0.000000  0.000000  0.294441  1
  P  P24  1  0.500000  0.308479  0.617888  1
  P  P25  1  0.500000  0.691521  0.617888  1
  P  P26  1  0.000000  0.191305  0.383964  1
  P  P27  1  0.000000  0.808695  0.383964  1
  P  P28  1  0.500000  0.500000  0.885174  1
  P  P29  1  0.000000  0.000000  0.116001  1
  P  P30  1  0.500000  0.847037  0.892138  1
  P  P31  1  0.500000  0.152963  0.892138  1
  P  P32  1  0.000000  0.657425  0.105386  1
  P  P33  1  0.000000  0.342575  0.105386  1
  P  P34  1  0.500000  0.500000  0.342709  1
  P  P35  1  0.000000  0.000000  0.658125  1
