# generated using pymatgen
data_SrBHO3
_symmetry_space_group_name_H-M   'P 1'
_cell_length_a   3.61350223
_cell_length_b   5.44028258
_cell_length_c   7.74647068
_cell_angle_alpha   107.78313306
_cell_angle_beta   103.44973460
_cell_angle_gamma   91.39462656
_symmetry_Int_Tables_number   1
_chemical_formula_structural   SrBHO3
_chemical_formula_sum   'Sr2 B2 H2 O6'
_cell_volume   140.28075559
_cell_formula_units_Z   2
loop_
 _symmetry_equiv_pos_site_id
 _symmetry_equiv_pos_as_xyz
  1  'x, y, z'
loop_
 _atom_site_type_symbol
 _atom_site_label
 _atom_site_symmetry_multiplicity
 _atom_site_fract_x
 _atom_site_fract_y
 _atom_site_fract_z
 _atom_site_occupancy
  Sr  Sr0  1  0.265142  0.168962  0.323977  1
  Sr  Sr1  1  0.734858  0.831038  0.676023  1
  B  B2  1  0.851426  0.623553  0.251343  1
  B  B3  1  0.148573  0.376447  0.748656  1
  H  H4  1  0.537581  0.724621  0.025835  1
  H  H5  1  0.462419  0.275379  0.974165  1
  O  O6  1  0.709194  0.807687  0.161315  1
  O  O7  1  0.706829  0.368407  0.175325  1
  O  O8  1  0.134278  0.720140  0.415182  1
  O  O9  1  0.865724  0.279860  0.584819  1
  O  O10  1  0.293171  0.631593  0.824675  1
  O  O11  1  0.290806  0.192313  0.838685  1
