# generated using pymatgen
data_Hf8Mn7Si14Pt
_symmetry_space_group_name_H-M   'P 1'
_cell_length_a   9.56723355
_cell_length_b   9.59172647
_cell_length_c   9.58571825
_cell_angle_alpha   94.22255454
_cell_angle_beta   94.08640235
_cell_angle_gamma   148.76129627
_symmetry_Int_Tables_number   1
_chemical_formula_structural   Hf8Mn7Si14Pt
_chemical_formula_sum   'Hf8 Mn7 Si14 Pt1'
_cell_volume   439.36413959
_cell_formula_units_Z   1
loop_
 _symmetry_equiv_pos_site_id
 _symmetry_equiv_pos_as_xyz
  1  'x, y, z'
loop_
 _atom_site_type_symbol
 _atom_site_label
 _atom_site_symmetry_multiplicity
 _atom_site_fract_x
 _atom_site_fract_y
 _atom_site_fract_z
 _atom_site_occupancy
  Hf  Hf0  1  0.139217  0.139217  0.278435  1
  Hf  Hf1  1  0.861328  0.861328  0.722656  1
  Hf  Hf2  1  0.858314  0.136429  0.000134  1
  Hf  Hf3  1  0.141820  0.863704  0.000134  1
  Hf  Hf4  1  0.494271  0.299145  0.805720  1
  Hf  Hf5  1  0.494258  0.690571  0.195802  1
  Hf  Hf6  1  0.701544  0.505230  0.195802  1
  Hf  Hf7  1  0.311449  0.506575  0.805720  1
  Mn  Mn8  1  0.108887  0.608887  0.217773  1
  Mn  Mn9  1  0.106637  0.895643  0.499416  1
  Mn  Mn10  1  0.392780  0.603774  0.499416  1
  Mn  Mn11  1  0.598366  0.402183  0.497638  1
  Mn  Mn12  1  0.899272  0.095456  0.497638  1
  Mn  Mn13  1  0.903428  0.403428  0.806857  1
  Mn  Mn14  1  0.598353  0.098353  0.196706  1
  Si  Si15  1  0.549723  0.143920  0.588892  1
  Si  Si16  1  0.533686  0.941448  0.408965  1
  Si  Si17  1  0.875280  0.467519  0.408965  1
  Si  Si18  1  0.039169  0.444972  0.588892  1
  Si  Si19  1  0.750584  0.749726  0.000412  1
  Si  Si20  1  0.249828  0.250685  0.000412  1
  Si  Si21  1  0.292194  0.292194  0.584387  1
  Si  Si22  1  0.708046  0.708046  0.416094  1
  Si  Si23  1  0.721627  0.304400  0.004489  1
  Si  Si24  1  0.282862  0.700090  0.004489  1
  Si  Si25  1  0.983248  0.278179  0.295076  1
  Si  Si26  1  0.971797  0.680155  0.703464  1
  Si  Si27  1  0.731667  0.023308  0.703464  1
  Si  Si28  1  0.311828  0.016897  0.295076  1
  Pt  Pt29  1  0.388535  0.888535  0.777072  1
