# generated using pymatgen
data_Sm4Zn5GaPt8
_symmetry_space_group_name_H-M   'P 1'
_cell_length_a   8.08874188
_cell_length_b   8.08874154
_cell_length_c   7.66877900
_cell_angle_alpha   89.90178863
_cell_angle_beta   90.09820428
_cell_angle_gamma   139.51007242
_symmetry_Int_Tables_number   1
_chemical_formula_structural   Sm4Zn5GaPt8
_chemical_formula_sum   'Sm4 Zn5 Ga1 Pt8'
_cell_volume   325.79352000
_cell_formula_units_Z   1
loop_
 _symmetry_equiv_pos_site_id
 _symmetry_equiv_pos_as_xyz
  1  'x, y, z'
loop_
 _atom_site_type_symbol
 _atom_site_label
 _atom_site_symmetry_multiplicity
 _atom_site_fract_x
 _atom_site_fract_y
 _atom_site_fract_z
 _atom_site_occupancy
  Sm  Sm0  1  0.112531  0.887469  0.409721  1
  Sm  Sm1  1  0.887469  0.112531  0.590279  1
  Sm  Sm2  1  0.387977  0.612023  0.913684  1
  Sm  Sm3  1  0.612023  0.387977  0.086316  1
  Zn  Zn4  1  0.000000  0.000000  0.000000  1
  Zn  Zn5  1  0.022515  0.477420  0.250651  1
  Zn  Zn6  1  0.477420  0.022515  0.749349  1
  Zn  Zn7  1  0.977485  0.522580  0.749349  1
  Zn  Zn8  1  0.522580  0.977485  0.250651  1
  Ga  Ga9  1  0.500000  0.500000  0.500000  1
  Pt  Pt10  1  0.191267  0.306399  0.252300  1
  Pt  Pt11  1  0.306399  0.191267  0.747700  1
  Pt  Pt12  1  0.808733  0.693601  0.747700  1
  Pt  Pt13  1  0.693601  0.808733  0.252300  1
  Pt  Pt14  1  0.178461  0.821539  0.023588  1
  Pt  Pt15  1  0.821539  0.178461  0.976412  1
  Pt  Pt16  1  0.322320  0.677680  0.525675  1
  Pt  Pt17  1  0.677680  0.322320  0.474325  1
