# generated using pymatgen
data_Rb10AgAs4Pt
_symmetry_space_group_name_H-M   'P 1'
_cell_length_a   6.07936400
_cell_length_b   6.07936516
_cell_length_c   20.11704500
_cell_angle_alpha   90.00000000
_cell_angle_beta   90.00000000
_cell_angle_gamma   119.99999370
_symmetry_Int_Tables_number   1
_chemical_formula_structural   Rb10AgAs4Pt
_chemical_formula_sum   'Rb10 Ag1 As4 Pt1'
_cell_volume   643.88932381
_cell_formula_units_Z   1
loop_
 _symmetry_equiv_pos_site_id
 _symmetry_equiv_pos_as_xyz
  1  'x, y, z'
loop_
 _atom_site_type_symbol
 _atom_site_label
 _atom_site_symmetry_multiplicity
 _atom_site_fract_x
 _atom_site_fract_y
 _atom_site_fract_z
 _atom_site_occupancy
  Rb  Rb0  1  0.333333  0.666667  0.548484  1
  Rb  Rb1  1  0.666667  0.333333  0.048923  1
  Rb  Rb2  1  0.666667  0.333333  0.451077  1
  Rb  Rb3  1  0.333333  0.666667  0.951516  1
  Rb  Rb4  1  0.000000  0.000000  0.154104  1
  Rb  Rb5  1  0.000000  0.000000  0.644557  1
  Rb  Rb6  1  0.000000  0.000000  0.855443  1
  Rb  Rb7  1  0.000000  0.000000  0.345896  1
  Rb  Rb8  1  0.333333  0.666667  0.750000  1
  Rb  Rb9  1  0.666667  0.333333  0.250000  1
  Ag  Ag10  1  0.666667  0.333333  0.750000  1
  As  As11  1  0.333333  0.666667  0.370859  1
  As  As12  1  0.666667  0.333333  0.876792  1
  As  As13  1  0.666667  0.333333  0.623208  1
  As  As14  1  0.333333  0.666667  0.129141  1
  Pt  Pt15  1  0.333333  0.666667  0.250000  1
