# generated using pymatgen
data_Ta2NbPd9
_symmetry_space_group_name_H-M   'P 1'
_cell_length_a   5.56115000
_cell_length_b   13.73863900
_cell_length_c   4.92503000
_cell_angle_alpha   90.00000000
_cell_angle_beta   90.00000000
_cell_angle_gamma   90.00000000
_symmetry_Int_Tables_number   1
_chemical_formula_structural   Ta2NbPd9
_chemical_formula_sum   'Ta4 Nb2 Pd18'
_cell_volume   376.28525603
_cell_formula_units_Z   2
loop_
 _symmetry_equiv_pos_site_id
 _symmetry_equiv_pos_as_xyz
  1  'x, y, z'
loop_
 _atom_site_type_symbol
 _atom_site_label
 _atom_site_symmetry_multiplicity
 _atom_site_fract_x
 _atom_site_fract_y
 _atom_site_fract_z
 _atom_site_occupancy
  Ta  Ta0  1  0.000000  0.335432  0.333088  1
  Ta  Ta1  1  0.000000  0.664568  0.333088  1
  Ta  Ta2  1  0.499999  0.164568  0.666912  1
  Ta  Ta3  1  0.499999  0.835432  0.666912  1
  Nb  Nb4  1  0.499999  0.500000  0.011299  1
  Nb  Nb5  1  0.000000  0.000000  0.988701  1
  Pd  Pd6  1  0.000000  0.500000  0.020518  1
  Pd  Pd7  1  0.249355  0.167718  0.165322  1
  Pd  Pd8  1  0.750644  0.167718  0.165322  1
  Pd  Pd9  1  0.249355  0.832283  0.165322  1
  Pd  Pd10  1  0.750644  0.832283  0.165322  1
  Pd  Pd11  1  0.499999  0.334159  0.338142  1
  Pd  Pd12  1  0.499999  0.665840  0.338142  1
  Pd  Pd13  1  0.248791  0.000000  0.490492  1
  Pd  Pd14  1  0.751208  0.000000  0.490492  1
  Pd  Pd15  1  0.251208  0.500000  0.509508  1
  Pd  Pd16  1  0.748792  0.500000  0.509508  1
  Pd  Pd17  1  0.000000  0.165840  0.661858  1
  Pd  Pd18  1  0.000000  0.834160  0.661858  1
  Pd  Pd19  1  0.250644  0.332282  0.834678  1
  Pd  Pd20  1  0.749356  0.332282  0.834678  1
  Pd  Pd21  1  0.250644  0.667718  0.834678  1
  Pd  Pd22  1  0.749356  0.667718  0.834678  1
  Pd  Pd23  1  0.499999  0.000000  0.979482  1
