# generated using pymatgen
data_RbCaAsO4
_symmetry_space_group_name_H-M   'P 1'
_cell_length_a   10.60100541
_cell_length_b   10.60100570
_cell_length_c   10.60100574
_cell_angle_alpha   30.24626350
_cell_angle_beta   30.24625879
_cell_angle_gamma   30.24626241
_symmetry_Int_Tables_number   1
_chemical_formula_structural   RbCaAsO4
_chemical_formula_sum   'Rb2 Ca2 As2 O8'
_cell_volume   267.85604671
_cell_formula_units_Z   2
loop_
 _symmetry_equiv_pos_site_id
 _symmetry_equiv_pos_as_xyz
  1  'x, y, z'
loop_
 _atom_site_type_symbol
 _atom_site_label
 _atom_site_symmetry_multiplicity
 _atom_site_fract_x
 _atom_site_fract_y
 _atom_site_fract_z
 _atom_site_occupancy
  Rb  Rb0  1  0.288820  0.288820  0.288820  1
  Rb  Rb1  1  0.711180  0.711180  0.711180  1
  Ca  Ca2  1  0.161311  0.161311  0.161311  1
  Ca  Ca3  1  0.838689  0.838689  0.838689  1
  As  As4  1  0.437360  0.437360  0.437360  1
  As  As5  1  0.562640  0.562640  0.562640  1
  O  O6  1  0.743833  0.474758  0.150750  1
  O  O7  1  0.525242  0.849251  0.256165  1
  O  O8  1  0.381236  0.381236  0.381236  1
  O  O9  1  0.150750  0.743835  0.474757  1
  O  O10  1  0.849250  0.256165  0.525243  1
  O  O11  1  0.618764  0.618764  0.618764  1
  O  O12  1  0.474758  0.150749  0.743835  1
  O  O13  1  0.256167  0.525242  0.849250  1
