# generated using pymatgen
data_NaTb(SiAu)2
_symmetry_space_group_name_H-M   'P 1'
_cell_length_a   5.63879755
_cell_length_b   5.63879824
_cell_length_c   5.63879898
_cell_angle_alpha   134.12875738
_cell_angle_beta   100.64723608
_cell_angle_gamma   96.83237387
_symmetry_Int_Tables_number   1
_chemical_formula_structural   NaTb(SiAu)2
_chemical_formula_sum   'Na1 Tb1 Si2 Au2'
_cell_volume   118.42820492
_cell_formula_units_Z   1
loop_
 _symmetry_equiv_pos_site_id
 _symmetry_equiv_pos_as_xyz
  1  'x, y, z'
loop_
 _atom_site_type_symbol
 _atom_site_label
 _atom_site_symmetry_multiplicity
 _atom_site_fract_x
 _atom_site_fract_y
 _atom_site_fract_z
 _atom_site_occupancy
  Na  Na0  1  0.284764  0.284764  0.000000  1
  Tb  Tb1  1  0.869398  0.369398  0.500000  1
  Si  Si2  1  0.484960  0.659902  0.825058  1
  Si  Si3  1  0.834844  0.659902  0.174942  1
  Au  Au4  1  0.272051  0.993916  0.278136  1
  Au  Au5  1  0.715780  0.993916  0.721864  1
