# generated using pymatgen
data_UHg3(SCl3)2
_symmetry_space_group_name_H-M   'P 1'
_cell_length_a   7.59428700
_cell_length_b   7.05892076
_cell_length_c   13.43985566
_cell_angle_alpha   88.88987643
_cell_angle_beta   90.00000000
_cell_angle_gamma   90.00000000
_symmetry_Int_Tables_number   1
_chemical_formula_structural   UHg3(SCl3)2
_chemical_formula_sum   'U2 Hg6 S4 Cl12'
_cell_volume   720.34143176
_cell_formula_units_Z   2
loop_
 _symmetry_equiv_pos_site_id
 _symmetry_equiv_pos_as_xyz
  1  'x, y, z'
loop_
 _atom_site_type_symbol
 _atom_site_label
 _atom_site_symmetry_multiplicity
 _atom_site_fract_x
 _atom_site_fract_y
 _atom_site_fract_z
 _atom_site_occupancy
  U  U0  1  0.500000  0.500000  0.500000  1
  U  U1  1  0.000000  0.500000  0.000000  1
  Hg  Hg2  1  0.792101  0.992625  0.757230  1
  Hg  Hg3  1  0.207899  0.007375  0.242770  1
  Hg  Hg4  1  0.292101  0.007375  0.742770  1
  Hg  Hg5  1  0.707899  0.992625  0.257230  1
  Hg  Hg6  1  0.000000  0.000000  0.500000  1
  Hg  Hg7  1  0.500000  0.000000  0.000000  1
  S  S8  1  0.961654  0.142760  0.332690  1
  S  S9  1  0.461654  0.857240  0.167310  1
  S  S10  1  0.538346  0.142760  0.832690  1
  S  S11  1  0.038346  0.857240  0.667310  1
  Cl  Cl12  1  0.949951  0.654450  0.173078  1
  Cl  Cl13  1  0.297044  0.360643  0.065572  1
  Cl  Cl14  1  0.702956  0.639357  0.934428  1
  Cl  Cl15  1  0.550049  0.654450  0.673078  1
  Cl  Cl16  1  0.797044  0.639357  0.434428  1
  Cl  Cl17  1  0.846242  0.178093  0.061782  1
  Cl  Cl18  1  0.449951  0.345550  0.326922  1
  Cl  Cl19  1  0.050049  0.345550  0.826922  1
  Cl  Cl20  1  0.153758  0.821907  0.938218  1
  Cl  Cl21  1  0.202956  0.360643  0.565572  1
  Cl  Cl22  1  0.653758  0.178093  0.561782  1
  Cl  Cl23  1  0.346242  0.821907  0.438218  1
