# generated using pymatgen
data_CsBr37
_symmetry_space_group_name_H-M   'P 1'
_cell_length_a   14.20848141
_cell_length_b   15.29732181
_cell_length_c   14.42416200
_cell_angle_alpha   103.00376457
_cell_angle_beta   48.80056783
_cell_angle_gamma   81.50743146
_symmetry_Int_Tables_number   1
_chemical_formula_structural   CsBr37
_chemical_formula_sum   'Cs1 Br37'
_cell_volume   2102.91272627
_cell_formula_units_Z   1
loop_
 _symmetry_equiv_pos_site_id
 _symmetry_equiv_pos_as_xyz
  1  'x, y, z'
loop_
 _atom_site_type_symbol
 _atom_site_label
 _atom_site_symmetry_multiplicity
 _atom_site_fract_x
 _atom_site_fract_y
 _atom_site_fract_z
 _atom_site_occupancy
  Cs  Cs0  1  0.500000  0.000000  0.000000  1
  Br  Br1  1  0.778015  0.299997  0.138684  1
  Br  Br2  1  0.221985  0.700003  0.861316  1
  Br  Br3  1  0.736071  0.085936  0.367290  1
  Br  Br4  1  0.263929  0.914064  0.632710  1
  Br  Br5  1  0.142317  0.341516  0.161568  1
  Br  Br6  1  0.857683  0.658484  0.838432  1
  Br  Br7  1  0.859323  0.519683  0.243824  1
  Br  Br8  1  0.140677  0.480317  0.756176  1
  Br  Br9  1  0.683792  0.275038  0.522714  1
  Br  Br10  1  0.316208  0.724962  0.477286  1
  Br  Br11  1  0.036749  0.139485  0.497907  1
  Br  Br12  1  0.963251  0.860515  0.502093  1
  Br  Br13  1  0.969519  0.010415  0.291513  1
  Br  Br14  1  0.030481  0.989585  0.708487  1
  Br  Br15  1  0.948135  0.331873  0.607109  1
  Br  Br16  1  0.051865  0.668127  0.392891  1
  Br  Br17  1  0.570826  0.432008  0.236243  1
  Br  Br18  1  0.429174  0.567992  0.763757  1
  Br  Br19  1  0.174668  0.485054  0.284922  1
  Br  Br20  1  0.825332  0.514946  0.715078  1
  Br  Br21  1  0.000000  0.500000  0.000000  1
  Br  Br22  1  0.544679  0.950192  0.208142  1
  Br  Br23  1  0.455321  0.049808  0.791858  1
  Br  Br24  1  0.297982  0.048698  0.355702  1
  Br  Br25  1  0.702018  0.951302  0.644298  1
  Br  Br26  1  0.521196  0.137477  0.419049  1
  Br  Br27  1  0.478804  0.862523  0.580951  1
  Br  Br28  1  0.106534  0.219181  0.060949  1
  Br  Br29  1  0.893466  0.780819  0.939051  1
  Br  Br30  1  0.660944  0.688503  0.405224  1
  Br  Br31  1  0.339056  0.311497  0.594776  1
  Br  Br32  1  0.899986  0.145758  0.919596  1
  Br  Br33  1  0.100014  0.854242  0.080404  1
  Br  Br34  1  0.370561  0.258745  0.121759  1
  Br  Br35  1  0.629439  0.741255  0.878241  1
  Br  Br36  1  0.655534  0.427367  0.649110  1
  Br  Br37  1  0.344466  0.572633  0.350890  1
