# generated using pymatgen
data_Lu4SiSn5Rh7
_symmetry_space_group_name_H-M   'P 1'
_cell_length_a   7.46475023
_cell_length_b   7.46474928
_cell_length_c   7.46474900
_cell_angle_alpha   109.40596029
_cell_angle_beta   109.50386916
_cell_angle_gamma   109.50385850
_symmetry_Int_Tables_number   1
_chemical_formula_structural   Lu4SiSn5Rh7
_chemical_formula_sum   'Lu4 Si1 Sn5 Rh7'
_cell_volume   320.20150454
_cell_formula_units_Z   1
loop_
 _symmetry_equiv_pos_site_id
 _symmetry_equiv_pos_as_xyz
  1  'x, y, z'
loop_
 _atom_site_type_symbol
 _atom_site_label
 _atom_site_symmetry_multiplicity
 _atom_site_fract_x
 _atom_site_fract_y
 _atom_site_fract_z
 _atom_site_occupancy
  Lu  Lu0  1  0.000000  0.986023  0.530479  1
  Lu  Lu1  1  0.000000  0.530479  0.986023  1
  Lu  Lu2  1  0.455544  0.986023  0.986023  1
  Lu  Lu3  1  0.544456  0.530479  0.530479  1
  Si  Si4  1  0.000000  0.649534  0.649534  1
  Sn  Sn5  1  0.687139  0.702996  0.015857  1
  Sn  Sn6  1  0.312861  0.015857  0.328718  1
  Sn  Sn7  1  0.000000  0.290775  0.290775  1
  Sn  Sn8  1  0.312861  0.328718  0.015857  1
  Sn  Sn9  1  0.687139  0.015857  0.702996  1
  Rh  Rh10  1  0.756528  0.254154  0.497626  1
  Rh  Rh11  1  0.756528  0.497626  0.254154  1
  Rh  Rh12  1  0.500000  0.260869  0.760869  1
  Rh  Rh13  1  0.243472  0.497626  0.741096  1
  Rh  Rh14  1  0.243472  0.741096  0.497626  1
  Rh  Rh15  1  0.500000  0.760869  0.260869  1
  Rh  Rh16  1  0.000000  0.951021  0.951021  1
