# generated using pymatgen
data_Tm4TaVOs6
_symmetry_space_group_name_H-M   'P 1'
_cell_length_a   5.51750631
_cell_length_b   5.23345975
_cell_length_c   8.89839000
_cell_angle_alpha   90.00000000
_cell_angle_beta   90.00000000
_cell_angle_gamma   121.98141764
_symmetry_Int_Tables_number   1
_chemical_formula_structural   Tm4TaVOs6
_chemical_formula_sum   'Tm4 Ta1 V1 Os6'
_cell_volume   217.94736809
_cell_formula_units_Z   1
loop_
 _symmetry_equiv_pos_site_id
 _symmetry_equiv_pos_as_xyz
  1  'x, y, z'
loop_
 _atom_site_type_symbol
 _atom_site_label
 _atom_site_symmetry_multiplicity
 _atom_site_fract_x
 _atom_site_fract_y
 _atom_site_fract_z
 _atom_site_occupancy
  Tm  Tm0  1  0.670889  0.342328  0.561476  1
  Tm  Tm1  1  0.331599  0.662514  0.432526  1
  Tm  Tm2  1  0.331599  0.662514  0.067474  1
  Tm  Tm3  1  0.670889  0.342328  0.938524  1
  Ta  Ta4  1  0.158579  0.319304  0.750000  1
  V  V5  1  0.837901  0.673208  0.250000  1
  Os  Os6  1  0.998006  0.996111  0.493433  1
  Os  Os7  1  0.998006  0.996111  0.006567  1
  Os  Os8  1  0.174957  0.825437  0.750000  1
  Os  Os9  1  0.649780  0.825027  0.750000  1
  Os  Os10  1  0.825834  0.177735  0.250000  1
  Os  Os11  1  0.351963  0.177382  0.250000  1
