# generated using pymatgen
data_Er16MgAl(CdPd2)2
_symmetry_space_group_name_H-M   'P 1'
_cell_length_a   9.59984609
_cell_length_b   9.59984443
_cell_length_c   9.61882011
_cell_angle_alpha   60.07355509
_cell_angle_beta   60.07356324
_cell_angle_gamma   59.98755273
_symmetry_Int_Tables_number   1
_chemical_formula_structural   Er16MgAl(CdPd2)2
_chemical_formula_sum   'Er16 Mg1 Al1 Cd2 Pd4'
_cell_volume   627.44589674
_cell_formula_units_Z   1
loop_
 _symmetry_equiv_pos_site_id
 _symmetry_equiv_pos_as_xyz
  1  'x, y, z'
loop_
 _atom_site_type_symbol
 _atom_site_label
 _atom_site_symmetry_multiplicity
 _atom_site_fract_x
 _atom_site_fract_y
 _atom_site_fract_z
 _atom_site_occupancy
  Er  Er0  1  0.349987  0.349987  0.350578  1
  Er  Er1  1  0.358697  0.358697  0.932304  1
  Er  Er2  1  0.356494  0.936320  0.358194  1
  Er  Er3  1  0.936320  0.356494  0.358194  1
  Er  Er4  1  0.811404  0.189445  0.188254  1
  Er  Er5  1  0.192929  0.808012  0.808270  1
  Er  Er6  1  0.189445  0.811404  0.188254  1
  Er  Er7  1  0.808012  0.192929  0.808270  1
  Er  Er8  1  0.190301  0.190301  0.808954  1
  Er  Er9  1  0.809052  0.809052  0.191589  1
  Er  Er10  1  0.932040  0.567777  0.567333  1
  Er  Er11  1  0.564619  0.936168  0.934056  1
  Er  Er12  1  0.567777  0.932040  0.567333  1
  Er  Er13  1  0.936168  0.564619  0.934056  1
  Er  Er14  1  0.568229  0.568229  0.928889  1
  Er  Er15  1  0.935296  0.935296  0.564673  1
  Mg  Mg16  1  0.575996  0.575996  0.268479  1
  Al  Al17  1  0.581988  0.581988  0.583362  1
  Cd  Cd18  1  0.581604  0.254488  0.580422  1
  Cd  Cd19  1  0.254488  0.581604  0.580422  1
  Pd  Pd20  1  0.146336  0.146336  0.145074  1
  Pd  Pd21  1  0.141902  0.141902  0.569216  1
  Pd  Pd22  1  0.142803  0.568110  0.141911  1
  Pd  Pd23  1  0.568110  0.142803  0.141911  1
