# generated using pymatgen
data_LaTbFe7CoB8
_symmetry_space_group_name_H-M   'P 1'
_cell_length_a   7.04909361
_cell_length_b   7.04787822
_cell_length_c   3.80539120
_cell_angle_alpha   89.99882247
_cell_angle_beta   89.96225535
_cell_angle_gamma   90.16401471
_symmetry_Int_Tables_number   1
_chemical_formula_structural   LaTbFe7CoB8
_chemical_formula_sum   'La1 Tb1 Fe7 Co1 B8'
_cell_volume   189.05540812
_cell_formula_units_Z   1
loop_
 _symmetry_equiv_pos_site_id
 _symmetry_equiv_pos_as_xyz
  1  'x, y, z'
loop_
 _atom_site_type_symbol
 _atom_site_label
 _atom_site_symmetry_multiplicity
 _atom_site_fract_x
 _atom_site_fract_y
 _atom_site_fract_z
 _atom_site_occupancy
  La  La0  1  0.499952  0.500151  0.500897  1
  Tb  Tb1  1  0.000809  0.000833  0.999623  1
  Fe  Fe2  1  0.385906  0.129579  0.893609  1
  Fe  Fe3  1  0.614527  0.871358  0.893541  1
  Fe  Fe4  1  0.366253  0.888516  0.394458  1
  Fe  Fe5  1  0.634500  0.112272  0.393953  1
  Fe  Fe6  1  0.110482  0.366564  0.605465  1
  Fe  Fe7  1  0.887558  0.632584  0.605896  1
  Fe  Fe8  1  0.128443  0.613930  0.107087  1
  Co  Co9  1  0.868026  0.386106  0.107412  1
  B  B10  1  0.805411  0.671528  0.103635  1
  B  B11  1  0.200101  0.332855  0.102806  1
  B  B12  1  0.838671  0.290873  0.605757  1
  B  B13  1  0.162767  0.707147  0.606865  1
  B  B14  1  0.706233  0.836963  0.393557  1
  B  B15  1  0.291852  0.162351  0.393470  1
  B  B16  1  0.667069  0.192112  0.895065  1
  B  B17  1  0.331441  0.804278  0.896903  1
