# generated using pymatgen
data_KIOF4
_symmetry_space_group_name_H-M   'P 1'
_cell_length_a   5.80621400
_cell_length_b   6.15024700
_cell_length_c   14.76256300
_cell_angle_alpha   90.00000000
_cell_angle_beta   90.00000000
_cell_angle_gamma   90.00000000
_symmetry_Int_Tables_number   1
_chemical_formula_structural   KIOF4
_chemical_formula_sum   'K4 I4 O4 F16'
_cell_volume   527.16596130
_cell_formula_units_Z   4
loop_
 _symmetry_equiv_pos_site_id
 _symmetry_equiv_pos_as_xyz
  1  'x, y, z'
loop_
 _atom_site_type_symbol
 _atom_site_label
 _atom_site_symmetry_multiplicity
 _atom_site_fract_x
 _atom_site_fract_y
 _atom_site_fract_z
 _atom_site_occupancy
  K  K0  1  0.750000  0.756318  0.893897  1
  K  K1  1  0.750000  0.256318  0.606103  1
  K  K2  1  0.250000  0.743682  0.393897  1
  K  K3  1  0.250000  0.243682  0.106103  1
  I  I4  1  0.750000  0.774442  0.157769  1
  I  I5  1  0.750000  0.274442  0.342231  1
  I  I6  1  0.250000  0.225558  0.842231  1
  I  I7  1  0.250000  0.725558  0.657769  1
  O  O8  1  0.250000  0.984821  0.908212  1
  O  O9  1  0.250000  0.484821  0.591788  1
  O  O10  1  0.750000  0.015179  0.091788  1
  O  O11  1  0.750000  0.515179  0.408212  1
  F  F12  1  0.011358  0.855495  0.576746  1
  F  F13  1  0.511358  0.644505  0.076746  1
  F  F14  1  0.988642  0.644505  0.076746  1
  F  F15  1  0.503838  0.906260  0.239708  1
  F  F16  1  0.488642  0.855495  0.576746  1
  F  F17  1  0.996162  0.406260  0.260292  1
  F  F18  1  0.011358  0.355495  0.923254  1
  F  F19  1  0.003838  0.593740  0.739708  1
  F  F20  1  0.988642  0.144505  0.423254  1
  F  F21  1  0.496162  0.593740  0.739708  1
  F  F22  1  0.488642  0.355495  0.923254  1
  F  F23  1  0.496162  0.093740  0.760292  1
  F  F24  1  0.503838  0.406260  0.260292  1
  F  F25  1  0.996162  0.906260  0.239708  1
  F  F26  1  0.511358  0.144505  0.423254  1
  F  F27  1  0.003838  0.093740  0.760292  1
