# generated using pymatgen
data_LaPr2Y3Zn4Pd13
_symmetry_space_group_name_H-M   'P 1'
_cell_length_a   8.35714610
_cell_length_b   8.35580597
_cell_length_c   8.35645540
_cell_angle_alpha   109.53902753
_cell_angle_beta   109.43645322
_cell_angle_gamma   109.43330391
_symmetry_Int_Tables_number   1
_chemical_formula_structural   LaPr2Y3Zn4Pd13
_chemical_formula_sum   'La1 Pr2 Y3 Zn4 Pd13'
_cell_volume   449.23370079
_cell_formula_units_Z   1
loop_
 _symmetry_equiv_pos_site_id
 _symmetry_equiv_pos_as_xyz
  1  'x, y, z'
loop_
 _atom_site_type_symbol
 _atom_site_label
 _atom_site_symmetry_multiplicity
 _atom_site_fract_x
 _atom_site_fract_y
 _atom_site_fract_z
 _atom_site_occupancy
  La  La0  1  0.000000  0.699887  0.700723  1
  Pr  Pr1  1  0.299894  0.300099  0.001112  1
  Pr  Pr2  1  0.700106  0.000205  0.701218  1
  Y  Y3  1  0.694943  0.695150  0.001145  1
  Y  Y4  1  0.305057  0.000207  0.306202  1
  Y  Y5  1  0.000000  0.304268  0.305245  1
  Zn  Zn6  1  0.000000  0.000229  0.485259  1
  Zn  Zn7  1  0.000000  0.504392  0.001198  1
  Zn  Zn8  1  0.505301  0.000298  0.001134  1
  Zn  Zn9  1  0.494699  0.494997  0.495832  1
  Pd  Pd10  1  0.331293  0.331347  0.660848  1
  Pd  Pd11  1  0.668707  0.000054  0.329555  1
  Pd  Pd12  1  0.000000  0.668722  0.329532  1
  Pd  Pd13  1  0.669611  0.333534  0.001292  1
  Pd  Pd14  1  0.330389  0.663924  0.331680  1
  Pd  Pd15  1  0.000000  0.333035  0.665241  1
  Pd  Pd16  1  0.333566  0.669512  0.001247  1
  Pd  Pd17  1  0.332912  0.999999  0.665112  1
  Pd  Pd18  1  0.664015  0.330535  0.331778  1
  Pd  Pd19  1  0.667088  0.667087  0.332199  1
  Pd  Pd20  1  0.666434  0.335945  0.667681  1
  Pd  Pd21  1  0.335985  0.666521  0.667764  1
  Pd  Pd22  1  0.000000  0.000053  0.017007  1
