# generated using pymatgen
data_AcYb11Sn4N3
_symmetry_space_group_name_H-M   'P 1'
_cell_length_a   4.89127200
_cell_length_b   4.97574100
_cell_length_c   19.64428300
_cell_angle_alpha   90.00000000
_cell_angle_beta   90.00000000
_cell_angle_gamma   90.00000000
_symmetry_Int_Tables_number   1
_chemical_formula_structural   AcYb11Sn4N3
_chemical_formula_sum   'Ac1 Yb11 Sn4 N3'
_cell_volume   478.09671808
_cell_formula_units_Z   1
loop_
 _symmetry_equiv_pos_site_id
 _symmetry_equiv_pos_as_xyz
  1  'x, y, z'
loop_
 _atom_site_type_symbol
 _atom_site_label
 _atom_site_symmetry_multiplicity
 _atom_site_fract_x
 _atom_site_fract_y
 _atom_site_fract_z
 _atom_site_occupancy
  Ac  Ac0  1  0.500000  0.000000  0.500000  1
  Yb  Yb1  1  0.500000  0.500000  0.864876  1
  Yb  Yb2  1  0.500000  0.500000  0.135124  1
  Yb  Yb3  1  0.500000  0.500000  0.370051  1
  Yb  Yb4  1  0.500000  0.500000  0.629949  1
  Yb  Yb5  1  0.500000  0.000000  0.000000  1
  Yb  Yb6  1  0.500000  0.000000  0.250997  1
  Yb  Yb7  1  0.500000  0.000000  0.749003  1
  Yb  Yb8  1  0.000000  0.500000  0.000000  1
  Yb  Yb9  1  0.000000  0.500000  0.251714  1
  Yb  Yb10  1  0.000000  0.500000  0.500000  1
  Yb  Yb11  1  0.000000  0.500000  0.748286  1
  Sn  Sn12  1  0.000000  0.000000  0.880076  1
  Sn  Sn13  1  0.000000  0.000000  0.119924  1
  Sn  Sn14  1  0.000000  0.000000  0.372589  1
  Sn  Sn15  1  0.000000  0.000000  0.627411  1
  N  N16  1  0.500000  0.500000  0.249180  1
  N  N17  1  0.500000  0.500000  0.500000  1
  N  N18  1  0.500000  0.500000  0.750820  1
