# generated using pymatgen
data_LaPr2Nd5(CdPd)2
_symmetry_space_group_name_H-M   'P 1'
_cell_length_a   10.07444096
_cell_length_b   10.07333587
_cell_length_c   10.07930408
_cell_angle_alpha   59.98786223
_cell_angle_beta   59.97517156
_cell_angle_gamma   59.94546352
_symmetry_Int_Tables_number   1
_chemical_formula_structural   LaPr2Nd5(CdPd)2
_chemical_formula_sum   'La2 Pr4 Nd10 Cd4 Pd4'
_cell_volume   722.78512348
_cell_formula_units_Z   2
loop_
 _symmetry_equiv_pos_site_id
 _symmetry_equiv_pos_as_xyz
  1  'x, y, z'
loop_
 _atom_site_type_symbol
 _atom_site_label
 _atom_site_symmetry_multiplicity
 _atom_site_fract_x
 _atom_site_fract_y
 _atom_site_fract_z
 _atom_site_occupancy
  La  La0  1  0.349853  0.350084  0.351492  1
  La  La1  1  0.350077  0.349870  0.948569  1
  Pr  Pr2  1  0.564239  0.936309  0.565941  1
  Pr  Pr3  1  0.936306  0.564232  0.933517  1
  Pr  Pr4  1  0.565068  0.565071  0.934939  1
  Pr  Pr5  1  0.935045  0.935048  0.564952  1
  Nd  Nd6  1  0.351652  0.942874  0.352580  1
  Nd  Nd7  1  0.942874  0.351654  0.352888  1
  Nd  Nd8  1  0.809476  0.191691  0.191556  1
  Nd  Nd9  1  0.191693  0.809475  0.807267  1
  Nd  Nd10  1  0.191680  0.809473  0.191613  1
  Nd  Nd11  1  0.809470  0.191678  0.807234  1
  Nd  Nd12  1  0.191623  0.191624  0.808375  1
  Nd  Nd13  1  0.807758  0.807746  0.192248  1
  Nd  Nd14  1  0.936585  0.563950  0.565555  1
  Nd  Nd15  1  0.563950  0.936588  0.933911  1
  Cd  Cd16  1  0.580858  0.580616  0.579204  1
  Cd  Cd17  1  0.580621  0.580851  0.259324  1
  Cd  Cd18  1  0.581145  0.259104  0.579994  1
  Cd  Cd19  1  0.259100  0.581145  0.579756  1
  Pd  Pd20  1  0.143814  0.143538  0.143605  1
  Pd  Pd21  1  0.143538  0.143809  0.569048  1
  Pd  Pd22  1  0.143250  0.570325  0.143361  1
  Pd  Pd23  1  0.570323  0.143245  0.143068  1
