# generated using pymatgen
data_Gd4MgCo2Au
_symmetry_space_group_name_H-M   'P 1'
_cell_length_a   8.57194606
_cell_length_b   8.57194488
_cell_length_c   8.57194600
_cell_angle_alpha   129.24589844
_cell_angle_beta   129.24590062
_cell_angle_gamma   74.61522856
_symmetry_Int_Tables_number   1
_chemical_formula_structural   Gd4MgCo2Au
_chemical_formula_sum   'Gd8 Mg2 Co4 Au2'
_cell_volume   368.06973580
_cell_formula_units_Z   2
loop_
 _symmetry_equiv_pos_site_id
 _symmetry_equiv_pos_as_xyz
  1  'x, y, z'
loop_
 _atom_site_type_symbol
 _atom_site_label
 _atom_site_symmetry_multiplicity
 _atom_site_fract_x
 _atom_site_fract_y
 _atom_site_fract_z
 _atom_site_occupancy
  Gd  Gd0  1  0.803894  0.303894  0.846763  1
  Gd  Gd1  1  0.196106  0.696106  0.153237  1
  Gd  Gd2  1  0.457130  0.957130  0.153237  1
  Gd  Gd3  1  0.303894  0.457130  0.500000  1
  Gd  Gd4  1  0.042870  0.196106  0.500000  1
  Gd  Gd5  1  0.542870  0.042870  0.846763  1
  Gd  Gd6  1  0.696106  0.542870  0.500000  1
  Gd  Gd7  1  0.957130  0.803894  0.500000  1
  Mg  Mg8  1  0.000000  0.000000  0.000000  1
  Mg  Mg9  1  0.500000  0.500000  0.000000  1
  Co  Co10  1  0.121619  0.621619  0.743240  1
  Co  Co11  1  0.878381  0.378381  0.256760  1
  Co  Co12  1  0.621619  0.878381  0.500000  1
  Co  Co13  1  0.378381  0.121619  0.500000  1
  Au  Au14  1  0.250000  0.250000  0.000000  1
  Au  Au15  1  0.750000  0.750000  0.000000  1
