# generated using pymatgen
data_TmZr2Fe8Si
_symmetry_space_group_name_H-M   'P 1'
_cell_length_a   4.94866310
_cell_length_b   4.98724073
_cell_length_c   8.46795819
_cell_angle_alpha   72.87380750
_cell_angle_beta   72.62372830
_cell_angle_gamma   59.74178657
_symmetry_Int_Tables_number   1
_chemical_formula_structural   TmZr2Fe8Si
_chemical_formula_sum   'Tm1 Zr2 Fe8 Si1'
_cell_volume   169.63181439
_cell_formula_units_Z   1
loop_
 _symmetry_equiv_pos_site_id
 _symmetry_equiv_pos_as_xyz
  1  'x, y, z'
loop_
 _atom_site_type_symbol
 _atom_site_label
 _atom_site_symmetry_multiplicity
 _atom_site_fract_x
 _atom_site_fract_y
 _atom_site_fract_z
 _atom_site_occupancy
  Tm  Tm0  1  0.999241  0.999584  0.001591  1
  Zr  Zr1  1  0.144680  0.141896  0.571528  1
  Zr  Zr2  1  0.856642  0.858895  0.425568  1
  Fe  Fe3  1  0.585361  0.585207  0.749241  1
  Fe  Fe4  1  0.585361  0.080189  0.749241  1
  Fe  Fe5  1  0.918047  0.414196  0.253561  1
  Fe  Fe6  1  0.414736  0.416012  0.250283  1
  Fe  Fe7  1  0.414736  0.918970  0.250283  1
  Fe  Fe8  1  0.334247  0.333071  0.999611  1
  Fe  Fe9  1  0.666259  0.667399  0.998944  1
  Fe  Fe10  1  0.497928  0.501396  0.499280  1
  Si  Si11  1  0.082764  0.583184  0.750866  1
