# generated using pymatgen
data_Ho6Ga5Ni12Ir
_symmetry_space_group_name_H-M   'P 1'
_cell_length_a   5.16167700
_cell_length_b   5.16167590
_cell_length_c   15.99562200
_cell_angle_alpha   90.00000000
_cell_angle_beta   90.00000000
_cell_angle_gamma   119.99998785
_symmetry_Int_Tables_number   1
_chemical_formula_structural   Ho6Ga5Ni12Ir
_chemical_formula_sum   'Ho6 Ga5 Ni12 Ir1'
_cell_volume   369.07393346
_cell_formula_units_Z   1
loop_
 _symmetry_equiv_pos_site_id
 _symmetry_equiv_pos_as_xyz
  1  'x, y, z'
loop_
 _atom_site_type_symbol
 _atom_site_label
 _atom_site_symmetry_multiplicity
 _atom_site_fract_x
 _atom_site_fract_y
 _atom_site_fract_z
 _atom_site_occupancy
  Ho  Ho0  1  0.333333  0.666667  0.547334  1
  Ho  Ho1  1  0.666667  0.333333  0.452666  1
  Ho  Ho2  1  0.666667  0.333333  0.033128  1
  Ho  Ho3  1  0.333333  0.666667  0.966872  1
  Ho  Ho4  1  0.333333  0.666667  0.761892  1
  Ho  Ho5  1  0.666667  0.333333  0.238108  1
  Ga  Ga6  1  0.000000  0.000000  0.255778  1
  Ga  Ga7  1  0.000000  0.000000  0.744222  1
  Ga  Ga8  1  0.333333  0.666667  0.254718  1
  Ga  Ga9  1  0.666667  0.333333  0.745282  1
  Ga  Ga10  1  0.000000  0.000000  0.500000  1
  Ni  Ni11  1  0.165937  0.331872  0.130939  1
  Ni  Ni12  1  0.834063  0.668128  0.869061  1
  Ni  Ni13  1  0.668128  0.834063  0.130939  1
  Ni  Ni14  1  0.830965  0.661932  0.623376  1
  Ni  Ni15  1  0.331872  0.165937  0.869061  1
  Ni  Ni16  1  0.169035  0.338068  0.376624  1
  Ni  Ni17  1  0.165937  0.834063  0.130939  1
  Ni  Ni18  1  0.338068  0.169035  0.623376  1
  Ni  Ni19  1  0.834063  0.165937  0.869061  1
  Ni  Ni20  1  0.661932  0.830965  0.376624  1
  Ni  Ni21  1  0.830965  0.169035  0.623376  1
  Ni  Ni22  1  0.169035  0.830965  0.376624  1
  Ir  Ir23  1  0.000000  0.000000  0.000000  1
