# generated using pymatgen
data_Sc8Ti10AlSi16W
_symmetry_space_group_name_H-M   'P 1'
_cell_length_a   6.64672599
_cell_length_b   6.82449756
_cell_length_c   13.00136100
_cell_angle_alpha   90.00000000
_cell_angle_beta   90.00000000
_cell_angle_gamma   90.36235294
_symmetry_Int_Tables_number   1
_chemical_formula_structural   Sc8Ti10AlSi16W
_chemical_formula_sum   'Sc8 Ti10 Al1 Si16 W1'
_cell_volume   589.73729096
_cell_formula_units_Z   1
loop_
 _symmetry_equiv_pos_site_id
 _symmetry_equiv_pos_as_xyz
  1  'x, y, z'
loop_
 _atom_site_type_symbol
 _atom_site_label
 _atom_site_symmetry_multiplicity
 _atom_site_fract_x
 _atom_site_fract_y
 _atom_site_fract_z
 _atom_site_occupancy
  Sc  Sc0  1  0.502851  0.674583  0.593460  1
  Sc  Sc1  1  0.002791  0.825975  0.907446  1
  Sc  Sc2  1  0.497757  0.325033  0.096081  1
  Sc  Sc3  1  0.998089  0.171303  0.402572  1
  Sc  Sc4  1  0.497757  0.325033  0.403919  1
  Sc  Sc5  1  0.998089  0.171303  0.097428  1
  Sc  Sc6  1  0.502851  0.674583  0.906540  1
  Sc  Sc7  1  0.002791  0.825975  0.592554  1
  Ti  Ti8  1  0.668243  0.176145  0.626687  1
  Ti  Ti9  1  0.159761  0.324847  0.872993  1
  Ti  Ti10  1  0.335984  0.826853  0.126431  1
  Ti  Ti11  1  0.834953  0.677527  0.373850  1
  Ti  Ti12  1  0.335984  0.826853  0.373569  1
  Ti  Ti13  1  0.834953  0.677527  0.126150  1
  Ti  Ti14  1  0.668243  0.176145  0.873313  1
  Ti  Ti15  1  0.159761  0.324847  0.627007  1
  Ti  Ti16  1  0.337023  0.007410  0.750000  1
  Ti  Ti17  1  0.162210  0.508745  0.250000  1
  Al  Al18  1  0.837073  0.501750  0.750000  1
  Si  Si19  1  0.665215  0.966296  0.458712  1
  Si  Si20  1  0.166345  0.534977  0.040151  1
  Si  Si21  1  0.335323  0.036871  0.959804  1
  Si  Si22  1  0.832397  0.458695  0.533029  1
  Si  Si23  1  0.335323  0.036871  0.540196  1
  Si  Si24  1  0.832397  0.458695  0.966971  1
  Si  Si25  1  0.665215  0.966296  0.041288  1
  Si  Si26  1  0.166345  0.534977  0.459849  1
  Si  Si27  1  0.458099  0.377072  0.750000  1
  Si  Si28  1  0.966648  0.102798  0.750000  1
  Si  Si29  1  0.537120  0.617467  0.250000  1
  Si  Si30  1  0.036483  0.883984  0.250000  1
  Si  Si31  1  0.698935  0.870991  0.750000  1
  Si  Si32  1  0.215579  0.636713  0.750000  1
  Si  Si33  1  0.296120  0.136651  0.250000  1
  Si  Si34  1  0.793741  0.365051  0.250000  1
  W  W35  1  0.661552  0.993162  0.250000  1
