# generated using pymatgen
data_Pr7Pa(ZnRh)8
_symmetry_space_group_name_H-M   'P 1'
_cell_length_a   4.00154900
_cell_length_b   7.40020656
_cell_length_c   16.68529674
_cell_angle_alpha   89.56135054
_cell_angle_beta   90.00000000
_cell_angle_gamma   90.00000000
_symmetry_Int_Tables_number   1
_chemical_formula_structural   Pr7Pa(ZnRh)8
_chemical_formula_sum   'Pr7 Pa1 Zn8 Rh8'
_cell_volume   494.07535189
_cell_formula_units_Z   1
loop_
 _symmetry_equiv_pos_site_id
 _symmetry_equiv_pos_as_xyz
  1  'x, y, z'
loop_
 _atom_site_type_symbol
 _atom_site_label
 _atom_site_symmetry_multiplicity
 _atom_site_fract_x
 _atom_site_fract_y
 _atom_site_fract_z
 _atom_site_occupancy
  Pr  Pr0  1  0.750000  0.949925  0.282762  1
  Pr  Pr1  1  0.750000  0.823372  0.060581  1
  Pr  Pr2  1  0.250000  0.048103  0.715645  1
  Pr  Pr3  1  0.250000  0.169707  0.940364  1
  Pr  Pr4  1  0.250000  0.547427  0.784358  1
  Pr  Pr5  1  0.750000  0.332637  0.439685  1
  Pr  Pr6  1  0.250000  0.671049  0.560262  1
  Pa  Pa7  1  0.750000  0.446432  0.214758  1
  Zn  Zn8  1  0.250000  0.002033  0.439276  1
  Zn  Zn9  1  0.750000  0.501943  0.939991  1
  Zn  Zn10  1  0.750000  0.002608  0.559946  1
  Zn  Zn11  1  0.250000  0.624357  0.350940  1
  Zn  Zn12  1  0.750000  0.376273  0.650680  1
  Zn  Zn13  1  0.750000  0.878320  0.849216  1
  Zn  Zn14  1  0.250000  0.499403  0.057333  1
  Zn  Zn15  1  0.250000  0.119441  0.151612  1
  Rh  Rh16  1  0.250000  0.245609  0.564527  1
  Rh  Rh17  1  0.750000  0.270307  0.076035  1
  Rh  Rh18  1  0.250000  0.268332  0.299828  1
  Rh  Rh19  1  0.750000  0.253101  0.816338  1
  Rh  Rh20  1  0.250000  0.748512  0.935025  1
  Rh  Rh21  1  0.750000  0.752958  0.686338  1
  Rh  Rh22  1  0.750000  0.763747  0.434162  1
  Rh  Rh23  1  0.250000  0.704402  0.190338  1
