# generated using pymatgen
data_Hf4Si2Ir9Rh
_symmetry_space_group_name_H-M   'P 1'
_cell_length_a   4.03642900
_cell_length_b   5.58573537
_cell_length_c   10.95628942
_cell_angle_alpha   89.87499709
_cell_angle_beta   90.00000000
_cell_angle_gamma   90.00000000
_symmetry_Int_Tables_number   1
_chemical_formula_structural   Hf4Si2Ir9Rh
_chemical_formula_sum   'Hf4 Si2 Ir9 Rh1'
_cell_volume   247.02456157
_cell_formula_units_Z   1
loop_
 _symmetry_equiv_pos_site_id
 _symmetry_equiv_pos_as_xyz
  1  'x, y, z'
loop_
 _atom_site_type_symbol
 _atom_site_label
 _atom_site_symmetry_multiplicity
 _atom_site_fract_x
 _atom_site_fract_y
 _atom_site_fract_z
 _atom_site_occupancy
  Hf  Hf0  1  0.500000  0.180499  0.639739  1
  Hf  Hf1  1  0.500000  0.819501  0.360261  1
  Hf  Hf2  1  0.500000  0.678483  0.860893  1
  Hf  Hf3  1  0.500000  0.321517  0.139107  1
  Si  Si4  1  0.000000  0.500000  0.500000  1
  Si  Si5  1  0.000000  0.000000  0.000000  1
  Ir  Ir6  1  0.500000  0.181229  0.895035  1
  Ir  Ir7  1  0.500000  0.818771  0.104965  1
  Ir  Ir8  1  0.500000  0.681967  0.605019  1
  Ir  Ir9  1  0.500000  0.318033  0.394981  1
  Ir  Ir10  1  0.000000  0.434480  0.745705  1
  Ir  Ir11  1  0.000000  0.565520  0.254295  1
  Ir  Ir12  1  0.000000  0.000000  0.500000  1
  Ir  Ir13  1  0.000000  0.066071  0.245406  1
  Ir  Ir14  1  0.000000  0.933929  0.754594  1
  Rh  Rh15  1  0.000000  0.500000  0.000000  1
