# generated using pymatgen
data_DyHo3Sn6Rh7
_symmetry_space_group_name_H-M   'P 1'
_cell_length_a   7.60658525
_cell_length_b   7.60658590
_cell_length_c   7.60417900
_cell_angle_alpha   109.46480828
_cell_angle_beta   109.46481000
_cell_angle_gamma   109.47763256
_symmetry_Int_Tables_number   1
_chemical_formula_structural   DyHo3Sn6Rh7
_chemical_formula_sum   'Dy1 Ho3 Sn6 Rh7'
_cell_volume   338.72270087
_cell_formula_units_Z   1
loop_
 _symmetry_equiv_pos_site_id
 _symmetry_equiv_pos_as_xyz
  1  'x, y, z'
loop_
 _atom_site_type_symbol
 _atom_site_label
 _atom_site_symmetry_multiplicity
 _atom_site_fract_x
 _atom_site_fract_y
 _atom_site_fract_z
 _atom_site_occupancy
  Dy  Dy0  1  0.000000  0.000000  0.500000  1
  Ho  Ho1  1  0.000000  0.500000  0.000000  1
  Ho  Ho2  1  0.500000  0.000000  0.000000  1
  Ho  Ho3  1  0.500000  0.500000  0.500000  1
  Sn  Sn4  1  0.684035  0.684035  0.999853  1
  Sn  Sn5  1  0.315965  0.000000  0.315818  1
  Sn  Sn6  1  0.000000  0.315965  0.315818  1
  Sn  Sn7  1  0.315965  0.315965  0.000147  1
  Sn  Sn8  1  0.684035  0.000000  0.684182  1
  Sn  Sn9  1  0.000000  0.684035  0.684182  1
  Rh  Rh10  1  0.749929  0.250071  0.500000  1
  Rh  Rh11  1  0.749929  0.499858  0.249929  1
  Rh  Rh12  1  0.500142  0.250071  0.750071  1
  Rh  Rh13  1  0.250071  0.500142  0.750071  1
  Rh  Rh14  1  0.250071  0.749929  0.500000  1
  Rh  Rh15  1  0.499858  0.749929  0.249929  1
  Rh  Rh16  1  0.000000  0.000000  0.000000  1
