# generated using pymatgen
data_Dy6Al24IrOs7
_symmetry_space_group_name_H-M   'P 1'
_cell_length_a   8.82263838
_cell_length_b   8.82263996
_cell_length_c   9.56236600
_cell_angle_alpha   89.84227334
_cell_angle_beta   90.15772663
_cell_angle_gamma   119.82785589
_symmetry_Int_Tables_number   1
_chemical_formula_structural   Dy6Al24IrOs7
_chemical_formula_sum   'Dy6 Al24 Ir1 Os7'
_cell_volume   645.71602581
_cell_formula_units_Z   1
loop_
 _symmetry_equiv_pos_site_id
 _symmetry_equiv_pos_as_xyz
  1  'x, y, z'
loop_
 _atom_site_type_symbol
 _atom_site_label
 _atom_site_symmetry_multiplicity
 _atom_site_fract_x
 _atom_site_fract_y
 _atom_site_fract_z
 _atom_site_occupancy
  Dy  Dy0  1  0.191675  0.387541  0.251150  1
  Dy  Dy1  1  0.808325  0.612459  0.748850  1
  Dy  Dy2  1  0.612459  0.808325  0.251150  1
  Dy  Dy3  1  0.387541  0.191675  0.748850  1
  Dy  Dy4  1  0.195130  0.804870  0.250040  1
  Dy  Dy5  1  0.804870  0.195130  0.749960  1
  Al  Al6  1  0.332925  0.667075  0.018707  1
  Al  Al7  1  0.667075  0.332925  0.981293  1
  Al  Al8  1  0.666915  0.333085  0.517314  1
  Al  Al9  1  0.333085  0.666915  0.482686  1
  Al  Al10  1  0.163306  0.325108  0.576605  1
  Al  Al11  1  0.836694  0.674892  0.423395  1
  Al  Al12  1  0.674892  0.836694  0.576605  1
  Al  Al13  1  0.838481  0.674779  0.075647  1
  Al  Al14  1  0.325108  0.163306  0.423395  1
  Al  Al15  1  0.161519  0.325221  0.924353  1
  Al  Al16  1  0.163447  0.836553  0.574921  1
  Al  Al17  1  0.325221  0.161519  0.075647  1
  Al  Al18  1  0.836553  0.163447  0.425079  1
  Al  Al19  1  0.674779  0.838481  0.924353  1
  Al  Al20  1  0.836927  0.163073  0.075198  1
  Al  Al21  1  0.163073  0.836927  0.924802  1
  Al  Al22  1  0.560379  0.122221  0.249533  1
  Al  Al23  1  0.439621  0.877779  0.750467  1
  Al  Al24  1  0.877779  0.439621  0.249533  1
  Al  Al25  1  0.122221  0.560379  0.750467  1
  Al  Al26  1  0.560897  0.439103  0.250104  1
  Al  Al27  1  0.439103  0.560897  0.749896  1
  Al  Al28  1  0.999992  0.000008  0.250029  1
  Al  Al29  1  0.000008  0.999992  0.749971  1
  Ir  Ir30  1  0.500000  0.500000  0.000000  1
  Os  Os31  1  0.500000  0.000000  0.000000  1
  Os  Os32  1  0.000000  0.500000  0.000000  1
  Os  Os33  1  0.500000  0.000000  0.500000  1
  Os  Os34  1  0.000000  0.500000  0.500000  1
  Os  Os35  1  0.500000  0.500000  0.500000  1
  Os  Os36  1  0.000000  0.000000  0.000000  1
  Os  Os37  1  0.000000  0.000000  0.500000  1
