# generated using pymatgen
data_KLa7(USe5)4
_symmetry_space_group_name_H-M   'P 1'
_cell_length_a   7.91764481
_cell_length_b   8.53631443
_cell_length_c   12.50156600
_cell_angle_alpha   89.98068956
_cell_angle_beta   89.79271817
_cell_angle_gamma   90.05502863
_symmetry_Int_Tables_number   1
_chemical_formula_structural   KLa7(USe5)4
_chemical_formula_sum   'K1 La7 U4 Se20'
_cell_volume   844.94369506
_cell_formula_units_Z   1
loop_
 _symmetry_equiv_pos_site_id
 _symmetry_equiv_pos_as_xyz
  1  'x, y, z'
loop_
 _atom_site_type_symbol
 _atom_site_label
 _atom_site_symmetry_multiplicity
 _atom_site_fract_x
 _atom_site_fract_y
 _atom_site_fract_z
 _atom_site_occupancy
  K  K0  1  0.540716  0.503020  0.325203  1
  La  La1  1  0.967245  0.998846  0.825219  1
  La  La2  1  0.465778  0.000876  0.677202  1
  La  La3  1  0.033247  0.498368  0.180110  1
  La  La4  1  0.465865  0.498592  0.671207  1
  La  La5  1  0.037591  0.999777  0.175231  1
  La  La6  1  0.531781  0.998469  0.322725  1
  La  La7  1  0.961999  0.501045  0.827536  1
  U  U8  1  0.068601  0.752954  0.491635  1
  U  U9  1  0.432186  0.748155  0.991895  1
  U  U10  1  0.926401  0.251038  0.506265  1
  U  U11  1  0.565730  0.251860  0.010418  1
  Se  Se12  1  0.836896  0.956621  0.593042  1
  Se  Se13  1  0.675731  0.544172  0.075583  1
  Se  Se14  1  0.158077  0.461243  0.412597  1
  Se  Se15  1  0.332615  0.040307  0.909297  1
  Se  Se16  1  0.168429  0.044468  0.412235  1
  Se  Se17  1  0.331916  0.457199  0.907736  1
  Se  Se18  1  0.832725  0.542960  0.593312  1
  Se  Se19  1  0.667895  0.957298  0.086909  1
  Se  Se20  1  0.850253  0.759156  0.312448  1
  Se  Se21  1  0.659340  0.751048  0.811312  1
  Se  Se22  1  0.157056  0.251200  0.687535  1
  Se  Se23  1  0.332608  0.240884  0.181915  1
  Se  Se24  1  0.446317  0.760624  0.503331  1
  Se  Se25  1  0.048222  0.747734  0.997547  1
  Se  Se26  1  0.551826  0.239238  0.508041  1
  Se  Se27  1  0.951275  0.248092  0.002786  1
  Se  Se28  1  0.183591  0.747346  0.714527  1
  Se  Se29  1  0.312241  0.756261  0.208496  1
  Se  Se30  1  0.820777  0.240113  0.286462  1
  Se  Se31  1  0.685065  0.251035  0.790245  1
