# generated using pymatgen
data_LiSm4Ru11C10
_symmetry_space_group_name_H-M   'P 1'
_cell_length_a   9.15337400
_cell_length_b   9.15337400
_cell_length_c   4.13660300
_cell_angle_alpha   90.00000000
_cell_angle_beta   90.00000000
_cell_angle_gamma   90.00000000
_symmetry_Int_Tables_number   1
_chemical_formula_structural   LiSm4Ru11C10
_chemical_formula_sum   'Li1 Sm4 Ru11 C10'
_cell_volume   346.58220300
_cell_formula_units_Z   1
loop_
 _symmetry_equiv_pos_site_id
 _symmetry_equiv_pos_as_xyz
  1  'x, y, z'
loop_
 _atom_site_type_symbol
 _atom_site_label
 _atom_site_symmetry_multiplicity
 _atom_site_fract_x
 _atom_site_fract_y
 _atom_site_fract_z
 _atom_site_occupancy
  Li  Li0  1  0.000000  0.000000  0.500000  1
  Sm  Sm1  1  0.337775  0.819951  0.500000  1
  Sm  Sm2  1  0.819951  0.662225  0.500000  1
  Sm  Sm3  1  0.180049  0.337775  0.500000  1
  Sm  Sm4  1  0.662225  0.180049  0.500000  1
  Ru  Ru5  1  0.711750  0.427161  0.000000  1
  Ru  Ru6  1  0.427161  0.288250  0.000000  1
  Ru  Ru7  1  0.500000  0.000000  0.000000  1
  Ru  Ru8  1  0.000000  0.500000  0.000000  1
  Ru  Ru9  1  0.500000  0.500000  0.500000  1
  Ru  Ru10  1  0.791516  0.932756  0.000000  1
  Ru  Ru11  1  0.932756  0.208484  0.000000  1
  Ru  Ru12  1  0.067244  0.791516  0.000000  1
  Ru  Ru13  1  0.208484  0.067244  0.000000  1
  Ru  Ru14  1  0.572839  0.711750  0.000000  1
  Ru  Ru15  1  0.288250  0.572839  0.000000  1
  C  C16  1  0.500000  0.500000  0.000000  1
  C  C17  1  0.000000  0.000000  0.000000  1
  C  C18  1  0.876062  0.366933  0.673581  1
  C  C19  1  0.123938  0.633067  0.673581  1
  C  C20  1  0.876062  0.366933  0.326419  1
  C  C21  1  0.366933  0.123938  0.326419  1
  C  C22  1  0.633067  0.876062  0.326419  1
  C  C23  1  0.123938  0.633067  0.326419  1
  C  C24  1  0.633067  0.876062  0.673581  1
  C  C25  1  0.366933  0.123938  0.673581  1
