# generated using pymatgen
data_Tb10NiBi4Os
_symmetry_space_group_name_H-M   'P 1'
_cell_length_a   8.04245165
_cell_length_b   9.01681900
_cell_length_c   12.46962061
_cell_angle_alpha   90.00000000
_cell_angle_beta   90.57693811
_cell_angle_gamma   90.00000000
_symmetry_Int_Tables_number   1
_chemical_formula_structural   Tb10NiBi4Os
_chemical_formula_sum   'Tb20 Ni2 Bi8 Os2'
_cell_volume   904.21776002
_cell_formula_units_Z   2
loop_
 _symmetry_equiv_pos_site_id
 _symmetry_equiv_pos_as_xyz
  1  'x, y, z'
loop_
 _atom_site_type_symbol
 _atom_site_label
 _atom_site_symmetry_multiplicity
 _atom_site_fract_x
 _atom_site_fract_y
 _atom_site_fract_z
 _atom_site_occupancy
  Tb  Tb0  1  0.835216  0.750000  0.788914  1
  Tb  Tb1  1  0.164784  0.250000  0.211086  1
  Tb  Tb2  1  0.344421  0.250000  0.703955  1
  Tb  Tb3  1  0.655579  0.750000  0.296045  1
  Tb  Tb4  1  0.377569  0.750000  0.696418  1
  Tb  Tb5  1  0.622431  0.250000  0.303582  1
  Tb  Tb6  1  0.879606  0.250000  0.811635  1
  Tb  Tb7  1  0.120394  0.750000  0.188365  1
  Tb  Tb8  1  0.945177  0.750000  0.503306  1
  Tb  Tb9  1  0.054823  0.250000  0.496694  1
  Tb  Tb10  1  0.451225  0.250000  0.999614  1
  Tb  Tb11  1  0.548775  0.750000  0.000386  1
  Tb  Tb12  1  0.676585  0.042499  0.564043  1
  Tb  Tb13  1  0.323415  0.957501  0.435957  1
  Tb  Tb14  1  0.177025  0.959875  0.935166  1
  Tb  Tb15  1  0.323415  0.542499  0.435957  1
  Tb  Tb16  1  0.822975  0.040125  0.064834  1
  Tb  Tb17  1  0.676585  0.457501  0.564043  1
  Tb  Tb18  1  0.822975  0.459875  0.064834  1
  Tb  Tb19  1  0.177025  0.540125  0.935166  1
  Ni  Ni20  1  0.070552  0.250000  0.994536  1
  Ni  Ni21  1  0.929448  0.750000  0.005464  1
  Bi  Bi22  1  0.571873  0.489244  0.828993  1
  Bi  Bi23  1  0.428127  0.510756  0.171007  1
  Bi  Bi24  1  0.068308  0.507523  0.675213  1
  Bi  Bi25  1  0.428127  0.989244  0.171007  1
  Bi  Bi26  1  0.931692  0.492477  0.324787  1
  Bi  Bi27  1  0.571873  0.010756  0.828993  1
  Bi  Bi28  1  0.931692  0.007523  0.324787  1
  Bi  Bi29  1  0.068308  0.992477  0.675213  1
  Os  Os30  1  0.577982  0.750000  0.514279  1
  Os  Os31  1  0.422018  0.250000  0.485721  1
