# generated using pymatgen
data_La3InSn2Rh3
_symmetry_space_group_name_H-M   'P 1'
_cell_length_a   7.55654941
_cell_length_b   7.55654833
_cell_length_c   4.26786000
_cell_angle_alpha   90.00000000
_cell_angle_beta   90.00000000
_cell_angle_gamma   119.76857345
_symmetry_Int_Tables_number   1
_chemical_formula_structural   La3InSn2Rh3
_chemical_formula_sum   'La3 In1 Sn2 Rh3'
_cell_volume   211.54163118
_cell_formula_units_Z   1
loop_
 _symmetry_equiv_pos_site_id
 _symmetry_equiv_pos_as_xyz
  1  'x, y, z'
loop_
 _atom_site_type_symbol
 _atom_site_label
 _atom_site_symmetry_multiplicity
 _atom_site_fract_x
 _atom_site_fract_y
 _atom_site_fract_z
 _atom_site_occupancy
  La  La0  1  0.001835  0.584824  0.000000  1
  La  La1  1  0.413412  0.413412  0.000000  1
  La  La2  1  0.584824  0.001835  0.000000  1
  In  In3  1  0.755447  0.755447  0.500000  1
  Sn  Sn4  1  0.998594  0.244649  0.500000  1
  Sn  Sn5  1  0.244649  0.998594  0.500000  1
  Rh  Rh6  1  0.328066  0.664782  0.500000  1
  Rh  Rh7  1  0.664782  0.328066  0.500000  1
  Rh  Rh8  1  0.008390  0.008390  0.000000  1
