# generated using pymatgen
data_Ti3Cr(PRu)4
_symmetry_space_group_name_H-M   'P 1'
_cell_length_a   3.77786300
_cell_length_b   6.17376998
_cell_length_c   7.07950938
_cell_angle_alpha   89.85767408
_cell_angle_beta   90.00000000
_cell_angle_gamma   90.00000000
_symmetry_Int_Tables_number   1
_chemical_formula_structural   Ti3Cr(PRu)4
_chemical_formula_sum   'Ti3 Cr1 P4 Ru4'
_cell_volume   165.11954027
_cell_formula_units_Z   1
loop_
 _symmetry_equiv_pos_site_id
 _symmetry_equiv_pos_as_xyz
  1  'x, y, z'
loop_
 _atom_site_type_symbol
 _atom_site_label
 _atom_site_symmetry_multiplicity
 _atom_site_fract_x
 _atom_site_fract_y
 _atom_site_fract_z
 _atom_site_occupancy
  Ti  Ti0  1  0.250000  0.025069  0.176746  1
  Ti  Ti1  1  0.250000  0.526447  0.325598  1
  Ti  Ti2  1  0.750000  0.974980  0.822017  1
  Cr  Cr3  1  0.750000  0.470405  0.677753  1
  P  P4  1  0.250000  0.767754  0.625208  1
  P  P5  1  0.250000  0.270538  0.872685  1
  P  P6  1  0.750000  0.232634  0.378602  1
  P  P7  1  0.750000  0.732393  0.123765  1
  Ru  Ru8  1  0.250000  0.156161  0.560459  1
  Ru  Ru9  1  0.250000  0.650879  0.936802  1
  Ru  Ru10  1  0.750000  0.846536  0.441278  1
  Ru  Ru11  1  0.750000  0.346206  0.059088  1
