# generated using pymatgen
data_K2ScZnF7
_symmetry_space_group_name_H-M   'P 1'
_cell_length_a   7.87551746
_cell_length_b   7.87551548
_cell_length_c   7.87551700
_cell_angle_alpha   121.09072897
_cell_angle_beta   116.49703553
_cell_angle_gamma   92.14643893
_symmetry_Int_Tables_number   1
_chemical_formula_structural   K2ScZnF7
_chemical_formula_sum   'K4 Sc2 Zn2 F14'
_cell_volume   350.75507630
_cell_formula_units_Z   2
loop_
 _symmetry_equiv_pos_site_id
 _symmetry_equiv_pos_as_xyz
  1  'x, y, z'
loop_
 _atom_site_type_symbol
 _atom_site_label
 _atom_site_symmetry_multiplicity
 _atom_site_fract_x
 _atom_site_fract_y
 _atom_site_fract_z
 _atom_site_occupancy
  K  K0  1  0.500000  0.500000  0.500000  1
  K  K1  1  0.500000  0.000000  0.000000  1
  K  K2  1  0.500000  0.500000  0.000000  1
  K  K3  1  0.000000  0.000000  0.000000  1
  Sc  Sc4  1  0.000000  0.500000  0.500000  1
  Sc  Sc5  1  0.500000  0.000000  0.500000  1
  Zn  Zn6  1  0.000000  0.500000  0.000000  1
  Zn  Zn7  1  0.000000  0.000000  0.500000  1
  F  F8  1  0.084837  0.250000  0.834837  1
  F  F9  1  0.915163  0.750000  0.165163  1
  F  F10  1  0.697138  0.410220  0.286918  1
  F  F11  1  0.302862  0.589780  0.713082  1
  F  F12  1  0.376698  0.089780  0.286918  1
  F  F13  1  0.623302  0.910220  0.713082  1
  F  F14  1  0.959701  0.574464  0.767394  1
  F  F15  1  0.040299  0.807693  0.614762  1
  F  F16  1  0.692931  0.307693  0.767394  1
  F  F17  1  0.307069  0.074464  0.614762  1
  F  F18  1  0.307069  0.692307  0.232606  1
  F  F19  1  0.692931  0.925536  0.385238  1
  F  F20  1  0.040299  0.425536  0.232606  1
  F  F21  1  0.959701  0.192307  0.385238  1
