# generated using pymatgen
data_SmY4(In2Au)2
_symmetry_space_group_name_H-M   'P 1'
_cell_length_a   3.65411700
_cell_length_b   8.20271500
_cell_length_c   18.40054800
_cell_angle_alpha   90.00000000
_cell_angle_beta   90.00000000
_cell_angle_gamma   90.00000000
_symmetry_Int_Tables_number   1
_chemical_formula_structural   SmY4(In2Au)2
_chemical_formula_sum   'Sm2 Y8 In8 Au4'
_cell_volume   551.53214361
_cell_formula_units_Z   2
loop_
 _symmetry_equiv_pos_site_id
 _symmetry_equiv_pos_as_xyz
  1  'x, y, z'
loop_
 _atom_site_type_symbol
 _atom_site_label
 _atom_site_symmetry_multiplicity
 _atom_site_fract_x
 _atom_site_fract_y
 _atom_site_fract_z
 _atom_site_occupancy
  Sm  Sm0  1  0.000000  0.500000  0.500000  1
  Sm  Sm1  1  0.000000  0.000000  0.000000  1
  Y  Y2  1  0.000000  0.736728  0.284017  1
  Y  Y3  1  0.000000  0.263272  0.715983  1
  Y  Y4  1  0.000000  0.763272  0.784017  1
  Y  Y5  1  0.000000  0.236728  0.215983  1
  Y  Y6  1  0.000000  0.623903  0.079772  1
  Y  Y7  1  0.000000  0.376097  0.920228  1
  Y  Y8  1  0.000000  0.876097  0.579772  1
  Y  Y9  1  0.000000  0.123903  0.420228  1
  In  In10  1  0.500000  0.704340  0.933171  1
  In  In11  1  0.500000  0.295660  0.066829  1
  In  In12  1  0.500000  0.795660  0.433171  1
  In  In13  1  0.500000  0.204340  0.566829  1
  In  In14  1  0.500000  0.580829  0.648816  1
  In  In15  1  0.500000  0.419171  0.351184  1
  In  In16  1  0.500000  0.919171  0.148816  1
  In  In17  1  0.500000  0.080829  0.851184  1
  Au  Au18  1  0.500000  0.527935  0.196845  1
  Au  Au19  1  0.500000  0.472065  0.803155  1
  Au  Au20  1  0.500000  0.972065  0.696845  1
  Au  Au21  1  0.500000  0.027935  0.303155  1
