# generated using pymatgen
data_Sm2Dy3LuCoBr10
_symmetry_space_group_name_H-M   'P 1'
_cell_length_a   7.33914632
_cell_length_b   9.14496339
_cell_length_c   9.24524934
_cell_angle_alpha   108.23712928
_cell_angle_beta   96.94650077
_cell_angle_gamma   104.43975757
_symmetry_Int_Tables_number   1
_chemical_formula_structural   Sm2Dy3LuCoBr10
_chemical_formula_sum   'Sm2 Dy3 Lu1 Co1 Br10'
_cell_volume   557.20538303
_cell_formula_units_Z   1
loop_
 _symmetry_equiv_pos_site_id
 _symmetry_equiv_pos_as_xyz
  1  'x, y, z'
loop_
 _atom_site_type_symbol
 _atom_site_label
 _atom_site_symmetry_multiplicity
 _atom_site_fract_x
 _atom_site_fract_y
 _atom_site_fract_z
 _atom_site_occupancy
  Sm  Sm0  1  0.032086  0.713658  0.410044  1
  Sm  Sm1  1  0.965688  0.285518  0.588398  1
  Dy  Dy2  1  0.876500  0.953894  0.743409  1
  Dy  Dy3  1  0.120705  0.044576  0.255313  1
  Dy  Dy4  1  0.354779  0.130688  0.677013  1
  Lu  Lu5  1  0.650570  0.871290  0.325567  1
  Co  Co6  1  0.999808  0.999763  0.499995  1
  Br  Br7  1  0.457381  0.821463  0.582465  1
  Br  Br8  1  0.542281  0.173797  0.412755  1
  Br  Br9  1  0.910826  0.632654  0.676963  1
  Br  Br10  1  0.089155  0.367422  0.323001  1
  Br  Br11  1  0.249233  0.084125  0.957101  1
  Br  Br12  1  0.747441  0.914299  0.045023  1
  Br  Br13  1  0.354112  0.450168  0.772930  1
  Br  Br14  1  0.642035  0.554545  0.226871  1
  Br  Br15  1  0.777023  0.251357  0.849098  1
  Br  Br16  1  0.230381  0.750781  0.154052  1
