# generated using pymatgen
data_CaP2OsRu
_symmetry_space_group_name_H-M   'P 1'
_cell_length_a   5.70376907
_cell_length_b   5.70376877
_cell_length_c   5.70376831
_cell_angle_alpha   137.95296620
_cell_angle_beta   137.95296656
_cell_angle_gamma   60.97503585
_symmetry_Int_Tables_number   1
_chemical_formula_structural   CaP2OsRu
_chemical_formula_sum   'Ca1 P2 Os1 Ru1'
_cell_volume   82.32055863
_cell_formula_units_Z   1
loop_
 _symmetry_equiv_pos_site_id
 _symmetry_equiv_pos_as_xyz
  1  'x, y, z'
loop_
 _atom_site_type_symbol
 _atom_site_label
 _atom_site_symmetry_multiplicity
 _atom_site_fract_x
 _atom_site_fract_y
 _atom_site_fract_z
 _atom_site_occupancy
  Ca  Ca0  1  0.000000  0.000000  0.000000  1
  P  P1  1  0.632728  0.632728  0.000000  1
  P  P2  1  0.367272  0.367272  0.000000  1
  Os  Os3  1  0.750000  0.250000  0.500000  1
  Ru  Ru4  1  0.250000  0.750000  0.500000  1
