# generated using pymatgen
data_La5Yb3SnPd24
_symmetry_space_group_name_H-M   'P 1'
_cell_length_a   8.52707728
_cell_length_b   8.52707728
_cell_length_c   8.51977325
_cell_angle_alpha   89.88042716
_cell_angle_beta   89.88042716
_cell_angle_gamma   89.57491609
_symmetry_Int_Tables_number   1
_chemical_formula_structural   La5Yb3SnPd24
_chemical_formula_sum   'La5 Yb3 Sn1 Pd24'
_cell_volume   619.46190465
_cell_formula_units_Z   1
loop_
 _symmetry_equiv_pos_site_id
 _symmetry_equiv_pos_as_xyz
  1  'x, y, z'
loop_
 _atom_site_type_symbol
 _atom_site_label
 _atom_site_symmetry_multiplicity
 _atom_site_fract_x
 _atom_site_fract_y
 _atom_site_fract_z
 _atom_site_occupancy
  La  La0  1  0.747214  0.252545  0.746130  1
  La  La1  1  0.252646  0.252646  0.749301  1
  La  La2  1  0.253110  0.747442  0.253953  1
  La  La3  1  0.252545  0.747214  0.746130  1
  La  La4  1  0.747442  0.253110  0.253953  1
  Yb  Yb5  1  0.251209  0.251209  0.250052  1
  Yb  Yb6  1  0.748989  0.748989  0.750375  1
  Yb  Yb7  1  0.748054  0.748054  0.250097  1
  Sn  Sn8  1  0.999375  0.999375  0.000290  1
  Pd  Pd9  1  0.266599  0.497990  0.003632  1
  Pd  Pd10  1  0.732969  0.504259  0.999165  1
  Pd  Pd11  1  0.005975  0.266783  0.497678  1
  Pd  Pd12  1  0.497990  0.266599  0.003632  1
  Pd  Pd13  1  0.990859  0.732875  0.499840  1
  Pd  Pd14  1  0.504259  0.732969  0.999165  1
  Pd  Pd15  1  0.500305  0.000884  0.266729  1
  Pd  Pd16  1  0.266783  0.005975  0.497678  1
  Pd  Pd17  1  0.502321  0.996194  0.733365  1
  Pd  Pd18  1  0.732875  0.990859  0.499840  1
  Pd  Pd19  1  0.000884  0.500305  0.266729  1
  Pd  Pd20  1  0.996194  0.502321  0.733365  1
  Pd  Pd21  1  0.255451  0.495509  0.496890  1
  Pd  Pd22  1  0.744777  0.507347  0.500392  1
  Pd  Pd23  1  0.495509  0.255451  0.496890  1
  Pd  Pd24  1  0.507347  0.744777  0.500392  1
  Pd  Pd25  1  0.500002  0.500002  0.255052  1
  Pd  Pd26  1  0.503175  0.503175  0.744753  1
  Pd  Pd27  1  0.313574  0.003407  0.002942  1
  Pd  Pd28  1  0.687283  0.993825  0.999741  1
  Pd  Pd29  1  0.003407  0.313574  0.002942  1
  Pd  Pd30  1  0.993825  0.687283  0.999741  1
  Pd  Pd31  1  0.999965  0.999965  0.313509  1
  Pd  Pd32  1  0.997088  0.997088  0.685655  1
