# generated using pymatgen
data_HfZr5Ti4(Sn3N)2
_symmetry_space_group_name_H-M   'P 1'
_cell_length_a   8.30231224
_cell_length_b   8.30231062
_cell_length_c   5.60696300
_cell_angle_alpha   90.00000000
_cell_angle_beta   90.00000000
_cell_angle_gamma   120.11586716
_symmetry_Int_Tables_number   1
_chemical_formula_structural   HfZr5Ti4(Sn3N)2
_chemical_formula_sum   'Hf1 Zr5 Ti4 Sn6 N2'
_cell_volume   334.30903593
_cell_formula_units_Z   1
loop_
 _symmetry_equiv_pos_site_id
 _symmetry_equiv_pos_as_xyz
  1  'x, y, z'
loop_
 _atom_site_type_symbol
 _atom_site_label
 _atom_site_symmetry_multiplicity
 _atom_site_fract_x
 _atom_site_fract_y
 _atom_site_fract_z
 _atom_site_occupancy
  Hf  Hf0  1  0.780596  0.780596  0.750000  1
  Zr  Zr1  1  0.224754  0.000432  0.750000  1
  Zr  Zr2  1  0.000432  0.224754  0.750000  1
  Zr  Zr3  1  0.223206  0.223206  0.250000  1
  Zr  Zr4  1  0.775436  0.999497  0.250000  1
  Zr  Zr5  1  0.999497  0.775436  0.250000  1
  Ti  Ti6  1  0.666708  0.333571  0.999849  1
  Ti  Ti7  1  0.333571  0.666708  0.999849  1
  Ti  Ti8  1  0.333571  0.666708  0.500151  1
  Ti  Ti9  1  0.666708  0.333571  0.500151  1
  Sn  Sn10  1  0.412228  0.412228  0.750000  1
  Sn  Sn11  1  0.589387  0.999372  0.750000  1
  Sn  Sn12  1  0.999372  0.589387  0.750000  1
  Sn  Sn13  1  0.589105  0.589105  0.250000  1
  Sn  Sn14  1  0.410944  0.000127  0.250000  1
  Sn  Sn15  1  0.000127  0.410944  0.250000  1
  N  N16  1  0.997178  0.997178  0.997756  1
  N  N17  1  0.997178  0.997178  0.502244  1
