# generated using pymatgen
data_LiErTa(SbPt)3
_symmetry_space_group_name_H-M   'P 1'
_cell_length_a   7.81049344
_cell_length_b   7.80621426
_cell_length_c   7.83921072
_cell_angle_alpha   99.69758253
_cell_angle_beta   99.63059790
_cell_angle_gamma   119.93542185
_symmetry_Int_Tables_number   1
_chemical_formula_structural   LiErTa(SbPt)3
_chemical_formula_sum   'Li2 Er2 Ta2 Sb6 Pt6'
_cell_volume   390.20004634
_cell_formula_units_Z   2
loop_
 _symmetry_equiv_pos_site_id
 _symmetry_equiv_pos_as_xyz
  1  'x, y, z'
loop_
 _atom_site_type_symbol
 _atom_site_label
 _atom_site_symmetry_multiplicity
 _atom_site_fract_x
 _atom_site_fract_y
 _atom_site_fract_z
 _atom_site_occupancy
  Li  Li0  1  0.330131  0.163733  0.498874  1
  Li  Li1  1  0.998931  0.503118  0.499491  1
  Er  Er2  1  0.164371  0.331159  0.999454  1
  Er  Er3  1  0.502998  0.998923  0.000380  1
  Ta  Ta4  1  0.668353  0.832451  0.499285  1
  Ta  Ta5  1  0.832768  0.668742  0.000463  1
  Sb  Sb6  1  0.927473  0.100466  0.259367  1
  Sb  Sb7  1  0.252610  0.752919  0.259756  1
  Sb  Sb8  1  0.581768  0.408519  0.267720  1
  Sb  Sb9  1  0.095677  0.913524  0.734569  1
  Sb  Sb10  1  0.745469  0.261136  0.737657  1
  Sb  Sb11  1  0.398660  0.565558  0.740962  1
  Pt  Pt12  1  0.186547  0.019229  0.114249  1
  Pt  Pt13  1  0.870429  0.391974  0.115592  1
  Pt  Pt14  1  0.563701  0.710089  0.135872  1
  Pt  Pt15  1  0.018891  0.185908  0.621607  1
  Pt  Pt16  1  0.397683  0.873509  0.622576  1
  Pt  Pt17  1  0.713497  0.569003  0.642127  1
