# generated using pymatgen
data_Tb3ErAl17Ga7Pt7Rh2
_symmetry_space_group_name_H-M   'P 1'
_cell_length_a   7.51897043
_cell_length_b   7.51378407
_cell_length_c   13.19596600
_cell_angle_alpha   84.53617490
_cell_angle_beta   100.92706834
_cell_angle_gamma   119.78722097
_symmetry_Int_Tables_number   1
_chemical_formula_structural   Tb3ErAl17Ga7Pt7Rh2
_chemical_formula_sum   'Tb3 Er1 Al17 Ga7 Pt7 Rh2'
_cell_volume   635.28621313
_cell_formula_units_Z   1
loop_
 _symmetry_equiv_pos_site_id
 _symmetry_equiv_pos_as_xyz
  1  'x, y, z'
loop_
 _atom_site_type_symbol
 _atom_site_label
 _atom_site_symmetry_multiplicity
 _atom_site_fract_x
 _atom_site_fract_y
 _atom_site_fract_z
 _atom_site_occupancy
  Tb  Tb0  1  0.736895  0.004104  0.189859  1
  Tb  Tb1  1  0.262182  0.996335  0.809151  1
  Tb  Tb2  1  0.057638  0.664184  0.189072  1
  Er  Er3  1  0.940927  0.336355  0.810203  1
  Al  Al4  1  0.119797  0.334984  0.329616  1
  Al  Al5  1  0.603260  0.459636  0.815898  1
  Al  Al6  1  0.397101  0.545353  0.181522  1
  Al  Al7  1  0.230546  0.340249  0.669392  1
  Al  Al8  1  0.769873  0.659976  0.331760  1
  Al  Al9  1  0.853781  0.332924  0.559072  1
  Al  Al10  1  0.187325  0.000347  0.558922  1
  Al  Al11  1  0.813837  0.999648  0.440729  1
  Al  Al12  1  0.348542  0.996531  0.053427  1
  Al  Al13  1  0.647986  0.997082  0.946296  1
  Al  Al14  1  0.556965  0.993233  0.671458  1
  Al  Al15  1  0.444038  0.005870  0.329844  1
  Al  Al16  1  0.522218  0.669197  0.560717  1
  Al  Al17  1  0.479453  0.330740  0.439559  1
  Al  Al18  1  0.682131  0.670675  0.043247  1
  Al  Al19  1  0.312413  0.332227  0.956048  1
  Al  Al20  1  0.146642  0.665832  0.440380  1
  Ga  Ga21  1  0.806575  0.874150  0.817717  1
  Ga  Ga22  1  0.193255  0.127626  0.182459  1
  Ga  Ga23  1  0.985276  0.668760  0.942061  1
  Ga  Ga24  1  0.021089  0.334334  0.057308  1
  Ga  Ga25  1  0.398544  0.661984  0.819296  1
  Ga  Ga26  1  0.597122  0.336108  0.182882  1
  Ga  Ga27  1  0.883933  0.664215  0.674173  1
  Pt  Pt28  1  0.543391  0.322049  0.637604  1
  Pt  Pt29  1  0.454415  0.673729  0.362474  1
  Pt  Pt30  1  0.887728  0.012000  0.636370  1
  Pt  Pt31  1  0.113011  0.991315  0.363740  1
  Pt  Pt32  1  0.663946  0.325460  0.996468  1
  Pt  Pt33  1  0.207639  0.666882  0.635981  1
  Pt  Pt34  1  0.796678  0.332653  0.363479  1
  Rh  Rh35  1  0.333631  0.673189  0.002008  1
  Rh  Rh36  1  0.000220  0.000063  0.999811  1
