# generated using pymatgen
data_Zr10In2Sn5Bi
_symmetry_space_group_name_H-M   'P 1'
_cell_length_a   8.84826000
_cell_length_b   8.84474719
_cell_length_c   6.01116000
_cell_angle_alpha   90.00000000
_cell_angle_beta   90.00000000
_cell_angle_gamma   120.01313146
_symmetry_Int_Tables_number   1
_chemical_formula_structural   Zr10In2Sn5Bi
_chemical_formula_sum   'Zr10 In2 Sn5 Bi1'
_cell_volume   407.35658129
_cell_formula_units_Z   1
loop_
 _symmetry_equiv_pos_site_id
 _symmetry_equiv_pos_as_xyz
  1  'x, y, z'
loop_
 _atom_site_type_symbol
 _atom_site_label
 _atom_site_symmetry_multiplicity
 _atom_site_fract_x
 _atom_site_fract_y
 _atom_site_fract_z
 _atom_site_occupancy
  Zr  Zr0  1  0.330240  0.662714  0.998324  1
  Zr  Zr1  1  0.667526  0.337286  0.501676  1
  Zr  Zr2  1  0.667526  0.337286  0.998324  1
  Zr  Zr3  1  0.330240  0.662714  0.501676  1
  Zr  Zr4  1  0.277900  0.000000  0.250000  1
  Zr  Zr5  1  0.281823  0.282507  0.750000  1
  Zr  Zr6  1  0.999316  0.717493  0.750000  1
  Zr  Zr7  1  0.005641  0.284468  0.250000  1
  Zr  Zr8  1  0.721173  0.715532  0.250000  1
  Zr  Zr9  1  0.719138  0.000000  0.750000  1
  In  In10  1  0.000133  0.000000  0.998820  1
  In  In11  1  0.000133  0.000000  0.501180  1
  Sn  Sn12  1  0.617008  0.618046  0.750000  1
  Sn  Sn13  1  0.998963  0.381954  0.750000  1
  Sn  Sn14  1  0.000791  0.616709  0.250000  1
  Sn  Sn15  1  0.384082  0.383291  0.250000  1
  Sn  Sn16  1  0.382080  0.000000  0.750000  1
  Bi  Bi17  1  0.616283  0.000000  0.250000  1
