# generated using pymatgen
data_DyYGaNiI2
_symmetry_space_group_name_H-M   'P 1'
_cell_length_a   4.16180100
_cell_length_b   4.16180041
_cell_length_c   11.75315100
_cell_angle_alpha   90.00000000
_cell_angle_beta   90.00000000
_cell_angle_gamma   119.99999673
_symmetry_Int_Tables_number   1
_chemical_formula_structural   DyYGaNiI2
_chemical_formula_sum   'Dy1 Y1 Ga1 Ni1 I2'
_cell_volume   176.29805492
_cell_formula_units_Z   1
loop_
 _symmetry_equiv_pos_site_id
 _symmetry_equiv_pos_as_xyz
  1  'x, y, z'
loop_
 _atom_site_type_symbol
 _atom_site_label
 _atom_site_symmetry_multiplicity
 _atom_site_fract_x
 _atom_site_fract_y
 _atom_site_fract_z
 _atom_site_occupancy
  Dy  Dy0  1  0.000000  0.000000  0.843969  1
  Y  Y1  1  0.000000  0.000000  0.157781  1
  Ga  Ga2  1  0.666667  0.333333  0.002954  1
  Ni  Ni3  1  0.333333  0.666667  0.995608  1
  I  I4  1  0.666667  0.333333  0.664860  1
  I  I5  1  0.333333  0.666667  0.334828  1
