# generated using pymatgen
data_Ho6Co8P12IrRh9
_symmetry_space_group_name_H-M   'P 1'
_cell_length_a   3.77790400
_cell_length_b   10.91193627
_cell_length_c   12.52992131
_cell_angle_alpha   89.97457122
_cell_angle_beta   90.00000000
_cell_angle_gamma   90.00000000
_symmetry_Int_Tables_number   1
_chemical_formula_structural   Ho6Co8P12IrRh9
_chemical_formula_sum   'Ho6 Co8 P12 Ir1 Rh9'
_cell_volume   516.53652853
_cell_formula_units_Z   1
loop_
 _symmetry_equiv_pos_site_id
 _symmetry_equiv_pos_as_xyz
  1  'x, y, z'
loop_
 _atom_site_type_symbol
 _atom_site_label
 _atom_site_symmetry_multiplicity
 _atom_site_fract_x
 _atom_site_fract_y
 _atom_site_fract_z
 _atom_site_occupancy
  Ho  Ho0  1  0.000000  0.500608  0.518237  1
  Ho  Ho1  1  0.500000  0.000031  0.476370  1
  Ho  Ho2  1  0.500000  0.815810  0.197933  1
  Ho  Ho3  1  0.500000  0.184041  0.197316  1
  Ho  Ho4  1  0.000000  0.680262  0.803880  1
  Ho  Ho5  1  0.000000  0.319822  0.803925  1
  Co  Co6  1  0.000000  0.499916  0.992425  1
  Co  Co7  1  0.500000  0.000056  0.011552  1
  Co  Co8  1  0.000000  0.620822  0.283879  1
  Co  Co9  1  0.000000  0.379370  0.283655  1
  Co  Co10  1  0.500000  0.334490  0.997431  1
  Co  Co11  1  0.500000  0.665555  0.997348  1
  Co  Co12  1  0.000000  0.168608  0.006893  1
  Co  Co13  1  0.000000  0.831349  0.007228  1
  P  P14  1  0.500000  0.317487  0.619019  1
  P  P15  1  0.500000  0.683054  0.619491  1
  P  P16  1  0.000000  0.191958  0.371911  1
  P  P17  1  0.000000  0.807543  0.372366  1
  P  P18  1  0.500000  0.500068  0.894542  1
  P  P19  1  0.000000  0.000035  0.107449  1
  P  P20  1  0.500000  0.840168  0.904737  1
  P  P21  1  0.500000  0.160064  0.904704  1
  P  P22  1  0.000000  0.656677  0.104389  1
  P  P23  1  0.000000  0.342999  0.104262  1
  P  P24  1  0.500000  0.499736  0.341601  1
  P  P25  1  0.000000  0.999952  0.652122  1
  Ir  Ir26  1  0.500000  0.300937  0.425344  1
  Rh  Rh27  1  0.500000  0.698607  0.426086  1
  Rh  Rh28  1  0.000000  0.205269  0.569096  1
  Rh  Rh29  1  0.000000  0.794875  0.568912  1
  Rh  Rh30  1  0.500000  0.872222  0.716563  1
  Rh  Rh31  1  0.500000  0.127812  0.716545  1
  Rh  Rh32  1  0.500000  0.499881  0.157824  1
  Rh  Rh33  1  0.000000  0.999832  0.842849  1
  Rh  Rh34  1  0.500000  0.499891  0.709075  1
  Rh  Rh35  1  0.000000  0.000194  0.293040  1
