# generated using pymatgen
data_HoEr7(Ta3Ge4)4
_symmetry_space_group_name_H-M   'P 1'
_cell_length_a   6.98026702
_cell_length_b   7.13925910
_cell_length_c   13.51582501
_cell_angle_alpha   90.00512848
_cell_angle_beta   89.99800502
_cell_angle_gamma   90.00384012
_symmetry_Int_Tables_number   1
_chemical_formula_structural   HoEr7(Ta3Ge4)4
_chemical_formula_sum   'Ho1 Er7 Ta12 Ge16'
_cell_volume   673.54673775
_cell_formula_units_Z   1
loop_
 _symmetry_equiv_pos_site_id
 _symmetry_equiv_pos_as_xyz
  1  'x, y, z'
loop_
 _atom_site_type_symbol
 _atom_site_label
 _atom_site_symmetry_multiplicity
 _atom_site_fract_x
 _atom_site_fract_y
 _atom_site_fract_z
 _atom_site_occupancy
  Ho  Ho0  1  0.996286  0.173813  0.094354  1
  Er  Er1  1  0.496071  0.326085  0.094417  1
  Er  Er2  1  0.996085  0.173997  0.405560  1
  Er  Er3  1  0.503914  0.674014  0.594425  1
  Er  Er4  1  0.003924  0.825927  0.905477  1
  Er  Er5  1  0.503928  0.673941  0.905513  1
  Er  Er6  1  0.003924  0.826009  0.594438  1
  Er  Er7  1  0.496098  0.326000  0.405689  1
  Ta  Ta8  1  0.664223  0.013154  0.749953  1
  Ta  Ta9  1  0.164228  0.486889  0.749962  1
  Ta  Ta10  1  0.335803  0.986764  0.250095  1
  Ta  Ta11  1  0.835680  0.513192  0.250055  1
  Ta  Ta12  1  0.840070  0.329391  0.625988  1
  Ta  Ta13  1  0.340100  0.170644  0.873942  1
  Ta  Ta14  1  0.159953  0.670551  0.126029  1
  Ta  Ta15  1  0.659868  0.829263  0.374057  1
  Ta  Ta16  1  0.159972  0.670661  0.374056  1
  Ta  Ta17  1  0.659824  0.829266  0.126077  1
  Ta  Ta18  1  0.839870  0.329513  0.873892  1
  Ta  Ta19  1  0.340053  0.170639  0.626003  1
  Ge  Ge20  1  0.804630  0.640894  0.749961  1
  Ge  Ge21  1  0.304654  0.859126  0.749983  1
  Ge  Ge22  1  0.195608  0.359457  0.250236  1
  Ge  Ge23  1  0.695083  0.140814  0.250165  1
  Ge  Ge24  1  0.539957  0.379302  0.749958  1
  Ge  Ge25  1  0.039978  0.120751  0.750001  1
  Ge  Ge26  1  0.460008  0.620716  0.250045  1
  Ge  Ge27  1  0.959962  0.879071  0.250097  1
  Ge  Ge28  1  0.676244  0.037604  0.541463  1
  Ge  Ge29  1  0.176294  0.462567  0.958392  1
  Ge  Ge30  1  0.324338  0.962002  0.041352  1
  Ge  Ge31  1  0.823752  0.537609  0.458576  1
  Ge  Ge32  1  0.323755  0.962415  0.458567  1
  Ge  Ge33  1  0.823605  0.538028  0.041357  1
  Ge  Ge34  1  0.676013  0.037561  0.958410  1
  Ge  Ge35  1  0.176246  0.462367  0.541455  1
