# generated using pymatgen
data_Yb2HfGaIr2
_symmetry_space_group_name_H-M   'P 1'
_cell_length_a   4.35166300
_cell_length_b   7.36701209
_cell_length_c   7.79392872
_cell_angle_alpha   92.44242499
_cell_angle_beta   90.00000000
_cell_angle_gamma   90.00000000
_symmetry_Int_Tables_number   1
_chemical_formula_structural   Yb2HfGaIr2
_chemical_formula_sum   'Yb4 Hf2 Ga2 Ir4'
_cell_volume   249.63665438
_cell_formula_units_Z   2
loop_
 _symmetry_equiv_pos_site_id
 _symmetry_equiv_pos_as_xyz
  1  'x, y, z'
loop_
 _atom_site_type_symbol
 _atom_site_label
 _atom_site_symmetry_multiplicity
 _atom_site_fract_x
 _atom_site_fract_y
 _atom_site_fract_z
 _atom_site_occupancy
  Yb  Yb0  1  0.250000  0.528139  0.158344  1
  Yb  Yb1  1  0.750000  0.471861  0.841656  1
  Yb  Yb2  1  0.750000  0.985117  0.697042  1
  Yb  Yb3  1  0.250000  0.014883  0.302958  1
  Hf  Hf4  1  0.250000  0.645606  0.580832  1
  Hf  Hf5  1  0.750000  0.354394  0.419168  1
  Ga  Ga6  1  0.750000  0.838702  0.066955  1
  Ga  Ga7  1  0.250000  0.161298  0.933045  1
  Ir  Ir8  1  0.250000  0.802917  0.891773  1
  Ir  Ir9  1  0.750000  0.197083  0.108227  1
  Ir  Ir10  1  0.750000  0.707793  0.384025  1
  Ir  Ir11  1  0.250000  0.292207  0.615975  1
