# generated using pymatgen
data_HoThIr7
_symmetry_space_group_name_H-M   'P 1'
_cell_length_a   5.35410786
_cell_length_b   5.35410989
_cell_length_c   13.43657732
_cell_angle_alpha   78.50769954
_cell_angle_beta   78.50769462
_cell_angle_gamma   60.00000324
_symmetry_Int_Tables_number   1
_chemical_formula_structural   HoThIr7
_chemical_formula_sum   'Ho2 Th2 Ir14'
_cell_volume   324.62762317
_cell_formula_units_Z   2
loop_
 _symmetry_equiv_pos_site_id
 _symmetry_equiv_pos_as_xyz
  1  'x, y, z'
loop_
 _atom_site_type_symbol
 _atom_site_label
 _atom_site_symmetry_multiplicity
 _atom_site_fract_x
 _atom_site_fract_y
 _atom_site_fract_z
 _atom_site_occupancy
  Ho  Ho0  1  0.851626  0.851626  0.445122  1
  Ho  Ho1  1  0.148374  0.148374  0.554878  1
  Th  Th2  1  0.948460  0.948460  0.154617  1
  Th  Th3  1  0.051540  0.051540  0.845383  1
  Ir  Ir4  1  0.500000  0.500000  0.500000  1
  Ir  Ir5  1  0.722430  0.722430  0.832711  1
  Ir  Ir6  1  0.277570  0.277570  0.167289  1
  Ir  Ir7  1  0.610544  0.610544  0.168370  1
  Ir  Ir8  1  0.389456  0.389456  0.831630  1
  Ir  Ir9  1  0.000000  0.500000  0.000000  1
  Ir  Ir10  1  0.500000  0.000000  0.000000  1
  Ir  Ir11  1  0.500000  0.500000  0.000000  1
  Ir  Ir12  1  0.387940  0.387940  0.332883  1
  Ir  Ir13  1  0.891237  0.387940  0.332883  1
  Ir  Ir14  1  0.387940  0.891237  0.332883  1
  Ir  Ir15  1  0.612060  0.612060  0.667117  1
  Ir  Ir16  1  0.108763  0.612060  0.667117  1
  Ir  Ir17  1  0.612060  0.108763  0.667117  1
