# generated using pymatgen
data_Zr4Cr2TcOs5
_symmetry_space_group_name_H-M   'P 1'
_cell_length_a   5.18428096
_cell_length_b   5.01908607
_cell_length_c   8.67466700
_cell_angle_alpha   90.00000000
_cell_angle_beta   90.00000000
_cell_angle_gamma   118.20387276
_symmetry_Int_Tables_number   1
_chemical_formula_structural   Zr4Cr2TcOs5
_chemical_formula_sum   'Zr4 Cr2 Tc1 Os5'
_cell_volume   198.91874717
_cell_formula_units_Z   1
loop_
 _symmetry_equiv_pos_site_id
 _symmetry_equiv_pos_as_xyz
  1  'x, y, z'
loop_
 _atom_site_type_symbol
 _atom_site_label
 _atom_site_symmetry_multiplicity
 _atom_site_fract_x
 _atom_site_fract_y
 _atom_site_fract_z
 _atom_site_occupancy
  Zr  Zr0  1  0.329882  0.666071  0.436635  1
  Zr  Zr1  1  0.668775  0.335166  0.565089  1
  Zr  Zr2  1  0.668775  0.335166  0.934911  1
  Zr  Zr3  1  0.329882  0.666071  0.063365  1
  Cr  Cr4  1  0.832946  0.661835  0.250000  1
  Cr  Cr5  1  0.167697  0.831855  0.750000  1
  Tc  Tc6  1  0.832704  0.180836  0.250000  1
  Os  Os7  1  0.999210  0.979991  0.500851  1
  Os  Os8  1  0.999210  0.979991  0.999149  1
  Os  Os9  1  0.348173  0.179187  0.250000  1
  Os  Os10  1  0.169940  0.349754  0.750000  1
  Os  Os11  1  0.652805  0.834079  0.750000  1
