# generated using pymatgen
data_Hf3Cu3Si4Pd
_symmetry_space_group_name_H-M   'P 1'
_cell_length_a   7.58782127
_cell_length_b   7.53314485
_cell_length_c   7.53314410
_cell_angle_alpha   149.73898714
_cell_angle_beta   129.29395993
_cell_angle_gamma   60.13091448
_symmetry_Int_Tables_number   1
_chemical_formula_structural   Hf3Cu3Si4Pd
_chemical_formula_sum   'Hf3 Cu3 Si4 Pd1'
_cell_volume   166.60356259
_cell_formula_units_Z   1
loop_
 _symmetry_equiv_pos_site_id
 _symmetry_equiv_pos_as_xyz
  1  'x, y, z'
loop_
 _atom_site_type_symbol
 _atom_site_label
 _atom_site_symmetry_multiplicity
 _atom_site_fract_x
 _atom_site_fract_y
 _atom_site_fract_z
 _atom_site_occupancy
  Hf  Hf0  1  0.888406  0.877752  0.010654  1
  Hf  Hf1  1  0.121970  0.123807  0.998163  1
  Hf  Hf2  1  0.502969  0.999552  0.503417  1
  Cu  Cu3  1  0.861683  0.669713  0.191970  1
  Cu  Cu4  1  0.125730  0.329141  0.796589  1
  Cu  Cu5  1  0.478037  0.671727  0.806310  1
  Si  Si6  1  0.814281  0.501186  0.313095  1
  Si  Si7  1  0.196340  0.501873  0.694467  1
  Si  Si8  1  0.271003  0.782824  0.488179  1
  Si  Si9  1  0.717098  0.214215  0.502883  1
  Pd  Pd10  1  0.522482  0.328210  0.194273  1
