# generated using pymatgen
data_HoNbB6Ru
_symmetry_space_group_name_H-M   'P 1'
_cell_length_a   3.48068600
_cell_length_b   9.00536100
_cell_length_c   11.28663800
_cell_angle_alpha   90.00000000
_cell_angle_beta   90.00000000
_cell_angle_gamma   90.00000000
_symmetry_Int_Tables_number   1
_chemical_formula_structural   HoNbB6Ru
_chemical_formula_sum   'Ho4 Nb4 B24 Ru4'
_cell_volume   353.77779405
_cell_formula_units_Z   4
loop_
 _symmetry_equiv_pos_site_id
 _symmetry_equiv_pos_as_xyz
  1  'x, y, z'
loop_
 _atom_site_type_symbol
 _atom_site_label
 _atom_site_symmetry_multiplicity
 _atom_site_fract_x
 _atom_site_fract_y
 _atom_site_fract_z
 _atom_site_occupancy
  Ho  Ho0  1  0.000000  0.323115  0.413060  1
  Ho  Ho1  1  0.000000  0.676885  0.586940  1
  Ho  Ho2  1  0.000000  0.823115  0.086940  1
  Ho  Ho3  1  0.000000  0.176885  0.913060  1
  Nb  Nb4  1  0.000000  0.946096  0.375106  1
  Nb  Nb5  1  0.000000  0.053904  0.624894  1
  Nb  Nb6  1  0.000000  0.446096  0.124894  1
  Nb  Nb7  1  0.000000  0.553904  0.875106  1
  B  B8  1  0.500000  0.554323  0.434345  1
  B  B9  1  0.500000  0.445677  0.565655  1
  B  B10  1  0.500000  0.054323  0.065655  1
  B  B11  1  0.500000  0.945677  0.934345  1
  B  B12  1  0.500000  0.753938  0.418938  1
  B  B13  1  0.500000  0.246062  0.581062  1
  B  B14  1  0.500000  0.253938  0.081062  1
  B  B15  1  0.500000  0.746062  0.918938  1
  B  B16  1  0.500000  0.798121  0.263049  1
  B  B17  1  0.500000  0.201879  0.736951  1
  B  B18  1  0.500000  0.298121  0.236951  1
  B  B19  1  0.500000  0.701879  0.763049  1
  B  B20  1  0.500000  0.629658  0.181563  1
  B  B21  1  0.500000  0.370342  0.818437  1
  B  B22  1  0.500000  0.129658  0.318437  1
  B  B23  1  0.500000  0.870342  0.681563  1
  B  B24  1  0.500000  0.980778  0.213626  1
  B  B25  1  0.500000  0.019222  0.786374  1
  B  B26  1  0.500000  0.480778  0.286374  1
  B  B27  1  0.500000  0.519222  0.713626  1
  B  B28  1  0.500000  0.600389  0.026706  1
  B  B29  1  0.500000  0.399611  0.973294  1
  B  B30  1  0.500000  0.100389  0.473294  1
  B  B31  1  0.500000  0.899611  0.526706  1
  Ru  Ru32  1  0.000000  0.643340  0.317843  1
  Ru  Ru33  1  0.000000  0.356660  0.682157  1
  Ru  Ru34  1  0.000000  0.143340  0.182157  1
  Ru  Ru35  1  0.000000  0.856660  0.817843  1
