# generated using pymatgen
data_Ho11(In3Pb2)2
_symmetry_space_group_name_H-M   'P 1'
_cell_length_a   11.76224353
_cell_length_b   11.76224405
_cell_length_c   11.76224400
_cell_angle_alpha   119.97031696
_cell_angle_beta   119.97031842
_cell_angle_gamma   90.05141942
_symmetry_Int_Tables_number   1
_chemical_formula_structural   Ho11(In3Pb2)2
_chemical_formula_sum   'Ho22 In12 Pb8'
_cell_volume   1151.19832792
_cell_formula_units_Z   2
loop_
 _symmetry_equiv_pos_site_id
 _symmetry_equiv_pos_as_xyz
  1  'x, y, z'
loop_
 _atom_site_type_symbol
 _atom_site_label
 _atom_site_symmetry_multiplicity
 _atom_site_fract_x
 _atom_site_fract_y
 _atom_site_fract_z
 _atom_site_occupancy
  Ho  Ho0  1  0.689041  0.937891  0.248850  1
  Ho  Ho1  1  0.689041  0.440191  0.751150  1
  Ho  Ho2  1  0.937891  0.689041  0.248850  1
  Ho  Ho3  1  0.440191  0.689041  0.751150  1
  Ho  Ho4  1  0.310959  0.062109  0.751150  1
  Ho  Ho5  1  0.310959  0.559809  0.248850  1
  Ho  Ho6  1  0.062109  0.310959  0.751150  1
  Ho  Ho7  1  0.559809  0.310959  0.248850  1
  Ho  Ho8  1  0.896740  0.226319  0.329578  1
  Ho  Ho9  1  0.896740  0.567162  0.670422  1
  Ho  Ho10  1  0.226319  0.896740  0.329578  1
  Ho  Ho11  1  0.567162  0.896740  0.670422  1
  Ho  Ho12  1  0.103260  0.773681  0.670422  1
  Ho  Ho13  1  0.103260  0.432838  0.329578  1
  Ho  Ho14  1  0.773681  0.103260  0.670422  1
  Ho  Ho15  1  0.432838  0.103260  0.329578  1
  Ho  Ho16  1  0.324957  0.324957  0.649914  1
  Ho  Ho17  1  0.675043  0.675043  0.350086  1
  Ho  Ho18  1  0.324957  0.675043  0.000000  1
  Ho  Ho19  1  0.675043  0.324957  0.000000  1
  Ho  Ho20  1  0.835199  0.835199  0.000000  1
  Ho  Ho21  1  0.164801  0.164801  0.000000  1
  In  In22  1  0.033588  0.033588  0.412090  1
  In  In23  1  0.621498  0.621498  0.587910  1
  In  In24  1  0.033588  0.621498  0.000000  1
  In  In25  1  0.621498  0.033588  0.000000  1
  In  In26  1  0.966412  0.966412  0.587910  1
  In  In27  1  0.378502  0.378502  0.412090  1
  In  In28  1  0.966412  0.378502  0.000000  1
  In  In29  1  0.378502  0.966412  0.000000  1
  In  In30  1  0.127447  0.127447  0.254893  1
  In  In31  1  0.872553  0.872553  0.745107  1
  In  In32  1  0.127447  0.872553  0.000000  1
  In  In33  1  0.872553  0.127447  0.000000  1
  Pb  Pb34  1  0.146353  0.500000  0.646353  1
  Pb  Pb35  1  0.853647  0.500000  0.353647  1
  Pb  Pb36  1  0.500000  0.853647  0.353647  1
  Pb  Pb37  1  0.500000  0.146353  0.646353  1
  Pb  Pb38  1  0.613478  0.613478  0.000000  1
  Pb  Pb39  1  0.386522  0.386522  0.000000  1
  Pb  Pb40  1  0.750000  0.250000  0.500000  1
  Pb  Pb41  1  0.250000  0.750000  0.500000  1
