# generated using pymatgen
data_Zr3Nb3Al16Ir6Pt
_symmetry_space_group_name_H-M   'P 1'
_cell_length_a   8.68348744
_cell_length_b   8.68348743
_cell_length_c   8.68472300
_cell_angle_alpha   60.00470523
_cell_angle_beta   60.00470876
_cell_angle_gamma   59.99999793
_symmetry_Int_Tables_number   1
_chemical_formula_structural   Zr3Nb3Al16Ir6Pt
_chemical_formula_sum   'Zr3 Nb3 Al16 Ir6 Pt1'
_cell_volume   463.08447511
_cell_formula_units_Z   1
loop_
 _symmetry_equiv_pos_site_id
 _symmetry_equiv_pos_as_xyz
  1  'x, y, z'
loop_
 _atom_site_type_symbol
 _atom_site_label
 _atom_site_symmetry_multiplicity
 _atom_site_fract_x
 _atom_site_fract_y
 _atom_site_fract_z
 _atom_site_occupancy
  Zr  Zr0  1  0.312278  0.312278  0.687526  1
  Zr  Zr1  1  0.687918  0.312278  0.687526  1
  Zr  Zr2  1  0.312278  0.687918  0.687526  1
  Nb  Nb3  1  0.676679  0.676679  0.321591  1
  Nb  Nb4  1  0.325053  0.676679  0.321591  1
  Nb  Nb5  1  0.676679  0.325053  0.321591  1
  Al  Al6  1  0.880377  0.880377  0.358869  1
  Al  Al7  1  0.877045  0.364373  0.881538  1
  Al  Al8  1  0.364373  0.877045  0.881538  1
  Al  Al9  1  0.877045  0.877045  0.881538  1
  Al  Al10  1  0.122468  0.122468  0.632595  1
  Al  Al11  1  0.118870  0.638473  0.123785  1
  Al  Al12  1  0.638473  0.118870  0.123785  1
  Al  Al13  1  0.118870  0.118870  0.123785  1
  Al  Al14  1  0.661946  0.661946  0.014163  1
  Al  Al15  1  0.663944  0.014183  0.657928  1
  Al  Al16  1  0.014183  0.663944  0.657928  1
  Al  Al17  1  0.663944  0.663944  0.657928  1
  Al  Al18  1  0.337273  0.337273  0.988182  1
  Al  Al19  1  0.339992  0.985365  0.334652  1
  Al  Al20  1  0.985365  0.339992  0.334652  1
  Al  Al21  1  0.339992  0.339992  0.334652  1
  Ir  Ir22  1  0.001436  0.001436  0.496105  1
  Ir  Ir23  1  0.501024  0.001436  0.496105  1
  Ir  Ir24  1  0.001436  0.501024  0.496105  1
  Ir  Ir25  1  0.501532  0.501532  0.000803  1
  Ir  Ir26  1  0.996132  0.501532  0.000803  1
  Ir  Ir27  1  0.501532  0.996132  0.000803  1
  Pt  Pt28  1  0.001863  0.001863  0.994411  1
