# generated using pymatgen
data_Ca10NbCrN10
_symmetry_space_group_name_H-M   'P 1'
_cell_length_a   6.89662418
_cell_length_b   6.89662263
_cell_length_c   8.84304477
_cell_angle_alpha   80.78482384
_cell_angle_beta   80.78483474
_cell_angle_gamma   59.64629246
_symmetry_Int_Tables_number   1
_chemical_formula_structural   Ca10NbCrN10
_chemical_formula_sum   'Ca10 Nb1 Cr1 N10'
_cell_volume   356.71278181
_cell_formula_units_Z   1
loop_
 _symmetry_equiv_pos_site_id
 _symmetry_equiv_pos_as_xyz
  1  'x, y, z'
loop_
 _atom_site_type_symbol
 _atom_site_label
 _atom_site_symmetry_multiplicity
 _atom_site_fract_x
 _atom_site_fract_y
 _atom_site_fract_z
 _atom_site_occupancy
  Ca  Ca0  1  0.876793  0.353407  0.835870  1
  Ca  Ca1  1  0.876036  0.876036  0.820516  1
  Ca  Ca2  1  0.738510  0.738510  0.523787  1
  Ca  Ca3  1  0.750447  0.254316  0.501779  1
  Ca  Ca4  1  0.629388  0.130476  0.150533  1
  Ca  Ca5  1  0.353407  0.876793  0.835870  1
  Ca  Ca6  1  0.254316  0.750447  0.501779  1
  Ca  Ca7  1  0.239411  0.239411  0.494062  1
  Ca  Ca8  1  0.138160  0.138160  0.162997  1
  Ca  Ca9  1  0.130476  0.629388  0.150533  1
  Nb  Nb10  1  0.369281  0.369281  0.774514  1
  Cr  Cr11  1  0.633699  0.633699  0.229534  1
  N  N12  1  0.898665  0.476743  0.319632  1
  N  N13  1  0.996140  0.996140  0.015099  1
  N  N14  1  0.681092  0.681092  0.033411  1
  N  N15  1  0.537236  0.537236  0.695541  1
  N  N16  1  0.476743  0.898665  0.319632  1
  N  N17  1  0.538888  0.083437  0.673953  1
  N  N18  1  0.482204  0.482204  0.290621  1
  N  N19  1  0.316372  0.316372  0.997036  1
  N  N20  1  0.061588  0.061588  0.645153  1
  N  N21  1  0.083437  0.538888  0.673953  1
