# generated using pymatgen
data_AcBeBIr2
_symmetry_space_group_name_H-M   'P 1'
_cell_length_a   7.44330011
_cell_length_b   6.52944333
_cell_length_c   5.76081117
_cell_angle_alpha   74.25200854
_cell_angle_beta   55.59014483
_cell_angle_gamma   48.15126194
_symmetry_Int_Tables_number   1
_chemical_formula_structural   AcBeBIr2
_chemical_formula_sum   'Ac2 Be2 B2 Ir4'
_cell_volume   169.50446398
_cell_formula_units_Z   2
loop_
 _symmetry_equiv_pos_site_id
 _symmetry_equiv_pos_as_xyz
  1  'x, y, z'
loop_
 _atom_site_type_symbol
 _atom_site_label
 _atom_site_symmetry_multiplicity
 _atom_site_fract_x
 _atom_site_fract_y
 _atom_site_fract_z
 _atom_site_occupancy
  Ac  Ac0  1  0.501458  0.498542  0.501458  1
  Ac  Ac1  1  0.748542  0.751458  0.748542  1
  Be  Be2  1  0.174619  0.825381  0.174619  1
  Be  Be3  1  0.075381  0.424619  0.075381  1
  B  B4  1  0.829227  0.170773  0.829227  1
  B  B5  1  0.420773  0.079227  0.420773  1
  Ir  Ir6  1  0.859462  0.880996  0.130242  1
  Ir  Ir7  1  0.130242  0.129299  0.859462  1
  Ir  Ir8  1  0.390538  0.369004  0.119758  1
  Ir  Ir9  1  0.119758  0.120701  0.390538  1
