# generated using pymatgen
data_Zr4FeCo(P2Pd)2
_symmetry_space_group_name_H-M   'P 1'
_cell_length_a   3.76794900
_cell_length_b   6.49181959
_cell_length_c   7.39369969
_cell_angle_alpha   88.26843837
_cell_angle_beta   90.00000000
_cell_angle_gamma   90.00000000
_symmetry_Int_Tables_number   1
_chemical_formula_structural   Zr4FeCo(P2Pd)2
_chemical_formula_sum   'Zr4 Fe1 Co1 P4 Pd2'
_cell_volume   180.77355839
_cell_formula_units_Z   1
loop_
 _symmetry_equiv_pos_site_id
 _symmetry_equiv_pos_as_xyz
  1  'x, y, z'
loop_
 _atom_site_type_symbol
 _atom_site_label
 _atom_site_symmetry_multiplicity
 _atom_site_fract_x
 _atom_site_fract_y
 _atom_site_fract_z
 _atom_site_occupancy
  Zr  Zr0  1  0.250000  0.527062  0.689844  1
  Zr  Zr1  1  0.750000  0.473973  0.310246  1
  Zr  Zr2  1  0.250000  0.023916  0.827094  1
  Zr  Zr3  1  0.750000  0.977097  0.172859  1
  Fe  Fe4  1  0.250000  0.632106  0.054093  1
  Co  Co5  1  0.750000  0.366020  0.944093  1
  P  P6  1  0.250000  0.280712  0.100310  1
  P  P7  1  0.750000  0.721430  0.903239  1
  P  P8  1  0.250000  0.752554  0.353891  1
  P  P9  1  0.750000  0.247263  0.643674  1
  Pd  Pd10  1  0.750000  0.845985  0.564917  1
  Pd  Pd11  1  0.250000  0.151883  0.435741  1
