# generated using pymatgen
data_NaPr5NdIrI12
_symmetry_space_group_name_H-M   'P 1'
_cell_length_a   10.07610777
_cell_length_b   10.18581931
_cell_length_c   10.07979006
_cell_angle_alpha   107.50075135
_cell_angle_beta   106.93569414
_cell_angle_gamma   107.00423847
_symmetry_Int_Tables_number   1
_chemical_formula_structural   NaPr5NdIrI12
_chemical_formula_sum   'Na1 Pr5 Nd1 Ir1 I12'
_cell_volume   858.06586139
_cell_formula_units_Z   1
loop_
 _symmetry_equiv_pos_site_id
 _symmetry_equiv_pos_as_xyz
  1  'x, y, z'
loop_
 _atom_site_type_symbol
 _atom_site_label
 _atom_site_symmetry_multiplicity
 _atom_site_fract_x
 _atom_site_fract_y
 _atom_site_fract_z
 _atom_site_occupancy
  Na  Na0  1  0.499990  0.500010  0.499983  1
  Pr  Pr1  1  0.304991  0.030363  0.102468  1
  Pr  Pr2  1  0.030741  0.102374  0.306288  1
  Pr  Pr3  1  0.969527  0.898416  0.693899  1
  Pr  Pr4  1  0.695146  0.969987  0.897568  1
  Pr  Pr5  1  0.893793  0.683059  0.968860  1
  Nd  Nd6  1  0.105856  0.315498  0.031132  1
  Ir  Ir7  1  0.000207  0.000519  0.000170  1
  I  I8  1  0.226798  0.683574  0.075791  1
  I  I9  1  0.454840  0.376395  0.148984  1
  I  I10  1  0.683487  0.075832  0.226670  1
  I  I11  1  0.924684  0.775056  0.317081  1
  I  I12  1  0.149057  0.455089  0.375940  1
  I  I13  1  0.378597  0.150364  0.457599  1
  I  I14  1  0.621392  0.849630  0.542430  1
  I  I15  1  0.850786  0.544668  0.622259  1
  I  I16  1  0.075610  0.225788  0.684578  1
  I  I17  1  0.316522  0.924181  0.773350  1
  I  I18  1  0.543232  0.623585  0.850266  1
  I  I19  1  0.774748  0.315611  0.924689  1
