# generated using pymatgen
data_Hf6Ta4ZnSi3(GeN)2
_symmetry_space_group_name_H-M   'P 1'
_cell_length_a   7.76469700
_cell_length_b   7.75504060
_cell_length_c   5.43600600
_cell_angle_alpha   90.00000000
_cell_angle_beta   90.00000000
_cell_angle_gamma   120.04120296
_symmetry_Int_Tables_number   1
_chemical_formula_structural   Hf6Ta4ZnSi3(GeN)2
_chemical_formula_sum   'Hf6 Ta4 Zn1 Si3 Ge2 N2'
_cell_volume   283.36009156
_cell_formula_units_Z   1
loop_
 _symmetry_equiv_pos_site_id
 _symmetry_equiv_pos_as_xyz
  1  'x, y, z'
loop_
 _atom_site_type_symbol
 _atom_site_label
 _atom_site_symmetry_multiplicity
 _atom_site_fract_x
 _atom_site_fract_y
 _atom_site_fract_z
 _atom_site_occupancy
  Hf  Hf0  1  0.234951  0.002618  0.250000  1
  Hf  Hf1  1  0.765998  0.999750  0.750000  1
  Hf  Hf2  1  0.002103  0.239893  0.250000  1
  Hf  Hf3  1  0.997247  0.761797  0.750000  1
  Hf  Hf4  1  0.762098  0.761720  0.250000  1
  Hf  Hf5  1  0.236642  0.238625  0.750000  1
  Ta  Ta6  1  0.333996  0.661390  0.999018  1
  Ta  Ta7  1  0.665926  0.336230  0.998787  1
  Ta  Ta8  1  0.665926  0.336230  0.501213  1
  Ta  Ta9  1  0.333996  0.661390  0.500982  1
  Zn  Zn10  1  0.001782  0.593915  0.250000  1
  Si  Si11  1  0.998903  0.408948  0.750000  1
  Si  Si12  1  0.408181  0.407132  0.250000  1
  Si  Si13  1  0.594235  0.593426  0.750000  1
  Ge  Ge14  1  0.593981  0.000039  0.250000  1
  Ge  Ge15  1  0.403537  0.997337  0.750000  1
  N  N16  1  0.000249  0.999780  0.000595  1
  N  N17  1  0.000249  0.999780  0.499405  1
