# generated using pymatgen
data_K2NiWS4
_symmetry_space_group_name_H-M   'P 1'
_cell_length_a   13.45601133
_cell_length_b   12.00746087
_cell_length_c   7.16140100
_cell_angle_alpha   85.19679856
_cell_angle_beta   62.77481479
_cell_angle_gamma   32.02838394
_symmetry_Int_Tables_number   1
_chemical_formula_structural   K2NiWS4
_chemical_formula_sum   'K4 Ni2 W2 S8'
_cell_volume   417.04061964
_cell_formula_units_Z   2
loop_
 _symmetry_equiv_pos_site_id
 _symmetry_equiv_pos_as_xyz
  1  'x, y, z'
loop_
 _atom_site_type_symbol
 _atom_site_label
 _atom_site_symmetry_multiplicity
 _atom_site_fract_x
 _atom_site_fract_y
 _atom_site_fract_z
 _atom_site_occupancy
  K  K0  1  0.678520  0.678520  0.321480  1
  K  K1  1  0.928520  0.928520  0.571480  1
  K  K2  1  0.321480  0.321480  0.678520  1
  K  K3  1  0.571480  0.571480  0.928520  1
  Ni  Ni4  1  0.000000  0.000000  0.000000  1
  Ni  Ni5  1  0.250000  0.250000  0.250000  1
  W  W6  1  0.750000  0.750000  0.750000  1
  W  W7  1  0.500000  0.500000  0.500000  1
  S  S8  1  0.039529  0.351149  0.654569  1
  S  S9  1  0.210471  0.898851  0.595431  1
  S  S10  1  0.898851  0.210471  0.295249  1
  S  S11  1  0.595431  0.295249  0.210471  1
  S  S12  1  0.954751  0.654569  0.351149  1
  S  S13  1  0.654569  0.954751  0.039529  1
  S  S14  1  0.351149  0.039529  0.954751  1
  S  S15  1  0.295249  0.595431  0.898851  1
