# generated using pymatgen
data_Er20NiBi8Os3
_symmetry_space_group_name_H-M   'P 1'
_cell_length_a   7.91216359
_cell_length_b   8.97095800
_cell_length_c   12.36486494
_cell_angle_alpha   90.00000000
_cell_angle_beta   89.68707204
_cell_angle_gamma   90.00000000
_symmetry_Int_Tables_number   1
_chemical_formula_structural   Er20NiBi8Os3
_chemical_formula_sum   'Er20 Ni1 Bi8 Os3'
_cell_volume   877.64115645
_cell_formula_units_Z   1
loop_
 _symmetry_equiv_pos_site_id
 _symmetry_equiv_pos_as_xyz
  1  'x, y, z'
loop_
 _atom_site_type_symbol
 _atom_site_label
 _atom_site_symmetry_multiplicity
 _atom_site_fract_x
 _atom_site_fract_y
 _atom_site_fract_z
 _atom_site_occupancy
  Er  Er0  1  0.342127  0.750000  0.704409  1
  Er  Er1  1  0.658520  0.250000  0.292472  1
  Er  Er2  1  0.842289  0.250000  0.790889  1
  Er  Er3  1  0.156231  0.750000  0.206541  1
  Er  Er4  1  0.879477  0.750000  0.805097  1
  Er  Er5  1  0.119219  0.250000  0.193833  1
  Er  Er6  1  0.378710  0.250000  0.692435  1
  Er  Er7  1  0.619324  0.750000  0.310746  1
  Er  Er8  1  0.676627  0.540291  0.564685  1
  Er  Er9  1  0.325141  0.456790  0.436339  1
  Er  Er10  1  0.173559  0.457691  0.935995  1
  Er  Er11  1  0.325141  0.043210  0.436339  1
  Er  Er12  1  0.825069  0.543809  0.064244  1
  Er  Er13  1  0.676627  0.959709  0.564685  1
  Er  Er14  1  0.825069  0.956191  0.064244  1
  Er  Er15  1  0.173559  0.042309  0.935995  1
  Er  Er16  1  0.052897  0.750000  0.497801  1
  Er  Er17  1  0.944956  0.250000  0.502461  1
  Er  Er18  1  0.559379  0.250000  0.003518  1
  Er  Er19  1  0.441640  0.750000  0.996151  1
  Ni  Ni20  1  0.428423  0.750000  0.490586  1
  Bi  Bi21  1  0.569145  0.508718  0.827313  1
  Bi  Bi22  1  0.430301  0.492042  0.173217  1
  Bi  Bi23  1  0.071565  0.491724  0.671660  1
  Bi  Bi24  1  0.430301  0.007958  0.173217  1
  Bi  Bi25  1  0.930273  0.509282  0.328629  1
  Bi  Bi26  1  0.569145  0.991282  0.827313  1
  Bi  Bi27  1  0.930273  0.990718  0.328629  1
  Bi  Bi28  1  0.071565  0.008276  0.671660  1
  Os  Os29  1  0.075659  0.750000  0.989065  1
  Os  Os30  1  0.923838  0.250000  0.009882  1
  Os  Os31  1  0.573955  0.250000  0.509951  1
