# generated using pymatgen
data_Hf16Nb3Si16W
_symmetry_space_group_name_H-M   'P 1'
_cell_length_a   6.99007909
_cell_length_b   6.99007909
_cell_length_c   12.78232036
_cell_angle_alpha   89.94123702
_cell_angle_beta   90.05876298
_cell_angle_gamma   90.02560523
_symmetry_Int_Tables_number   1
_chemical_formula_structural   Hf16Nb3Si16W
_chemical_formula_sum   'Hf16 Nb3 Si16 W1'
_cell_volume   624.55886580
_cell_formula_units_Z   1
loop_
 _symmetry_equiv_pos_site_id
 _symmetry_equiv_pos_as_xyz
  1  'x, y, z'
loop_
 _atom_site_type_symbol
 _atom_site_label
 _atom_site_symmetry_multiplicity
 _atom_site_fract_x
 _atom_site_fract_y
 _atom_site_fract_z
 _atom_site_occupancy
  Hf  Hf0  1  0.496694  0.154858  0.531250  1
  Hf  Hf1  1  0.503561  0.845333  0.030551  1
  Hf  Hf2  1  0.654849  0.003700  0.280163  1
  Hf  Hf3  1  0.344960  0.997317  0.781200  1
  Hf  Hf4  1  0.845333  0.503561  0.969449  1
  Hf  Hf5  1  0.154858  0.496694  0.468750  1
  Hf  Hf6  1  0.003700  0.654849  0.719837  1
  Hf  Hf7  1  0.997317  0.344960  0.218800  1
  Hf  Hf8  1  0.497449  0.354418  0.125046  1
  Hf  Hf9  1  0.502408  0.645113  0.625982  1
  Hf  Hf10  1  0.855141  0.003418  0.876575  1
  Hf  Hf11  1  0.144965  0.998055  0.374924  1
  Hf  Hf12  1  0.645113  0.502408  0.374018  1
  Hf  Hf13  1  0.354418  0.497449  0.874954  1
  Hf  Hf14  1  0.003418  0.855141  0.123425  1
  Hf  Hf15  1  0.998055  0.144965  0.625076  1
  Nb  Nb16  1  0.674392  0.324958  0.750755  1
  Nb  Nb17  1  0.324958  0.674392  0.249245  1
  Nb  Nb18  1  0.825331  0.825331  0.500000  1
  Si  Si19  1  0.797428  0.146314  0.071926  1
  Si  Si20  1  0.203621  0.854012  0.571622  1
  Si  Si21  1  0.646258  0.703504  0.821769  1
  Si  Si22  1  0.354113  0.296105  0.321477  1
  Si  Si23  1  0.854012  0.203621  0.428378  1
  Si  Si24  1  0.146314  0.797428  0.928074  1
  Si  Si25  1  0.703504  0.646258  0.178231  1
  Si  Si26  1  0.296105  0.354113  0.678523  1
  Si  Si27  1  0.544073  0.195352  0.934761  1
  Si  Si28  1  0.453015  0.803859  0.434423  1
  Si  Si29  1  0.695933  0.953597  0.684807  1
  Si  Si30  1  0.302706  0.048208  0.183319  1
  Si  Si31  1  0.803859  0.453015  0.565577  1
  Si  Si32  1  0.195352  0.544073  0.065239  1
  Si  Si33  1  0.953597  0.695933  0.315193  1
  Si  Si34  1  0.048208  0.302706  0.816681  1
  W  W35  1  0.174982  0.174982  0.000000  1
