# generated using pymatgen
data_AcMgInGa2
_symmetry_space_group_name_H-M   'P 1'
_cell_length_a   6.80359733
_cell_length_b   6.80359668
_cell_length_c   6.80359725
_cell_angle_alpha   141.01491586
_cell_angle_beta   141.01490697
_cell_angle_gamma   56.31549362
_symmetry_Int_Tables_number   1
_chemical_formula_structural   AcMgInGa2
_chemical_formula_sum   'Ac1 Mg1 In1 Ga2'
_cell_volume   123.66422185
_cell_formula_units_Z   1
loop_
 _symmetry_equiv_pos_site_id
 _symmetry_equiv_pos_as_xyz
  1  'x, y, z'
loop_
 _atom_site_type_symbol
 _atom_site_label
 _atom_site_symmetry_multiplicity
 _atom_site_fract_x
 _atom_site_fract_y
 _atom_site_fract_z
 _atom_site_occupancy
  Ac  Ac0  1  0.000000  0.000000  0.000000  1
  Mg  Mg1  1  0.250000  0.750000  0.500000  1
  In  In2  1  0.750000  0.250000  0.500000  1
  Ga  Ga3  1  0.393701  0.393701  0.000000  1
  Ga  Ga4  1  0.606299  0.606299  0.000000  1
