# generated using pymatgen
data_DyY3Co18(P6Os)2
_symmetry_space_group_name_H-M   'P 1'
_cell_length_a   3.68384200
_cell_length_b   10.34267101
_cell_length_c   11.74427101
_cell_angle_alpha   90.00526029
_cell_angle_beta   90.00000000
_cell_angle_gamma   90.00000000
_symmetry_Int_Tables_number   1
_chemical_formula_structural   DyY3Co18(P6Os)2
_chemical_formula_sum   'Dy1 Y3 Co18 P12 Os2'
_cell_volume   447.46571818
_cell_formula_units_Z   1
loop_
 _symmetry_equiv_pos_site_id
 _symmetry_equiv_pos_as_xyz
  1  'x, y, z'
loop_
 _atom_site_type_symbol
 _atom_site_label
 _atom_site_symmetry_multiplicity
 _atom_site_fract_x
 _atom_site_fract_y
 _atom_site_fract_z
 _atom_site_occupancy
  Dy  Dy0  1  0.250000  0.917468  0.201757  1
  Y  Y1  1  0.250000  0.582636  0.701828  1
  Y  Y2  1  0.750000  0.412801  0.295385  1
  Y  Y3  1  0.750000  0.087165  0.795384  1
  Co  Co4  1  0.750000  0.284060  0.009088  1
  Co  Co5  1  0.750000  0.215874  0.508904  1
  Co  Co6  1  0.250000  0.405701  0.488235  1
  Co  Co7  1  0.250000  0.094164  0.988321  1
  Co  Co8  1  0.750000  0.591622  0.509528  1
  Co  Co9  1  0.750000  0.908399  0.009906  1
  Co  Co10  1  0.250000  0.220053  0.176972  1
  Co  Co11  1  0.250000  0.279861  0.676965  1
  Co  Co12  1  0.750000  0.777732  0.822907  1
  Co  Co13  1  0.750000  0.722449  0.322751  1
  Co  Co14  1  0.250000  0.887518  0.701778  1
  Co  Co15  1  0.250000  0.612589  0.201847  1
  Co  Co16  1  0.750000  0.115173  0.301074  1
  Co  Co17  1  0.750000  0.384584  0.801264  1
  Co  Co18  1  0.250000  0.465837  0.932846  1
  Co  Co19  1  0.250000  0.034106  0.432634  1
  Co  Co20  1  0.750000  0.533483  0.068792  1
  Co  Co21  1  0.750000  0.966618  0.568582  1
  P  P22  1  0.250000  0.416086  0.112062  1
  P  P23  1  0.250000  0.083927  0.611916  1
  P  P24  1  0.750000  0.578965  0.886920  1
  P  P25  1  0.750000  0.921044  0.386611  1
  P  P26  1  0.250000  0.271467  0.869691  1
  P  P27  1  0.250000  0.228484  0.369616  1
  P  P28  1  0.750000  0.728984  0.132496  1
  P  P29  1  0.750000  0.771247  0.632367  1
  P  P30  1  0.250000  0.593623  0.390303  1
  P  P31  1  0.250000  0.906377  0.890355  1
  P  P32  1  0.750000  0.396743  0.608441  1
  P  P33  1  0.750000  0.103017  0.108524  1
  Os  Os34  1  0.250000  0.715527  0.992099  1
  Os  Os35  1  0.250000  0.784614  0.491851  1
