# generated using pymatgen
data_DyEr10In9Co4
_symmetry_space_group_name_H-M   'P 1'
_cell_length_a   12.84143143
_cell_length_b   12.84143274
_cell_length_c   3.60693100
_cell_angle_alpha   90.00000000
_cell_angle_beta   90.00000000
_cell_angle_gamma   110.98200794
_symmetry_Int_Tables_number   1
_chemical_formula_structural   DyEr10In9Co4
_chemical_formula_sum   'Dy1 Er10 In9 Co4'
_cell_volume   555.35260902
_cell_formula_units_Z   1
loop_
 _symmetry_equiv_pos_site_id
 _symmetry_equiv_pos_as_xyz
  1  'x, y, z'
loop_
 _atom_site_type_symbol
 _atom_site_label
 _atom_site_symmetry_multiplicity
 _atom_site_fract_x
 _atom_site_fract_y
 _atom_site_fract_z
 _atom_site_occupancy
  Dy  Dy0  1  0.000000  0.000000  0.000000  1
  Er  Er1  1  0.419155  0.081706  0.000000  1
  Er  Er2  1  0.580845  0.918294  0.000000  1
  Er  Er3  1  0.081706  0.419155  0.000000  1
  Er  Er4  1  0.918294  0.580845  0.000000  1
  Er  Er5  1  0.160540  0.839460  0.000000  1
  Er  Er6  1  0.839460  0.160540  0.000000  1
  Er  Er7  1  0.376042  0.623958  0.000000  1
  Er  Er8  1  0.623958  0.376042  0.000000  1
  Er  Er9  1  0.315142  0.315142  0.000000  1
  Er  Er10  1  0.684858  0.684858  0.000000  1
  In  In11  1  0.369604  0.840534  0.500000  1
  In  In12  1  0.630396  0.159466  0.500000  1
  In  In13  1  0.840534  0.369604  0.500000  1
  In  In14  1  0.159466  0.630396  0.500000  1
  In  In15  1  0.221919  0.079440  0.500000  1
  In  In16  1  0.778081  0.920560  0.500000  1
  In  In17  1  0.079440  0.221919  0.500000  1
  In  In18  1  0.920560  0.778081  0.500000  1
  In  In19  1  0.500000  0.500000  0.500000  1
  Co  Co20  1  0.449285  0.246395  0.500000  1
  Co  Co21  1  0.550715  0.753605  0.500000  1
  Co  Co22  1  0.246395  0.449285  0.500000  1
  Co  Co23  1  0.753605  0.550715  0.500000  1
