# generated using pymatgen
data_Nb3ReSi3W2
_symmetry_space_group_name_H-M   'P 1'
_cell_length_a   6.93282641
_cell_length_b   6.93282504
_cell_length_c   3.35390800
_cell_angle_alpha   90.00000000
_cell_angle_beta   90.00000000
_cell_angle_gamma   120.11364654
_symmetry_Int_Tables_number   1
_chemical_formula_structural   Nb3ReSi3W2
_chemical_formula_sum   'Nb3 Re1 Si3 W2'
_cell_volume   139.44529294
_cell_formula_units_Z   1
loop_
 _symmetry_equiv_pos_site_id
 _symmetry_equiv_pos_as_xyz
  1  'x, y, z'
loop_
 _atom_site_type_symbol
 _atom_site_label
 _atom_site_symmetry_multiplicity
 _atom_site_fract_x
 _atom_site_fract_y
 _atom_site_fract_z
 _atom_site_occupancy
  Nb  Nb0  1  0.400436  0.989412  0.500000  1
  Nb  Nb1  1  0.989412  0.400436  0.500000  1
  Nb  Nb2  1  0.608651  0.608651  0.500000  1
  Re  Re3  1  0.260183  0.260183  0.000000  1
  Si  Si4  1  0.331071  0.658666  0.000000  1
  Si  Si5  1  0.658666  0.331071  0.000000  1
  Si  Si6  1  0.008898  0.008898  0.500000  1
  W  W7  1  0.742854  0.999827  0.000000  1
  W  W8  1  0.999827  0.742854  0.000000  1
