# generated using pymatgen
data_Ce3LuFeSn4Ru3
_symmetry_space_group_name_H-M   'P 1'
_cell_length_a   6.33115104
_cell_length_b   6.33115142
_cell_length_c   9.91927991
_cell_angle_alpha   76.84797396
_cell_angle_beta   76.84797165
_cell_angle_gamma   43.99890596
_symmetry_Int_Tables_number   1
_chemical_formula_structural   Ce3LuFeSn4Ru3
_chemical_formula_sum   'Ce3 Lu1 Fe1 Sn4 Ru3'
_cell_volume   267.74450615
_cell_formula_units_Z   1
loop_
 _symmetry_equiv_pos_site_id
 _symmetry_equiv_pos_as_xyz
  1  'x, y, z'
loop_
 _atom_site_type_symbol
 _atom_site_label
 _atom_site_symmetry_multiplicity
 _atom_site_fract_x
 _atom_site_fract_y
 _atom_site_fract_z
 _atom_site_occupancy
  Ce  Ce0  1  0.860150  0.860150  0.415252  1
  Ce  Ce1  1  0.863501  0.863501  0.928460  1
  Ce  Ce2  1  0.139640  0.139640  0.088778  1
  Lu  Lu3  1  0.117157  0.117157  0.595658  1
  Fe  Fe4  1  0.820712  0.820712  0.146780  1
  Sn  Sn5  1  0.424671  0.424671  0.158089  1
  Sn  Sn6  1  0.409978  0.409978  0.658516  1
  Sn  Sn7  1  0.581905  0.581905  0.840074  1
  Sn  Sn8  1  0.590597  0.590597  0.358395  1
  Ru  Ru9  1  0.198280  0.198280  0.306148  1
  Ru  Ru10  1  0.188145  0.188145  0.843308  1
  Ru  Ru11  1  0.805265  0.805265  0.660540  1
