# generated using pymatgen
data_Sc20GaBi8Sb3
_symmetry_space_group_name_H-M   'P 1'
_cell_length_a   7.67903627
_cell_length_b   8.91689200
_cell_length_c   11.27466646
_cell_angle_alpha   90.00000000
_cell_angle_beta   89.77137356
_cell_angle_gamma   90.00000000
_symmetry_Int_Tables_number   1
_chemical_formula_structural   Sc20GaBi8Sb3
_chemical_formula_sum   'Sc20 Ga1 Bi8 Sb3'
_cell_volume   772.00563596
_cell_formula_units_Z   1
loop_
 _symmetry_equiv_pos_site_id
 _symmetry_equiv_pos_as_xyz
  1  'x, y, z'
loop_
 _atom_site_type_symbol
 _atom_site_label
 _atom_site_symmetry_multiplicity
 _atom_site_fract_x
 _atom_site_fract_y
 _atom_site_fract_z
 _atom_site_occupancy
  Sc  Sc0  1  0.034777  0.250000  0.511663  1
  Sc  Sc1  1  0.976173  0.750000  0.488818  1
  Sc  Sc2  1  0.474386  0.750000  0.010911  1
  Sc  Sc3  1  0.525486  0.250000  0.988632  1
  Sc  Sc4  1  0.354159  0.250000  0.292193  1
  Sc  Sc5  1  0.649224  0.750000  0.715241  1
  Sc  Sc6  1  0.149011  0.750000  0.784936  1
  Sc  Sc7  1  0.851746  0.250000  0.214812  1
  Sc  Sc8  1  0.186391  0.250000  0.778025  1
  Sc  Sc9  1  0.814954  0.750000  0.219210  1
  Sc  Sc10  1  0.315832  0.750000  0.279982  1
  Sc  Sc11  1  0.677152  0.250000  0.713736  1
  Sc  Sc12  1  0.192331  0.064457  0.059194  1
  Sc  Sc13  1  0.807724  0.935400  0.941550  1
  Sc  Sc14  1  0.309213  0.945940  0.558039  1
  Sc  Sc15  1  0.807724  0.564600  0.941550  1
  Sc  Sc16  1  0.685800  0.070108  0.444454  1
  Sc  Sc17  1  0.192331  0.435543  0.059194  1
  Sc  Sc18  1  0.685800  0.429892  0.444454  1
  Sc  Sc19  1  0.309213  0.554060  0.558039  1
  Ga  Ga20  1  0.408338  0.250000  0.539232  1
  Bi  Bi21  1  0.065469  0.004219  0.325248  1
  Bi  Bi22  1  0.934623  0.996299  0.674800  1
  Bi  Bi23  1  0.434488  0.996706  0.824059  1
  Bi  Bi24  1  0.934623  0.503701  0.674800  1
  Bi  Bi25  1  0.565911  0.004414  0.174474  1
  Bi  Bi26  1  0.065469  0.495781  0.325248  1
  Bi  Bi27  1  0.565911  0.495586  0.174474  1
  Bi  Bi28  1  0.434488  0.503294  0.824059  1
  Sb  Sb29  1  0.590716  0.750000  0.460097  1
  Sb  Sb30  1  0.091507  0.750000  0.039892  1
  Sb  Sb31  1  0.909033  0.250000  0.958982  1
