# generated using pymatgen
data_K2RbBiTe3
_symmetry_space_group_name_H-M   'P 1'
_cell_length_a   10.65079800
_cell_length_b   10.65079800
_cell_length_c   10.65079800
_cell_angle_alpha   90.00000000
_cell_angle_beta   90.00000000
_cell_angle_gamma   90.00000000
_symmetry_Int_Tables_number   1
_chemical_formula_structural   K2RbBiTe3
_chemical_formula_sum   'K8 Rb4 Bi4 Te12'
_cell_volume   1208.22117881
_cell_formula_units_Z   4
loop_
 _symmetry_equiv_pos_site_id
 _symmetry_equiv_pos_as_xyz
  1  'x, y, z'
loop_
 _atom_site_type_symbol
 _atom_site_label
 _atom_site_symmetry_multiplicity
 _atom_site_fract_x
 _atom_site_fract_y
 _atom_site_fract_z
 _atom_site_occupancy
  K  K0  1  0.179931  0.679931  0.820069  1
  K  K1  1  0.679931  0.820069  0.179931  1
  K  K2  1  0.820069  0.179931  0.679931  1
  K  K3  1  0.320069  0.320069  0.320069  1
  K  K4  1  0.684383  0.184383  0.315617  1
  K  K5  1  0.184383  0.315617  0.684383  1
  K  K6  1  0.315617  0.684383  0.184383  1
  K  K7  1  0.815617  0.815617  0.815617  1
  Rb  Rb8  1  0.926293  0.426293  0.073707  1
  Rb  Rb9  1  0.426293  0.073707  0.926293  1
  Rb  Rb10  1  0.073707  0.926293  0.426293  1
  Rb  Rb11  1  0.573707  0.573707  0.573707  1
  Bi  Bi12  1  0.467984  0.967984  0.532016  1
  Bi  Bi13  1  0.967984  0.532016  0.467984  1
  Bi  Bi14  1  0.532016  0.467984  0.967984  1
  Bi  Bi15  1  0.032016  0.032016  0.032016  1
  Te  Te16  1  0.002677  0.771508  0.108459  1
  Te  Te17  1  0.891541  0.502677  0.728492  1
  Te  Te18  1  0.271508  0.391541  0.997323  1
  Te  Te19  1  0.502677  0.728492  0.891541  1
  Te  Te20  1  0.391541  0.997323  0.271508  1
  Te  Te21  1  0.771508  0.108459  0.002677  1
  Te  Te22  1  0.997323  0.271508  0.391541  1
  Te  Te23  1  0.108459  0.002677  0.771508  1
  Te  Te24  1  0.728492  0.891541  0.502677  1
  Te  Te25  1  0.497323  0.228492  0.608459  1
  Te  Te26  1  0.608459  0.497323  0.228492  1
  Te  Te27  1  0.228492  0.608459  0.497323  1
