# generated using pymatgen
data_Dy5Y(Tm2Sn3)2
_symmetry_space_group_name_H-M   'P 1'
_cell_length_a   6.49032300
_cell_length_b   8.93148810
_cell_length_c   8.93329402
_cell_angle_alpha   119.99330797
_cell_angle_beta   89.99996952
_cell_angle_gamma   90.00005742
_symmetry_Int_Tables_number   1
_chemical_formula_structural   Dy5Y(Tm2Sn3)2
_chemical_formula_sum   'Dy5 Y1 Tm4 Sn6'
_cell_volume   448.49920340
_cell_formula_units_Z   1
loop_
 _symmetry_equiv_pos_site_id
 _symmetry_equiv_pos_as_xyz
  1  'x, y, z'
loop_
 _atom_site_type_symbol
 _atom_site_label
 _atom_site_symmetry_multiplicity
 _atom_site_fract_x
 _atom_site_fract_y
 _atom_site_fract_z
 _atom_site_occupancy
  Dy  Dy0  1  0.749998  0.760477  0.760556  1
  Dy  Dy1  1  0.749998  0.999921  0.239444  1
  Dy  Dy2  1  0.250001  0.760605  0.000000  1
  Dy  Dy3  1  0.249998  0.239480  0.239444  1
  Dy  Dy4  1  0.249998  0.000036  0.760556  1
  Y  Y5  1  0.750002  0.239403  0.000000  1
  Tm  Tm6  1  0.500002  0.333365  0.666734  1
  Tm  Tm7  1  0.500002  0.666630  0.333266  1
  Tm  Tm8  1  0.999996  0.666652  0.333266  1
  Tm  Tm9  1  0.999996  0.333387  0.666734  1
  Sn  Sn10  1  0.749997  0.604608  0.000000  1
  Sn  Sn11  1  0.750003  0.395339  0.395342  1
  Sn  Sn12  1  0.750003  0.999997  0.604658  1
  Sn  Sn13  1  0.249997  0.395439  0.000000  1
  Sn  Sn14  1  0.250003  0.604677  0.604693  1
  Sn  Sn15  1  0.250003  0.999984  0.395307  1
