# generated using pymatgen
data_Ho3Er4Lu5Co5Bi
_symmetry_space_group_name_H-M   'P 1'
_cell_length_a   8.21044625
_cell_length_b   8.21044527
_cell_length_c   8.19917408
_cell_angle_alpha   110.83936317
_cell_angle_beta   110.96374443
_cell_angle_gamma   106.70554801
_symmetry_Int_Tables_number   1
_chemical_formula_structural   Ho3Er4Lu5Co5Bi
_chemical_formula_sum   'Ho3 Er4 Lu5 Co5 Bi1'
_cell_volume   424.41946721
_cell_formula_units_Z   1
loop_
 _symmetry_equiv_pos_site_id
 _symmetry_equiv_pos_as_xyz
  1  'x, y, z'
loop_
 _atom_site_type_symbol
 _atom_site_label
 _atom_site_symmetry_multiplicity
 _atom_site_fract_x
 _atom_site_fract_y
 _atom_site_fract_z
 _atom_site_occupancy
  Ho  Ho0  1  0.287782  0.184143  0.471925  1
  Ho  Ho1  1  0.713780  0.817328  0.531108  1
  Ho  Ho2  1  0.287225  0.815986  0.103209  1
  Er  Er3  1  0.208189  0.402619  0.193240  1
  Er  Er4  1  0.789424  0.593297  0.804880  1
  Er  Er5  1  0.211582  0.015457  0.804880  1
  Er  Er6  1  0.790619  0.985049  0.193240  1
  Lu  Lu7  1  0.713739  0.183249  0.896988  1
  Lu  Lu8  1  0.624047  0.312202  0.309977  1
  Lu  Lu9  1  0.376478  0.687879  0.688898  1
  Lu  Lu10  1  0.001020  0.312419  0.688898  1
  Lu  Lu11  1  0.997773  0.685929  0.309977  1
  Co  Co12  1  0.997486  0.374879  0.372365  1
  Co  Co13  1  0.000489  0.625486  0.625975  1
  Co  Co14  1  0.389289  0.890498  0.503389  1
  Co  Co15  1  0.612892  0.114099  0.503389  1
  Co  Co16  1  0.998419  0.998707  0.997126  1
  Bi  Bi17  1  0.499765  0.500773  0.000538  1
