# generated using pymatgen
data_Be(TcO4)2
_symmetry_space_group_name_H-M   'P 1'
_cell_length_a   5.34936632
_cell_length_b   5.34952384
_cell_length_c   7.10075800
_cell_angle_alpha   87.22217555
_cell_angle_beta   87.21783651
_cell_angle_gamma   63.74834499
_symmetry_Int_Tables_number   1
_chemical_formula_structural   Be(TcO4)2
_chemical_formula_sum   'Be1 Tc2 O8'
_cell_volume   181.94383433
_cell_formula_units_Z   1
loop_
 _symmetry_equiv_pos_site_id
 _symmetry_equiv_pos_as_xyz
  1  'x, y, z'
loop_
 _atom_site_type_symbol
 _atom_site_label
 _atom_site_symmetry_multiplicity
 _atom_site_fract_x
 _atom_site_fract_y
 _atom_site_fract_z
 _atom_site_occupancy
  Be  Be0  1  0.884723  0.115370  0.499948  1
  Tc  Tc1  1  0.309620  0.288952  0.250032  1
  Tc  Tc2  1  0.710988  0.690409  0.749974  1
  O  O3  1  0.807836  0.372352  0.638282  1
  O  O4  1  0.144109  0.092951  0.357599  1
  O  O5  1  0.102259  0.634901  0.279042  1
  O  O6  1  0.767843  0.626549  0.986477  1
  O  O7  1  0.364977  0.897243  0.721107  1
  O  O8  1  0.373429  0.232249  0.013539  1
  O  O9  1  0.627660  0.192674  0.361608  1
  O  O10  1  0.906553  0.856351  0.642391  1
