# generated using pymatgen
data_Dy6Mn2Co(Ni5P4)3
_symmetry_space_group_name_H-M   'P 1'
_cell_length_a   3.78658500
_cell_length_b   10.60275400
_cell_length_c   12.36510300
_cell_angle_alpha   90.00000000
_cell_angle_beta   90.00000000
_cell_angle_gamma   90.00000000
_symmetry_Int_Tables_number   1
_chemical_formula_structural   Dy6Mn2Co(Ni5P4)3
_chemical_formula_sum   'Dy6 Mn2 Co1 Ni15 P12'
_cell_volume   496.43699001
_cell_formula_units_Z   1
loop_
 _symmetry_equiv_pos_site_id
 _symmetry_equiv_pos_as_xyz
  1  'x, y, z'
loop_
 _atom_site_type_symbol
 _atom_site_label
 _atom_site_symmetry_multiplicity
 _atom_site_fract_x
 _atom_site_fract_y
 _atom_site_fract_z
 _atom_site_occupancy
  Dy  Dy0  1  0.000000  0.500000  0.521524  1
  Dy  Dy1  1  0.500000  0.000000  0.478567  1
  Dy  Dy2  1  0.500000  0.816778  0.205474  1
  Dy  Dy3  1  0.500000  0.183222  0.205474  1
  Dy  Dy4  1  0.000000  0.683266  0.794565  1
  Dy  Dy5  1  0.000000  0.316734  0.794565  1
  Mn  Mn6  1  0.500000  0.500000  0.154110  1
  Mn  Mn7  1  0.000000  0.000000  0.846082  1
  Co  Co8  1  0.500000  0.000000  0.015209  1
  Ni  Ni9  1  0.500000  0.500000  0.700113  1
  Ni  Ni10  1  0.000000  0.000000  0.298104  1
  Ni  Ni11  1  0.000000  0.500000  0.983828  1
  Ni  Ni12  1  0.500000  0.331854  0.991759  1
  Ni  Ni13  1  0.500000  0.668146  0.991759  1
  Ni  Ni14  1  0.000000  0.166810  0.008124  1
  Ni  Ni15  1  0.000000  0.833190  0.008124  1
  Ni  Ni16  1  0.500000  0.300705  0.428697  1
  Ni  Ni17  1  0.500000  0.699295  0.428697  1
  Ni  Ni18  1  0.000000  0.199043  0.571559  1
  Ni  Ni19  1  0.000000  0.800957  0.571559  1
  Ni  Ni20  1  0.500000  0.879715  0.711253  1
  Ni  Ni21  1  0.500000  0.120285  0.711253  1
  Ni  Ni22  1  0.000000  0.620080  0.289825  1
  Ni  Ni23  1  0.000000  0.379920  0.289825  1
  P  P24  1  0.500000  0.500000  0.877696  1
  P  P25  1  0.000000  0.000000  0.119748  1
  P  P26  1  0.500000  0.500000  0.345651  1
  P  P27  1  0.000000  0.000000  0.654840  1
  P  P28  1  0.500000  0.313022  0.614393  1
  P  P29  1  0.500000  0.686978  0.614393  1
  P  P30  1  0.000000  0.186638  0.385565  1
  P  P31  1  0.000000  0.813362  0.385565  1
  P  P32  1  0.500000  0.848159  0.893930  1
  P  P33  1  0.500000  0.151841  0.893930  1
  P  P34  1  0.000000  0.652736  0.107120  1
  P  P35  1  0.000000  0.347264  0.107120  1
