# generated using pymatgen
data_Ca3ScFe(SeO3)6
_symmetry_space_group_name_H-M   'P 1'
_cell_length_a   14.43051935
_cell_length_b   14.43051948
_cell_length_c   14.43051910
_cell_angle_alpha   35.08250434
_cell_angle_beta   35.08250309
_cell_angle_gamma   35.08249943
_symmetry_Int_Tables_number   1
_chemical_formula_structural   Ca3ScFe(SeO3)6
_chemical_formula_sum   'Ca6 Sc2 Fe2 Se12 O36'
_cell_volume   886.47535157
_cell_formula_units_Z   2
loop_
 _symmetry_equiv_pos_site_id
 _symmetry_equiv_pos_as_xyz
  1  'x, y, z'
loop_
 _atom_site_type_symbol
 _atom_site_label
 _atom_site_symmetry_multiplicity
 _atom_site_fract_x
 _atom_site_fract_y
 _atom_site_fract_z
 _atom_site_occupancy
  Ca  Ca0  1  0.750000  0.158950  0.341050  1
  Ca  Ca1  1  0.841050  0.658950  0.250000  1
  Ca  Ca2  1  0.158950  0.341050  0.750000  1
  Ca  Ca3  1  0.341050  0.750000  0.158950  1
  Ca  Ca4  1  0.658950  0.250000  0.841050  1
  Ca  Ca5  1  0.250000  0.841050  0.658950  1
  Sc  Sc6  1  0.500000  0.500000  0.500000  1
  Sc  Sc7  1  0.000000  0.000000  0.000000  1
  Fe  Fe8  1  0.250000  0.250000  0.250000  1
  Fe  Fe9  1  0.750000  0.750000  0.750000  1
  Se  Se10  1  0.504033  0.083326  0.817623  1
  Se  Se11  1  0.916674  0.182377  0.495967  1
  Se  Se12  1  0.317623  0.583326  0.004033  1
  Se  Se13  1  0.182377  0.495967  0.916674  1
  Se  Se14  1  0.817623  0.504033  0.083326  1
  Se  Se15  1  0.416674  0.995967  0.682377  1
  Se  Se16  1  0.083326  0.817623  0.504033  1
  Se  Se17  1  0.682377  0.416674  0.995967  1
  Se  Se18  1  0.995967  0.682377  0.416674  1
  Se  Se19  1  0.004033  0.317623  0.583326  1
  Se  Se20  1  0.495967  0.916674  0.182377  1
  Se  Se21  1  0.583326  0.004033  0.317623  1
  O  O22  1  0.341353  0.317824  0.000699  1
  O  O23  1  0.499301  0.182176  0.158647  1
  O  O24  1  0.316005  0.594422  0.685267  1
  O  O25  1  0.336383  0.042959  0.944402  1
  O  O26  1  0.836383  0.444402  0.542959  1
  O  O27  1  0.905578  0.183995  0.814733  1
  O  O28  1  0.944402  0.336383  0.042959  1
  O  O29  1  0.658647  0.682176  0.999301  1
  O  O30  1  0.555598  0.457041  0.163617  1
  O  O31  1  0.317824  0.000699  0.341353  1
  O  O32  1  0.816006  0.185267  0.094422  1
  O  O33  1  0.182176  0.158647  0.499301  1
  O  O34  1  0.163617  0.555598  0.457041  1
  O  O35  1  0.000699  0.341353  0.317824  1
  O  O36  1  0.999301  0.658647  0.682176  1
  O  O37  1  0.685267  0.316005  0.594422  1
  O  O38  1  0.042959  0.944402  0.336383  1
  O  O39  1  0.158647  0.499301  0.182176  1
  O  O40  1  0.663617  0.957041  0.055598  1
  O  O41  1  0.185267  0.094422  0.816006  1
  O  O42  1  0.594422  0.685267  0.316005  1
  O  O43  1  0.814733  0.905578  0.183995  1
  O  O44  1  0.817824  0.841353  0.500699  1
  O  O45  1  0.405578  0.314733  0.683994  1
  O  O46  1  0.683995  0.405578  0.314733  1
  O  O47  1  0.542959  0.836383  0.444402  1
  O  O48  1  0.841353  0.500699  0.817824  1
  O  O49  1  0.055598  0.663617  0.957041  1
  O  O50  1  0.314733  0.683994  0.405578  1
  O  O51  1  0.457041  0.163617  0.555598  1
  O  O52  1  0.500699  0.817824  0.841353  1
  O  O53  1  0.682176  0.999301  0.658647  1
  O  O54  1  0.957041  0.055598  0.663617  1
  O  O55  1  0.444402  0.542959  0.836383  1
  O  O56  1  0.183995  0.814733  0.905578  1
  O  O57  1  0.094422  0.816005  0.185267  1
