# generated using pymatgen
data_Hf6Ti4Ge6C
_symmetry_space_group_name_H-M   'P 1'
_cell_length_a   7.83197300
_cell_length_b   7.83197361
_cell_length_c   5.38902300
_cell_angle_alpha   90.00000000
_cell_angle_beta   90.00000000
_cell_angle_gamma   120.00000163
_symmetry_Int_Tables_number   1
_chemical_formula_structural   Hf6Ti4Ge6C
_chemical_formula_sum   'Hf6 Ti4 Ge6 C1'
_cell_volume   286.27475981
_cell_formula_units_Z   1
loop_
 _symmetry_equiv_pos_site_id
 _symmetry_equiv_pos_as_xyz
  1  'x, y, z'
loop_
 _atom_site_type_symbol
 _atom_site_label
 _atom_site_symmetry_multiplicity
 _atom_site_fract_x
 _atom_site_fract_y
 _atom_site_fract_z
 _atom_site_occupancy
  Hf  Hf0  1  0.000000  0.759175  0.255451  1
  Hf  Hf1  1  0.240825  0.240825  0.255451  1
  Hf  Hf2  1  0.759175  0.000000  0.255451  1
  Hf  Hf3  1  0.000000  0.240825  0.744549  1
  Hf  Hf4  1  0.759175  0.759175  0.744549  1
  Hf  Hf5  1  0.240825  0.000000  0.744549  1
  Ti  Ti6  1  0.333333  0.666667  0.000000  1
  Ti  Ti7  1  0.666667  0.333333  0.000000  1
  Ti  Ti8  1  0.666667  0.333333  0.500000  1
  Ti  Ti9  1  0.333333  0.666667  0.500000  1
  Ge  Ge10  1  0.000000  0.402030  0.247098  1
  Ge  Ge11  1  0.597970  0.597970  0.247098  1
  Ge  Ge12  1  0.402030  0.000000  0.247098  1
  Ge  Ge13  1  0.000000  0.597970  0.752902  1
  Ge  Ge14  1  0.402030  0.402030  0.752902  1
  Ge  Ge15  1  0.597970  0.000000  0.752902  1
  C  C16  1  0.000000  0.000000  0.500000  1
