# generated using pymatgen
data_Tb4Y6InBi5
_symmetry_space_group_name_H-M   'P 1'
_cell_length_a   9.17790468
_cell_length_b   9.17790381
_cell_length_c   6.45750200
_cell_angle_alpha   90.00000000
_cell_angle_beta   90.00000000
_cell_angle_gamma   119.80953691
_symmetry_Int_Tables_number   1
_chemical_formula_structural   Tb4Y6InBi5
_chemical_formula_sum   'Tb4 Y6 In1 Bi5'
_cell_volume   471.96798737
_cell_formula_units_Z   1
loop_
 _symmetry_equiv_pos_site_id
 _symmetry_equiv_pos_as_xyz
  1  'x, y, z'
loop_
 _atom_site_type_symbol
 _atom_site_label
 _atom_site_symmetry_multiplicity
 _atom_site_fract_x
 _atom_site_fract_y
 _atom_site_fract_z
 _atom_site_occupancy
  Tb  Tb0  1  0.662666  0.334459  0.998522  1
  Tb  Tb1  1  0.334459  0.662666  0.998522  1
  Tb  Tb2  1  0.334459  0.662666  0.501478  1
  Tb  Tb3  1  0.662666  0.334459  0.501478  1
  Y  Y4  1  0.754902  0.754902  0.750000  1
  Y  Y5  1  0.242814  0.006952  0.750000  1
  Y  Y6  1  0.006952  0.242814  0.750000  1
  Y  Y7  1  0.241775  0.241775  0.250000  1
  Y  Y8  1  0.757517  0.999308  0.250000  1
  Y  Y9  1  0.999308  0.757517  0.250000  1
  In  In10  1  0.393944  0.393944  0.750000  1
  Bi  Bi11  1  0.611309  0.001880  0.750000  1
  Bi  Bi12  1  0.001880  0.611309  0.750000  1
  Bi  Bi13  1  0.609385  0.609385  0.250000  1
  Bi  Bi14  1  0.389199  0.996763  0.250000  1
  Bi  Bi15  1  0.996763  0.389199  0.250000  1
