# generated using pymatgen
data_Sr3YIr8
_symmetry_space_group_name_H-M   'P 1'
_cell_length_a   5.46160200
_cell_length_b   5.46160193
_cell_length_c   17.79339700
_cell_angle_alpha   90.00000000
_cell_angle_beta   90.00000000
_cell_angle_gamma   120.00000041
_symmetry_Int_Tables_number   1
_chemical_formula_structural   Sr3YIr8
_chemical_formula_sum   'Sr6 Y2 Ir16'
_cell_volume   459.65246243
_cell_formula_units_Z   2
loop_
 _symmetry_equiv_pos_site_id
 _symmetry_equiv_pos_as_xyz
  1  'x, y, z'
loop_
 _atom_site_type_symbol
 _atom_site_label
 _atom_site_symmetry_multiplicity
 _atom_site_fract_x
 _atom_site_fract_y
 _atom_site_fract_z
 _atom_site_occupancy
  Sr  Sr0  1  0.000000  0.000000  0.091984  1
  Sr  Sr1  1  0.666667  0.333333  0.153794  1
  Sr  Sr2  1  0.666667  0.333333  0.344151  1
  Sr  Sr3  1  0.000000  0.000000  0.409290  1
  Sr  Sr4  1  0.000000  0.000000  0.593069  1
  Sr  Sr5  1  0.333333  0.666666  0.655350  1
  Y  Y6  1  0.333333  0.666666  0.841118  1
  Y  Y7  1  0.000000  0.000000  0.910112  1
  Ir  Ir8  1  0.494758  0.989515  0.992453  1
  Ir  Ir9  1  0.010485  0.505243  0.992453  1
  Ir  Ir10  1  0.494758  0.505243  0.992453  1
  Ir  Ir11  1  0.333333  0.666666  0.123619  1
  Ir  Ir12  1  0.164428  0.328855  0.249403  1
  Ir  Ir13  1  0.164428  0.835572  0.249403  1
  Ir  Ir14  1  0.671145  0.835572  0.249403  1
  Ir  Ir15  1  0.333333  0.666666  0.375043  1
  Ir  Ir16  1  0.499971  0.999940  0.501304  1
  Ir  Ir17  1  0.000060  0.500030  0.501304  1
  Ir  Ir18  1  0.499971  0.500030  0.501304  1
  Ir  Ir19  1  0.666667  0.333333  0.629271  1
  Ir  Ir20  1  0.323302  0.161650  0.755845  1
  Ir  Ir21  1  0.838349  0.161650  0.755845  1
  Ir  Ir22  1  0.838350  0.676698  0.755845  1
  Ir  Ir23  1  0.666667  0.333333  0.876180  1
