# generated using pymatgen
data_HoEr5IrPd
_symmetry_space_group_name_H-M   'P 1'
_cell_length_a   6.41679976
_cell_length_b   7.09374800
_cell_length_c   9.34811400
_cell_angle_alpha   90.00000000
_cell_angle_beta   90.00000000
_cell_angle_gamma   90.08543493
_symmetry_Int_Tables_number   1
_chemical_formula_structural   HoEr5IrPd
_chemical_formula_sum   'Ho2 Er10 Ir2 Pd2'
_cell_volume   425.51782800
_cell_formula_units_Z   2
loop_
 _symmetry_equiv_pos_site_id
 _symmetry_equiv_pos_as_xyz
  1  'x, y, z'
loop_
 _atom_site_type_symbol
 _atom_site_label
 _atom_site_symmetry_multiplicity
 _atom_site_fract_x
 _atom_site_fract_y
 _atom_site_fract_z
 _atom_site_occupancy
  Ho  Ho0  1  0.867218  0.520803  0.250000  1
  Ho  Ho1  1  0.624196  0.036272  0.250000  1
  Er  Er2  1  0.329485  0.678368  0.059310  1
  Er  Er3  1  0.178261  0.184760  0.439204  1
  Er  Er4  1  0.670490  0.321468  0.559660  1
  Er  Er5  1  0.821808  0.815511  0.938199  1
  Er  Er6  1  0.670490  0.321468  0.940340  1
  Er  Er7  1  0.821808  0.815511  0.561801  1
  Er  Er8  1  0.329485  0.678368  0.440690  1
  Er  Er9  1  0.178261  0.184760  0.060796  1
  Er  Er10  1  0.132918  0.479171  0.750000  1
  Er  Er11  1  0.374709  0.962821  0.750000  1
  Ir  Ir12  1  0.449005  0.388198  0.250000  1
  Ir  Ir13  1  0.549469  0.611944  0.750000  1
  Pd  Pd14  1  0.050713  0.888671  0.250000  1
  Pd  Pd15  1  0.951684  0.111902  0.750000  1
