# generated using pymatgen
data_Tb8TaTi(Si8Mo5)2
_symmetry_space_group_name_H-M   'P 1'
_cell_length_a   6.92721270
_cell_length_b   6.92721237
_cell_length_c   12.85970606
_cell_angle_alpha   89.96764729
_cell_angle_beta   90.03235154
_cell_angle_gamma   90.58612517
_symmetry_Int_Tables_number   1
_chemical_formula_structural   Tb8TaTi(Si8Mo5)2
_chemical_formula_sum   'Tb8 Ta1 Ti1 Si16 Mo10'
_cell_volume   617.05688853
_cell_formula_units_Z   1
loop_
 _symmetry_equiv_pos_site_id
 _symmetry_equiv_pos_as_xyz
  1  'x, y, z'
loop_
 _atom_site_type_symbol
 _atom_site_label
 _atom_site_symmetry_multiplicity
 _atom_site_fract_x
 _atom_site_fract_y
 _atom_site_fract_z
 _atom_site_occupancy
  Tb  Tb0  1  0.337889  0.001310  0.468602  1
  Tb  Tb1  1  0.499167  0.840060  0.718056  1
  Tb  Tb2  1  0.500147  0.159347  0.218774  1
  Tb  Tb3  1  0.840060  0.499167  0.281944  1
  Tb  Tb4  1  0.159347  0.500147  0.781226  1
  Tb  Tb5  1  0.662261  0.998580  0.968363  1
  Tb  Tb6  1  0.001310  0.337889  0.531398  1
  Tb  Tb7  1  0.998580  0.662261  0.031637  1
  Ta  Ta8  1  0.329759  0.329759  0.000000  1
  Ti  Ti9  1  0.670810  0.670810  0.500000  1
  Si  Si10  1  0.195550  0.125543  0.685375  1
  Si  Si11  1  0.371593  0.703973  0.934351  1
  Si  Si12  1  0.628588  0.297640  0.435474  1
  Si  Si13  1  0.703973  0.371593  0.065649  1
  Si  Si14  1  0.297640  0.628588  0.564526  1
  Si  Si15  1  0.803889  0.874250  0.186157  1
  Si  Si16  1  0.125543  0.195550  0.314625  1
  Si  Si17  1  0.874250  0.803889  0.813843  1
  Si  Si18  1  0.287860  0.957300  0.066511  1
  Si  Si19  1  0.536912  0.787128  0.312235  1
  Si  Si20  1  0.464136  0.211919  0.810251  1
  Si  Si21  1  0.787128  0.536912  0.687765  1
  Si  Si22  1  0.211919  0.464136  0.189749  1
  Si  Si23  1  0.712033  0.041576  0.565878  1
  Si  Si24  1  0.957300  0.287860  0.933489  1
  Si  Si25  1  0.041576  0.712033  0.434122  1
  Mo  Mo26  1  0.168175  0.832420  0.249510  1
  Mo  Mo27  1  0.832420  0.168175  0.750490  1
  Mo  Mo28  1  0.167775  0.002161  0.875748  1
  Mo  Mo29  1  0.497477  0.654876  0.123325  1
  Mo  Mo30  1  0.501770  0.345490  0.622936  1
  Mo  Mo31  1  0.654876  0.497477  0.876675  1
  Mo  Mo32  1  0.345490  0.501770  0.377064  1
  Mo  Mo33  1  0.833361  0.997274  0.376211  1
  Mo  Mo34  1  0.002161  0.167775  0.124252  1
  Mo  Mo35  1  0.997274  0.833361  0.623789  1
