# generated using pymatgen
data_Ho20Sn11Bi5
_symmetry_space_group_name_H-M   'P 1'
_cell_length_a   8.21223805
_cell_length_b   8.20959574
_cell_length_c   15.57192000
_cell_angle_alpha   90.12602213
_cell_angle_beta   90.35659749
_cell_angle_gamma   89.89772717
_symmetry_Int_Tables_number   1
_chemical_formula_structural   Ho20Sn11Bi5
_chemical_formula_sum   'Ho20 Sn11 Bi5'
_cell_volume   1049.82116098
_cell_formula_units_Z   1
loop_
 _symmetry_equiv_pos_site_id
 _symmetry_equiv_pos_as_xyz
  1  'x, y, z'
loop_
 _atom_site_type_symbol
 _atom_site_label
 _atom_site_symmetry_multiplicity
 _atom_site_fract_x
 _atom_site_fract_y
 _atom_site_fract_z
 _atom_site_occupancy
  Ho  Ho0  1  0.391255  0.838632  0.877062  1
  Ho  Ho1  1  0.891653  0.660730  0.622133  1
  Ho  Ho2  1  0.608514  0.159381  0.377202  1
  Ho  Ho3  1  0.105515  0.338270  0.122333  1
  Ho  Ho4  1  0.611165  0.164875  0.122861  1
  Ho  Ho5  1  0.115293  0.336359  0.379805  1
  Ho  Ho6  1  0.383087  0.837975  0.620952  1
  Ho  Ho7  1  0.887716  0.658002  0.878582  1
  Ho  Ho8  1  0.563283  0.336289  0.889100  1
  Ho  Ho9  1  0.061537  0.172311  0.608691  1
  Ho  Ho10  1  0.439318  0.672256  0.391733  1
  Ho  Ho11  1  0.939814  0.824735  0.112343  1
  Ho  Ho12  1  0.448985  0.663601  0.111194  1
  Ho  Ho13  1  0.957877  0.829705  0.392727  1
  Ho  Ho14  1  0.541369  0.330697  0.606502  1
  Ho  Ho15  1  0.054165  0.173240  0.888748  1
  Ho  Ho16  1  0.221594  0.501462  0.745816  1
  Ho  Ho17  1  0.721818  0.000851  0.748745  1
  Ho  Ho18  1  0.778322  0.498549  0.248036  1
  Ho  Ho19  1  0.278467  0.999293  0.253869  1
  Sn  Sn20  1  0.225085  0.525562  0.544050  1
  Sn  Sn21  1  0.274823  0.024608  0.456040  1
  Sn  Sn22  1  0.770318  0.479294  0.044898  1
  Sn  Sn23  1  0.586333  0.629391  0.748695  1
  Sn  Sn24  1  0.085051  0.872847  0.751922  1
  Sn  Sn25  1  0.412419  0.371469  0.249864  1
  Sn  Sn26  1  0.913938  0.126707  0.250971  1
  Sn  Sn27  1  0.360892  0.144878  0.751162  1
  Sn  Sn28  1  0.858688  0.356240  0.748006  1
  Sn  Sn29  1  0.641159  0.855171  0.251124  1
  Sn  Sn30  1  0.141224  0.641798  0.250286  1
  Bi  Bi31  1  0.266474  0.015023  0.045440  1
  Bi  Bi32  1  0.768820  0.479320  0.455231  1
  Bi  Bi33  1  0.730523  0.980190  0.544084  1
  Bi  Bi34  1  0.232108  0.518145  0.954738  1
  Bi  Bi35  1  0.731400  0.982146  0.955054  1
