# generated using pymatgen
data_Ho8Cd2OsPd
_symmetry_space_group_name_H-M   'P 1'
_cell_length_a   9.61883160
_cell_length_b   9.61883148
_cell_length_c   9.70683900
_cell_angle_alpha   59.69687600
_cell_angle_beta   59.69687640
_cell_angle_gamma   59.42310415
_symmetry_Int_Tables_number   1
_chemical_formula_structural   Ho8Cd2OsPd
_chemical_formula_sum   'Ho16 Cd4 Os2 Pd2'
_cell_volume   629.34738365
_cell_formula_units_Z   2
loop_
 _symmetry_equiv_pos_site_id
 _symmetry_equiv_pos_as_xyz
  1  'x, y, z'
loop_
 _atom_site_type_symbol
 _atom_site_label
 _atom_site_symmetry_multiplicity
 _atom_site_fract_x
 _atom_site_fract_y
 _atom_site_fract_z
 _atom_site_occupancy
  Ho  Ho0  1  0.350455  0.350455  0.353859  1
  Ho  Ho1  1  0.350455  0.350455  0.945231  1
  Ho  Ho2  1  0.345600  0.953355  0.350523  1
  Ho  Ho3  1  0.953355  0.345600  0.350523  1
  Ho  Ho4  1  0.816024  0.187065  0.190422  1
  Ho  Ho5  1  0.187065  0.816024  0.806490  1
  Ho  Ho6  1  0.187065  0.816024  0.190422  1
  Ho  Ho7  1  0.816024  0.187065  0.806490  1
  Ho  Ho8  1  0.187922  0.187922  0.812078  1
  Ho  Ho9  1  0.808864  0.808864  0.191136  1
  Ho  Ho10  1  0.937498  0.556908  0.567825  1
  Ho  Ho11  1  0.556908  0.937498  0.937769  1
  Ho  Ho12  1  0.556908  0.937498  0.567825  1
  Ho  Ho13  1  0.937498  0.556908  0.937769  1
  Ho  Ho14  1  0.565272  0.565272  0.934728  1
  Ho  Ho15  1  0.939421  0.939421  0.560579  1
  Cd  Cd16  1  0.579845  0.579845  0.582049  1
  Cd  Cd17  1  0.579845  0.579845  0.258259  1
  Cd  Cd18  1  0.580960  0.254944  0.582048  1
  Cd  Cd19  1  0.254944  0.580960  0.582048  1
  Os  Os20  1  0.145145  0.145145  0.137397  1
  Os  Os21  1  0.145145  0.145145  0.572312  1
  Pd  Pd22  1  0.145836  0.571948  0.141108  1
  Pd  Pd23  1  0.571948  0.145836  0.141108  1
