# generated using pymatgen
data_La12YTmRh6
_symmetry_space_group_name_H-M   'P 1'
_cell_length_a   10.24971100
_cell_length_b   10.24971202
_cell_length_c   6.43852400
_cell_angle_alpha   90.00000000
_cell_angle_beta   90.00000000
_cell_angle_gamma   119.99999993
_symmetry_Int_Tables_number   1
_chemical_formula_structural   La12YTmRh6
_chemical_formula_sum   'La12 Y1 Tm1 Rh6'
_cell_volume   585.78768155
_cell_formula_units_Z   1
loop_
 _symmetry_equiv_pos_site_id
 _symmetry_equiv_pos_as_xyz
  1  'x, y, z'
loop_
 _atom_site_type_symbol
 _atom_site_label
 _atom_site_symmetry_multiplicity
 _atom_site_fract_x
 _atom_site_fract_y
 _atom_site_fract_z
 _atom_site_occupancy
  La  La0  1  0.872840  0.745680  0.765374  1
  La  La1  1  0.254320  0.127160  0.765374  1
  La  La2  1  0.872840  0.127160  0.765374  1
  La  La3  1  0.127535  0.255069  0.265130  1
  La  La4  1  0.744931  0.872465  0.265130  1
  La  La5  1  0.127535  0.872465  0.265130  1
  La  La6  1  0.456708  0.913420  0.596098  1
  La  La7  1  0.086580  0.543292  0.596098  1
  La  La8  1  0.456708  0.543292  0.596098  1
  La  La9  1  0.542172  0.084341  0.096510  1
  La  La10  1  0.915659  0.457828  0.096510  1
  La  La11  1  0.542172  0.457828  0.096510  1
  Y  Y12  1  0.666667  0.333333  0.568888  1
  Tm  Tm13  1  0.333333  0.666667  0.066022  1
  Rh  Rh14  1  0.191095  0.382190  0.852652  1
  Rh  Rh15  1  0.617810  0.808905  0.852652  1
  Rh  Rh16  1  0.191095  0.808905  0.852652  1
  Rh  Rh17  1  0.810305  0.620612  0.350948  1
  Rh  Rh18  1  0.379388  0.189695  0.350948  1
  Rh  Rh19  1  0.810305  0.189695  0.350948  1
