# generated using pymatgen
data_Ca4GaSiIr4
_symmetry_space_group_name_H-M   'P 1'
_cell_length_a   5.73053154
_cell_length_b   5.73053137
_cell_length_c   7.46814837
_cell_angle_alpha   80.29116144
_cell_angle_beta   80.29116255
_cell_angle_gamma   60.70082662
_symmetry_Int_Tables_number   1
_chemical_formula_structural   Ca4GaSiIr4
_chemical_formula_sum   'Ca4 Ga1 Si1 Ir4'
_cell_volume   209.74989785
_cell_formula_units_Z   1
loop_
 _symmetry_equiv_pos_site_id
 _symmetry_equiv_pos_as_xyz
  1  'x, y, z'
loop_
 _atom_site_type_symbol
 _atom_site_label
 _atom_site_symmetry_multiplicity
 _atom_site_fract_x
 _atom_site_fract_y
 _atom_site_fract_z
 _atom_site_occupancy
  Ca  Ca0  1  0.990216  0.720451  0.140272  1
  Ca  Ca1  1  0.279549  0.009784  0.359728  1
  Ca  Ca2  1  0.011958  0.280911  0.858863  1
  Ca  Ca3  1  0.719089  0.988042  0.641137  1
  Ga  Ga4  1  0.416666  0.583334  0.750000  1
  Si  Si5  1  0.568700  0.431300  0.250000  1
  Ir  Ir6  1  0.497427  0.779875  0.000368  1
  Ir  Ir7  1  0.220125  0.502573  0.499632  1
  Ir  Ir8  1  0.515061  0.218792  0.020969  1
  Ir  Ir9  1  0.781208  0.484939  0.479031  1
