# generated using pymatgen
data_YbHo3(Pd2Pb)2
_symmetry_space_group_name_H-M   'P 1'
_cell_length_a   7.88193970
_cell_length_b   7.88193970
_cell_length_c   3.62685800
_cell_angle_alpha   90.00000000
_cell_angle_beta   90.00000000
_cell_angle_gamma   89.51464536
_symmetry_Int_Tables_number   1
_chemical_formula_structural   YbHo3(Pd2Pb)2
_chemical_formula_sum   'Yb1 Ho3 Pd4 Pb2'
_cell_volume   225.31037266
_cell_formula_units_Z   1
loop_
 _symmetry_equiv_pos_site_id
 _symmetry_equiv_pos_as_xyz
  1  'x, y, z'
loop_
 _atom_site_type_symbol
 _atom_site_label
 _atom_site_symmetry_multiplicity
 _atom_site_fract_x
 _atom_site_fract_y
 _atom_site_fract_z
 _atom_site_occupancy
  Yb  Yb0  1  0.670984  0.170984  0.500000  1
  Ho  Ho1  1  0.170722  0.327898  0.500000  1
  Ho  Ho2  1  0.827898  0.670722  0.500000  1
  Ho  Ho3  1  0.330036  0.830036  0.500000  1
  Pd  Pd4  1  0.373254  0.126484  0.000000  1
  Pd  Pd5  1  0.126116  0.626116  0.000000  1
  Pd  Pd6  1  0.626484  0.873254  0.000000  1
  Pd  Pd7  1  0.875721  0.375721  0.000000  1
  Pb  Pb8  1  0.998380  0.000405  0.000000  1
  Pb  Pb9  1  0.500405  0.498380  0.000000  1
