# generated using pymatgen
data_Li2U(SeO5)2
_symmetry_space_group_name_H-M   'P 1'
_cell_length_a   5.24883875
_cell_length_b   5.76422087
_cell_length_c   8.16104669
_cell_angle_alpha   107.78351991
_cell_angle_beta   97.39836465
_cell_angle_gamma   106.18455214
_symmetry_Int_Tables_number   1
_chemical_formula_structural   Li2U(SeO5)2
_chemical_formula_sum   'Li2 U1 Se2 O10'
_cell_volume   219.53633409
_cell_formula_units_Z   1
loop_
 _symmetry_equiv_pos_site_id
 _symmetry_equiv_pos_as_xyz
  1  'x, y, z'
loop_
 _atom_site_type_symbol
 _atom_site_label
 _atom_site_symmetry_multiplicity
 _atom_site_fract_x
 _atom_site_fract_y
 _atom_site_fract_z
 _atom_site_occupancy
  Li  Li0  1  0.475399  0.207858  0.420473  1
  Li  Li1  1  0.524599  0.792142  0.579527  1
  U  U2  1  0.000000  0.000000  0.000000  1
  Se  Se3  1  0.929290  0.646968  0.306497  1
  Se  Se4  1  0.070710  0.353032  0.693503  1
  O  O5  1  0.799526  0.766007  0.161559  1
  O  O6  1  0.326069  0.068152  0.145034  1
  O  O7  1  0.976140  0.374767  0.184686  1
  O  O8  1  0.704424  0.568950  0.421795  1
  O  O9  1  0.226191  0.858699  0.433876  1
  O  O10  1  0.773808  0.141300  0.566123  1
  O  O11  1  0.295577  0.431050  0.578206  1
  O  O12  1  0.023861  0.625234  0.815315  1
  O  O13  1  0.673932  0.931848  0.854966  1
  O  O14  1  0.200474  0.233993  0.838441  1
