# generated using pymatgen
data_Yb2Np(CrN3)2
_symmetry_space_group_name_H-M   'P 1'
_cell_length_a   3.72535917
_cell_length_b   3.72535881
_cell_length_c   9.75923475
_cell_angle_alpha   101.05642091
_cell_angle_beta   101.05641933
_cell_angle_gamma   89.98982874
_symmetry_Int_Tables_number   1
_chemical_formula_structural   Yb2Np(CrN3)2
_chemical_formula_sum   'Yb2 Np1 Cr2 N6'
_cell_volume   130.36611763
_cell_formula_units_Z   1
loop_
 _symmetry_equiv_pos_site_id
 _symmetry_equiv_pos_as_xyz
  1  'x, y, z'
loop_
 _atom_site_type_symbol
 _atom_site_label
 _atom_site_symmetry_multiplicity
 _atom_site_fract_x
 _atom_site_fract_y
 _atom_site_fract_z
 _atom_site_occupancy
  Yb  Yb0  1  0.180603  0.180603  0.360976  1
  Yb  Yb1  1  0.819399  0.819399  0.639025  1
  Np  Np2  1  0.000000  0.000000  0.000000  1
  Cr  Cr3  1  0.602875  0.602875  0.204237  1
  Cr  Cr4  1  0.397127  0.397127  0.795763  1
  N  N5  1  0.574042  0.073426  0.148802  1
  N  N6  1  0.073426  0.574042  0.148802  1
  N  N7  1  0.692296  0.692296  0.386480  1
  N  N8  1  0.307703  0.307703  0.613521  1
  N  N9  1  0.926574  0.425958  0.851199  1
  N  N10  1  0.425958  0.926574  0.851199  1
