# generated using pymatgen
data_Er20SnBi7Rh4
_symmetry_space_group_name_H-M   'P 1'
_cell_length_a   7.93715425
_cell_length_b   8.97469531
_cell_length_c   12.32737923
_cell_angle_alpha   90.04709098
_cell_angle_beta   90.05015505
_cell_angle_gamma   89.95948445
_symmetry_Int_Tables_number   1
_chemical_formula_structural   Er20SnBi7Rh4
_chemical_formula_sum   'Er20 Sn1 Bi7 Rh4'
_cell_volume   878.12202275
_cell_formula_units_Z   1
loop_
 _symmetry_equiv_pos_site_id
 _symmetry_equiv_pos_as_xyz
  1  'x, y, z'
loop_
 _atom_site_type_symbol
 _atom_site_label
 _atom_site_symmetry_multiplicity
 _atom_site_fract_x
 _atom_site_fract_y
 _atom_site_fract_z
 _atom_site_occupancy
  Er  Er0  1  0.664738  0.754641  0.708993  1
  Er  Er1  1  0.339708  0.249338  0.294288  1
  Er  Er2  1  0.158074  0.246215  0.789496  1
  Er  Er3  1  0.838987  0.748975  0.208131  1
  Er  Er4  1  0.119672  0.754368  0.805241  1
  Er  Er5  1  0.877592  0.249844  0.192054  1
  Er  Er6  1  0.630030  0.246020  0.692915  1
  Er  Er7  1  0.377093  0.750375  0.307150  1
  Er  Er8  1  0.549345  0.749301  0.998677  1
  Er  Er9  1  0.447368  0.250763  0.001201  1
  Er  Er10  1  0.047584  0.246315  0.504081  1
  Er  Er11  1  0.949531  0.753671  0.500127  1
  Er  Er12  1  0.822979  0.456873  0.934070  1
  Er  Er13  1  0.176530  0.545465  0.065963  1
  Er  Er14  1  0.323779  0.544142  0.566247  1
  Er  Er15  1  0.176558  0.955766  0.066327  1
  Er  Er16  1  0.677117  0.456851  0.434781  1
  Er  Er17  1  0.826176  0.042382  0.929464  1
  Er  Er18  1  0.677726  0.043499  0.437111  1
  Er  Er19  1  0.319047  0.956736  0.566830  1
  Sn  Sn20  1  0.931771  0.007268  0.670606  1
  Bi  Bi21  1  0.069214  0.990549  0.326394  1
  Bi  Bi22  1  0.430093  0.991131  0.828185  1
  Bi  Bi23  1  0.069732  0.508718  0.328685  1
  Bi  Bi24  1  0.569449  0.009675  0.172102  1
  Bi  Bi25  1  0.930997  0.491927  0.672221  1
  Bi  Bi26  1  0.568197  0.489852  0.173055  1
  Bi  Bi27  1  0.431197  0.508580  0.825791  1
  Rh  Rh28  1  0.924356  0.750094  0.989719  1
  Rh  Rh29  1  0.073578  0.250779  0.008680  1
  Rh  Rh30  1  0.427402  0.249785  0.511285  1
  Rh  Rh31  1  0.574379  0.750103  0.490130  1
