# generated using pymatgen
data_Ca2TmUO6
_symmetry_space_group_name_H-M   'P 1'
_cell_length_a   6.77002867
_cell_length_b   6.76703703
_cell_length_c   6.73953250
_cell_angle_alpha   91.35089537
_cell_angle_beta   91.22950494
_cell_angle_gamma   91.28028666
_symmetry_Int_Tables_number   1
_chemical_formula_structural   Ca2TmUO6
_chemical_formula_sum   'Ca4 Tm2 U2 O12'
_cell_volume   308.52090274
_cell_formula_units_Z   2
loop_
 _symmetry_equiv_pos_site_id
 _symmetry_equiv_pos_as_xyz
  1  'x, y, z'
loop_
 _atom_site_type_symbol
 _atom_site_label
 _atom_site_symmetry_multiplicity
 _atom_site_fract_x
 _atom_site_fract_y
 _atom_site_fract_z
 _atom_site_occupancy
  Ca  Ca0  1  0.550702  0.248989  0.059087  1
  Ca  Ca1  1  0.252381  0.059373  0.555459  1
  Ca  Ca2  1  0.061893  0.553953  0.250069  1
  Ca  Ca3  1  0.445518  0.749295  0.941049  1
  Tm  Tm4  1  0.937318  0.441369  0.748446  1
  Tm  Tm5  1  0.750133  0.938626  0.441003  1
  U  U6  1  0.995397  0.996354  0.996391  1
  U  U7  1  0.500671  0.499401  0.500908  1
  O  O8  1  0.290426  0.060163  0.919890  1
  O  O9  1  0.055282  0.922915  0.302037  1
  O  O10  1  0.924955  0.301733  0.051265  1
  O  O11  1  0.699016  0.933671  0.098223  1
  O  O12  1  0.918835  0.088968  0.688014  1
  O  O13  1  0.066573  0.690930  0.922108  1
  O  O14  1  0.195475  0.410416  0.552796  1
  O  O15  1  0.409884  0.537881  0.203325  1
  O  O16  1  0.477533  0.807930  0.584933  1
  O  O17  1  0.605894  0.460649  0.798797  1
  O  O18  1  0.810294  0.601174  0.473366  1
  O  O19  1  0.551819  0.196211  0.412831  1
