# generated using pymatgen
data_Ce5Sm3(Nb3Si4)4
_symmetry_space_group_name_H-M   'P 1'
_cell_length_a   6.96472129
_cell_length_b   7.16522628
_cell_length_c   13.54668358
_cell_angle_alpha   89.94625419
_cell_angle_beta   90.05938123
_cell_angle_gamma   90.01422144
_symmetry_Int_Tables_number   1
_chemical_formula_structural   Ce5Sm3(Nb3Si4)4
_chemical_formula_sum   'Ce5 Sm3 Nb12 Si16'
_cell_volume   676.03036139
_cell_formula_units_Z   1
loop_
 _symmetry_equiv_pos_site_id
 _symmetry_equiv_pos_as_xyz
  1  'x, y, z'
loop_
 _atom_site_type_symbol
 _atom_site_label
 _atom_site_symmetry_multiplicity
 _atom_site_fract_x
 _atom_site_fract_y
 _atom_site_fract_z
 _atom_site_occupancy
  Ce  Ce0  1  0.503366  0.331702  0.094694  1
  Ce  Ce1  1  0.003382  0.170259  0.404163  1
  Ce  Ce2  1  0.496302  0.670134  0.595240  1
  Ce  Ce3  1  0.996806  0.829149  0.904446  1
  Ce  Ce4  1  0.497243  0.669136  0.905513  1
  Sm  Sm5  1  0.998591  0.830488  0.594539  1
  Sm  Sm6  1  0.502240  0.330291  0.404628  1
  Sm  Sm7  1  0.001981  0.169754  0.095703  1
  Nb  Nb8  1  0.664923  0.005987  0.750449  1
  Nb  Nb9  1  0.166180  0.493294  0.750493  1
  Nb  Nb10  1  0.334524  0.992718  0.249570  1
  Nb  Nb11  1  0.835177  0.507778  0.250644  1
  Nb  Nb12  1  0.837604  0.326174  0.625726  1
  Nb  Nb13  1  0.337270  0.172623  0.874379  1
  Nb  Nb14  1  0.163409  0.672711  0.125302  1
  Nb  Nb15  1  0.663027  0.827068  0.374672  1
  Nb  Nb16  1  0.160933  0.673642  0.373831  1
  Nb  Nb17  1  0.659432  0.825940  0.125868  1
  Nb  Nb18  1  0.837923  0.327392  0.873979  1
  Nb  Nb19  1  0.339241  0.172991  0.626463  1
  Si  Si20  1  0.798856  0.621206  0.749526  1
  Si  Si21  1  0.299631  0.878183  0.750071  1
  Si  Si22  1  0.201355  0.378691  0.249996  1
  Si  Si23  1  0.700696  0.121752  0.249993  1
  Si  Si24  1  0.542608  0.373153  0.750113  1
  Si  Si25  1  0.042704  0.127704  0.749979  1
  Si  Si26  1  0.457389  0.627538  0.250344  1
  Si  Si27  1  0.957021  0.872313  0.249730  1
  Si  Si28  1  0.661153  0.040585  0.542426  1
  Si  Si29  1  0.161008  0.458854  0.957442  1
  Si  Si30  1  0.338675  0.959338  0.042559  1
  Si  Si31  1  0.838574  0.540449  0.457564  1
  Si  Si32  1  0.339910  0.959595  0.457065  1
  Si  Si33  1  0.840354  0.541299  0.043116  1
  Si  Si34  1  0.660484  0.040826  0.957302  1
  Si  Si35  1  0.160023  0.459277  0.542472  1
