# generated using pymatgen
data_Na7Tl3Se8
_symmetry_space_group_name_H-M   'P 1'
_cell_length_a   13.89367947
_cell_length_b   6.81210925
_cell_length_c   10.69455084
_cell_angle_alpha   90.18673625
_cell_angle_beta   92.13726726
_cell_angle_gamma   90.02578418
_symmetry_Int_Tables_number   1
_chemical_formula_structural   Na7Tl3Se8
_chemical_formula_sum   'Na14 Tl6 Se16'
_cell_volume   1011.47890307
_cell_formula_units_Z   2
loop_
 _symmetry_equiv_pos_site_id
 _symmetry_equiv_pos_as_xyz
  1  'x, y, z'
loop_
 _atom_site_type_symbol
 _atom_site_label
 _atom_site_symmetry_multiplicity
 _atom_site_fract_x
 _atom_site_fract_y
 _atom_site_fract_z
 _atom_site_occupancy
  Na  Na0  1  0.274173  0.279773  0.109973  1
  Na  Na1  1  0.484556  0.744654  0.129376  1
  Na  Na2  1  0.875681  0.521564  0.140102  1
  Na  Na3  1  0.019452  0.254248  0.359537  1
  Na  Na4  1  0.821665  0.854087  0.373868  1
  Na  Na5  1  0.634333  0.516537  0.376996  1
  Na  Na6  1  0.233760  0.731575  0.385702  1
  Na  Na7  1  0.766240  0.268426  0.614297  1
  Na  Na8  1  0.365667  0.483463  0.623004  1
  Na  Na9  1  0.178335  0.145914  0.626132  1
  Na  Na10  1  0.980548  0.745751  0.640463  1
  Na  Na11  1  0.124319  0.478435  0.859898  1
  Na  Na12  1  0.515445  0.255345  0.870624  1
  Na  Na13  1  0.725827  0.720228  0.890028  1
  Tl  Tl14  1  0.074701  0.863278  0.114965  1
  Tl  Tl15  1  0.695631  0.126995  0.156371  1
  Tl  Tl16  1  0.432322  0.138349  0.380701  1
  Tl  Tl17  1  0.567678  0.861650  0.619299  1
  Tl  Tl18  1  0.304369  0.873005  0.843630  1
  Tl  Tl19  1  0.925300  0.136722  0.885035  1
  Se  Se20  1  0.258467  0.741380  0.079547  1
  Se  Se21  1  0.048544  0.258568  0.078937  1
  Se  Se22  1  0.693170  0.740331  0.157059  1
  Se  Se23  1  0.507096  0.264018  0.163456  1
  Se  Se24  1  0.022096  0.741050  0.338068  1
  Se  Se25  1  0.806181  0.278521  0.341923  1
  Se  Se26  1  0.252534  0.265640  0.385642  1
  Se  Se27  1  0.452014  0.742366  0.416711  1
  Se  Se28  1  0.547986  0.257633  0.583289  1
  Se  Se29  1  0.747466  0.734360  0.614358  1
  Se  Se30  1  0.193819  0.721478  0.658077  1
  Se  Se31  1  0.977903  0.258950  0.661932  1
  Se  Se32  1  0.492904  0.735982  0.836545  1
  Se  Se33  1  0.306830  0.259669  0.842941  1
  Se  Se34  1  0.951456  0.741431  0.921064  1
  Se  Se35  1  0.741533  0.258620  0.920454  1
