# generated using pymatgen
data_Cs12K5Tl(GaBi4)2
_symmetry_space_group_name_H-M   'P 1'
_cell_length_a   11.36449900
_cell_length_b   11.35387355
_cell_length_c   11.86768400
_cell_angle_alpha   90.00000000
_cell_angle_beta   90.00000000
_cell_angle_gamma   120.03095937
_symmetry_Int_Tables_number   1
_chemical_formula_structural   Cs12K5Tl(GaBi4)2
_chemical_formula_sum   'Cs12 K5 Tl1 Ga2 Bi8'
_cell_volume   1325.73091369
_cell_formula_units_Z   1
loop_
 _symmetry_equiv_pos_site_id
 _symmetry_equiv_pos_as_xyz
  1  'x, y, z'
loop_
 _atom_site_type_symbol
 _atom_site_label
 _atom_site_symmetry_multiplicity
 _atom_site_fract_x
 _atom_site_fract_y
 _atom_site_fract_z
 _atom_site_occupancy
  Cs  Cs0  1  0.208104  0.416207  0.537197  1
  Cs  Cs1  1  0.793919  0.209881  0.043854  1
  Cs  Cs2  1  0.415960  0.209881  0.043854  1
  Cs  Cs3  1  0.580939  0.790537  0.541604  1
  Cs  Cs4  1  0.209601  0.790537  0.541604  1
  Cs  Cs5  1  0.790412  0.580827  0.459095  1
  Cs  Cs6  1  0.793919  0.209881  0.456146  1
  Cs  Cs7  1  0.790412  0.580827  0.040905  1
  Cs  Cs8  1  0.415960  0.209881  0.456146  1
  Cs  Cs9  1  0.580939  0.790537  0.958396  1
  Cs  Cs10  1  0.208104  0.416207  0.962803  1
  Cs  Cs11  1  0.209601  0.790537  0.958396  1
  K  K12  1  0.880666  0.119984  0.750000  1
  K  K13  1  0.239316  0.119984  0.750000  1
  K  K14  1  0.766685  0.886995  0.250000  1
  K  K15  1  0.120311  0.886995  0.250000  1
  K  K16  1  0.880239  0.760479  0.750000  1
  Tl  Tl17  1  0.118441  0.236881  0.250000  1
  Ga  Ga18  1  0.333908  0.667816  0.250000  1
  Ga  Ga19  1  0.666569  0.333137  0.750000  1
  Bi  Bi20  1  0.469154  0.521122  0.250000  1
  Bi  Bi21  1  0.949252  0.474779  0.750000  1
  Bi  Bi22  1  0.525181  0.050363  0.750000  1
  Bi  Bi23  1  0.474166  0.948330  0.250000  1
  Bi  Bi24  1  0.051970  0.521122  0.250000  1
  Bi  Bi25  1  0.525525  0.474779  0.750000  1
  Bi  Bi26  1  0.000373  0.000746  0.002073  1
  Bi  Bi27  1  0.000373  0.000746  0.497927  1
