# generated using pymatgen
data_Dy7Er3Ga3CoBi2
_symmetry_space_group_name_H-M   'P 1'
_cell_length_a   8.59081695
_cell_length_b   8.75903520
_cell_length_c   8.03345079
_cell_angle_alpha   61.36509143
_cell_angle_beta   63.49679107
_cell_angle_gamma   55.16801686
_symmetry_Int_Tables_number   1
_chemical_formula_structural   Dy7Er3Ga3CoBi2
_chemical_formula_sum   'Dy7 Er3 Ga3 Co1 Bi2'
_cell_volume   422.82786169
_cell_formula_units_Z   1
loop_
 _symmetry_equiv_pos_site_id
 _symmetry_equiv_pos_as_xyz
  1  'x, y, z'
loop_
 _atom_site_type_symbol
 _atom_site_label
 _atom_site_symmetry_multiplicity
 _atom_site_fract_x
 _atom_site_fract_y
 _atom_site_fract_z
 _atom_site_occupancy
  Dy  Dy0  1  0.795750  0.482738  0.516852  1
  Dy  Dy1  1  0.453012  0.807701  0.192166  1
  Dy  Dy2  1  0.296570  0.980682  0.722578  1
  Dy  Dy3  1  0.999785  0.278100  0.019032  1
  Dy  Dy4  1  0.191897  0.547434  0.452331  1
  Dy  Dy5  1  0.517374  0.204261  0.795690  1
  Dy  Dy6  1  0.722581  0.999606  0.296370  1
  Er  Er7  1  0.020110  0.704622  0.000015  1
  Er  Er8  1  0.501507  0.498010  0.998710  1
  Er  Er9  1  0.998352  0.001281  0.502607  1
  Ga  Ga10  1  0.867466  0.132110  0.867233  1
  Ga  Ga11  1  0.642910  0.356791  0.357300  1
  Ga  Ga12  1  0.356615  0.642902  0.643820  1
  Co  Co13  1  0.122763  0.876913  0.122123  1
  Bi  Bi14  1  0.757235  0.742886  0.757214  1
  Bi  Bi15  1  0.256070  0.243964  0.255957  1
