# generated using pymatgen
data_Hf4FeCoTc2
_symmetry_space_group_name_H-M   'P 1'
_cell_length_a   6.39400600
_cell_length_b   4.54548300
_cell_length_c   9.09854500
_cell_angle_alpha   90.00000000
_cell_angle_beta   89.99976386
_cell_angle_gamma   90.00000000
_symmetry_Int_Tables_number   1
_chemical_formula_structural   Hf4FeCoTc2
_chemical_formula_sum   'Hf8 Fe2 Co2 Tc4'
_cell_volume   264.43870684
_cell_formula_units_Z   2
loop_
 _symmetry_equiv_pos_site_id
 _symmetry_equiv_pos_as_xyz
  1  'x, y, z'
loop_
 _atom_site_type_symbol
 _atom_site_label
 _atom_site_symmetry_multiplicity
 _atom_site_fract_x
 _atom_site_fract_y
 _atom_site_fract_z
 _atom_site_occupancy
  Hf  Hf0  1  0.998657  0.750000  0.126572  1
  Hf  Hf1  1  0.501362  0.750000  0.126576  1
  Hf  Hf2  1  0.001343  0.250000  0.373440  1
  Hf  Hf3  1  0.498682  0.250000  0.373444  1
  Hf  Hf4  1  0.498879  0.750000  0.623241  1
  Hf  Hf5  1  0.001098  0.750000  0.623242  1
  Hf  Hf6  1  0.501153  0.250000  0.876738  1
  Hf  Hf7  1  0.998825  0.250000  0.876739  1
  Fe  Fe8  1  0.750016  0.250000  0.124474  1
  Fe  Fe9  1  0.250013  0.750000  0.375544  1
  Co  Co10  1  0.749988  0.250000  0.625333  1
  Co  Co11  1  0.249987  0.750000  0.874656  1
  Tc  Tc12  1  0.250009  0.250000  0.123939  1
  Tc  Tc13  1  0.750009  0.750000  0.376073  1
  Tc  Tc14  1  0.249990  0.250000  0.626345  1
  Tc  Tc15  1  0.749989  0.750000  0.873644  1
