# generated using pymatgen
data_ThSiBr
_symmetry_space_group_name_H-M   'P 1'
_cell_length_a   4.15710400
_cell_length_b   4.15710565
_cell_length_c   11.60140700
_cell_angle_alpha   90.00000000
_cell_angle_beta   90.00000000
_cell_angle_gamma   120.00000277
_symmetry_Int_Tables_number   1
_chemical_formula_structural   ThSiBr
_chemical_formula_sum   'Th2 Si2 Br2'
_cell_volume   173.62938790
_cell_formula_units_Z   2
loop_
 _symmetry_equiv_pos_site_id
 _symmetry_equiv_pos_as_xyz
  1  'x, y, z'
loop_
 _atom_site_type_symbol
 _atom_site_label
 _atom_site_symmetry_multiplicity
 _atom_site_fract_x
 _atom_site_fract_y
 _atom_site_fract_z
 _atom_site_occupancy
  Th  Th0  1  0.000000  0.000000  0.838860  1
  Th  Th1  1  0.000000  0.000000  0.161140  1
  Si  Si2  1  0.333333  0.666667  0.000278  1
  Si  Si3  1  0.666667  0.333333  0.999722  1
  Br  Br4  1  0.333333  0.666667  0.335835  1
  Br  Br5  1  0.666667  0.333333  0.664165  1
