# generated using pymatgen
data_CeDyZr2F14
_symmetry_space_group_name_H-M   'P 1'
_cell_length_a   5.86662816
_cell_length_b   6.22590026
_cell_length_c   8.45983973
_cell_angle_alpha   77.14572754
_cell_angle_beta   89.81152712
_cell_angle_gamma   89.84639897
_symmetry_Int_Tables_number   1
_chemical_formula_structural   CeDyZr2F14
_chemical_formula_sum   'Ce1 Dy1 Zr2 F14'
_cell_volume   301.25003697
_cell_formula_units_Z   1
loop_
 _symmetry_equiv_pos_site_id
 _symmetry_equiv_pos_as_xyz
  1  'x, y, z'
loop_
 _atom_site_type_symbol
 _atom_site_label
 _atom_site_symmetry_multiplicity
 _atom_site_fract_x
 _atom_site_fract_y
 _atom_site_fract_z
 _atom_site_occupancy
  Ce  Ce0  1  0.741299  0.151096  0.819364  1
  Dy  Dy1  1  0.239499  0.840009  0.190870  1
  Zr  Zr2  1  0.750595  0.312999  0.275959  1
  Zr  Zr3  1  0.250372  0.689177  0.723111  1
  F  F4  1  0.470880  0.434400  0.727837  1
  F  F5  1  0.035135  0.949007  0.706831  1
  F  F6  1  0.998758  0.458719  0.741256  1
  F  F7  1  0.028883  0.107779  0.282103  1
  F  F8  1  0.986347  0.559927  0.267333  1
  F  F9  1  0.425143  0.039698  0.986580  1
  F  F10  1  0.941664  0.942983  0.030421  1
  F  F11  1  0.242799  0.745163  0.474676  1
  F  F12  1  0.534519  0.880958  0.713206  1
  F  F13  1  0.525630  0.059638  0.286012  1
  F  F14  1  0.502661  0.555346  0.254996  1
  F  F15  1  0.741706  0.260612  0.520198  1
  F  F16  1  0.750605  0.366194  0.029658  1
  F  F17  1  0.253111  0.646297  0.969586  1
