# generated using pymatgen
data_YHo3Mn3VB16
_symmetry_space_group_name_H-M   'P 1'
_cell_length_a   3.41851900
_cell_length_b   5.91880823
_cell_length_c   11.44157207
_cell_angle_alpha   89.96931794
_cell_angle_beta   90.00000000
_cell_angle_gamma   90.00000000
_symmetry_Int_Tables_number   1
_chemical_formula_structural   YHo3Mn3VB16
_chemical_formula_sum   'Y1 Ho3 Mn3 V1 B16'
_cell_volume   231.50368320
_cell_formula_units_Z   1
loop_
 _symmetry_equiv_pos_site_id
 _symmetry_equiv_pos_as_xyz
  1  'x, y, z'
loop_
 _atom_site_type_symbol
 _atom_site_label
 _atom_site_symmetry_multiplicity
 _atom_site_fract_x
 _atom_site_fract_y
 _atom_site_fract_z
 _atom_site_occupancy
  Y  Y0  1  0.500000  0.626270  0.149069  1
  Ho  Ho1  1  0.500000  0.373796  0.849894  1
  Ho  Ho2  1  0.500000  0.125220  0.348596  1
  Ho  Ho3  1  0.500000  0.876311  0.652006  1
  Mn  Mn4  1  0.500000  0.376700  0.582676  1
  Mn  Mn5  1  0.500000  0.127796  0.081945  1
  Mn  Mn6  1  0.500000  0.871831  0.915351  1
  V  V7  1  0.500000  0.624485  0.419086  1
  B  B8  1  0.000000  0.976136  0.190145  1
  B  B9  1  0.000000  0.025118  0.808819  1
  B  B10  1  0.000000  0.472632  0.307672  1
  B  B11  1  0.000000  0.523162  0.692258  1
  B  B12  1  0.000000  0.784883  0.313845  1
  B  B13  1  0.000000  0.219905  0.683950  1
  B  B14  1  0.000000  0.279885  0.182852  1
  B  B15  1  0.000000  0.718700  0.816345  1
  B  B16  1  0.000000  0.865601  0.469045  1
  B  B17  1  0.000000  0.138027  0.534242  1
  B  B18  1  0.000000  0.361687  0.031492  1
  B  B19  1  0.000000  0.637862  0.967304  1
  B  B20  1  0.000000  0.887795  0.045544  1
  B  B21  1  0.000000  0.112097  0.952838  1
  B  B22  1  0.000000  0.383491  0.455659  1
  B  B23  1  0.000000  0.610612  0.549366  1
