# generated using pymatgen
data_NdI31
_symmetry_space_group_name_H-M   'P 1'
_cell_length_a   9.16918000
_cell_length_b   10.38510117
_cell_length_c   20.67628600
_cell_angle_alpha   85.30545102
_cell_angle_beta   90.00000000
_cell_angle_gamma   90.00000000
_symmetry_Int_Tables_number   1
_chemical_formula_structural   NdI31
_chemical_formula_sum   'Nd1 I31'
_cell_volume   1962.24996806
_cell_formula_units_Z   1
loop_
 _symmetry_equiv_pos_site_id
 _symmetry_equiv_pos_as_xyz
  1  'x, y, z'
loop_
 _atom_site_type_symbol
 _atom_site_label
 _atom_site_symmetry_multiplicity
 _atom_site_fract_x
 _atom_site_fract_y
 _atom_site_fract_z
 _atom_site_occupancy
  Nd  Nd0  1  0.750000  0.941420  0.191100  1
  I  I1  1  0.750000  0.388274  0.328775  1
  I  I2  1  0.250000  0.664603  0.668411  1
  I  I3  1  0.250000  0.127590  0.839684  1
  I  I4  1  0.250000  0.333777  0.178751  1
  I  I5  1  0.750000  0.978592  0.740628  1
  I  I6  1  0.750000  0.912064  0.337764  1
  I  I7  1  0.486361  0.782885  0.163544  1
  I  I8  1  0.250000  0.539351  0.323110  1
  I  I9  1  0.505585  0.790604  0.595999  1
  I  I10  1  0.250000  0.678193  0.814872  1
  I  I11  1  0.250000  0.063110  0.414455  1
  I  I12  1  0.750000  0.519682  0.450377  1
  I  I13  1  0.503161  0.270033  0.888023  1
  I  I14  1  0.250000  0.702556  0.951912  1
  I  I15  1  0.750000  0.259730  0.201290  1
  I  I16  1  0.493951  0.223735  0.372228  1
  I  I17  1  0.750000  0.236002  0.664835  1
  I  I18  1  0.250000  0.792486  0.350135  1
  I  I19  1  0.006049  0.223735  0.372228  1
  I  I20  1  0.750000  0.883586  0.518262  1
  I  I21  1  0.013639  0.782885  0.163544  1
  I  I22  1  0.250000  0.067524  0.165067  1
  I  I23  1  0.750000  0.104169  0.062211  1
  I  I24  1  0.750000  0.714482  0.800484  1
  I  I25  1  0.750000  0.476152  0.725692  1
  I  I26  1  0.250000  0.487492  0.053826  1
  I  I27  1  0.994415  0.790604  0.595999  1
  I  I28  1  0.750000  0.412399  0.932857  1
  I  I29  1  0.250000  0.340842  0.559330  1
  I  I30  1  0.250000  0.241407  0.686583  1
  I  I31  1  0.996839  0.270033  0.888023  1
