# generated using pymatgen
data_CaTbEr(Si3Pd10)2
_symmetry_space_group_name_H-M   'P 1'
_cell_length_a   8.72578657
_cell_length_b   8.72578633
_cell_length_c   8.72578700
_cell_angle_alpha   60.00000126
_cell_angle_beta   60.00000215
_cell_angle_gamma   60.00000492
_symmetry_Int_Tables_number   1
_chemical_formula_structural   CaTbEr(Si3Pd10)2
_chemical_formula_sum   'Ca1 Tb1 Er1 Si6 Pd20'
_cell_volume   469.78462285
_cell_formula_units_Z   1
loop_
 _symmetry_equiv_pos_site_id
 _symmetry_equiv_pos_as_xyz
  1  'x, y, z'
loop_
 _atom_site_type_symbol
 _atom_site_label
 _atom_site_symmetry_multiplicity
 _atom_site_fract_x
 _atom_site_fract_y
 _atom_site_fract_z
 _atom_site_occupancy
  Ca  Ca0  1  0.250000  0.250000  0.250000  1
  Tb  Tb1  1  0.750000  0.750000  0.750000  1
  Er  Er2  1  0.000000  0.000000  0.000000  1
  Si  Si3  1  0.732193  0.267807  0.267807  1
  Si  Si4  1  0.267807  0.732193  0.732193  1
  Si  Si5  1  0.267807  0.732193  0.267807  1
  Si  Si6  1  0.732193  0.267807  0.732193  1
  Si  Si7  1  0.267807  0.267807  0.732193  1
  Si  Si8  1  0.732193  0.732193  0.267807  1
  Pd  Pd9  1  0.345056  0.998914  0.998914  1
  Pd  Pd10  1  0.657116  0.998914  0.998914  1
  Pd  Pd11  1  0.998914  0.345056  0.657116  1
  Pd  Pd12  1  0.998914  0.657116  0.345056  1
  Pd  Pd13  1  0.998914  0.345056  0.998914  1
  Pd  Pd14  1  0.657116  0.998914  0.345056  1
  Pd  Pd15  1  0.998914  0.657116  0.998914  1
  Pd  Pd16  1  0.345056  0.998914  0.657116  1
  Pd  Pd17  1  0.998914  0.998914  0.345056  1
  Pd  Pd18  1  0.998914  0.998914  0.657116  1
  Pd  Pd19  1  0.657116  0.345056  0.998914  1
  Pd  Pd20  1  0.345056  0.657116  0.998914  1
  Pd  Pd21  1  0.384559  0.384559  0.384559  1
  Pd  Pd22  1  0.616414  0.616414  0.616414  1
  Pd  Pd23  1  0.384559  0.384559  0.846322  1
  Pd  Pd24  1  0.384559  0.846322  0.384559  1
  Pd  Pd25  1  0.616414  0.616414  0.150757  1
  Pd  Pd26  1  0.616414  0.150757  0.616414  1
  Pd  Pd27  1  0.846322  0.384559  0.384559  1
  Pd  Pd28  1  0.150757  0.616414  0.616414  1
