# generated using pymatgen
data_Nd2Sm3YCoBr10
_symmetry_space_group_name_H-M   'P 1'
_cell_length_a   7.49345174
_cell_length_b   9.33827299
_cell_length_c   9.46523572
_cell_angle_alpha   108.16812364
_cell_angle_beta   96.60782195
_cell_angle_gamma   104.33735456
_symmetry_Int_Tables_number   1
_chemical_formula_structural   Nd2Sm3YCoBr10
_chemical_formula_sum   'Nd2 Sm3 Y1 Co1 Br10'
_cell_volume   596.26784808
_cell_formula_units_Z   1
loop_
 _symmetry_equiv_pos_site_id
 _symmetry_equiv_pos_as_xyz
  1  'x, y, z'
loop_
 _atom_site_type_symbol
 _atom_site_label
 _atom_site_symmetry_multiplicity
 _atom_site_fract_x
 _atom_site_fract_y
 _atom_site_fract_z
 _atom_site_occupancy
  Nd  Nd0  1  0.462857  0.784863  0.589015  1
  Nd  Nd1  1  0.534289  0.214078  0.409351  1
  Sm  Sm2  1  0.373063  0.450931  0.744280  1
  Sm  Sm3  1  0.623727  0.547354  0.254703  1
  Sm  Sm4  1  0.856464  0.630603  0.677683  1
  Y  Y5  1  0.147526  0.371660  0.325532  1
  Co  Co6  1  0.499697  0.499810  0.500254  1
  Br  Br7  1  0.413286  0.132872  0.673274  1
  Br  Br8  1  0.586078  0.865920  0.325123  1
  Br  Br9  1  0.043345  0.675479  0.414829  1
  Br  Br10  1  0.957685  0.321238  0.580038  1
  Br  Br11  1  0.277102  0.748722  0.847766  1
  Br  Br12  1  0.734004  0.254082  0.157488  1
  Br  Br13  1  0.251071  0.415915  0.049605  1
  Br  Br14  1  0.743853  0.580953  0.952402  1
  Br  Br15  1  0.846913  0.947400  0.770335  1
  Br  Br16  1  0.149041  0.058121  0.228321  1
