# generated using pymatgen
data_Y3Ho2Er7Ru4
_symmetry_space_group_name_H-M   'P 1'
_cell_length_a   6.27972612
_cell_length_b   7.30607431
_cell_length_c   9.11007422
_cell_angle_alpha   89.98819558
_cell_angle_beta   90.06196353
_cell_angle_gamma   90.10284177
_symmetry_Int_Tables_number   1
_chemical_formula_structural   Y3Ho2Er7Ru4
_chemical_formula_sum   'Y3 Ho2 Er7 Ru4'
_cell_volume   417.97060599
_cell_formula_units_Z   1
loop_
 _symmetry_equiv_pos_site_id
 _symmetry_equiv_pos_as_xyz
  1  'x, y, z'
loop_
 _atom_site_type_symbol
 _atom_site_label
 _atom_site_symmetry_multiplicity
 _atom_site_fract_x
 _atom_site_fract_y
 _atom_site_fract_z
 _atom_site_occupancy
  Y  Y0  1  0.632778  0.039522  0.250132  1
  Y  Y1  1  0.132628  0.460421  0.749686  1
  Y  Y2  1  0.367672  0.960632  0.749761  1
  Ho  Ho3  1  0.330948  0.676263  0.064593  1
  Ho  Ho4  1  0.866281  0.540138  0.250307  1
  Er  Er5  1  0.168392  0.176636  0.435261  1
  Er  Er6  1  0.668990  0.323900  0.564281  1
  Er  Er7  1  0.831407  0.823542  0.935438  1
  Er  Er8  1  0.669138  0.323780  0.935455  1
  Er  Er9  1  0.831589  0.823492  0.564359  1
  Er  Er10  1  0.331004  0.675969  0.435513  1
  Er  Er11  1  0.168350  0.176452  0.064757  1
  Ru  Ru12  1  0.042199  0.884169  0.250392  1
  Ru  Ru13  1  0.458252  0.385321  0.250484  1
  Ru  Ru14  1  0.956374  0.114982  0.750105  1
  Ru  Ru15  1  0.544000  0.614780  0.749476  1
