# generated using pymatgen
data_Tb4Hf3GaIr4
_symmetry_space_group_name_H-M   'P 1'
_cell_length_a   4.43182700
_cell_length_b   7.09936822
_cell_length_c   8.25187317
_cell_angle_alpha   93.35395099
_cell_angle_beta   90.00000000
_cell_angle_gamma   90.00000000
_symmetry_Int_Tables_number   1
_chemical_formula_structural   Tb4Hf3GaIr4
_chemical_formula_sum   'Tb4 Hf3 Ga1 Ir4'
_cell_volume   259.18540081
_cell_formula_units_Z   1
loop_
 _symmetry_equiv_pos_site_id
 _symmetry_equiv_pos_as_xyz
  1  'x, y, z'
loop_
 _atom_site_type_symbol
 _atom_site_label
 _atom_site_symmetry_multiplicity
 _atom_site_fract_x
 _atom_site_fract_y
 _atom_site_fract_z
 _atom_site_occupancy
  Tb  Tb0  1  0.250000  0.983318  0.313529  1
  Tb  Tb1  1  0.250000  0.461080  0.166107  1
  Tb  Tb2  1  0.750000  0.033584  0.688034  1
  Tb  Tb3  1  0.750000  0.505277  0.837099  1
  Hf  Hf4  1  0.250000  0.368590  0.571004  1
  Hf  Hf5  1  0.250000  0.860867  0.938401  1
  Hf  Hf6  1  0.750000  0.639250  0.428181  1
  Ga  Ga7  1  0.750000  0.141929  0.071916  1
  Ir  Ir8  1  0.250000  0.227602  0.874718  1
  Ir  Ir9  1  0.250000  0.741087  0.600558  1
  Ir  Ir10  1  0.750000  0.768082  0.113112  1
  Ir  Ir11  1  0.750000  0.269333  0.397341  1
