# generated using pymatgen
data_DyY3Al18Co5Au
_symmetry_space_group_name_H-M   'P 1'
_cell_length_a   7.43138603
_cell_length_b   7.43138450
_cell_length_c   9.35130900
_cell_angle_alpha   89.78892473
_cell_angle_beta   89.78804221
_cell_angle_gamma   119.15953837
_symmetry_Int_Tables_number   1
_chemical_formula_structural   DyY3Al18Co5Au
_chemical_formula_sum   'Dy1 Y3 Al18 Co5 Au1'
_cell_volume   450.96948830
_cell_formula_units_Z   1
loop_
 _symmetry_equiv_pos_site_id
 _symmetry_equiv_pos_as_xyz
  1  'x, y, z'
loop_
 _atom_site_type_symbol
 _atom_site_label
 _atom_site_symmetry_multiplicity
 _atom_site_fract_x
 _atom_site_fract_y
 _atom_site_fract_z
 _atom_site_occupancy
  Dy  Dy0  1  0.995542  0.677573  0.251323  1
  Y  Y1  1  0.004459  0.322421  0.748681  1
  Y  Y2  1  0.677575  0.995540  0.251319  1
  Y  Y3  1  0.322427  0.004465  0.748681  1
  Al  Al4  1  0.137473  0.137454  0.263301  1
  Al  Al5  1  0.862532  0.862533  0.736698  1
  Al  Al6  1  0.332288  0.332289  0.542398  1
  Al  Al7  1  0.655035  0.655018  0.051879  1
  Al  Al8  1  0.344982  0.344979  0.948134  1
  Al  Al9  1  0.667723  0.667712  0.457590  1
  Al  Al10  1  0.340008  0.557849  0.252381  1
  Al  Al11  1  0.659975  0.442147  0.747623  1
  Al  Al12  1  0.557869  0.340048  0.252377  1
  Al  Al13  1  0.442150  0.659975  0.747620  1
  Al  Al14  1  0.001351  0.349727  0.076435  1
  Al  Al15  1  0.003337  0.663116  0.569657  1
  Al  Al16  1  0.336871  0.996647  0.430317  1
  Al  Al17  1  0.650291  0.998648  0.923577  1
  Al  Al18  1  0.998640  0.650289  0.923594  1
  Al  Al19  1  0.996665  0.336900  0.430316  1
  Al  Al20  1  0.663115  0.003336  0.569674  1
  Al  Al21  1  0.349696  0.001342  0.076434  1
  Co  Co22  1  0.999997  0.999986  0.499989  1
  Co  Co23  1  0.671027  0.328979  0.000001  1
  Co  Co24  1  0.329020  0.670973  0.499995  1
  Co  Co25  1  0.328971  0.671025  0.000004  1
  Co  Co26  1  0.670981  0.329037  0.499995  1
  Au  Au27  1  0.999998  0.999991  0.000007  1
