# generated using pymatgen
data_HoEr3LuRu2
_symmetry_space_group_name_H-M   'P 1'
_cell_length_a   6.26604291
_cell_length_b   7.21039141
_cell_length_c   8.37804769
_cell_angle_alpha   96.81404439
_cell_angle_beta   111.98748747
_cell_angle_gamma   89.96306765
_symmetry_Int_Tables_number   1
_chemical_formula_structural   HoEr3LuRu2
_chemical_formula_sum   'Ho2 Er6 Lu2 Ru4'
_cell_volume   348.12017085
_cell_formula_units_Z   2
loop_
 _symmetry_equiv_pos_site_id
 _symmetry_equiv_pos_as_xyz
  1  'x, y, z'
loop_
 _atom_site_type_symbol
 _atom_site_label
 _atom_site_symmetry_multiplicity
 _atom_site_fract_x
 _atom_site_fract_y
 _atom_site_fract_z
 _atom_site_occupancy
  Ho  Ho0  1  0.523153  0.083484  0.814306  1
  Ho  Ho1  1  0.476847  0.916516  0.185694  1
  Er  Er2  1  0.708590  0.416674  0.185633  1
  Er  Er3  1  0.291410  0.583326  0.814367  1
  Er  Er4  1  0.296641  0.313696  0.433257  1
  Er  Er5  1  0.703359  0.686304  0.566743  1
  Er  Er6  1  0.863481  0.186568  0.566620  1
  Er  Er7  1  0.136519  0.813432  0.433380  1
  Lu  Lu8  1  0.078248  0.250345  0.000154  1
  Lu  Lu9  1  0.921752  0.749655  0.999846  1
  Ru  Ru10  1  0.320595  0.575207  0.218926  1
  Ru  Ru11  1  0.679405  0.424793  0.781074  1
  Ru  Ru12  1  0.101293  0.924513  0.780835  1
  Ru  Ru13  1  0.898707  0.075487  0.219165  1
