# generated using pymatgen
data_Sm4Ga5Ru3
_symmetry_space_group_name_H-M   'P 1'
_cell_length_a   5.45142284
_cell_length_b   5.51915351
_cell_length_c   8.89136200
_cell_angle_alpha   90.00000000
_cell_angle_beta   90.00000000
_cell_angle_gamma   120.41186090
_symmetry_Int_Tables_number   1
_chemical_formula_structural   Sm4Ga5Ru3
_chemical_formula_sum   'Sm4 Ga5 Ru3'
_cell_volume   230.70864195
_cell_formula_units_Z   1
loop_
 _symmetry_equiv_pos_site_id
 _symmetry_equiv_pos_as_xyz
  1  'x, y, z'
loop_
 _atom_site_type_symbol
 _atom_site_label
 _atom_site_symmetry_multiplicity
 _atom_site_fract_x
 _atom_site_fract_y
 _atom_site_fract_z
 _atom_site_occupancy
  Sm  Sm0  1  0.345024  0.672512  0.448445  1
  Sm  Sm1  1  0.659663  0.329831  0.557707  1
  Sm  Sm2  1  0.659663  0.329831  0.942293  1
  Sm  Sm3  1  0.345024  0.672512  0.051555  1
  Ga  Ga4  1  0.840140  0.165750  0.250000  1
  Ga  Ga5  1  0.840140  0.674390  0.250000  1
  Ga  Ga6  1  0.330967  0.165484  0.250000  1
  Ga  Ga7  1  0.159108  0.834670  0.750000  1
  Ga  Ga8  1  0.159108  0.324438  0.750000  1
  Ru  Ru9  1  0.005374  0.002687  0.497555  1
  Ru  Ru10  1  0.005374  0.002687  0.002445  1
  Ru  Ru11  1  0.650416  0.825208  0.750000  1
