# generated using pymatgen
data_MgNi4Sn7
_symmetry_space_group_name_H-M   'P 1'
_cell_length_a   6.25147966
_cell_length_b   6.25616551
_cell_length_c   7.58657395
_cell_angle_alpha   113.87298186
_cell_angle_beta   113.83029936
_cell_angle_gamma   90.20471103
_symmetry_Int_Tables_number   1
_chemical_formula_structural   MgNi4Sn7
_chemical_formula_sum   'Mg1 Ni4 Sn7'
_cell_volume   243.19414601
_cell_formula_units_Z   1
loop_
 _symmetry_equiv_pos_site_id
 _symmetry_equiv_pos_as_xyz
  1  'x, y, z'
loop_
 _atom_site_type_symbol
 _atom_site_label
 _atom_site_symmetry_multiplicity
 _atom_site_fract_x
 _atom_site_fract_y
 _atom_site_fract_z
 _atom_site_occupancy
  Mg  Mg0  1  0.628464  0.910391  0.256455  1
  Ni  Ni1  1  0.499036  0.293597  0.508457  1
  Ni  Ni2  1  0.008528  0.784108  0.507793  1
  Ni  Ni3  1  0.246932  0.532295  0.004555  1
  Ni  Ni4  1  0.758284  0.043457  0.005342  1
  Sn  Sn5  1  0.385424  0.670897  0.769789  1
  Sn  Sn6  1  0.378357  0.162956  0.757415  1
  Sn  Sn7  1  0.877434  0.663990  0.757334  1
  Sn  Sn8  1  0.870685  0.156233  0.740154  1
  Sn  Sn9  1  0.128225  0.414397  0.257906  1
  Sn  Sn10  1  0.129487  0.914082  0.256108  1
  Sn  Sn11  1  0.627944  0.412198  0.256293  1
