# generated using pymatgen
data_Th7Au10
_symmetry_space_group_name_H-M   'P 1'
_cell_length_a   9.02546734
_cell_length_b   9.02546763
_cell_length_c   10.73275100
_cell_angle_alpha   90.00000000
_cell_angle_beta   90.00000000
_cell_angle_gamma   106.93508149
_symmetry_Int_Tables_number   1
_chemical_formula_structural   Th7Au10
_chemical_formula_sum   'Th14 Au20'
_cell_volume   836.36705767
_cell_formula_units_Z   2
loop_
 _symmetry_equiv_pos_site_id
 _symmetry_equiv_pos_as_xyz
  1  'x, y, z'
loop_
 _atom_site_type_symbol
 _atom_site_label
 _atom_site_symmetry_multiplicity
 _atom_site_fract_x
 _atom_site_fract_y
 _atom_site_fract_z
 _atom_site_occupancy
  Th  Th0  1  0.690150  0.309850  0.000000  1
  Th  Th1  1  0.309850  0.690150  0.000000  1
  Th  Th2  1  0.809850  0.190150  0.500000  1
  Th  Th3  1  0.190150  0.809850  0.500000  1
  Th  Th4  1  0.000000  0.000000  0.000000  1
  Th  Th5  1  0.500000  0.500000  0.500000  1
  Th  Th6  1  0.002852  0.502852  0.250000  1
  Th  Th7  1  0.997148  0.497148  0.750000  1
  Th  Th8  1  0.497148  0.997148  0.750000  1
  Th  Th9  1  0.502852  0.002852  0.250000  1
  Th  Th10  1  0.305753  0.305753  0.193362  1
  Th  Th11  1  0.694247  0.694247  0.806638  1
  Th  Th12  1  0.194247  0.194247  0.693362  1
  Th  Th13  1  0.805753  0.805753  0.306638  1
  Au  Au14  1  0.855854  0.150477  0.206970  1
  Au  Au15  1  0.144146  0.849523  0.793030  1
  Au  Au16  1  0.644146  0.349523  0.706970  1
  Au  Au17  1  0.650477  0.355854  0.293030  1
  Au  Au18  1  0.355854  0.650477  0.293030  1
  Au  Au19  1  0.349523  0.644146  0.706970  1
  Au  Au20  1  0.849523  0.144146  0.793030  1
  Au  Au21  1  0.150477  0.855854  0.206970  1
  Au  Au22  1  0.938620  0.645835  0.003314  1
  Au  Au23  1  0.061380  0.354165  0.996686  1
  Au  Au24  1  0.561380  0.854165  0.503314  1
  Au  Au25  1  0.145835  0.438620  0.496686  1
  Au  Au26  1  0.438620  0.145835  0.496686  1
  Au  Au27  1  0.854165  0.561380  0.503314  1
  Au  Au28  1  0.354165  0.061380  0.996686  1
  Au  Au29  1  0.645835  0.938620  0.003314  1
  Au  Au30  1  0.098929  0.098929  0.399964  1
  Au  Au31  1  0.901071  0.901071  0.600036  1
  Au  Au32  1  0.401071  0.401071  0.899964  1
  Au  Au33  1  0.598929  0.598929  0.100036  1
