# generated using pymatgen
data_K4Zr6PI18
_symmetry_space_group_name_H-M   'P 1'
_cell_length_a   11.26727356
_cell_length_b   11.42248255
_cell_length_c   11.53320641
_cell_angle_alpha   118.54650666
_cell_angle_beta   100.03521755
_cell_angle_gamma   103.94788264
_symmetry_Int_Tables_number   1
_chemical_formula_structural   K4Zr6PI18
_chemical_formula_sum   'K4 Zr6 P1 I18'
_cell_volume   1190.26981807
_cell_formula_units_Z   1
loop_
 _symmetry_equiv_pos_site_id
 _symmetry_equiv_pos_as_xyz
  1  'x, y, z'
loop_
 _atom_site_type_symbol
 _atom_site_label
 _atom_site_symmetry_multiplicity
 _atom_site_fract_x
 _atom_site_fract_y
 _atom_site_fract_z
 _atom_site_occupancy
  K  K0  1  0.185471  0.724307  0.563974  1
  K  K1  1  0.848398  0.961921  0.773242  1
  K  K2  1  0.151602  0.038079  0.226758  1
  K  K3  1  0.814529  0.275693  0.436026  1
  Zr  Zr4  1  0.353630  0.445466  0.774773  1
  Zr  Zr5  1  0.364986  0.624033  0.130555  1
  Zr  Zr6  1  0.642175  0.734154  0.043990  1
  Zr  Zr7  1  0.646370  0.554534  0.225227  1
  Zr  Zr8  1  0.357825  0.265846  0.956010  1
  Zr  Zr9  1  0.635014  0.375967  0.869445  1
  P  P10  1  0.500000  0.500000  0.000000  1
  I  I11  1  0.822768  0.422835  0.110317  1
  I  I12  1  0.514427  0.706018  0.410945  1
  I  I13  1  0.177069  0.975710  0.899505  1
  I  I14  1  0.177232  0.577165  0.889683  1
  I  I15  1  0.830378  0.834749  0.312449  1
  I  I16  1  0.503562  0.294199  0.210595  1
  I  I17  1  0.798482  0.223563  0.710671  1
  I  I18  1  0.169622  0.165251  0.687551  1
  I  I19  1  0.507885  0.912433  0.198625  1
  I  I20  1  0.819394  0.628446  0.902875  1
  I  I21  1  0.201518  0.776437  0.289329  1
  I  I22  1  0.166507  0.378477  0.496661  1
  I  I23  1  0.496438  0.705801  0.789405  1
  I  I24  1  0.822931  0.024290  0.100495  1
  I  I25  1  0.485573  0.293982  0.589055  1
  I  I26  1  0.180606  0.371554  0.097125  1
  I  I27  1  0.833493  0.621523  0.503339  1
  I  I28  1  0.492115  0.087567  0.801375  1
