# generated using pymatgen
data_Ca3PrOs6O19
_symmetry_space_group_name_H-M   'P 1'
_cell_length_a   7.89954213
_cell_length_b   7.92462061
_cell_length_c   7.92462196
_cell_angle_alpha   109.53523149
_cell_angle_beta   109.40712758
_cell_angle_gamma   109.40712891
_symmetry_Int_Tables_number   1
_chemical_formula_structural   Ca3PrOs6O19
_chemical_formula_sum   'Ca3 Pr1 Os6 O19'
_cell_volume   382.19059964
_cell_formula_units_Z   1
loop_
 _symmetry_equiv_pos_site_id
 _symmetry_equiv_pos_as_xyz
  1  'x, y, z'
loop_
 _atom_site_type_symbol
 _atom_site_label
 _atom_site_symmetry_multiplicity
 _atom_site_fract_x
 _atom_site_fract_y
 _atom_site_fract_z
 _atom_site_occupancy
  Ca  Ca0  1  0.002791  0.712568  0.000487  1
  Ca  Ca1  1  0.290224  0.287920  0.287433  1
  Ca  Ca2  1  0.002304  0.999513  0.712081  1
  Pr  Pr3  1  0.706149  0.000000  0.000000  1
  Os  Os4  1  0.499555  0.635303  0.137676  1
  Os  Os5  1  0.864252  0.502371  0.364696  1
  Os  Os6  1  0.361880  0.862325  0.497627  1
  Os  Os7  1  0.637310  0.138188  0.500540  1
  Os  Os8  1  0.136770  0.499460  0.637647  1
  Os  Os9  1  0.499122  0.362352  0.861812  1
  O  O10  1  0.991422  0.000000  0.000000  1
  O  O11  1  0.326585  0.325802  0.999158  1
  O  O12  1  0.673305  0.673005  0.000065  1
  O  O13  1  0.707858  0.340922  0.062342  1
  O  O14  1  0.645514  0.937658  0.278579  1
  O  O15  1  0.355089  0.634214  0.292938  1
  O  O16  1  0.000299  0.327060  0.326994  1
  O  O17  1  0.327426  0.000842  0.326645  1
  O  O18  1  0.062152  0.707063  0.341275  1
  O  O19  1  0.635166  0.292077  0.353995  1
  O  O20  1  0.720876  0.658724  0.365786  1
  O  O21  1  0.293991  0.356951  0.636285  1
  O  O22  1  0.937039  0.279334  0.643048  1
  O  O23  1  0.366936  0.721421  0.659077  1
  O  O24  1  0.000781  0.673355  0.674198  1
  O  O25  1  0.673240  0.999935  0.672941  1
  O  O26  1  0.343089  0.061918  0.707923  1
  O  O27  1  0.657704  0.363714  0.720665  1
  O  O28  1  0.281172  0.646005  0.938080  1
