# generated using pymatgen
data_Rb4CrSe4
_symmetry_space_group_name_H-M   'P 1'
_cell_length_a   8.75207900
_cell_length_b   10.27341800
_cell_length_c   15.28910000
_cell_angle_alpha   90.00000000
_cell_angle_beta   90.00000000
_cell_angle_gamma   90.00000000
_symmetry_Int_Tables_number   1
_chemical_formula_structural   Rb4CrSe4
_chemical_formula_sum   'Rb16 Cr4 Se16'
_cell_volume   1374.70055877
_cell_formula_units_Z   4
loop_
 _symmetry_equiv_pos_site_id
 _symmetry_equiv_pos_as_xyz
  1  'x, y, z'
loop_
 _atom_site_type_symbol
 _atom_site_label
 _atom_site_symmetry_multiplicity
 _atom_site_fract_x
 _atom_site_fract_y
 _atom_site_fract_z
 _atom_site_occupancy
  Rb  Rb0  1  0.000000  0.000000  0.000000  1
  Rb  Rb1  1  0.500000  0.000000  0.500000  1
  Rb  Rb2  1  0.000000  0.500000  0.000000  1
  Rb  Rb3  1  0.500000  0.500000  0.500000  1
  Rb  Rb4  1  0.986442  0.750000  0.425442  1
  Rb  Rb5  1  0.486442  0.250000  0.074558  1
  Rb  Rb6  1  0.013558  0.250000  0.574558  1
  Rb  Rb7  1  0.513558  0.750000  0.925442  1
  Rb  Rb8  1  0.839100  0.053642  0.278149  1
  Rb  Rb9  1  0.339100  0.946358  0.221851  1
  Rb  Rb10  1  0.160900  0.553642  0.721851  1
  Rb  Rb11  1  0.660900  0.446358  0.778149  1
  Rb  Rb12  1  0.160900  0.946358  0.721851  1
  Rb  Rb13  1  0.660900  0.053642  0.778149  1
  Rb  Rb14  1  0.839100  0.446358  0.278149  1
  Rb  Rb15  1  0.339100  0.553642  0.221851  1
  Cr  Cr16  1  0.759704  0.750000  0.665944  1
  Cr  Cr17  1  0.240296  0.250000  0.334056  1
  Cr  Cr18  1  0.740296  0.750000  0.165944  1
  Cr  Cr19  1  0.259704  0.250000  0.834056  1
  Se  Se20  1  0.991186  0.250000  0.824986  1
  Se  Se21  1  0.508814  0.250000  0.324986  1
  Se  Se22  1  0.491186  0.750000  0.675014  1
  Se  Se23  1  0.008814  0.750000  0.175014  1
  Se  Se24  1  0.657676  0.563816  0.092518  1
  Se  Se25  1  0.157676  0.436184  0.407482  1
  Se  Se26  1  0.342324  0.063816  0.907482  1
  Se  Se27  1  0.842324  0.936184  0.592518  1
  Se  Se28  1  0.342324  0.436184  0.907482  1
  Se  Se29  1  0.842324  0.563816  0.592518  1
  Se  Se30  1  0.657676  0.936184  0.092518  1
  Se  Se31  1  0.157676  0.063816  0.407482  1
  Se  Se32  1  0.636958  0.750000  0.308529  1
  Se  Se33  1  0.136958  0.250000  0.191471  1
  Se  Se34  1  0.363042  0.250000  0.691471  1
  Se  Se35  1  0.863042  0.750000  0.808529  1
