# generated using pymatgen
data_Tb5Dy11Cd4Ir3Ru
_symmetry_space_group_name_H-M   'P 1'
_cell_length_a   9.65454134
_cell_length_b   9.65310962
_cell_length_c   9.65310898
_cell_angle_alpha   59.77953561
_cell_angle_beta   59.78233424
_cell_angle_gamma   59.78234890
_symmetry_Int_Tables_number   1
_chemical_formula_structural   Tb5Dy11Cd4Ir3Ru
_chemical_formula_sum   'Tb5 Dy11 Cd4 Ir3 Ru1'
_cell_volume   632.98059464
_cell_formula_units_Z   1
loop_
 _symmetry_equiv_pos_site_id
 _symmetry_equiv_pos_as_xyz
  1  'x, y, z'
loop_
 _atom_site_type_symbol
 _atom_site_label
 _atom_site_symmetry_multiplicity
 _atom_site_fract_x
 _atom_site_fract_y
 _atom_site_fract_z
 _atom_site_occupancy
  Tb  Tb0  1  0.809383  0.188633  0.188633  1
  Tb  Tb1  1  0.811577  0.188643  0.811416  1
  Tb  Tb2  1  0.188630  0.809413  0.188419  1
  Tb  Tb3  1  0.811577  0.811416  0.188643  1
  Tb  Tb4  1  0.188630  0.188419  0.809413  1
  Dy  Dy5  1  0.598756  0.598834  0.598834  1
  Dy  Dy6  1  0.598235  0.598319  0.206734  1
  Dy  Dy7  1  0.598235  0.206734  0.598319  1
  Dy  Dy8  1  0.206628  0.598344  0.598344  1
  Dy  Dy9  1  0.061882  0.438686  0.438686  1
  Dy  Dy10  1  0.437897  0.060216  0.060216  1
  Dy  Dy11  1  0.438632  0.061814  0.438822  1
  Dy  Dy12  1  0.060227  0.438040  0.060111  1
  Dy  Dy13  1  0.438632  0.438822  0.061814  1
  Dy  Dy14  1  0.060227  0.060111  0.438040  1
  Dy  Dy15  1  0.188903  0.811334  0.811334  1
  Cd  Cd16  1  0.830190  0.829982  0.829982  1
  Cd  Cd17  1  0.830641  0.830674  0.506784  1
  Cd  Cd18  1  0.830641  0.506784  0.830674  1
  Cd  Cd19  1  0.506616  0.830657  0.830657  1
  Ir  Ir20  1  0.393177  0.393471  0.826527  1
  Ir  Ir21  1  0.393177  0.826527  0.393471  1
  Ir  Ir22  1  0.826595  0.393255  0.393255  1
  Ru  Ru23  1  0.390915  0.390872  0.390872  1
