# generated using pymatgen
data_Er8TiSi16W11
_symmetry_space_group_name_H-M   'P 1'
_cell_length_a   6.85982672
_cell_length_b   6.85470510
_cell_length_c   12.74876085
_cell_angle_alpha   89.98437543
_cell_angle_beta   90.10009308
_cell_angle_gamma   90.01095261
_symmetry_Int_Tables_number   1
_chemical_formula_structural   Er8TiSi16W11
_chemical_formula_sum   'Er8 Ti1 Si16 W11'
_cell_volume   599.47242154
_cell_formula_units_Z   1
loop_
 _symmetry_equiv_pos_site_id
 _symmetry_equiv_pos_as_xyz
  1  'x, y, z'
loop_
 _atom_site_type_symbol
 _atom_site_label
 _atom_site_symmetry_multiplicity
 _atom_site_fract_x
 _atom_site_fract_y
 _atom_site_fract_z
 _atom_site_occupancy
  Er  Er0  1  0.339416  0.999925  0.468661  1
  Er  Er1  1  0.499036  0.838795  0.719628  1
  Er  Er2  1  0.499167  0.161355  0.219108  1
  Er  Er3  1  0.839817  0.500407  0.280877  1
  Er  Er4  1  0.161230  0.499119  0.780987  1
  Er  Er5  1  0.660638  0.999815  0.969050  1
  Er  Er6  1  0.001053  0.338481  0.530887  1
  Er  Er7  1  0.000203  0.661184  0.030765  1
  Ti  Ti8  1  0.995851  0.841828  0.624682  1
  Si  Si9  1  0.201860  0.126887  0.683269  1
  Si  Si10  1  0.372295  0.701077  0.933814  1
  Si  Si11  1  0.629592  0.298190  0.433665  1
  Si  Si12  1  0.701073  0.371032  0.066198  1
  Si  Si13  1  0.299329  0.630955  0.565979  1
  Si  Si14  1  0.798082  0.871647  0.183696  1
  Si  Si15  1  0.128098  0.200685  0.316431  1
  Si  Si16  1  0.872766  0.798048  0.816151  1
  Si  Si17  1  0.288648  0.961989  0.064351  1
  Si  Si18  1  0.538338  0.788958  0.314188  1
  Si  Si19  1  0.460448  0.210698  0.813853  1
  Si  Si20  1  0.790035  0.539162  0.685460  1
  Si  Si21  1  0.211243  0.461084  0.186163  1
  Si  Si22  1  0.708702  0.040756  0.564704  1
  Si  Si23  1  0.961830  0.289253  0.936567  1
  Si  Si24  1  0.040577  0.711334  0.435564  1
  W  W25  1  0.332016  0.332153  0.000497  1
  W  W26  1  0.168574  0.831080  0.249201  1
  W  W27  1  0.831580  0.168162  0.749855  1
  W  W28  1  0.667866  0.667175  0.499676  1
  W  W29  1  0.163561  0.000070  0.874893  1
  W  W30  1  0.501146  0.662093  0.123755  1
  W  W31  1  0.498898  0.338919  0.624063  1
  W  W32  1  0.662156  0.498254  0.876160  1
  W  W33  1  0.339832  0.496365  0.375839  1
  W  W34  1  0.837672  0.000448  0.374673  1
  W  W35  1  0.997373  0.162618  0.126687  1
