# generated using pymatgen
data_Y7Ho(TcB6)4
_symmetry_space_group_name_H-M   'P 1'
_cell_length_a   3.69199300
_cell_length_b   9.17577901
_cell_length_c   11.56229201
_cell_angle_alpha   90.00437577
_cell_angle_beta   90.00000000
_cell_angle_gamma   90.00000000
_symmetry_Int_Tables_number   1
_chemical_formula_structural   Y7Ho(TcB6)4
_chemical_formula_sum   'Y7 Ho1 Tc4 B24'
_cell_volume   391.69474615
_cell_formula_units_Z   1
loop_
 _symmetry_equiv_pos_site_id
 _symmetry_equiv_pos_as_xyz
  1  'x, y, z'
loop_
 _atom_site_type_symbol
 _atom_site_label
 _atom_site_symmetry_multiplicity
 _atom_site_fract_x
 _atom_site_fract_y
 _atom_site_fract_z
 _atom_site_occupancy
  Y  Y0  1  0.000000  0.323983  0.414233  1
  Y  Y1  1  0.000000  0.675992  0.585876  1
  Y  Y2  1  0.000000  0.823929  0.085659  1
  Y  Y3  1  0.000000  0.176085  0.914240  1
  Y  Y4  1  0.000000  0.942905  0.369389  1
  Y  Y5  1  0.000000  0.057057  0.630666  1
  Y  Y6  1  0.000000  0.442925  0.130404  1
  Ho  Ho7  1  0.000000  0.557306  0.869179  1
  Tc  Tc8  1  0.000000  0.638833  0.320624  1
  Tc  Tc9  1  0.000000  0.361430  0.679687  1
  Tc  Tc10  1  0.000000  0.138845  0.179350  1
  Tc  Tc11  1  0.000000  0.860720  0.820685  1
  B  B12  1  0.500000  0.553531  0.432846  1
  B  B13  1  0.500000  0.446484  0.567212  1
  B  B14  1  0.500000  0.053546  0.067170  1
  B  B15  1  0.500000  0.946350  0.932764  1
  B  B16  1  0.500000  0.748855  0.418571  1
  B  B17  1  0.500000  0.251160  0.581423  1
  B  B18  1  0.500000  0.248868  0.081417  1
  B  B19  1  0.500000  0.750823  0.918424  1
  B  B20  1  0.500000  0.791856  0.265217  1
  B  B21  1  0.500000  0.208222  0.734808  1
  B  B22  1  0.500000  0.291861  0.234753  1
  B  B23  1  0.500000  0.707918  0.765462  1
  B  B24  1  0.500000  0.631186  0.185701  1
  B  B25  1  0.500000  0.369178  0.814368  1
  B  B26  1  0.500000  0.131197  0.314238  1
  B  B27  1  0.500000  0.868729  0.685839  1
  B  B28  1  0.500000  0.982604  0.211545  1
  B  B29  1  0.500000  0.017295  0.788473  1
  B  B30  1  0.500000  0.482591  0.288437  1
  B  B31  1  0.500000  0.517481  0.711870  1
  B  B32  1  0.500000  0.600430  0.027771  1
  B  B33  1  0.500000  0.399829  0.971677  1
  B  B34  1  0.500000  0.100559  0.471918  1
  B  B35  1  0.500000  0.899437  0.528102  1
