# generated using pymatgen
data_CeErInCuRh
_symmetry_space_group_name_H-M   'P 1'
_cell_length_a   7.63560961
_cell_length_b   7.63560972
_cell_length_c   3.70849000
_cell_angle_alpha   90.00000000
_cell_angle_beta   90.00000000
_cell_angle_gamma   87.48985733
_symmetry_Int_Tables_number   1
_chemical_formula_structural   CeErInCuRh
_chemical_formula_sum   'Ce2 Er2 In2 Cu2 Rh2'
_cell_volume   216.00690664
_cell_formula_units_Z   2
loop_
 _symmetry_equiv_pos_site_id
 _symmetry_equiv_pos_as_xyz
  1  'x, y, z'
loop_
 _atom_site_type_symbol
 _atom_site_label
 _atom_site_symmetry_multiplicity
 _atom_site_fract_x
 _atom_site_fract_y
 _atom_site_fract_z
 _atom_site_occupancy
  Ce  Ce0  1  0.182073  0.317927  0.500000  1
  Ce  Ce1  1  0.817927  0.682073  0.500000  1
  Er  Er2  1  0.669243  0.169243  0.500000  1
  Er  Er3  1  0.330757  0.830757  0.500000  1
  In  In4  1  0.000000  0.000000  0.000000  1
  In  In5  1  0.500000  0.500000  0.000000  1
  Cu  Cu6  1  0.118465  0.618465  0.000000  1
  Cu  Cu7  1  0.881535  0.381535  0.000000  1
  Rh  Rh8  1  0.636005  0.863995  0.000000  1
  Rh  Rh9  1  0.363995  0.136005  0.000000  1
