# generated using pymatgen
data_CaHoTa2(ReB6)2
_symmetry_space_group_name_H-M   'P 1'
_cell_length_a   3.54706600
_cell_length_b   8.93322856
_cell_length_c   11.30062315
_cell_angle_alpha   90.05281567
_cell_angle_beta   90.00000000
_cell_angle_gamma   90.00000000
_symmetry_Int_Tables_number   1
_chemical_formula_structural   CaHoTa2(ReB6)2
_chemical_formula_sum   'Ca2 Ho2 Ta4 Re4 B24'
_cell_volume   358.07988318
_cell_formula_units_Z   2
loop_
 _symmetry_equiv_pos_site_id
 _symmetry_equiv_pos_as_xyz
  1  'x, y, z'
loop_
 _atom_site_type_symbol
 _atom_site_label
 _atom_site_symmetry_multiplicity
 _atom_site_fract_x
 _atom_site_fract_y
 _atom_site_fract_z
 _atom_site_occupancy
  Ca  Ca0  1  0.000000  0.322277  0.413968  1
  Ca  Ca1  1  0.000000  0.677723  0.586032  1
  Ho  Ho2  1  0.000000  0.822371  0.086843  1
  Ho  Ho3  1  0.000000  0.177629  0.913157  1
  Ta  Ta4  1  0.000000  0.946162  0.375612  1
  Ta  Ta5  1  0.000000  0.053838  0.624388  1
  Ta  Ta6  1  0.000000  0.446361  0.125096  1
  Ta  Ta7  1  0.000000  0.553639  0.874904  1
  Re  Re8  1  0.000000  0.645003  0.315135  1
  Re  Re9  1  0.000000  0.354997  0.684865  1
  Re  Re10  1  0.000000  0.142911  0.181525  1
  Re  Re11  1  0.000000  0.857089  0.818475  1
  B  B12  1  0.500000  0.554242  0.433021  1
  B  B13  1  0.500000  0.445758  0.566979  1
  B  B14  1  0.500000  0.054011  0.066503  1
  B  B15  1  0.500000  0.945989  0.933497  1
  B  B16  1  0.500000  0.754658  0.417544  1
  B  B17  1  0.500000  0.245342  0.582456  1
  B  B18  1  0.500000  0.255090  0.082403  1
  B  B19  1  0.500000  0.744910  0.917597  1
  B  B20  1  0.500000  0.797497  0.262585  1
  B  B21  1  0.500000  0.202503  0.737415  1
  B  B22  1  0.500000  0.297404  0.237089  1
  B  B23  1  0.500000  0.702596  0.762911  1
  B  B24  1  0.500000  0.629989  0.181079  1
  B  B25  1  0.500000  0.370011  0.818921  1
  B  B26  1  0.500000  0.130193  0.318798  1
  B  B27  1  0.500000  0.869807  0.681202  1
  B  B28  1  0.500000  0.981920  0.213474  1
  B  B29  1  0.500000  0.018080  0.786526  1
  B  B30  1  0.500000  0.481665  0.286514  1
  B  B31  1  0.500000  0.518335  0.713486  1
  B  B32  1  0.500000  0.599093  0.026017  1
  B  B33  1  0.500000  0.400907  0.973983  1
  B  B34  1  0.500000  0.098565  0.473933  1
  B  B35  1  0.500000  0.901435  0.526067  1
