# generated using pymatgen
data_YEr(P2Ir3)2
_symmetry_space_group_name_H-M   'P 1'
_cell_length_a   3.97342700
_cell_length_b   11.17599000
_cell_length_c   12.79350100
_cell_angle_alpha   89.99786776
_cell_angle_beta   90.00000000
_cell_angle_gamma   90.00000000
_symmetry_Int_Tables_number   1
_chemical_formula_structural   YEr(P2Ir3)2
_chemical_formula_sum   'Y3 Er3 P12 Ir18'
_cell_volume   568.12074818
_cell_formula_units_Z   3
loop_
 _symmetry_equiv_pos_site_id
 _symmetry_equiv_pos_as_xyz
  1  'x, y, z'
loop_
 _atom_site_type_symbol
 _atom_site_label
 _atom_site_symmetry_multiplicity
 _atom_site_fract_x
 _atom_site_fract_y
 _atom_site_fract_z
 _atom_site_occupancy
  Y  Y0  1  0.750000  0.249980  0.477368  1
  Y  Y1  1  0.250000  0.749954  0.522613  1
  Y  Y2  1  0.250000  0.934676  0.795724  1
  Er  Er3  1  0.250000  0.565233  0.795637  1
  Er  Er4  1  0.750000  0.065227  0.204273  1
  Er  Er5  1  0.750000  0.434790  0.204290  1
  P  P6  1  0.250000  0.250024  0.124674  1
  P  P7  1  0.750000  0.749441  0.875498  1
  P  P8  1  0.250000  0.249867  0.640519  1
  P  P9  1  0.750000  0.749990  0.359537  1
  P  P10  1  0.250000  0.434953  0.381831  1
  P  P11  1  0.250000  0.065074  0.381756  1
  P  P12  1  0.750000  0.564924  0.618190  1
  P  P13  1  0.750000  0.934837  0.617789  1
  P  P14  1  0.250000  0.905224  0.106330  1
  P  P15  1  0.250000  0.594791  0.106366  1
  P  P16  1  0.750000  0.095582  0.893777  1
  P  P17  1  0.750000  0.405165  0.893659  1
  Ir  Ir18  1  0.250000  0.250123  0.818863  1
  Ir  Ir19  1  0.750000  0.749965  0.181217  1
  Ir  Ir20  1  0.250000  0.250023  0.300266  1
  Ir  Ir21  1  0.750000  0.749430  0.699501  1
  Ir  Ir22  1  0.750000  0.250094  0.029723  1
  Ir  Ir23  1  0.250000  0.749657  0.970911  1
  Ir  Ir24  1  0.250000  0.413475  0.998788  1
  Ir  Ir25  1  0.250000  0.086691  0.999267  1
  Ir  Ir26  1  0.750000  0.586335  0.001211  1
  Ir  Ir27  1  0.750000  0.913454  0.001466  1
  Ir  Ir28  1  0.250000  0.455123  0.569911  1
  Ir  Ir29  1  0.250000  0.045038  0.569547  1
  Ir  Ir30  1  0.750000  0.544685  0.430044  1
  Ir  Ir31  1  0.750000  0.955262  0.429992  1
  Ir  Ir32  1  0.250000  0.881170  0.285712  1
  Ir  Ir33  1  0.250000  0.618803  0.285755  1
  Ir  Ir34  1  0.750000  0.119692  0.713719  1
  Ir  Ir35  1  0.750000  0.381246  0.714276  1
