# generated using pymatgen
data_Y12Co4AgRh
_symmetry_space_group_name_H-M   'P 1'
_cell_length_a   8.32889469
_cell_length_b   8.32889436
_cell_length_c   8.32889474
_cell_angle_alpha   110.95415603
_cell_angle_beta   110.00844712
_cell_angle_gamma   107.47084031
_symmetry_Int_Tables_number   1
_chemical_formula_structural   Y12Co4AgRh
_chemical_formula_sum   'Y12 Co4 Ag1 Rh1'
_cell_volume   444.33859018
_cell_formula_units_Z   1
loop_
 _symmetry_equiv_pos_site_id
 _symmetry_equiv_pos_as_xyz
  1  'x, y, z'
loop_
 _atom_site_type_symbol
 _atom_site_label
 _atom_site_symmetry_multiplicity
 _atom_site_fract_x
 _atom_site_fract_y
 _atom_site_fract_z
 _atom_site_occupancy
  Y  Y0  1  0.407289  0.211346  0.195943  1
  Y  Y1  1  0.592711  0.788654  0.804057  1
  Y  Y2  1  0.015404  0.211346  0.804057  1
  Y  Y3  1  0.984596  0.788654  0.195943  1
  Y  Y4  1  0.185406  0.292416  0.477821  1
  Y  Y5  1  0.814594  0.707584  0.522179  1
  Y  Y6  1  0.185406  0.707584  0.892991  1
  Y  Y7  1  0.814594  0.292416  0.107009  1
  Y  Y8  1  0.314699  0.618866  0.304169  1
  Y  Y9  1  0.685301  0.381134  0.695831  1
  Y  Y10  1  0.314699  0.010530  0.695831  1
  Y  Y11  1  0.685301  0.989470  0.304169  1
  Co  Co12  1  0.380493  0.000000  0.380493  1
  Co  Co13  1  0.619507  0.000000  0.619507  1
  Co  Co14  1  0.111801  0.611801  0.500000  1
  Co  Co15  1  0.888199  0.388199  0.500000  1
  Ag  Ag16  1  0.500000  0.500000  0.000000  1
  Rh  Rh17  1  0.000000  0.000000  0.000000  1
