# generated using pymatgen
data_Yb3SnHg2Pd2Pt
_symmetry_space_group_name_H-M   'P 1'
_cell_length_a   7.62680028
_cell_length_b   7.64070311
_cell_length_c   3.93478500
_cell_angle_alpha   90.00000000
_cell_angle_beta   90.00000000
_cell_angle_gamma   119.42341604
_symmetry_Int_Tables_number   1
_chemical_formula_structural   Yb3SnHg2Pd2Pt
_chemical_formula_sum   'Yb3 Sn1 Hg2 Pd2 Pt1'
_cell_volume   199.71992713
_cell_formula_units_Z   1
loop_
 _symmetry_equiv_pos_site_id
 _symmetry_equiv_pos_as_xyz
  1  'x, y, z'
loop_
 _atom_site_type_symbol
 _atom_site_label
 _atom_site_symmetry_multiplicity
 _atom_site_fract_x
 _atom_site_fract_y
 _atom_site_fract_z
 _atom_site_occupancy
  Yb  Yb0  1  0.398319  0.412527  0.000000  1
  Yb  Yb1  1  0.604836  0.994033  0.000000  1
  Yb  Yb2  1  0.998545  0.594029  0.000000  1
  Sn  Sn3  1  0.266045  0.004712  0.500000  1
  Hg  Hg4  1  0.997040  0.264168  0.500000  1
  Hg  Hg5  1  0.735695  0.732212  0.500000  1
  Pd  Pd6  1  0.649666  0.319804  0.500000  1
  Pd  Pd7  1  0.021805  0.998606  0.000000  1
  Pt  Pt8  1  0.328049  0.679909  0.500000  1
