# generated using pymatgen
data_Tb5Tc5(P6Ir7)2
_symmetry_space_group_name_H-M   'P 1'
_cell_length_a   12.64542601
_cell_length_b   12.74085336
_cell_length_c   3.98881800
_cell_angle_alpha   90.00000000
_cell_angle_beta   90.00000000
_cell_angle_gamma   120.14173669
_symmetry_Int_Tables_number   1
_chemical_formula_structural   Tb5Tc5(P6Ir7)2
_chemical_formula_sum   'Tb5 Tc5 P12 Ir14'
_cell_volume   555.75680301
_cell_formula_units_Z   1
loop_
 _symmetry_equiv_pos_site_id
 _symmetry_equiv_pos_as_xyz
  1  'x, y, z'
loop_
 _atom_site_type_symbol
 _atom_site_label
 _atom_site_symmetry_multiplicity
 _atom_site_fract_x
 _atom_site_fract_y
 _atom_site_fract_z
 _atom_site_occupancy
  Tb  Tb0  1  0.334289  0.667962  0.500000  1
  Tb  Tb1  1  0.666611  0.333422  0.500000  1
  Tb  Tb2  1  0.999442  0.811031  0.000000  1
  Tb  Tb3  1  0.186593  0.185089  0.000000  1
  Tb  Tb4  1  0.810758  0.998568  0.000000  1
  Tc  Tc5  1  0.996704  0.450210  0.500000  1
  Tc  Tc6  1  0.548444  0.544879  0.500000  1
  Tc  Tc7  1  0.456873  0.009006  0.500000  1
  Tc  Tc8  1  0.620609  0.799130  0.500000  1
  Tc  Tc9  1  0.201289  0.822025  0.500000  1
  P  P10  1  0.006418  0.639605  0.500000  1
  P  P11  1  0.363821  0.365011  0.500000  1
  P  P12  1  0.632889  0.993580  0.500000  1
  P  P13  1  0.520384  0.693879  0.000000  1
  P  P14  1  0.308133  0.829996  0.000000  1
  P  P15  1  0.169729  0.483106  0.000000  1
  P  P16  1  0.483200  0.169401  0.000000  1
  P  P17  1  0.686038  0.516717  0.000000  1
  P  P18  1  0.832413  0.314736  0.000000  1
  P  P19  1  0.998980  0.176638  0.500000  1
  P  P20  1  0.817023  0.820195  0.500000  1
  P  P21  1  0.177442  0.993874  0.500000  1
  Ir  Ir22  1  0.508103  0.874872  0.000000  1
  Ir  Ir23  1  0.127450  0.635937  0.000000  1
  Ir  Ir24  1  0.361848  0.493722  0.000000  1
  Ir  Ir25  1  0.490615  0.359179  0.000000  1
  Ir  Ir26  1  0.866302  0.506641  0.000000  1
  Ir  Ir27  1  0.643185  0.136165  0.000000  1
  Ir  Ir28  1  0.000282  0.285688  0.000000  1
  Ir  Ir29  1  0.716140  0.710873  0.000000  1
  Ir  Ir30  1  0.287494  0.005144  0.000000  1
  Ir  Ir31  1  0.179921  0.375265  0.500000  1
  Ir  Ir32  1  0.374305  0.183591  0.500000  1
  Ir  Ir33  1  0.807212  0.622604  0.500000  1
  Ir  Ir34  1  0.819423  0.192992  0.500000  1
  Ir  Ir35  1  0.999638  0.999266  0.500000  1
