# generated using pymatgen
data_Na7Ga3O8
_symmetry_space_group_name_H-M   'P 1'
_cell_length_a   6.04480827
_cell_length_b   8.26565350
_cell_length_c   11.41980745
_cell_angle_alpha   68.66251721
_cell_angle_beta   78.39886456
_cell_angle_gamma   70.88276931
_symmetry_Int_Tables_number   1
_chemical_formula_structural   Na7Ga3O8
_chemical_formula_sum   'Na14 Ga6 O16'
_cell_volume   499.97988420
_cell_formula_units_Z   2
loop_
 _symmetry_equiv_pos_site_id
 _symmetry_equiv_pos_as_xyz
  1  'x, y, z'
loop_
 _atom_site_type_symbol
 _atom_site_label
 _atom_site_symmetry_multiplicity
 _atom_site_fract_x
 _atom_site_fract_y
 _atom_site_fract_z
 _atom_site_occupancy
  Na  Na0  1  0.504640  0.438401  0.278386  1
  Na  Na1  1  0.495361  0.561598  0.721614  1
  Na  Na2  1  0.863859  0.221710  0.664336  1
  Na  Na3  1  0.136140  0.778291  0.335665  1
  Na  Na4  1  0.377774  0.357339  0.564369  1
  Na  Na5  1  0.622226  0.642661  0.435631  1
  Na  Na6  1  0.718395  0.069013  0.465538  1
  Na  Na7  1  0.281605  0.930987  0.534461  1
  Na  Na8  1  0.303478  0.863545  0.048854  1
  Na  Na9  1  0.696520  0.136455  0.951146  1
  Na  Na10  1  0.271676  0.451497  0.049447  1
  Na  Na11  1  0.728322  0.548504  0.950554  1
  Na  Na12  1  0.544757  0.935793  0.777730  1
  Na  Na13  1  0.455243  0.064207  0.222270  1
  Ga  Ga14  1  0.818308  0.738376  0.151078  1
  Ga  Ga15  1  0.040558  0.314285  0.360496  1
  Ga  Ga16  1  0.959443  0.685715  0.639504  1
  Ga  Ga17  1  0.064641  0.842713  0.850158  1
  Ga  Ga18  1  0.935359  0.157287  0.149842  1
  Ga  Ga19  1  0.181692  0.261624  0.848922  1
  O  O20  1  0.058888  0.530709  0.223236  1
  O  O21  1  0.680738  0.778353  0.565221  1
  O  O22  1  0.812162  0.790737  0.974420  1
  O  O23  1  0.187838  0.209264  0.025580  1
  O  O24  1  0.083395  0.073746  0.836832  1
  O  O25  1  0.916605  0.926254  0.163169  1
  O  O26  1  0.761212  0.343552  0.461181  1
  O  O27  1  0.238788  0.656448  0.538819  1
  O  O28  1  0.516643  0.752144  0.225783  1
  O  O29  1  0.483357  0.247856  0.774217  1
  O  O30  1  0.642346  0.306841  0.112685  1
  O  O31  1  0.319262  0.221647  0.434779  1
  O  O32  1  0.357654  0.693159  0.887315  1
  O  O33  1  0.048387  0.117241  0.302015  1
  O  O34  1  0.951613  0.882759  0.697985  1
  O  O35  1  0.941110  0.469291  0.776764  1
