# generated using pymatgen
data_Na5IrO6
_symmetry_space_group_name_H-M   'P 1'
_cell_length_a   5.71977765
_cell_length_b   5.71977736
_cell_length_c   5.66975421
_cell_angle_alpha   79.61506293
_cell_angle_beta   79.61506870
_cell_angle_gamma   119.44895394
_symmetry_Int_Tables_number   1
_chemical_formula_structural   Na5IrO6
_chemical_formula_sum   'Na5 Ir1 O6'
_cell_volume   150.84678390
_cell_formula_units_Z   1
loop_
 _symmetry_equiv_pos_site_id
 _symmetry_equiv_pos_as_xyz
  1  'x, y, z'
loop_
 _atom_site_type_symbol
 _atom_site_label
 _atom_site_symmetry_multiplicity
 _atom_site_fract_x
 _atom_site_fract_y
 _atom_site_fract_z
 _atom_site_occupancy
  Na  Na0  1  0.833199  0.166801  0.000000  1
  Na  Na1  1  0.166801  0.833199  0.000000  1
  Na  Na2  1  0.671375  0.328625  0.500000  1
  Na  Na3  1  0.328625  0.671375  0.500000  1
  Na  Na4  1  0.000000  0.000000  0.500000  1
  Ir  Ir5  1  0.500000  0.500000  0.000000  1
  O  O6  1  0.429285  0.149487  0.217203  1
  O  O7  1  0.570715  0.850513  0.782797  1
  O  O8  1  0.850513  0.570715  0.782797  1
  O  O9  1  0.149487  0.429285  0.217203  1
  O  O10  1  0.704604  0.704604  0.205168  1
  O  O11  1  0.295396  0.295396  0.794832  1
