# generated using pymatgen
data_Tb2Er7Lu7(Ga3Co)2
_symmetry_space_group_name_H-M   'P 1'
_cell_length_a   9.85779500
_cell_length_b   9.85786134
_cell_length_c   6.93165600
_cell_angle_alpha   90.00087898
_cell_angle_beta   89.99976803
_cell_angle_gamma   120.00024813
_symmetry_Int_Tables_number   1
_chemical_formula_structural   Tb2Er7Lu7(Ga3Co)2
_chemical_formula_sum   'Tb2 Er7 Lu7 Ga6 Co2'
_cell_volume   583.34977530
_cell_formula_units_Z   1
loop_
 _symmetry_equiv_pos_site_id
 _symmetry_equiv_pos_as_xyz
  1  'x, y, z'
loop_
 _atom_site_type_symbol
 _atom_site_label
 _atom_site_symmetry_multiplicity
 _atom_site_fract_x
 _atom_site_fract_y
 _atom_site_fract_z
 _atom_site_occupancy
  Tb  Tb0  1  0.999999  0.999996  0.768357  1
  Tb  Tb1  1  0.999995  0.999996  0.268788  1
  Er  Er2  1  0.333326  0.666662  0.673351  1
  Er  Er3  1  0.537073  0.074126  0.792674  1
  Er  Er4  1  0.925859  0.462932  0.792692  1
  Er  Er5  1  0.537077  0.462931  0.792699  1
  Er  Er6  1  0.463220  0.926444  0.292265  1
  Er  Er7  1  0.073572  0.536795  0.292263  1
  Er  Er8  1  0.463221  0.536793  0.292248  1
  Lu  Lu9  1  0.825206  0.650416  0.487737  1
  Lu  Lu10  1  0.349592  0.174798  0.487727  1
  Lu  Lu11  1  0.825190  0.174794  0.487732  1
  Lu  Lu12  1  0.174505  0.349026  0.988300  1
  Lu  Lu13  1  0.650954  0.825478  0.988309  1
  Lu  Lu14  1  0.174536  0.825482  0.988293  1
  Lu  Lu15  1  0.666680  0.333325  0.174838  1
  Ga  Ga16  1  0.836112  0.672245  0.041404  1
  Ga  Ga17  1  0.327746  0.163872  0.041442  1
  Ga  Ga18  1  0.836126  0.163869  0.041418  1
  Ga  Ga19  1  0.163478  0.326953  0.540975  1
  Ga  Ga20  1  0.673051  0.836535  0.540976  1
  Ga  Ga21  1  0.163477  0.836532  0.540984  1
  Co  Co22  1  0.666668  0.333334  0.555350  1
  Co  Co23  1  0.333334  0.666668  0.055245  1
