# generated using pymatgen
data_Dy2AlSi4Rh3
_symmetry_space_group_name_H-M   'P 1'
_cell_length_a   8.33237538
_cell_length_b   8.33237495
_cell_length_c   8.16851829
_cell_angle_alpha   139.79863731
_cell_angle_beta   106.22193250
_cell_angle_gamma   88.70351694
_symmetry_Int_Tables_number   1
_chemical_formula_structural   Dy2AlSi4Rh3
_chemical_formula_sum   'Dy4 Al2 Si8 Rh6'
_cell_volume   334.43290720
_cell_formula_units_Z   2
loop_
 _symmetry_equiv_pos_site_id
 _symmetry_equiv_pos_as_xyz
  1  'x, y, z'
loop_
 _atom_site_type_symbol
 _atom_site_label
 _atom_site_symmetry_multiplicity
 _atom_site_fract_x
 _atom_site_fract_y
 _atom_site_fract_z
 _atom_site_occupancy
  Dy  Dy0  1  0.632757  0.875567  0.774988  1
  Dy  Dy1  1  0.367243  0.124433  0.225012  1
  Dy  Dy2  1  0.100579  0.357770  0.725012  1
  Dy  Dy3  1  0.899421  0.642230  0.274988  1
  Al  Al4  1  0.273938  0.023938  0.750000  1
  Al  Al5  1  0.726062  0.976062  0.250000  1
  Si  Si6  1  0.711997  0.461997  0.750000  1
  Si  Si7  1  0.288003  0.538003  0.250000  1
  Si  Si8  1  0.439569  0.601630  0.835598  1
  Si  Si9  1  0.560431  0.398370  0.164402  1
  Si  Si10  1  0.766033  0.103971  0.664402  1
  Si  Si11  1  0.233967  0.896029  0.335598  1
  Si  Si12  1  0.016939  0.766939  0.750000  1
  Si  Si13  1  0.983061  0.233061  0.250000  1
  Rh  Rh14  1  0.237500  0.598724  0.563908  1
  Rh  Rh15  1  0.762500  0.401276  0.436092  1
  Rh  Rh16  1  0.034817  0.173592  0.936092  1
  Rh  Rh17  1  0.965183  0.826408  0.063908  1
  Rh  Rh18  1  0.494279  0.744279  0.250000  1
  Rh  Rh19  1  0.505721  0.255721  0.750000  1
