# generated using pymatgen
data_CaSmCo6(SiB)2
_symmetry_space_group_name_H-M   'P 1'
_cell_length_a   5.20588900
_cell_length_b   5.20532960
_cell_length_c   6.43166700
_cell_angle_alpha   90.00000000
_cell_angle_beta   90.00000000
_cell_angle_gamma   120.00859950
_symmetry_Int_Tables_number   1
_chemical_formula_structural   CaSmCo6(SiB)2
_chemical_formula_sum   'Ca1 Sm1 Co6 Si2 B2'
_cell_volume   150.92447749
_cell_formula_units_Z   1
loop_
 _symmetry_equiv_pos_site_id
 _symmetry_equiv_pos_as_xyz
  1  'x, y, z'
loop_
 _atom_site_type_symbol
 _atom_site_label
 _atom_site_symmetry_multiplicity
 _atom_site_fract_x
 _atom_site_fract_y
 _atom_site_fract_z
 _atom_site_occupancy
  Ca  Ca0  1  0.999981  0.999999  0.000000  1
  Sm  Sm1  1  0.999984  0.000000  0.500000  1
  Co  Co2  1  0.499984  0.000000  0.284390  1
  Co  Co3  1  0.499984  0.500000  0.284331  1
  Co  Co4  1  0.999983  0.500000  0.284344  1
  Co  Co5  1  0.499984  0.000000  0.715610  1
  Co  Co6  1  0.499984  0.500000  0.715668  1
  Co  Co7  1  0.999983  0.500000  0.715655  1
  Si  Si8  1  0.333374  0.666812  0.000000  1
  Si  Si9  1  0.666591  0.333187  0.000000  1
  B  B10  1  0.333303  0.666637  0.500000  1
  B  B11  1  0.666663  0.333364  0.500000  1
