# generated using pymatgen
data_Sm3Mg3SnPbAu
_symmetry_space_group_name_H-M   'P 1'
_cell_length_a   7.67056900
_cell_length_b   7.67056908
_cell_length_c   4.54627800
_cell_angle_alpha   90.00000000
_cell_angle_beta   90.00000000
_cell_angle_gamma   119.99999533
_symmetry_Int_Tables_number   1
_chemical_formula_structural   Sm3Mg3SnPbAu
_chemical_formula_sum   'Sm3 Mg3 Sn1 Pb1 Au1'
_cell_volume   231.65506892
_cell_formula_units_Z   1
loop_
 _symmetry_equiv_pos_site_id
 _symmetry_equiv_pos_as_xyz
  1  'x, y, z'
loop_
 _atom_site_type_symbol
 _atom_site_label
 _atom_site_symmetry_multiplicity
 _atom_site_fract_x
 _atom_site_fract_y
 _atom_site_fract_z
 _atom_site_occupancy
  Sm  Sm0  1  0.597246  0.002614  0.000000  1
  Sm  Sm1  1  0.997386  0.594631  0.000000  1
  Sm  Sm2  1  0.405369  0.402754  0.000000  1
  Mg  Mg3  1  0.235766  0.001891  0.500000  1
  Mg  Mg4  1  0.998109  0.233875  0.500000  1
  Mg  Mg5  1  0.766125  0.764234  0.500000  1
  Sn  Sn6  1  0.666667  0.333333  0.500000  1
  Pb  Pb7  1  0.333333  0.666667  0.500000  1
  Au  Au8  1  0.000000  0.000000  0.000000  1
