# generated using pymatgen
data_NdZrReB6
_symmetry_space_group_name_H-M   'P 1'
_cell_length_a   3.66028600
_cell_length_b   9.12750700
_cell_length_c   11.58247100
_cell_angle_alpha   90.00000000
_cell_angle_beta   90.00000000
_cell_angle_gamma   90.00000000
_symmetry_Int_Tables_number   1
_chemical_formula_structural   NdZrReB6
_chemical_formula_sum   'Nd4 Zr4 Re4 B24'
_cell_volume   386.96208723
_cell_formula_units_Z   4
loop_
 _symmetry_equiv_pos_site_id
 _symmetry_equiv_pos_as_xyz
  1  'x, y, z'
loop_
 _atom_site_type_symbol
 _atom_site_label
 _atom_site_symmetry_multiplicity
 _atom_site_fract_x
 _atom_site_fract_y
 _atom_site_fract_z
 _atom_site_occupancy
  Nd  Nd0  1  0.000000  0.322902  0.414848  1
  Nd  Nd1  1  0.000000  0.677098  0.585152  1
  Nd  Nd2  1  0.000000  0.822902  0.085152  1
  Nd  Nd3  1  0.000000  0.177098  0.914848  1
  Zr  Zr4  1  0.000000  0.945187  0.372109  1
  Zr  Zr5  1  0.000000  0.054813  0.627891  1
  Zr  Zr6  1  0.000000  0.445187  0.127891  1
  Zr  Zr7  1  0.000000  0.554813  0.872109  1
  Re  Re8  1  0.000000  0.641289  0.316712  1
  Re  Re9  1  0.000000  0.358711  0.683288  1
  Re  Re10  1  0.000000  0.141289  0.183288  1
  Re  Re11  1  0.000000  0.858711  0.816712  1
  B  B12  1  0.500000  0.556138  0.430564  1
  B  B13  1  0.500000  0.443862  0.569436  1
  B  B14  1  0.500000  0.056138  0.069436  1
  B  B15  1  0.500000  0.943862  0.930564  1
  B  B16  1  0.500000  0.752731  0.415655  1
  B  B17  1  0.500000  0.247269  0.584345  1
  B  B18  1  0.500000  0.252731  0.084345  1
  B  B19  1  0.500000  0.747269  0.915655  1
  B  B20  1  0.500000  0.794258  0.264974  1
  B  B21  1  0.500000  0.205742  0.735026  1
  B  B22  1  0.500000  0.294258  0.235026  1
  B  B23  1  0.500000  0.705742  0.764974  1
  B  B24  1  0.500000  0.629765  0.183829  1
  B  B25  1  0.500000  0.370235  0.816171  1
  B  B26  1  0.500000  0.129765  0.316171  1
  B  B27  1  0.500000  0.870235  0.683829  1
  B  B28  1  0.500000  0.983722  0.214655  1
  B  B29  1  0.500000  0.016278  0.785345  1
  B  B30  1  0.500000  0.483722  0.285345  1
  B  B31  1  0.500000  0.516278  0.714655  1
  B  B32  1  0.500000  0.598363  0.025961  1
  B  B33  1  0.500000  0.401637  0.974039  1
  B  B34  1  0.500000  0.098363  0.474039  1
  B  B35  1  0.500000  0.901637  0.525961  1
