# generated using pymatgen
data_Nd(GdS4)2
_symmetry_space_group_name_H-M   'P 1'
_cell_length_a   11.89907750
_cell_length_b   11.64434488
_cell_length_c   24.03116003
_cell_angle_alpha   93.53044543
_cell_angle_beta   91.53332991
_cell_angle_gamma   76.14038795
_symmetry_Int_Tables_number   1
_chemical_formula_structural   Nd(GdS4)2
_chemical_formula_sum   'Nd1 Gd2 S8'
_cell_volume   3226.35992927
_cell_formula_units_Z   1
loop_
 _symmetry_equiv_pos_site_id
 _symmetry_equiv_pos_as_xyz
  1  'x, y, z'
loop_
 _atom_site_type_symbol
 _atom_site_label
 _atom_site_symmetry_multiplicity
 _atom_site_fract_x
 _atom_site_fract_y
 _atom_site_fract_z
 _atom_site_occupancy
  Nd  Nd0  1  0.305543  0.493887  0.099266  1
  Gd  Gd1  1  0.855250  0.463213  0.437096  1
  Gd  Gd2  1  0.145038  0.449468  0.764937  1
  S  S3  1  0.898953  0.698919  0.926444  1
  S  S4  1  0.262879  0.047143  0.026825  1
  S  S5  1  0.872433  0.188718  0.668198  1
  S  S6  1  0.622354  0.013645  0.051082  1
  S  S7  1  0.816576  0.510183  0.150856  1
  S  S8  1  0.081653  0.832939  0.434219  1
  S  S9  1  0.348178  0.873312  0.720607  1
  S  S10  1  0.726797  0.832787  0.680616  1
