# generated using pymatgen
data_Lu4MgSn4
_symmetry_space_group_name_H-M   'P 1'
_cell_length_a   7.55469700
_cell_length_b   8.09630300
_cell_length_c   15.01772000
_cell_angle_alpha   90.00000000
_cell_angle_beta   90.00000000
_cell_angle_gamma   90.00000000
_symmetry_Int_Tables_number   1
_chemical_formula_structural   Lu4MgSn4
_chemical_formula_sum   'Lu16 Mg4 Sn16'
_cell_volume   918.56058563
_cell_formula_units_Z   4
loop_
 _symmetry_equiv_pos_site_id
 _symmetry_equiv_pos_as_xyz
  1  'x, y, z'
loop_
 _atom_site_type_symbol
 _atom_site_label
 _atom_site_symmetry_multiplicity
 _atom_site_fract_x
 _atom_site_fract_y
 _atom_site_fract_z
 _atom_site_occupancy
  Lu  Lu0  1  0.336173  0.166501  0.628647  1
  Lu  Lu1  1  0.663827  0.833499  0.371353  1
  Lu  Lu2  1  0.163827  0.666501  0.371353  1
  Lu  Lu3  1  0.663827  0.833499  0.128647  1
  Lu  Lu4  1  0.836173  0.333499  0.628647  1
  Lu  Lu5  1  0.336173  0.166501  0.871353  1
  Lu  Lu6  1  0.836173  0.333499  0.871353  1
  Lu  Lu7  1  0.163827  0.666501  0.128647  1
  Lu  Lu8  1  0.995371  0.185371  0.089450  1
  Lu  Lu9  1  0.004629  0.814629  0.910550  1
  Lu  Lu10  1  0.504629  0.685371  0.910550  1
  Lu  Lu11  1  0.004629  0.814629  0.589450  1
  Lu  Lu12  1  0.495371  0.314629  0.089450  1
  Lu  Lu13  1  0.995371  0.185371  0.410550  1
  Lu  Lu14  1  0.495371  0.314629  0.410550  1
  Lu  Lu15  1  0.504629  0.685371  0.589450  1
  Mg  Mg16  1  0.158977  0.500189  0.750000  1
  Mg  Mg17  1  0.841023  0.499811  0.250000  1
  Mg  Mg18  1  0.341023  0.000189  0.250000  1
  Mg  Mg19  1  0.658977  0.999811  0.750000  1
  Sn  Sn20  1  0.023000  0.093124  0.750000  1
  Sn  Sn21  1  0.977000  0.906876  0.250000  1
  Sn  Sn22  1  0.477000  0.593124  0.250000  1
  Sn  Sn23  1  0.523000  0.406876  0.750000  1
  Sn  Sn24  1  0.185016  0.461776  0.538642  1
  Sn  Sn25  1  0.814984  0.538224  0.461358  1
  Sn  Sn26  1  0.314984  0.961776  0.461358  1
  Sn  Sn27  1  0.814984  0.538224  0.038642  1
  Sn  Sn28  1  0.685016  0.038224  0.538642  1
  Sn  Sn29  1  0.185016  0.461776  0.961358  1
  Sn  Sn30  1  0.685016  0.038224  0.961358  1
  Sn  Sn31  1  0.314984  0.961776  0.038642  1
  Sn  Sn32  1  0.305694  0.842078  0.750000  1
  Sn  Sn33  1  0.694306  0.157922  0.250000  1
  Sn  Sn34  1  0.194306  0.342078  0.250000  1
  Sn  Sn35  1  0.805694  0.657922  0.750000  1
