# generated using pymatgen
data_DyLu2Al3SiAu2
_symmetry_space_group_name_H-M   'P 1'
_cell_length_a   6.94865723
_cell_length_b   6.97316889
_cell_length_c   4.27731400
_cell_angle_alpha   90.00000000
_cell_angle_beta   90.00000000
_cell_angle_gamma   120.28717876
_symmetry_Int_Tables_number   1
_chemical_formula_structural   DyLu2Al3SiAu2
_chemical_formula_sum   'Dy1 Lu2 Al3 Si1 Au2'
_cell_volume   178.96528132
_cell_formula_units_Z   1
loop_
 _symmetry_equiv_pos_site_id
 _symmetry_equiv_pos_as_xyz
  1  'x, y, z'
loop_
 _atom_site_type_symbol
 _atom_site_label
 _atom_site_symmetry_multiplicity
 _atom_site_fract_x
 _atom_site_fract_y
 _atom_site_fract_z
 _atom_site_occupancy
  Dy  Dy0  1  0.425988  0.422295  0.500000  1
  Lu  Lu1  1  0.578358  0.002193  0.500000  1
  Lu  Lu2  1  0.999519  0.577256  0.500000  1
  Al  Al3  1  0.752295  0.757930  0.000000  1
  Al  Al4  1  0.243283  0.994687  0.000000  1
  Al  Al5  1  0.004288  0.248230  0.000000  1
  Si  Si6  1  0.668342  0.331830  0.000000  1
  Au  Au7  1  0.331789  0.669649  0.000000  1
  Au  Au8  1  0.996137  0.995931  0.500000  1
