# generated using pymatgen
data_V11CoSi3As
_symmetry_space_group_name_H-M   'P 1'
_cell_length_a   4.68956800
_cell_length_b   4.68684200
_cell_length_c   9.34325500
_cell_angle_alpha   90.00000000
_cell_angle_beta   90.00000000
_cell_angle_gamma   90.00000000
_symmetry_Int_Tables_number   1
_chemical_formula_structural   V11CoSi3As
_chemical_formula_sum   'V11 Co1 Si3 As1'
_cell_volume   205.35787073
_cell_formula_units_Z   1
loop_
 _symmetry_equiv_pos_site_id
 _symmetry_equiv_pos_as_xyz
  1  'x, y, z'
loop_
 _atom_site_type_symbol
 _atom_site_label
 _atom_site_symmetry_multiplicity
 _atom_site_fract_x
 _atom_site_fract_y
 _atom_site_fract_z
 _atom_site_occupancy
  V  V0  1  0.002624  0.500000  0.130481  1
  V  V1  1  0.000448  0.500000  0.622125  1
  V  V2  1  0.498524  0.248747  0.745836  1
  V  V3  1  0.498524  0.248747  0.254164  1
  V  V4  1  0.757241  0.000000  0.000000  1
  V  V5  1  0.002624  0.500000  0.869519  1
  V  V6  1  0.000448  0.500000  0.377875  1
  V  V7  1  0.498524  0.751253  0.745836  1
  V  V8  1  0.498524  0.751253  0.254164  1
  V  V9  1  0.247147  0.000000  0.000000  1
  V  V10  1  0.245788  0.000000  0.500000  1
  Co  Co11  1  0.746989  0.000000  0.500000  1
  Si  Si12  1  0.499392  0.500000  0.500000  1
  Si  Si13  1  0.001924  0.000000  0.749988  1
  Si  Si14  1  0.001924  0.000000  0.250012  1
  As  As15  1  0.499354  0.500000  0.000000  1
