# generated using pymatgen
data_Zr2Sc(AlCu)3
_symmetry_space_group_name_H-M   'P 1'
_cell_length_a   6.57911365
_cell_length_b   6.64535694
_cell_length_c   3.99632700
_cell_angle_alpha   90.00000000
_cell_angle_beta   90.00000000
_cell_angle_gamma   120.33362703
_symmetry_Int_Tables_number   1
_chemical_formula_structural   Zr2Sc(AlCu)3
_chemical_formula_sum   'Zr2 Sc1 Al3 Cu3'
_cell_volume   150.80213155
_cell_formula_units_Z   1
loop_
 _symmetry_equiv_pos_site_id
 _symmetry_equiv_pos_as_xyz
  1  'x, y, z'
loop_
 _atom_site_type_symbol
 _atom_site_label
 _atom_site_symmetry_multiplicity
 _atom_site_fract_x
 _atom_site_fract_y
 _atom_site_fract_z
 _atom_site_occupancy
  Zr  Zr0  1  0.581446  0.582135  0.500000  1
  Zr  Zr1  1  0.418554  0.000688  0.500000  1
  Sc  Sc2  1  0.000000  0.418651  0.500000  1
  Al  Al3  1  0.000000  0.757524  0.000000  1
  Al  Al4  1  0.249217  0.245109  0.000000  1
  Al  Al5  1  0.750783  0.995892  0.000000  1
  Cu  Cu6  1  0.000000  0.005212  0.500000  1
  Cu  Cu7  1  0.329151  0.661971  0.000000  1
  Cu  Cu8  1  0.670849  0.332819  0.000000  1
