# generated using pymatgen
data_Li(TiPt4)3
_symmetry_space_group_name_H-M   'P 1'
_cell_length_a   5.56836000
_cell_length_b   5.56835981
_cell_length_c   9.07641300
_cell_angle_alpha   90.00000000
_cell_angle_beta   90.00000000
_cell_angle_gamma   120.00000112
_symmetry_Int_Tables_number   1
_chemical_formula_structural   Li(TiPt4)3
_chemical_formula_sum   'Li1 Ti3 Pt12'
_cell_volume   243.72465901
_cell_formula_units_Z   1
loop_
 _symmetry_equiv_pos_site_id
 _symmetry_equiv_pos_as_xyz
  1  'x, y, z'
loop_
 _atom_site_type_symbol
 _atom_site_label
 _atom_site_symmetry_multiplicity
 _atom_site_fract_x
 _atom_site_fract_y
 _atom_site_fract_z
 _atom_site_occupancy
  Li  Li0  1  0.333333  0.666667  0.250000  1
  Ti  Ti1  1  0.000000  0.000000  0.493975  1
  Ti  Ti2  1  0.000000  0.000000  0.006025  1
  Ti  Ti3  1  0.666667  0.333333  0.750000  1
  Pt  Pt4  1  0.500876  0.499124  0.501293  1
  Pt  Pt5  1  0.500876  0.001752  0.501293  1
  Pt  Pt6  1  0.998248  0.499124  0.501293  1
  Pt  Pt7  1  0.500876  0.499124  0.998707  1
  Pt  Pt8  1  0.500876  0.001752  0.998707  1
  Pt  Pt9  1  0.998248  0.499124  0.998707  1
  Pt  Pt10  1  0.831993  0.663987  0.250000  1
  Pt  Pt11  1  0.336013  0.168007  0.250000  1
  Pt  Pt12  1  0.831993  0.168007  0.250000  1
  Pt  Pt13  1  0.167526  0.335052  0.750000  1
  Pt  Pt14  1  0.664948  0.832474  0.750000  1
  Pt  Pt15  1  0.167526  0.832474  0.750000  1
