# generated using pymatgen
data_Sc4Co16Si9P3Ru4
_symmetry_space_group_name_H-M   'P 1'
_cell_length_a   3.67311500
_cell_length_b   10.34429425
_cell_length_c   11.80296041
_cell_angle_alpha   89.94382523
_cell_angle_beta   90.00000000
_cell_angle_gamma   90.00000000
_symmetry_Int_Tables_number   1
_chemical_formula_structural   Sc4Co16Si9P3Ru4
_chemical_formula_sum   'Sc4 Co16 Si9 P3 Ru4'
_cell_volume   448.46249957
_cell_formula_units_Z   1
loop_
 _symmetry_equiv_pos_site_id
 _symmetry_equiv_pos_as_xyz
  1  'x, y, z'
loop_
 _atom_site_type_symbol
 _atom_site_label
 _atom_site_symmetry_multiplicity
 _atom_site_fract_x
 _atom_site_fract_y
 _atom_site_fract_z
 _atom_site_occupancy
  Sc  Sc0  1  0.250000  0.578574  0.701419  1
  Sc  Sc1  1  0.250000  0.919920  0.203823  1
  Sc  Sc2  1  0.750000  0.420490  0.295885  1
  Sc  Sc3  1  0.750000  0.078813  0.797201  1
  Co  Co4  1  0.250000  0.407575  0.490505  1
  Co  Co5  1  0.250000  0.088049  0.987845  1
  Co  Co6  1  0.750000  0.588458  0.514750  1
  Co  Co7  1  0.750000  0.911807  0.012551  1
  Co  Co8  1  0.250000  0.211264  0.172050  1
  Co  Co9  1  0.250000  0.287174  0.673500  1
  Co  Co10  1  0.750000  0.789193  0.827841  1
  Co  Co11  1  0.750000  0.713683  0.326659  1
  Co  Co12  1  0.250000  0.886625  0.705114  1
  Co  Co13  1  0.250000  0.615282  0.200411  1
  Co  Co14  1  0.750000  0.113886  0.295750  1
  Co  Co15  1  0.750000  0.385703  0.795135  1
  Co  Co16  1  0.250000  0.466801  0.929264  1
  Co  Co17  1  0.250000  0.033617  0.430612  1
  Co  Co18  1  0.750000  0.532628  0.067732  1
  Co  Co19  1  0.750000  0.968427  0.570748  1
  Si  Si20  1  0.250000  0.416784  0.115299  1
  Si  Si21  1  0.250000  0.083519  0.616369  1
  Si  Si22  1  0.750000  0.583790  0.882775  1
  Si  Si23  1  0.750000  0.916549  0.385231  1
  Si  Si24  1  0.250000  0.265083  0.864153  1
  Si  Si25  1  0.250000  0.234889  0.363709  1
  Si  Si26  1  0.750000  0.733886  0.135725  1
  Si  Si27  1  0.750000  0.766010  0.636280  1
  Si  Si28  1  0.250000  0.595472  0.390916  1
  P  P29  1  0.250000  0.905034  0.890116  1
  P  P30  1  0.750000  0.403868  0.609484  1
  P  P31  1  0.750000  0.095012  0.110341  1
  Ru  Ru32  1  0.250000  0.711190  0.989399  1
  Ru  Ru33  1  0.250000  0.792317  0.492982  1
  Ru  Ru34  1  0.750000  0.288352  0.009038  1
  Ru  Ru35  1  0.750000  0.210276  0.509390  1
