# generated using pymatgen
data_Ho5Lu3Tc3B24Rh
_symmetry_space_group_name_H-M   'P 1'
_cell_length_a   3.64549500
_cell_length_b   9.09622048
_cell_length_c   11.47768426
_cell_angle_alpha   90.09686578
_cell_angle_beta   90.00000000
_cell_angle_gamma   90.00000000
_symmetry_Int_Tables_number   1
_chemical_formula_structural   Ho5Lu3Tc3B24Rh
_chemical_formula_sum   'Ho5 Lu3 Tc3 B24 Rh1'
_cell_volume   380.60206338
_cell_formula_units_Z   1
loop_
 _symmetry_equiv_pos_site_id
 _symmetry_equiv_pos_as_xyz
  1  'x, y, z'
loop_
 _atom_site_type_symbol
 _atom_site_label
 _atom_site_symmetry_multiplicity
 _atom_site_fract_x
 _atom_site_fract_y
 _atom_site_fract_z
 _atom_site_occupancy
  Ho  Ho0  1  0.500000  0.317587  0.416252  1
  Ho  Ho1  1  0.500000  0.678731  0.590986  1
  Ho  Ho2  1  0.500000  0.177577  0.912500  1
  Ho  Ho3  1  0.500000  0.826711  0.081138  1
  Ho  Ho4  1  0.500000  0.440673  0.128736  1
  Lu  Lu5  1  0.500000  0.557518  0.870303  1
  Lu  Lu6  1  0.500000  0.056308  0.629591  1
  Lu  Lu7  1  0.500000  0.943928  0.370231  1
  Tc  Tc8  1  0.500000  0.137438  0.180946  1
  Tc  Tc9  1  0.500000  0.861449  0.819856  1
  Tc  Tc10  1  0.500000  0.362177  0.678356  1
  B  B11  1  0.000000  0.099226  0.472117  1
  B  B12  1  0.000000  0.897590  0.527593  1
  B  B13  1  0.000000  0.398959  0.971266  1
  B  B14  1  0.000000  0.603347  0.027808  1
  B  B15  1  0.000000  0.129193  0.315957  1
  B  B16  1  0.000000  0.869730  0.684686  1
  B  B17  1  0.000000  0.370423  0.814662  1
  B  B18  1  0.000000  0.631631  0.183917  1
  B  B19  1  0.000000  0.053227  0.066591  1
  B  B20  1  0.000000  0.947080  0.932329  1
  B  B21  1  0.000000  0.446251  0.566694  1
  B  B22  1  0.000000  0.554140  0.434043  1
  B  B23  1  0.000000  0.482829  0.288329  1
  B  B24  1  0.000000  0.518862  0.712679  1
  B  B25  1  0.000000  0.018484  0.786560  1
  B  B26  1  0.000000  0.981588  0.212604  1
  B  B27  1  0.000000  0.248943  0.081306  1
  B  B28  1  0.000000  0.750832  0.918581  1
  B  B29  1  0.000000  0.249105  0.581126  1
  B  B30  1  0.000000  0.750459  0.420222  1
  B  B31  1  0.000000  0.290948  0.235979  1
  B  B32  1  0.000000  0.707994  0.765479  1
  B  B33  1  0.000000  0.208056  0.734389  1
  B  B34  1  0.000000  0.792022  0.264990  1
  Rh  Rh35  1  0.500000  0.638982  0.321202  1
