# generated using pymatgen
data_Li2Sc6Os3Rh
_symmetry_space_group_name_H-M   'P 1'
_cell_length_a   4.59890600
_cell_length_b   6.43513600
_cell_length_c   13.89622700
_cell_angle_alpha   90.00000000
_cell_angle_beta   89.99764959
_cell_angle_gamma   90.00000000
_symmetry_Int_Tables_number   1
_chemical_formula_structural   Li2Sc6Os3Rh
_chemical_formula_sum   'Li4 Sc12 Os6 Rh2'
_cell_volume   411.25307876
_cell_formula_units_Z   2
loop_
 _symmetry_equiv_pos_site_id
 _symmetry_equiv_pos_as_xyz
  1  'x, y, z'
loop_
 _atom_site_type_symbol
 _atom_site_label
 _atom_site_symmetry_multiplicity
 _atom_site_fract_x
 _atom_site_fract_y
 _atom_site_fract_z
 _atom_site_occupancy
  Li  Li0  1  0.999857  0.500000  0.330648  1
  Li  Li1  1  0.499998  0.000000  0.498186  1
  Li  Li2  1  0.000140  0.500000  0.668494  1
  Li  Li3  1  0.500118  0.000000  0.836014  1
  Sc  Sc4  1  0.500004  0.252603  0.002150  1
  Sc  Sc5  1  0.500004  0.747399  0.002150  1
  Sc  Sc6  1  0.999826  0.247392  0.164511  1
  Sc  Sc7  1  0.999826  0.752608  0.164511  1
  Sc  Sc8  1  0.499827  0.246811  0.330566  1
  Sc  Sc9  1  0.499827  0.753189  0.330566  1
  Sc  Sc10  1  0.000001  0.248729  0.499716  1
  Sc  Sc11  1  0.000001  0.751270  0.499716  1
  Sc  Sc12  1  0.500190  0.251271  0.666954  1
  Sc  Sc13  1  0.500190  0.748729  0.666954  1
  Sc  Sc14  1  0.000165  0.253195  0.836101  1
  Sc  Sc15  1  0.000165  0.746805  0.836101  1
  Os  Os16  1  0.999991  0.000000  0.997795  1
  Os  Os17  1  0.499847  0.500000  0.168872  1
  Os  Os18  1  0.999830  0.000000  0.335716  1
  Os  Os19  1  0.500003  0.500000  0.500820  1
  Os  Os20  1  0.000206  0.000000  0.665850  1
  Os  Os21  1  0.500155  0.500000  0.830951  1
  Rh  Rh22  1  0.999986  0.500000  0.000439  1
  Rh  Rh23  1  0.499844  0.000000  0.166222  1
