# generated using pymatgen
data_Na3Sr3Ga(SbAs)2
_symmetry_space_group_name_H-M   'P 1'
_cell_length_a   9.89504010
_cell_length_b   9.89503993
_cell_length_c   7.83470700
_cell_angle_alpha   90.00000000
_cell_angle_beta   90.00000000
_cell_angle_gamma   118.53089713
_symmetry_Int_Tables_number   1
_chemical_formula_structural   Na3Sr3Ga(SbAs)2
_chemical_formula_sum   'Na6 Sr6 Ga2 Sb4 As4'
_cell_volume   673.95226040
_cell_formula_units_Z   2
loop_
 _symmetry_equiv_pos_site_id
 _symmetry_equiv_pos_as_xyz
  1  'x, y, z'
loop_
 _atom_site_type_symbol
 _atom_site_label
 _atom_site_symmetry_multiplicity
 _atom_site_fract_x
 _atom_site_fract_y
 _atom_site_fract_z
 _atom_site_occupancy
  Na  Na0  1  0.133540  0.866461  0.189680  1
  Na  Na1  1  0.866461  0.133539  0.689679  1
  Na  Na2  1  0.151200  0.276115  0.159606  1
  Na  Na3  1  0.723883  0.848799  0.159606  1
  Na  Na4  1  0.276116  0.151200  0.659604  1
  Na  Na5  1  0.848801  0.723885  0.659604  1
  Sr  Sr6  1  0.521169  0.478833  0.008885  1
  Sr  Sr7  1  0.478832  0.521169  0.508886  1
  Sr  Sr8  1  0.514115  0.034567  0.005454  1
  Sr  Sr9  1  0.965433  0.485884  0.005454  1
  Sr  Sr10  1  0.034566  0.514116  0.505454  1
  Sr  Sr11  1  0.485885  0.965434  0.505454  1
  Ga  Ga12  1  0.335954  0.664046  0.855920  1
  Ga  Ga13  1  0.664046  0.335954  0.355921  1
  Sb  Sb14  1  0.331980  0.668022  0.218492  1
  Sb  Sb15  1  0.668021  0.331980  0.718492  1
  Sb  Sb16  1  0.178423  0.821577  0.777794  1
  Sb  Sb17  1  0.821578  0.178423  0.277793  1
  As  As18  1  0.193767  0.385121  0.775105  1
  As  As19  1  0.614878  0.806232  0.775105  1
  As  As20  1  0.385121  0.193767  0.275106  1
  As  As21  1  0.806232  0.614879  0.275106  1
