# generated using pymatgen
data_TiPd(SeF6)4
_symmetry_space_group_name_H-M   'P 1'
_cell_length_a   6.05714400
_cell_length_b   7.91856842
_cell_length_c   9.88636849
_cell_angle_alpha   89.22560970
_cell_angle_beta   90.00000000
_cell_angle_gamma   90.00000000
_symmetry_Int_Tables_number   1
_chemical_formula_structural   TiPd(SeF6)4
_chemical_formula_sum   'Ti1 Pd1 Se4 F24'
_cell_volume   474.14557048
_cell_formula_units_Z   1
loop_
 _symmetry_equiv_pos_site_id
 _symmetry_equiv_pos_as_xyz
  1  'x, y, z'
loop_
 _atom_site_type_symbol
 _atom_site_label
 _atom_site_symmetry_multiplicity
 _atom_site_fract_x
 _atom_site_fract_y
 _atom_site_fract_z
 _atom_site_occupancy
  Ti  Ti0  1  0.500000  0.000000  0.500000  1
  Pd  Pd1  1  0.000000  0.500000  0.000000  1
  Se  Se2  1  0.500000  0.585250  0.242213  1
  Se  Se3  1  0.500000  0.414750  0.757787  1
  Se  Se4  1  0.000000  0.085747  0.256359  1
  Se  Se5  1  0.000000  0.914253  0.743641  1
  F  F6  1  0.227225  0.362849  0.912453  1
  F  F7  1  0.227225  0.637151  0.087547  1
  F  F8  1  0.278681  0.871550  0.590694  1
  F  F9  1  0.278681  0.128450  0.409306  1
  F  F10  1  0.772775  0.637151  0.087547  1
  F  F11  1  0.772775  0.362849  0.912453  1
  F  F12  1  0.790860  0.966056  0.856847  1
  F  F13  1  0.790860  0.033944  0.143153  1
  F  F14  1  0.707371  0.466114  0.642641  1
  F  F15  1  0.707371  0.533886  0.357359  1
  F  F16  1  0.209140  0.033944  0.143153  1
  F  F17  1  0.209140  0.966056  0.856847  1
  F  F18  1  0.292629  0.533886  0.357359  1
  F  F19  1  0.292629  0.466114  0.642641  1
  F  F20  1  0.000000  0.651900  0.841838  1
  F  F21  1  0.000000  0.348100  0.158162  1
  F  F22  1  0.500000  0.155727  0.642372  1
  F  F23  1  0.500000  0.844273  0.357628  1
  F  F24  1  0.500000  0.617619  0.823368  1
  F  F25  1  0.500000  0.382381  0.176632  1
  F  F26  1  0.000000  0.118028  0.674412  1
  F  F27  1  0.000000  0.881972  0.325588  1
  F  F28  1  0.721319  0.871550  0.590694  1
  F  F29  1  0.721319  0.128450  0.409306  1
