# generated using pymatgen
data_Cs4Ti6CBr18
_symmetry_space_group_name_H-M   'P 1'
_cell_length_a   10.59823529
_cell_length_b   10.99229251
_cell_length_c   11.10092121
_cell_angle_alpha   118.18535026
_cell_angle_beta   100.37526198
_cell_angle_gamma   104.66695379
_symmetry_Int_Tables_number   1
_chemical_formula_structural   Cs4Ti6CBr18
_chemical_formula_sum   'Cs4 Ti6 C1 Br18'
_cell_volume   1032.40208664
_cell_formula_units_Z   1
loop_
 _symmetry_equiv_pos_site_id
 _symmetry_equiv_pos_as_xyz
  1  'x, y, z'
loop_
 _atom_site_type_symbol
 _atom_site_label
 _atom_site_symmetry_multiplicity
 _atom_site_fract_x
 _atom_site_fract_y
 _atom_site_fract_z
 _atom_site_occupancy
  Cs  Cs0  1  0.197874  0.727033  0.563094  1
  Cs  Cs1  1  0.836902  0.962844  0.768660  1
  Cs  Cs2  1  0.163098  0.037156  0.231340  1
  Cs  Cs3  1  0.802126  0.272967  0.436906  1
  Ti  Ti4  1  0.365078  0.448676  0.795766  1
  Ti  Ti5  1  0.373309  0.607263  0.113505  1
  Ti  Ti6  1  0.631278  0.712988  0.040951  1
  Ti  Ti7  1  0.634922  0.551324  0.204234  1
  Ti  Ti8  1  0.368722  0.287012  0.959049  1
  Ti  Ti9  1  0.626691  0.392737  0.886495  1
  C  C10  1  0.500000  0.500000  0.000000  1
  Br  Br11  1  0.801063  0.436599  0.106223  1
  Br  Br12  1  0.511528  0.685070  0.370106  1
  Br  Br13  1  0.199460  0.011615  0.905579  1
  Br  Br14  1  0.198937  0.563401  0.893777  1
  Br  Br15  1  0.808720  0.808026  0.286277  1
  Br  Br16  1  0.503489  0.313354  0.191374  1
  Br  Br17  1  0.785470  0.256810  0.742977  1
  Br  Br18  1  0.191280  0.191974  0.713723  1
  Br  Br19  1  0.505830  0.871510  0.177901  1
  Br  Br20  1  0.798291  0.624025  0.917351  1
  Br  Br21  1  0.214530  0.743190  0.257023  1
  Br  Br22  1  0.187493  0.383571  0.531705  1
  Br  Br23  1  0.496511  0.686646  0.808626  1
  Br  Br24  1  0.800540  0.988385  0.094421  1
  Br  Br25  1  0.488472  0.314930  0.629894  1
  Br  Br26  1  0.201709  0.375975  0.082649  1
  Br  Br27  1  0.812507  0.616429  0.468295  1
  Br  Br28  1  0.494170  0.128490  0.822099  1
