# generated using pymatgen
data_Tb15Tm5(Bi2Ir)4
_symmetry_space_group_name_H-M   'P 1'
_cell_length_a   8.01020557
_cell_length_b   9.02987085
_cell_length_c   12.55240549
_cell_angle_alpha   89.91752179
_cell_angle_beta   90.08288854
_cell_angle_gamma   90.03858679
_symmetry_Int_Tables_number   1
_chemical_formula_structural   Tb15Tm5(Bi2Ir)4
_chemical_formula_sum   'Tb15 Tm5 Bi8 Ir4'
_cell_volume   907.92747529
_cell_formula_units_Z   1
loop_
 _symmetry_equiv_pos_site_id
 _symmetry_equiv_pos_as_xyz
  1  'x, y, z'
loop_
 _atom_site_type_symbol
 _atom_site_label
 _atom_site_symmetry_multiplicity
 _atom_site_fract_x
 _atom_site_fract_y
 _atom_site_fract_z
 _atom_site_occupancy
  Tb  Tb0  1  0.841893  0.750797  0.794012  1
  Tb  Tb1  1  0.158378  0.249334  0.206319  1
  Tb  Tb2  1  0.342087  0.249398  0.705712  1
  Tb  Tb3  1  0.657528  0.750402  0.294063  1
  Tb  Tb4  1  0.375423  0.750421  0.693385  1
  Tb  Tb5  1  0.623065  0.249308  0.306652  1
  Tb  Tb6  1  0.876145  0.248925  0.806192  1
  Tb  Tb7  1  0.123991  0.751152  0.193944  1
  Tb  Tb8  1  0.948094  0.751017  0.501606  1
  Tb  Tb9  1  0.054016  0.249199  0.498134  1
  Tb  Tb10  1  0.447649  0.248299  0.998388  1
  Tb  Tb11  1  0.552295  0.751608  0.001672  1
  Tb  Tb12  1  0.677637  0.459378  0.565032  1
  Tb  Tb13  1  0.822089  0.459062  0.065399  1
  Tb  Tb14  1  0.177875  0.540844  0.934714  1
  Tm  Tm15  1  0.673263  0.040633  0.564640  1
  Tm  Tm16  1  0.326222  0.958920  0.434819  1
  Tm  Tm17  1  0.173506  0.958886  0.935086  1
  Tm  Tm18  1  0.326079  0.540733  0.435093  1
  Tm  Tm19  1  0.826385  0.041165  0.065043  1
  Bi  Bi20  1  0.569510  0.491157  0.827200  1
  Bi  Bi21  1  0.430094  0.509007  0.173221  1
  Bi  Bi22  1  0.068917  0.508945  0.672993  1
  Bi  Bi23  1  0.432063  0.991306  0.172957  1
  Bi  Bi24  1  0.932105  0.491519  0.327601  1
  Bi  Bi25  1  0.567687  0.008534  0.826789  1
  Bi  Bi26  1  0.931929  0.008635  0.327145  1
  Bi  Bi27  1  0.067614  0.991338  0.672865  1
  Ir  Ir28  1  0.566315  0.751135  0.508456  1
  Ir  Ir29  1  0.430179  0.248982  0.490684  1
  Ir  Ir30  1  0.068671  0.247859  0.990974  1
  Ir  Ir31  1  0.931297  0.752100  0.009210  1
