# generated using pymatgen
data_Yb3SnP6N13
_symmetry_space_group_name_H-M   'P 1'
_cell_length_a   7.29363934
_cell_length_b   7.30411642
_cell_length_c   7.30411800
_cell_angle_alpha   109.50026494
_cell_angle_beta   109.44216826
_cell_angle_gamma   109.44216700
_symmetry_Int_Tables_number   1
_chemical_formula_structural   Yb3SnP6N13
_chemical_formula_sum   'Yb3 Sn1 P6 N13'
_cell_volume   299.64940248
_cell_formula_units_Z   1
loop_
 _symmetry_equiv_pos_site_id
 _symmetry_equiv_pos_as_xyz
  1  'x, y, z'
loop_
 _atom_site_type_symbol
 _atom_site_label
 _atom_site_symmetry_multiplicity
 _atom_site_fract_x
 _atom_site_fract_y
 _atom_site_fract_z
 _atom_site_occupancy
  Yb  Yb0  1  0.998508  0.000000  0.685720  1
  Yb  Yb1  1  0.998508  0.685720  0.000000  1
  Yb  Yb2  1  0.312788  0.314280  0.314280  1
  Sn  Sn3  1  0.708756  0.000000  0.000000  1
  P  P4  1  0.249240  0.748637  0.499644  1
  P  P5  1  0.749595  0.248992  0.500356  1
  P  P6  1  0.749595  0.500356  0.248992  1
  P  P7  1  0.249240  0.499644  0.748637  1
  P  P8  1  0.500603  0.751008  0.251363  1
  P  P9  1  0.500603  0.251363  0.751008  1
  N  N10  1  0.991588  0.000000  0.000000  1
  N  N11  1  0.701628  0.279846  0.279846  1
  N  N12  1  0.284400  0.707156  0.284704  1
  N  N13  1  0.291625  0.575885  0.575885  1
  N  N14  1  0.577244  0.577549  0.292844  1
  N  N15  1  0.421782  0.720154  0.000000  1
  N  N16  1  0.999695  0.715296  0.422451  1
  N  N17  1  0.577244  0.292844  0.577549  1
  N  N18  1  0.715741  0.000000  0.424115  1
  N  N19  1  0.421782  0.000000  0.720154  1
  N  N20  1  0.715741  0.424115  0.000000  1
  N  N21  1  0.284400  0.284704  0.707156  1
  N  N22  1  0.999695  0.422451  0.715296  1
