# generated using pymatgen
data_CaNd(B2Rh3)3
_symmetry_space_group_name_H-M   'P 1'
_cell_length_a   5.65735500
_cell_length_b   5.65738149
_cell_length_c   8.55224000
_cell_angle_alpha   89.99971287
_cell_angle_beta   90.00028165
_cell_angle_gamma   119.99876615
_symmetry_Int_Tables_number   1
_chemical_formula_structural   CaNd(B2Rh3)3
_chemical_formula_sum   'Ca1 Nd1 B6 Rh9'
_cell_volume   237.05264622
_cell_formula_units_Z   1
loop_
 _symmetry_equiv_pos_site_id
 _symmetry_equiv_pos_as_xyz
  1  'x, y, z'
loop_
 _atom_site_type_symbol
 _atom_site_label
 _atom_site_symmetry_multiplicity
 _atom_site_fract_x
 _atom_site_fract_y
 _atom_site_fract_z
 _atom_site_occupancy
  Ca  Ca0  1  0.000048  0.000000  0.283238  1
  Nd  Nd1  1  0.999978  0.000008  0.701072  1
  B  B2  1  0.333313  0.666664  0.003345  1
  B  B3  1  0.666653  0.333332  0.003348  1
  B  B4  1  0.333317  0.666668  0.331750  1
  B  B5  1  0.666651  0.333329  0.331749  1
  B  B6  1  0.666650  0.333329  0.667924  1
  B  B7  1  0.333314  0.666666  0.667924  1
  Rh  Rh8  1  0.500031  0.000006  0.165746  1
  Rh  Rh9  1  0.500014  0.500015  0.165746  1
  Rh  Rh10  1  0.999989  0.499980  0.165744  1
  Rh  Rh11  1  0.499993  0.999997  0.837416  1
  Rh  Rh12  1  0.499976  0.499994  0.837421  1
  Rh  Rh13  1  0.999984  0.500017  0.837422  1
  Rh  Rh14  1  0.500007  0.000000  0.500050  1
  Rh  Rh15  1  0.499998  0.500015  0.500055  1
  Rh  Rh16  1  0.999984  0.499982  0.500053  1
