# generated using pymatgen
data_Ta9Ti3Al8(PdC)4
_symmetry_space_group_name_H-M   'P 1'
_cell_length_a   8.32142190
_cell_length_b   8.32599101
_cell_length_c   8.33745319
_cell_angle_alpha   59.91818594
_cell_angle_beta   60.03989451
_cell_angle_gamma   60.10930044
_symmetry_Int_Tables_number   1
_chemical_formula_structural   Ta9Ti3Al8(PdC)4
_chemical_formula_sum   'Ta9 Ti3 Al8 Pd4 C4'
_cell_volume   408.66786133
_cell_formula_units_Z   1
loop_
 _symmetry_equiv_pos_site_id
 _symmetry_equiv_pos_as_xyz
  1  'x, y, z'
loop_
 _atom_site_type_symbol
 _atom_site_label
 _atom_site_symmetry_multiplicity
 _atom_site_fract_x
 _atom_site_fract_y
 _atom_site_fract_z
 _atom_site_occupancy
  Ta  Ta0  1  0.318388  0.681612  0.318388  1
  Ta  Ta1  1  0.681969  0.681529  0.319224  1
  Ta  Ta2  1  0.319224  0.317277  0.681969  1
  Ta  Ta3  1  0.569282  0.567125  0.930819  1
  Ta  Ta4  1  0.930685  0.567554  0.569136  1
  Ta  Ta5  1  0.569136  0.932625  0.930685  1
  Ta  Ta6  1  0.930819  0.932775  0.569282  1
  Ta  Ta7  1  0.681585  0.318415  0.681585  1
  Ta  Ta8  1  0.931016  0.568984  0.931016  1
  Ti  Ti9  1  0.568948  0.931052  0.568948  1
  Ti  Ti10  1  0.320174  0.680422  0.680764  1
  Ti  Ti11  1  0.680764  0.318640  0.320174  1
  Al  Al12  1  0.916627  0.916411  0.916269  1
  Al  Al13  1  0.996635  0.333610  0.333839  1
  Al  Al14  1  0.333716  0.997130  0.336058  1
  Al  Al15  1  0.333839  0.335913  0.996635  1
  Al  Al16  1  0.916269  0.250696  0.916627  1
  Al  Al17  1  0.913843  0.916556  0.253399  1
  Al  Al18  1  0.253399  0.916203  0.913843  1
  Al  Al19  1  0.336058  0.333094  0.333716  1
  Pd  Pd20  1  0.124937  0.124873  0.125024  1
  Pd  Pd21  1  0.624545  0.125043  0.125092  1
  Pd  Pd22  1  0.125024  0.625165  0.124937  1
  Pd  Pd23  1  0.125092  0.125320  0.624545  1
  C  C24  1  0.620230  0.630026  0.625004  1
  C  C25  1  0.127557  0.625863  0.625235  1
  C  C26  1  0.625004  0.124741  0.620230  1
  C  C27  1  0.625235  0.621346  0.127557  1
