# generated using pymatgen
data_NdLuPa2(Al3Ir)6
_symmetry_space_group_name_H-M   'P 1'
_cell_length_a   7.60888820
_cell_length_b   7.60750610
_cell_length_c   9.37398600
_cell_angle_alpha   90.00000000
_cell_angle_beta   90.00000000
_cell_angle_gamma   119.68193235
_symmetry_Int_Tables_number   1
_chemical_formula_structural   NdLuPa2(Al3Ir)6
_chemical_formula_sum   'Nd1 Lu1 Pa2 Al18 Ir6'
_cell_volume   471.41292008
_cell_formula_units_Z   1
loop_
 _symmetry_equiv_pos_site_id
 _symmetry_equiv_pos_as_xyz
  1  'x, y, z'
loop_
 _atom_site_type_symbol
 _atom_site_label
 _atom_site_symmetry_multiplicity
 _atom_site_fract_x
 _atom_site_fract_y
 _atom_site_fract_z
 _atom_site_occupancy
  Nd  Nd0  1  0.669546  0.993022  0.250000  1
  Lu  Lu1  1  0.328075  0.006700  0.750000  1
  Pa  Pa2  1  0.997655  0.671615  0.250000  1
  Pa  Pa3  1  0.001793  0.327328  0.750000  1
  Al  Al4  1  0.133320  0.128039  0.250000  1
  Al  Al5  1  0.869816  0.871954  0.750000  1
  Al  Al6  1  0.002277  0.333433  0.075673  1
  Al  Al7  1  0.000988  0.668813  0.921047  1
  Al  Al8  1  0.000988  0.668813  0.578953  1
  Al  Al9  1  0.336812  0.003417  0.428403  1
  Al  Al10  1  0.002277  0.333433  0.424327  1
  Al  Al11  1  0.659896  0.996730  0.578276  1
  Al  Al12  1  0.659896  0.996730  0.921724  1
  Al  Al13  1  0.336812  0.003417  0.071597  1
  Al  Al14  1  0.335225  0.332757  0.555138  1
  Al  Al15  1  0.665238  0.665652  0.451573  1
  Al  Al16  1  0.665238  0.665652  0.048427  1
  Al  Al17  1  0.335225  0.332757  0.944862  1
  Al  Al18  1  0.339380  0.545806  0.250000  1
  Al  Al19  1  0.658565  0.450476  0.750000  1
  Al  Al20  1  0.549148  0.343811  0.250000  1
  Al  Al21  1  0.449348  0.657737  0.750000  1
  Ir  Ir22  1  0.675786  0.329919  0.998136  1
  Ir  Ir23  1  0.323676  0.670143  0.999094  1
  Ir  Ir24  1  0.323676  0.670143  0.500906  1
  Ir  Ir25  1  0.675786  0.329919  0.501864  1
  Ir  Ir26  1  0.001778  0.000892  0.997867  1
  Ir  Ir27  1  0.001778  0.000892  0.502133  1
