# generated using pymatgen
data_Sm8Dy12Si15Au
_symmetry_space_group_name_H-M   'P 1'
_cell_length_a   7.49392639
_cell_length_b   7.74868613
_cell_length_c   14.78633741
_cell_angle_alpha   89.82854498
_cell_angle_beta   89.47318886
_cell_angle_gamma   90.21085178
_symmetry_Int_Tables_number   1
_chemical_formula_structural   Sm8Dy12Si15Au
_chemical_formula_sum   'Sm8 Dy12 Si15 Au1'
_cell_volume   858.56823610
_cell_formula_units_Z   1
loop_
 _symmetry_equiv_pos_site_id
 _symmetry_equiv_pos_as_xyz
  1  'x, y, z'
loop_
 _atom_site_type_symbol
 _atom_site_label
 _atom_site_symmetry_multiplicity
 _atom_site_fract_x
 _atom_site_fract_y
 _atom_site_fract_z
 _atom_site_occupancy
  Sm  Sm0  1  0.024138  0.181475  0.099778  1
  Sm  Sm1  1  0.976580  0.819733  0.902170  1
  Sm  Sm2  1  0.476607  0.681463  0.902102  1
  Sm  Sm3  1  0.979201  0.825419  0.599091  1
  Sm  Sm4  1  0.521977  0.317877  0.097931  1
  Sm  Sm5  1  0.017058  0.176992  0.399392  1
  Sm  Sm6  1  0.518970  0.318632  0.399274  1
  Sm  Sm7  1  0.484361  0.682241  0.599914  1
  Dy  Dy8  1  0.159753  0.511694  0.749573  1
  Dy  Dy9  1  0.842571  0.489067  0.251688  1
  Dy  Dy10  1  0.342577  0.007508  0.249917  1
  Dy  Dy11  1  0.659598  0.988470  0.749520  1
  Dy  Dy12  1  0.330875  0.177503  0.622947  1
  Dy  Dy13  1  0.669996  0.821512  0.375722  1
  Dy  Dy14  1  0.173667  0.672857  0.376353  1
  Dy  Dy15  1  0.677397  0.821471  0.123103  1
  Dy  Dy16  1  0.825870  0.325305  0.622419  1
  Dy  Dy17  1  0.323406  0.179262  0.877543  1
  Dy  Dy18  1  0.823359  0.319508  0.878315  1
  Dy  Dy19  1  0.175471  0.678872  0.122859  1
  Si  Si20  1  0.032486  0.111571  0.751739  1
  Si  Si21  1  0.969602  0.890148  0.249885  1
  Si  Si22  1  0.468881  0.606700  0.247705  1
  Si  Si23  1  0.533779  0.392985  0.752274  1
  Si  Si24  1  0.273339  0.878887  0.751127  1
  Si  Si25  1  0.725146  0.123778  0.248565  1
  Si  Si26  1  0.226755  0.373159  0.248162  1
  Si  Si27  1  0.775104  0.623123  0.753101  1
  Si  Si28  1  0.837870  0.532762  0.458712  1
  Si  Si29  1  0.345298  0.968139  0.460033  1
  Si  Si30  1  0.851230  0.531158  0.039060  1
  Si  Si31  1  0.653281  0.033876  0.537256  1
  Si  Si32  1  0.147059  0.468431  0.961727  1
  Si  Si33  1  0.647219  0.029851  0.960826  1
  Si  Si34  1  0.351605  0.968509  0.039398  1
  Au  Au35  1  0.157912  0.470066  0.540820  1
