# generated using pymatgen
data_CePu3(OsC2)2
_symmetry_space_group_name_H-M   'P 1'
_cell_length_a   5.21958800
_cell_length_b   6.38141662
_cell_length_c   9.80928517
_cell_angle_alpha   89.47936405
_cell_angle_beta   90.00000000
_cell_angle_gamma   90.00000000
_symmetry_Int_Tables_number   1
_chemical_formula_structural   CePu3(OsC2)2
_chemical_formula_sum   'Ce2 Pu6 Os4 C8'
_cell_volume   326.71776797
_cell_formula_units_Z   2
loop_
 _symmetry_equiv_pos_site_id
 _symmetry_equiv_pos_as_xyz
  1  'x, y, z'
loop_
 _atom_site_type_symbol
 _atom_site_label
 _atom_site_symmetry_multiplicity
 _atom_site_fract_x
 _atom_site_fract_y
 _atom_site_fract_z
 _atom_site_occupancy
  Ce  Ce0  1  0.250000  0.701748  0.545018  1
  Ce  Ce1  1  0.750000  0.298252  0.454982  1
  Pu  Pu2  1  0.750000  0.805912  0.044345  1
  Pu  Pu3  1  0.250000  0.194088  0.955655  1
  Pu  Pu4  1  0.250000  0.525751  0.221965  1
  Pu  Pu5  1  0.750000  0.474249  0.778035  1
  Pu  Pu6  1  0.750000  0.969677  0.726592  1
  Pu  Pu7  1  0.250000  0.030323  0.273408  1
  Os  Os8  1  0.250000  0.725092  0.866394  1
  Os  Os9  1  0.750000  0.274908  0.133606  1
  Os  Os10  1  0.750000  0.773170  0.364529  1
  Os  Os11  1  0.250000  0.226830  0.635471  1
  C  C12  1  0.250000  0.463094  0.759278  1
  C  C13  1  0.750000  0.536906  0.240722  1
  C  C14  1  0.750000  0.027749  0.249614  1
  C  C15  1  0.250000  0.972251  0.750386  1
  C  C16  1  0.250000  0.829392  0.056025  1
  C  C17  1  0.750000  0.170608  0.943975  1
  C  C18  1  0.750000  0.672807  0.556869  1
  C  C19  1  0.250000  0.327193  0.443131  1
