# generated using pymatgen
data_Nb3Zn2AuC
_symmetry_space_group_name_H-M   'P 1'
_cell_length_a   8.44276441
_cell_length_b   8.44276483
_cell_length_c   8.44276400
_cell_angle_alpha   59.99999541
_cell_angle_beta   59.99999378
_cell_angle_gamma   59.99999070
_symmetry_Int_Tables_number   1
_chemical_formula_structural   Nb3Zn2AuC
_chemical_formula_sum   'Nb12 Zn8 Au4 C4'
_cell_volume   425.53858862
_cell_formula_units_Z   4
loop_
 _symmetry_equiv_pos_site_id
 _symmetry_equiv_pos_as_xyz
  1  'x, y, z'
loop_
 _atom_site_type_symbol
 _atom_site_label
 _atom_site_symmetry_multiplicity
 _atom_site_fract_x
 _atom_site_fract_y
 _atom_site_fract_z
 _atom_site_occupancy
  Nb  Nb0  1  0.819559  0.180441  0.819559  1
  Nb  Nb1  1  0.069559  0.430441  0.430441  1
  Nb  Nb2  1  0.430441  0.069559  0.069559  1
  Nb  Nb3  1  0.069559  0.430441  0.069559  1
  Nb  Nb4  1  0.430441  0.430441  0.069559  1
  Nb  Nb5  1  0.069559  0.069559  0.430441  1
  Nb  Nb6  1  0.819559  0.819559  0.180441  1
  Nb  Nb7  1  0.180441  0.819559  0.819559  1
  Nb  Nb8  1  0.819559  0.180441  0.180441  1
  Nb  Nb9  1  0.180441  0.180441  0.819559  1
  Nb  Nb10  1  0.430441  0.069559  0.430441  1
  Nb  Nb11  1  0.180441  0.819559  0.180441  1
  Zn  Zn12  1  0.413937  0.413937  0.413937  1
  Zn  Zn13  1  0.491811  0.836063  0.836063  1
  Zn  Zn14  1  0.836063  0.491811  0.836063  1
  Zn  Zn15  1  0.836063  0.836063  0.491811  1
  Zn  Zn16  1  0.413937  0.758189  0.413937  1
  Zn  Zn17  1  0.413937  0.413937  0.758189  1
  Zn  Zn18  1  0.758189  0.413937  0.413937  1
  Zn  Zn19  1  0.836063  0.836063  0.836063  1
  Au  Au20  1  0.625000  0.625000  0.625000  1
  Au  Au21  1  0.125000  0.625000  0.625000  1
  Au  Au22  1  0.625000  0.125000  0.625000  1
  Au  Au23  1  0.625000  0.625000  0.125000  1
  C  C24  1  0.125000  0.125000  0.125000  1
  C  C25  1  0.625000  0.125000  0.125000  1
  C  C26  1  0.125000  0.625000  0.125000  1
  C  C27  1  0.125000  0.125000  0.625000  1
