# generated using pymatgen
data_RbLa6PtBr12
_symmetry_space_group_name_H-M   'P 1'
_cell_length_a   9.79807134
_cell_length_b   9.64356527
_cell_length_c   9.82221600
_cell_angle_alpha   104.89226391
_cell_angle_beta   104.86254079
_cell_angle_gamma   104.89532181
_symmetry_Int_Tables_number   1
_chemical_formula_structural   RbLa6PtBr12
_chemical_formula_sum   'Rb1 La6 Pt1 Br12'
_cell_volume   813.43329527
_cell_formula_units_Z   1
loop_
 _symmetry_equiv_pos_site_id
 _symmetry_equiv_pos_as_xyz
  1  'x, y, z'
loop_
 _atom_site_type_symbol
 _atom_site_label
 _atom_site_symmetry_multiplicity
 _atom_site_fract_x
 _atom_site_fract_y
 _atom_site_fract_z
 _atom_site_occupancy
  Rb  Rb0  1  0.500000  0.500000  0.500000  1
  La  La1  1  0.103219  0.305033  0.012387  1
  La  La2  1  0.317153  0.012225  0.107730  1
  La  La3  1  0.012329  0.108306  0.316396  1
  La  La4  1  0.987670  0.891694  0.683604  1
  La  La5  1  0.682847  0.987774  0.892269  1
  La  La6  1  0.896781  0.694967  0.987613  1
  Pt  Pt7  1  0.000000  0.000000  0.000000  1
  Br  Br8  1  0.211416  0.671970  0.071270  1
  Br  Br9  1  0.429582  0.338207  0.119323  1
  Br  Br10  1  0.674550  0.073017  0.211809  1
  Br  Br11  1  0.927845  0.786569  0.325834  1
  Br  Br12  1  0.119868  0.431537  0.336606  1
  Br  Br13  1  0.335693  0.117676  0.427730  1
  Br  Br14  1  0.664307  0.882324  0.572270  1
  Br  Br15  1  0.880131  0.568463  0.663394  1
  Br  Br16  1  0.072156  0.213432  0.674167  1
  Br  Br17  1  0.325451  0.926984  0.788191  1
  Br  Br18  1  0.570417  0.661792  0.880677  1
  Br  Br19  1  0.788584  0.328031  0.928730  1
