# generated using pymatgen
data_Li2Nd16CdHgIr4
_symmetry_space_group_name_H-M   'P 1'
_cell_length_a   9.97565659
_cell_length_b   9.96149413
_cell_length_c   9.94801600
_cell_angle_alpha   60.04474754
_cell_angle_beta   60.09161520
_cell_angle_gamma   59.97888587
_symmetry_Int_Tables_number   1
_chemical_formula_structural   Li2Nd16CdHgIr4
_chemical_formula_sum   'Li2 Nd16 Cd1 Hg1 Ir4'
_cell_volume   699.62386214
_cell_formula_units_Z   1
loop_
 _symmetry_equiv_pos_site_id
 _symmetry_equiv_pos_as_xyz
  1  'x, y, z'
loop_
 _atom_site_type_symbol
 _atom_site_label
 _atom_site_symmetry_multiplicity
 _atom_site_fract_x
 _atom_site_fract_y
 _atom_site_fract_z
 _atom_site_occupancy
  Li  Li0  1  0.570835  0.569092  0.575793  1
  Li  Li1  1  0.570835  0.569092  0.284279  1
  Nd  Nd2  1  0.348773  0.348410  0.349636  1
  Nd  Nd3  1  0.348773  0.348410  0.953183  1
  Nd  Nd4  1  0.347025  0.959521  0.346727  1
  Nd  Nd5  1  0.957941  0.347486  0.347286  1
  Nd  Nd6  1  0.810991  0.189578  0.190440  1
  Nd  Nd7  1  0.188547  0.811946  0.809770  1
  Nd  Nd8  1  0.188547  0.811946  0.189736  1
  Nd  Nd9  1  0.810991  0.189578  0.808991  1
  Nd  Nd10  1  0.192585  0.192550  0.807433  1
  Nd  Nd11  1  0.814938  0.815260  0.184901  1
  Nd  Nd12  1  0.938774  0.561709  0.562224  1
  Nd  Nd13  1  0.561487  0.940155  0.936513  1
  Nd  Nd14  1  0.561487  0.940155  0.561844  1
  Nd  Nd15  1  0.938774  0.561709  0.937292  1
  Nd  Nd16  1  0.561784  0.561651  0.938282  1
  Nd  Nd17  1  0.937241  0.940253  0.561253  1
  Cd  Cd18  1  0.256706  0.583868  0.579713  1
  Hg  Hg19  1  0.586709  0.251620  0.580836  1
  Ir  Ir20  1  0.142831  0.142732  0.139883  1
  Ir  Ir21  1  0.142831  0.142732  0.574553  1
  Ir  Ir22  1  0.144585  0.575884  0.139765  1
  Ir  Ir23  1  0.576009  0.144660  0.139665  1
