# generated using pymatgen
data_Ca2AlSnAu2
_symmetry_space_group_name_H-M   'P 1'
_cell_length_a   5.96617813
_cell_length_b   6.02323692
_cell_length_c   6.02323794
_cell_angle_alpha   134.49519535
_cell_angle_beta   103.09045827
_cell_angle_gamma   94.33124716
_symmetry_Int_Tables_number   1
_chemical_formula_structural   Ca2AlSnAu2
_chemical_formula_sum   'Ca2 Al1 Sn1 Au2'
_cell_volume   141.57719604
_cell_formula_units_Z   1
loop_
 _symmetry_equiv_pos_site_id
 _symmetry_equiv_pos_as_xyz
  1  'x, y, z'
loop_
 _atom_site_type_symbol
 _atom_site_label
 _atom_site_symmetry_multiplicity
 _atom_site_fract_x
 _atom_site_fract_y
 _atom_site_fract_z
 _atom_site_occupancy
  Ca  Ca0  1  0.688147  0.692696  0.995451  1
  Ca  Ca1  1  0.116165  0.616887  0.499278  1
  Al  Al2  1  0.287411  0.983547  0.303865  1
  Sn  Sn3  1  0.686385  0.990035  0.696350  1
  Au  Au4  1  0.519943  0.294765  0.225178  1
  Au  Au5  1  0.117368  0.337490  0.779878  1
