# generated using pymatgen
data_Er8AgHgRh2
_symmetry_space_group_name_H-M   'P 1'
_cell_length_a   9.48006496
_cell_length_b   9.49045545
_cell_length_c   9.49045483
_cell_angle_alpha   60.06456737
_cell_angle_beta   60.03620323
_cell_angle_gamma   60.03620898
_symmetry_Int_Tables_number   1
_chemical_formula_structural   Er8AgHgRh2
_chemical_formula_sum   'Er16 Ag2 Hg2 Rh4'
_cell_volume   604.39318078
_cell_formula_units_Z   2
loop_
 _symmetry_equiv_pos_site_id
 _symmetry_equiv_pos_as_xyz
  1  'x, y, z'
loop_
 _atom_site_type_symbol
 _atom_site_label
 _atom_site_symmetry_multiplicity
 _atom_site_fract_x
 _atom_site_fract_y
 _atom_site_fract_z
 _atom_site_occupancy
  Er  Er0  1  0.188622  0.189091  0.811102  1
  Er  Er1  1  0.436903  0.063097  0.063097  1
  Er  Er2  1  0.436242  0.062383  0.435449  1
  Er  Er3  1  0.065926  0.435449  0.062383  1
  Er  Er4  1  0.648948  0.054262  0.647841  1
  Er  Er5  1  0.188080  0.811920  0.811920  1
  Er  Er6  1  0.065926  0.062383  0.435449  1
  Er  Er7  1  0.810013  0.189987  0.189987  1
  Er  Er8  1  0.811185  0.811102  0.189091  1
  Er  Er9  1  0.648948  0.647841  0.054262  1
  Er  Er10  1  0.649950  0.648588  0.648588  1
  Er  Er11  1  0.065172  0.434828  0.434828  1
  Er  Er12  1  0.052874  0.648588  0.648588  1
  Er  Er13  1  0.811185  0.189091  0.811102  1
  Er  Er14  1  0.436242  0.435449  0.062383  1
  Er  Er15  1  0.188622  0.811102  0.189091  1
  Ag  Ag16  1  0.415956  0.750004  0.418084  1
  Ag  Ag17  1  0.415956  0.418084  0.750004  1
  Hg  Hg18  1  0.749645  0.418525  0.418525  1
  Hg  Hg19  1  0.413304  0.418525  0.418525  1
  Rh  Rh20  1  0.857240  0.428114  0.857407  1
  Rh  Rh21  1  0.857240  0.857407  0.428114  1
  Rh  Rh22  1  0.428587  0.857089  0.857089  1
  Rh  Rh23  1  0.857233  0.857089  0.857089  1
