# generated using pymatgen
data_Ho12GaCo4Pb
_symmetry_space_group_name_H-M   'P 1'
_cell_length_a   8.29342905
_cell_length_b   8.29342917
_cell_length_c   8.29342890
_cell_angle_alpha   112.00593384
_cell_angle_beta   109.26334375
_cell_angle_gamma   107.18073523
_symmetry_Int_Tables_number   1
_chemical_formula_structural   Ho12GaCo4Pb
_chemical_formula_sum   'Ho12 Ga1 Co4 Pb1'
_cell_volume   438.33130013
_cell_formula_units_Z   1
loop_
 _symmetry_equiv_pos_site_id
 _symmetry_equiv_pos_as_xyz
  1  'x, y, z'
loop_
 _atom_site_type_symbol
 _atom_site_label
 _atom_site_symmetry_multiplicity
 _atom_site_fract_x
 _atom_site_fract_y
 _atom_site_fract_z
 _atom_site_occupancy
  Ho  Ho0  1  0.968864  0.267295  0.701570  1
  Ho  Ho1  1  0.031136  0.732705  0.298430  1
  Ho  Ho2  1  0.675299  0.860110  0.184811  1
  Ho  Ho3  1  0.324701  0.509513  0.184811  1
  Ho  Ho4  1  0.324701  0.139890  0.815189  1
  Ho  Ho5  1  0.675299  0.490487  0.815189  1
  Ho  Ho6  1  0.565725  0.267295  0.298430  1
  Ho  Ho7  1  0.434275  0.732705  0.701570  1
  Ho  Ho8  1  0.179318  0.780219  0.959537  1
  Ho  Ho9  1  0.820682  0.780219  0.600902  1
  Ho  Ho10  1  0.179318  0.219781  0.399098  1
  Ho  Ho11  1  0.820682  0.219781  0.040463  1
  Ga  Ga12  1  0.000000  0.500000  0.500000  1
  Co  Co13  1  0.114379  0.114379  0.000000  1
  Co  Co14  1  0.885621  0.885621  0.000000  1
  Co  Co15  1  0.661746  0.500000  0.161746  1
  Co  Co16  1  0.338254  0.500000  0.838254  1
  Pb  Pb17  1  0.500000  0.000000  0.500000  1
