# generated using pymatgen
data_Cs3Sc(PSe3)3
_symmetry_space_group_name_H-M   'P 1'
_cell_length_a   8.33011900
_cell_length_b   13.69555761
_cell_length_c   20.22363200
_cell_angle_alpha   78.36303948
_cell_angle_beta   90.00000000
_cell_angle_gamma   90.00000000
_symmetry_Int_Tables_number   1
_chemical_formula_structural   Cs3Sc(PSe3)3
_chemical_formula_sum   'Cs12 Sc4 P12 Se36'
_cell_volume   2259.80143663
_cell_formula_units_Z   4
loop_
 _symmetry_equiv_pos_site_id
 _symmetry_equiv_pos_as_xyz
  1  'x, y, z'
loop_
 _atom_site_type_symbol
 _atom_site_label
 _atom_site_symmetry_multiplicity
 _atom_site_fract_x
 _atom_site_fract_y
 _atom_site_fract_z
 _atom_site_occupancy
  Cs  Cs0  1  0.030952  0.302721  0.079721  1
  Cs  Cs1  1  0.530952  0.197279  0.920279  1
  Cs  Cs2  1  0.969048  0.697279  0.920279  1
  Cs  Cs3  1  0.469048  0.802721  0.079721  1
  Cs  Cs4  1  0.532552  0.079702  0.268139  1
  Cs  Cs5  1  0.032552  0.420298  0.731861  1
  Cs  Cs6  1  0.467448  0.920298  0.731861  1
  Cs  Cs7  1  0.967448  0.579702  0.268139  1
  Cs  Cs8  1  0.521402  0.311591  0.567981  1
  Cs  Cs9  1  0.021402  0.188409  0.432019  1
  Cs  Cs10  1  0.478598  0.688409  0.432019  1
  Cs  Cs11  1  0.978598  0.811591  0.567981  1
  Sc  Sc12  1  0.495293  0.441318  0.173406  1
  Sc  Sc13  1  0.995293  0.058682  0.826594  1
  Sc  Sc14  1  0.504707  0.558682  0.826594  1
  Sc  Sc15  1  0.004707  0.941318  0.173406  1
  P  P16  1  0.611840  0.345881  0.355850  1
  P  P17  1  0.111840  0.154119  0.644150  1
  P  P18  1  0.388160  0.654119  0.644150  1
  P  P19  1  0.888160  0.845881  0.355850  1
  P  P20  1  0.882384  0.067229  0.678911  1
  P  P21  1  0.382384  0.432771  0.321089  1
  P  P22  1  0.117616  0.932771  0.321089  1
  P  P23  1  0.617616  0.567229  0.678911  1
  P  P24  1  0.613998  0.458196  0.017428  1
  P  P25  1  0.113998  0.041804  0.982572  1
  P  P26  1  0.386002  0.541804  0.982572  1
  P  P27  1  0.886002  0.958196  0.017428  1
  Se  Se28  1  0.750773  0.436600  0.410337  1
  Se  Se29  1  0.250773  0.063400  0.589663  1
  Se  Se30  1  0.249227  0.563400  0.589663  1
  Se  Se31  1  0.749227  0.936600  0.410337  1
  Se  Se32  1  0.538483  0.201105  0.410875  1
  Se  Se33  1  0.038483  0.298895  0.589125  1
  Se  Se34  1  0.461517  0.798895  0.589125  1
  Se  Se35  1  0.961517  0.701105  0.410875  1
  Se  Se36  1  0.720829  0.341056  0.252271  1
  Se  Se37  1  0.220829  0.158944  0.747729  1
  Se  Se38  1  0.279171  0.658944  0.747729  1
  Se  Se39  1  0.779171  0.841056  0.252271  1
  Se  Se40  1  0.739470  0.046954  0.594850  1
  Se  Se41  1  0.239470  0.453046  0.405150  1
  Se  Se42  1  0.260530  0.953046  0.405150  1
  Se  Se43  1  0.760530  0.546954  0.594850  1
  Se  Se44  1  0.031727  0.074965  0.252125  1
  Se  Se45  1  0.531727  0.425035  0.747875  1
  Se  Se46  1  0.968273  0.925035  0.747875  1
  Se  Se47  1  0.468273  0.574965  0.252125  1
  Se  Se48  1  0.261480  0.345551  0.250679  1
  Se  Se49  1  0.761480  0.154449  0.749321  1
  Se  Se50  1  0.738520  0.654449  0.749321  1
  Se  Se51  1  0.238520  0.845551  0.250679  1
  Se  Se52  1  0.769849  0.045311  0.084406  1
  Se  Se53  1  0.269849  0.454689  0.915594  1
  Se  Se54  1  0.230151  0.954689  0.915594  1
  Se  Se55  1  0.730151  0.545311  0.084406  1
  Se  Se56  1  0.533286  0.315062  0.079559  1
  Se  Se57  1  0.033286  0.184938  0.920441  1
  Se  Se58  1  0.466714  0.684938  0.920441  1
  Se  Se59  1  0.966714  0.815062  0.079559  1
  Se  Se60  1  0.241802  0.049738  0.076594  1
  Se  Se61  1  0.741802  0.450262  0.923406  1
  Se  Se62  1  0.758198  0.950262  0.923406  1
  Se  Se63  1  0.258198  0.549738  0.076594  1
