# generated using pymatgen
data_SmEu2Dy(ReC2)2
_symmetry_space_group_name_H-M   'P 1'
_cell_length_a   5.28904000
_cell_length_b   6.63635653
_cell_length_c   10.20985329
_cell_angle_alpha   89.83827514
_cell_angle_beta   90.00000000
_cell_angle_gamma   90.00000000
_symmetry_Int_Tables_number   1
_chemical_formula_structural   SmEu2Dy(ReC2)2
_chemical_formula_sum   'Sm2 Eu4 Dy2 Re4 C8'
_cell_volume   358.36396491
_cell_formula_units_Z   2
loop_
 _symmetry_equiv_pos_site_id
 _symmetry_equiv_pos_as_xyz
  1  'x, y, z'
loop_
 _atom_site_type_symbol
 _atom_site_label
 _atom_site_symmetry_multiplicity
 _atom_site_fract_x
 _atom_site_fract_y
 _atom_site_fract_z
 _atom_site_occupancy
  Sm  Sm0  1  0.750000  0.312236  0.447685  1
  Sm  Sm1  1  0.250000  0.687764  0.552315  1
  Eu  Eu2  1  0.750000  0.464499  0.782671  1
  Eu  Eu3  1  0.250000  0.034126  0.278065  1
  Eu  Eu4  1  0.750000  0.965874  0.721935  1
  Eu  Eu5  1  0.250000  0.535501  0.217329  1
  Dy  Dy6  1  0.750000  0.817949  0.051704  1
  Dy  Dy7  1  0.250000  0.182051  0.948296  1
  Re  Re8  1  0.750000  0.771763  0.353916  1
  Re  Re9  1  0.250000  0.728193  0.861438  1
  Re  Re10  1  0.250000  0.228237  0.646084  1
  Re  Re11  1  0.750000  0.271807  0.138562  1
  C  C12  1  0.250000  0.962055  0.743961  1
  C  C13  1  0.750000  0.539171  0.235833  1
  C  C14  1  0.250000  0.460829  0.764167  1
  C  C15  1  0.750000  0.037945  0.256039  1
  C  C16  1  0.250000  0.313199  0.467170  1
  C  C17  1  0.750000  0.178788  0.961735  1
  C  C18  1  0.250000  0.821212  0.038265  1
  C  C19  1  0.750000  0.686801  0.532830  1
