# generated using pymatgen
data_EuHoGe4N7
_symmetry_space_group_name_H-M   'P 1'
_cell_length_a   6.28306301
_cell_length_b   6.28073577
_cell_length_c   10.35692600
_cell_angle_alpha   90.00000000
_cell_angle_beta   90.00000000
_cell_angle_gamma   120.01110435
_symmetry_Int_Tables_number   1
_chemical_formula_structural   EuHoGe4N7
_chemical_formula_sum   'Eu2 Ho2 Ge8 N14'
_cell_volume   353.91163217
_cell_formula_units_Z   2
loop_
 _symmetry_equiv_pos_site_id
 _symmetry_equiv_pos_as_xyz
  1  'x, y, z'
loop_
 _atom_site_type_symbol
 _atom_site_label
 _atom_site_symmetry_multiplicity
 _atom_site_fract_x
 _atom_site_fract_y
 _atom_site_fract_z
 _atom_site_occupancy
  Eu  Eu0  1  0.664960  0.332800  0.600029  1
  Eu  Eu1  1  0.335040  0.667200  0.100029  1
  Ho  Ho2  1  0.666334  0.332928  0.952325  1
  Ho  Ho3  1  0.333666  0.667072  0.452325  1
  Ge  Ge4  1  0.173049  0.346060  0.759843  1
  Ge  Ge5  1  0.827282  0.173806  0.259848  1
  Ge  Ge6  1  0.346406  0.173613  0.259884  1
  Ge  Ge7  1  0.653594  0.826387  0.759884  1
  Ge  Ge8  1  0.172718  0.826194  0.759848  1
  Ge  Ge9  1  0.826951  0.653940  0.259843  1
  Ge  Ge10  1  0.999372  0.999656  0.024465  1
  Ge  Ge11  1  0.000628  0.000344  0.524465  1
  N  N12  1  0.999701  0.999611  0.833139  1
  N  N13  1  0.000299  0.000389  0.333139  1
  N  N14  1  0.839484  0.681215  0.081618  1
  N  N15  1  0.160032  0.841296  0.581676  1
  N  N16  1  0.682060  0.840765  0.581739  1
  N  N17  1  0.317940  0.159235  0.081739  1
  N  N18  1  0.839968  0.158704  0.081676  1
  N  N19  1  0.160516  0.318785  0.581618  1
  N  N20  1  0.497496  0.501937  0.812999  1
  N  N21  1  0.996607  0.498635  0.312322  1
  N  N22  1  0.502695  0.005181  0.312934  1
  N  N23  1  0.497305  0.994819  0.812934  1
  N  N24  1  0.502504  0.498063  0.312999  1
  N  N25  1  0.003393  0.501365  0.812322  1
