# generated using pymatgen
data_Na2CaIrO6
_symmetry_space_group_name_H-M   'P 1'
_cell_length_a   5.80028909
_cell_length_b   5.66038911
_cell_length_c   9.84545372
_cell_angle_alpha   55.42549367
_cell_angle_beta   89.98507427
_cell_angle_gamma   90.00240108
_symmetry_Int_Tables_number   1
_chemical_formula_structural   Na2CaIrO6
_chemical_formula_sum   'Na4 Ca2 Ir2 O12'
_cell_volume   266.15624991
_cell_formula_units_Z   2
loop_
 _symmetry_equiv_pos_site_id
 _symmetry_equiv_pos_as_xyz
  1  'x, y, z'
loop_
 _atom_site_type_symbol
 _atom_site_label
 _atom_site_symmetry_multiplicity
 _atom_site_fract_x
 _atom_site_fract_y
 _atom_site_fract_z
 _atom_site_occupancy
  Na  Na0  1  0.043850  0.239976  0.749204  1
  Na  Na1  1  0.543905  0.760141  0.750633  1
  Na  Na2  1  0.456095  0.239859  0.249367  1
  Na  Na3  1  0.956150  0.760024  0.250796  1
  Ca  Ca4  1  0.500000  0.500000  0.500000  1
  Ca  Ca5  1  0.000000  0.500000  0.000000  1
  Ir  Ir6  1  0.000000  0.000000  0.500000  1
  Ir  Ir7  1  0.500000  0.000000  0.000000  1
  O  O8  1  0.030569  0.315767  0.277308  1
  O  O9  1  0.530431  0.684425  0.222562  1
  O  O10  1  0.969431  0.684233  0.722692  1
  O  O11  1  0.469569  0.315575  0.777438  1
  O  O12  1  0.729743  0.881324  0.446167  1
  O  O13  1  0.229744  0.118689  0.053767  1
  O  O14  1  0.270257  0.118676  0.553833  1
  O  O15  1  0.770256  0.881311  0.946233  1
  O  O16  1  0.320436  0.774034  0.954605  1
  O  O17  1  0.820280  0.226107  0.545412  1
  O  O18  1  0.679564  0.225966  0.045395  1
  O  O19  1  0.179720  0.773893  0.454588  1
