# generated using pymatgen
data_La4Pr3Ir2Pt
_symmetry_space_group_name_H-M   'P 1'
_cell_length_a   10.25263100
_cell_length_b   10.26389101
_cell_length_c   6.55975686
_cell_angle_alpha   90.19705491
_cell_angle_beta   90.00000000
_cell_angle_gamma   119.96372614
_symmetry_Int_Tables_number   1
_chemical_formula_structural   La4Pr3Ir2Pt
_chemical_formula_sum   'La8 Pr6 Ir4 Pt2'
_cell_volume   598.02720052
_cell_formula_units_Z   2
loop_
 _symmetry_equiv_pos_site_id
 _symmetry_equiv_pos_as_xyz
  1  'x, y, z'
loop_
 _atom_site_type_symbol
 _atom_site_label
 _atom_site_symmetry_multiplicity
 _atom_site_fract_x
 _atom_site_fract_y
 _atom_site_fract_z
 _atom_site_occupancy
  La  La0  1  0.332852  0.665704  0.477828  1
  La  La1  1  0.669253  0.338506  0.969543  1
  La  La2  1  0.122539  0.868150  0.251852  1
  La  La3  1  0.745612  0.868150  0.251852  1
  La  La4  1  0.129077  0.258154  0.251110  1
  La  La5  1  0.874709  0.125988  0.742610  1
  La  La6  1  0.251279  0.125988  0.742610  1
  La  La7  1  0.874662  0.749324  0.750115  1
  Pr  Pr8  1  0.542309  0.464294  0.442374  1
  Pr  Pr9  1  0.921985  0.464294  0.442374  1
  Pr  Pr10  1  0.536677  0.073355  0.445303  1
  Pr  Pr11  1  0.460566  0.540984  0.938137  1
  Pr  Pr12  1  0.080419  0.540984  0.938137  1
  Pr  Pr13  1  0.460438  0.920875  0.940096  1
  Ir  Ir14  1  0.810682  0.621365  0.184239  1
  Ir  Ir15  1  0.188473  0.812669  0.684055  1
  Ir  Ir16  1  0.624196  0.812669  0.684055  1
  Ir  Ir17  1  0.186905  0.373809  0.686913  1
  Pt  Pt18  1  0.810506  0.187368  0.189444  1
  Pt  Pt19  1  0.376862  0.187368  0.189444  1
