# generated using pymatgen
data_TbYZr4Pd2F30
_symmetry_space_group_name_H-M   'P 1'
_cell_length_a   8.16702226
_cell_length_b   8.16702205
_cell_length_c   8.16219800
_cell_angle_alpha   79.42527257
_cell_angle_beta   79.42527593
_cell_angle_gamma   99.39527187
_symmetry_Int_Tables_number   1
_chemical_formula_structural   TbYZr4Pd2F30
_chemical_formula_sum   'Tb1 Y1 Zr4 Pd2 F30'
_cell_volume   515.04551821
_cell_formula_units_Z   1
loop_
 _symmetry_equiv_pos_site_id
 _symmetry_equiv_pos_as_xyz
  1  'x, y, z'
loop_
 _atom_site_type_symbol
 _atom_site_label
 _atom_site_symmetry_multiplicity
 _atom_site_fract_x
 _atom_site_fract_y
 _atom_site_fract_z
 _atom_site_occupancy
  Tb  Tb0  1  0.178249  0.821751  0.250000  1
  Y  Y1  1  0.821806  0.178194  0.750000  1
  Zr  Zr2  1  0.742605  0.678882  0.671035  1
  Zr  Zr3  1  0.321118  0.257395  0.828965  1
  Zr  Zr4  1  0.257353  0.321037  0.329218  1
  Zr  Zr5  1  0.678963  0.742647  0.170782  1
  Pd  Pd6  1  0.749540  0.250460  0.250000  1
  Pd  Pd7  1  0.250461  0.749539  0.750000  1
  F  F8  1  0.311839  0.350303  0.057555  1
  F  F9  1  0.934067  0.809030  0.155154  1
  F  F10  1  0.839414  0.461151  0.688827  1
  F  F11  1  0.461764  0.839477  0.188695  1
  F  F12  1  0.809012  0.934376  0.655355  1
  F  F13  1  0.350306  0.311846  0.557572  1
  F  F14  1  0.688154  0.649694  0.942427  1
  F  F15  1  0.065624  0.190988  0.844645  1
  F  F16  1  0.160523  0.538236  0.311305  1
  F  F17  1  0.538849  0.160586  0.811173  1
  F  F18  1  0.190970  0.065933  0.344846  1
  F  F19  1  0.649697  0.688161  0.442445  1
  F  F20  1  0.770501  0.284539  0.003653  1
  F  F21  1  0.995944  0.272154  0.209720  1
  F  F22  1  0.787093  0.501187  0.222804  1
  F  F23  1  0.501237  0.787084  0.722797  1
  F  F24  1  0.272169  0.995882  0.709742  1
  F  F25  1  0.284418  0.770543  0.503674  1
  F  F26  1  0.229457  0.715582  0.996326  1
  F  F27  1  0.004118  0.727831  0.790258  1
  F  F28  1  0.212916  0.498763  0.777203  1
  F  F29  1  0.498813  0.212907  0.277196  1
  F  F30  1  0.727846  0.004056  0.290280  1
  F  F31  1  0.715461  0.229499  0.496347  1
  F  F32  1  0.473365  0.526635  0.250000  1
  F  F33  1  0.746594  0.955145  0.974439  1
  F  F34  1  0.044855  0.253406  0.525561  1
  F  F35  1  0.253547  0.045264  0.025153  1
  F  F36  1  0.954736  0.746453  0.474847  1
  F  F37  1  0.526617  0.473383  0.750000  1
