# generated using pymatgen
data_LaNd11Ga8Ir3Rh5
_symmetry_space_group_name_H-M   'P 1'
_cell_length_a   5.72928108
_cell_length_b   8.19141018
_cell_length_c   13.67611908
_cell_angle_alpha   90.07566290
_cell_angle_beta   89.91849707
_cell_angle_gamma   90.06965743
_symmetry_Int_Tables_number   1
_chemical_formula_structural   LaNd11Ga8Ir3Rh5
_chemical_formula_sum   'La1 Nd11 Ga8 Ir3 Rh5'
_cell_volume   641.83077661
_cell_formula_units_Z   1
loop_
 _symmetry_equiv_pos_site_id
 _symmetry_equiv_pos_as_xyz
  1  'x, y, z'
loop_
 _atom_site_type_symbol
 _atom_site_label
 _atom_site_symmetry_multiplicity
 _atom_site_fract_x
 _atom_site_fract_y
 _atom_site_fract_z
 _atom_site_occupancy
  La  La0  1  0.854263  0.902893  0.096762  1
  Nd  Nd1  1  0.631890  0.258504  0.250390  1
  Nd  Nd2  1  0.370672  0.744985  0.749767  1
  Nd  Nd3  1  0.367743  0.757463  0.249503  1
  Nd  Nd4  1  0.631736  0.238764  0.749444  1
  Nd  Nd5  1  0.147193  0.395184  0.098002  1
  Nd  Nd6  1  0.850953  0.601665  0.901011  1
  Nd  Nd7  1  0.853648  0.604766  0.598397  1
  Nd  Nd8  1  0.854128  0.898043  0.401620  1
  Nd  Nd9  1  0.146586  0.399169  0.402782  1
  Nd  Nd10  1  0.144931  0.099083  0.598637  1
  Nd  Nd11  1  0.144622  0.102930  0.899406  1
  Ga  Ga12  1  0.138536  0.110769  0.252174  1
  Ga  Ga13  1  0.868281  0.889869  0.750482  1
  Ga  Ga14  1  0.864815  0.607966  0.250335  1
  Ga  Ga15  1  0.135789  0.392285  0.749102  1
  Ga  Ga16  1  0.623396  0.251762  0.998147  1
  Ga  Ga17  1  0.372776  0.748935  0.999609  1
  Ga  Ga18  1  0.373448  0.749316  0.500368  1
  Ga  Ga19  1  0.626881  0.249608  0.501385  1
  Ir  Ir20  1  0.355719  0.031720  0.092178  1
  Ir  Ir21  1  0.643195  0.968105  0.908180  1
  Ir  Ir22  1  0.644803  0.967160  0.592309  1
  Rh  Rh23  1  0.644850  0.529332  0.409074  1
  Rh  Rh24  1  0.357284  0.031673  0.409582  1
  Rh  Rh25  1  0.355555  0.468604  0.591099  1
  Rh  Rh26  1  0.352922  0.469843  0.908227  1
  Rh  Rh27  1  0.643386  0.529602  0.092028  1
