# generated using pymatgen
data_LiMg3(SiPd)2
_symmetry_space_group_name_H-M   'P 1'
_cell_length_a   4.24792000
_cell_length_b   4.24792082
_cell_length_c   8.60810300
_cell_angle_alpha   90.00000000
_cell_angle_beta   90.00000000
_cell_angle_gamma   120.00000921
_symmetry_Int_Tables_number   1
_chemical_formula_structural   LiMg3(SiPd)2
_chemical_formula_sum   'Li1 Mg3 Si2 Pd2'
_cell_volume   134.52121718
_cell_formula_units_Z   1
loop_
 _symmetry_equiv_pos_site_id
 _symmetry_equiv_pos_as_xyz
  1  'x, y, z'
loop_
 _atom_site_type_symbol
 _atom_site_label
 _atom_site_symmetry_multiplicity
 _atom_site_fract_x
 _atom_site_fract_y
 _atom_site_fract_z
 _atom_site_occupancy
  Li  Li0  1  0.333333  0.666667  0.589962  1
  Mg  Mg1  1  0.666667  0.333333  0.087533  1
  Mg  Mg2  1  0.666667  0.333333  0.432188  1
  Mg  Mg3  1  0.333333  0.666667  0.903765  1
  Si  Si4  1  0.000000  0.000000  0.729553  1
  Si  Si5  1  0.000000  0.000000  0.259164  1
  Pd  Pd6  1  0.666667  0.333333  0.751198  1
  Pd  Pd7  1  0.333333  0.666667  0.246638  1
