# generated using pymatgen
data_TlInAg10(PbO6)2
_symmetry_space_group_name_H-M   'P 1'
_cell_length_a   8.82072386
_cell_length_b   8.82072561
_cell_length_c   5.98881125
_cell_angle_alpha   70.19841535
_cell_angle_beta   70.19840535
_cell_angle_gamma   72.09653078
_symmetry_Int_Tables_number   1
_chemical_formula_structural   TlInAg10(PbO6)2
_chemical_formula_sum   'Tl1 In1 Ag10 Pb2 O12'
_cell_volume   402.59983324
_cell_formula_units_Z   1
loop_
 _symmetry_equiv_pos_site_id
 _symmetry_equiv_pos_as_xyz
  1  'x, y, z'
loop_
 _atom_site_type_symbol
 _atom_site_label
 _atom_site_symmetry_multiplicity
 _atom_site_fract_x
 _atom_site_fract_y
 _atom_site_fract_z
 _atom_site_occupancy
  Tl  Tl0  1  0.915854  0.084146  0.500000  1
  In  In1  1  0.417296  0.582704  0.000000  1
  Ag  Ag2  1  0.252002  0.250649  0.000159  1
  Ag  Ag3  1  0.748446  0.749203  0.499686  1
  Ag  Ag4  1  0.250797  0.251554  0.500314  1
  Ag  Ag5  1  0.749351  0.747998  0.999841  1
  Ag  Ag6  1  0.498642  0.998946  0.750631  1
  Ag  Ag7  1  0.001054  0.501358  0.249369  1
  Ag  Ag8  1  0.115438  0.612597  0.634306  1
  Ag  Ag9  1  0.613365  0.116179  0.137543  1
  Ag  Ag10  1  0.387403  0.884562  0.365694  1
  Ag  Ag11  1  0.883821  0.386635  0.862457  1
  Pb  Pb12  1  0.580371  0.419629  0.500000  1
  Pb  Pb13  1  0.086244  0.913756  0.000000  1
  O  O14  1  0.653489  0.534048  0.719441  1
  O  O15  1  0.163298  0.030834  0.210665  1
  O  O16  1  0.530748  0.657196  0.213361  1
  O  O17  1  0.036692  0.157160  0.724265  1
  O  O18  1  0.347534  0.840382  0.782201  1
  O  O19  1  0.841109  0.353335  0.277255  1
  O  O20  1  0.342804  0.469252  0.786639  1
  O  O21  1  0.842840  0.963308  0.275735  1
  O  O22  1  0.465952  0.346511  0.280559  1
  O  O23  1  0.969166  0.836702  0.789335  1
  O  O24  1  0.646665  0.158891  0.722745  1
  O  O25  1  0.159618  0.652466  0.217799  1
