# generated using pymatgen
data_Ti5ZnSnSb2
_symmetry_space_group_name_H-M   'P 1'
_cell_length_a   8.21451896
_cell_length_b   8.23279811
_cell_length_c   5.54070300
_cell_angle_alpha   90.00000000
_cell_angle_beta   90.00000000
_cell_angle_gamma   120.07363604
_symmetry_Int_Tables_number   1
_chemical_formula_structural   Ti5ZnSnSb2
_chemical_formula_sum   'Ti10 Zn2 Sn2 Sb4'
_cell_volume   324.26671888
_cell_formula_units_Z   2
loop_
 _symmetry_equiv_pos_site_id
 _symmetry_equiv_pos_as_xyz
  1  'x, y, z'
loop_
 _atom_site_type_symbol
 _atom_site_label
 _atom_site_symmetry_multiplicity
 _atom_site_fract_x
 _atom_site_fract_y
 _atom_site_fract_z
 _atom_site_occupancy
  Ti  Ti0  1  0.729060  0.729012  0.250000  1
  Ti  Ti1  1  0.729060  0.000049  0.750000  1
  Ti  Ti2  1  0.998638  0.271614  0.250000  1
  Ti  Ti3  1  0.998638  0.727024  0.750000  1
  Ti  Ti4  1  0.270684  0.271927  0.750000  1
  Ti  Ti5  1  0.270684  0.998756  0.250000  1
  Ti  Ti6  1  0.333084  0.666542  0.500000  1
  Ti  Ti7  1  0.668671  0.334336  0.000000  1
  Ti  Ti8  1  0.668671  0.334336  0.500000  1
  Ti  Ti9  1  0.333084  0.666542  0.000000  1
  Zn  Zn10  1  0.002298  0.001149  0.000000  1
  Zn  Zn11  1  0.002298  0.001149  0.500000  1
  Sn  Sn12  1  0.382848  0.000820  0.750000  1
  Sn  Sn13  1  0.382848  0.382027  0.250000  1
  Sb  Sb14  1  0.000425  0.616717  0.250000  1
  Sb  Sb15  1  0.000425  0.383707  0.750000  1
  Sb  Sb16  1  0.614294  0.614350  0.750000  1
  Sb  Sb17  1  0.614294  0.999943  0.250000  1
