# generated using pymatgen
data_Ho4Al2FeRu5
_symmetry_space_group_name_H-M   'P 1'
_cell_length_a   5.37218583
_cell_length_b   5.18422403
_cell_length_c   8.81187500
_cell_angle_alpha   90.00000000
_cell_angle_beta   90.00000000
_cell_angle_gamma   120.28499550
_symmetry_Int_Tables_number   1
_chemical_formula_structural   Ho4Al2FeRu5
_chemical_formula_sum   'Ho4 Al2 Fe1 Ru5'
_cell_volume   211.92361921
_cell_formula_units_Z   1
loop_
 _symmetry_equiv_pos_site_id
 _symmetry_equiv_pos_as_xyz
  1  'x, y, z'
loop_
 _atom_site_type_symbol
 _atom_site_label
 _atom_site_symmetry_multiplicity
 _atom_site_fract_x
 _atom_site_fract_y
 _atom_site_fract_z
 _atom_site_occupancy
  Ho  Ho0  1  0.667567  0.334352  0.563509  1
  Ho  Ho1  1  0.330439  0.660696  0.437073  1
  Ho  Ho2  1  0.330439  0.660696  0.062927  1
  Ho  Ho3  1  0.667567  0.334352  0.936491  1
  Al  Al4  1  0.170142  0.830116  0.750000  1
  Al  Al5  1  0.835758  0.671681  0.250000  1
  Fe  Fe6  1  0.160963  0.323148  0.750000  1
  Ru  Ru7  1  0.005465  0.012121  0.503638  1
  Ru  Ru8  1  0.005465  0.012121  0.996362  1
  Ru  Ru9  1  0.650140  0.821051  0.750000  1
  Ru  Ru10  1  0.828032  0.169954  0.250000  1
  Ru  Ru11  1  0.348021  0.169710  0.250000  1
