# generated using pymatgen
data_Pu4ReB16Ru3
_symmetry_space_group_name_H-M   'P 1'
_cell_length_a   5.99034823
_cell_length_b   11.60707644
_cell_length_c   3.54140900
_cell_angle_alpha   90.00000000
_cell_angle_beta   90.00000000
_cell_angle_gamma   90.03149514
_symmetry_Int_Tables_number   1
_chemical_formula_structural   Pu4ReB16Ru3
_chemical_formula_sum   'Pu4 Re1 B16 Ru3'
_cell_volume   246.23565251
_cell_formula_units_Z   1
loop_
 _symmetry_equiv_pos_site_id
 _symmetry_equiv_pos_as_xyz
  1  'x, y, z'
loop_
 _atom_site_type_symbol
 _atom_site_label
 _atom_site_symmetry_multiplicity
 _atom_site_fract_x
 _atom_site_fract_y
 _atom_site_fract_z
 _atom_site_occupancy
  Pu  Pu0  1  0.626867  0.349985  0.000000  1
  Pu  Pu1  1  0.373261  0.649502  0.000000  1
  Pu  Pu2  1  0.126483  0.150118  0.000000  1
  Pu  Pu3  1  0.873072  0.849819  0.000000  1
  Re  Re4  1  0.636679  0.091033  0.000000  1
  B  B5  1  0.786847  0.187662  0.500000  1
  B  B6  1  0.214360  0.813035  0.500000  1
  B  B7  1  0.285575  0.313670  0.500000  1
  B  B8  1  0.714022  0.686371  0.500000  1
  B  B9  1  0.865577  0.031409  0.500000  1
  B  B10  1  0.135374  0.968300  0.500000  1
  B  B11  1  0.364732  0.468253  0.500000  1
  B  B12  1  0.635094  0.531723  0.500000  1
  B  B13  1  0.886270  0.453479  0.500000  1
  B  B14  1  0.114130  0.546626  0.500000  1
  B  B15  1  0.385378  0.046702  0.500000  1
  B  B16  1  0.614460  0.953397  0.500000  1
  B  B17  1  0.973474  0.308522  0.500000  1
  B  B18  1  0.027441  0.691601  0.500000  1
  B  B19  1  0.471651  0.192047  0.500000  1
  B  B20  1  0.527304  0.808217  0.500000  1
  Ru  Ru21  1  0.362594  0.908267  0.000000  1
  Ru  Ru22  1  0.136478  0.408549  0.000000  1
  Ru  Ru23  1  0.862878  0.591717  0.000000  1
