# generated using pymatgen
data_DyNp7(B6Ru)4
_symmetry_space_group_name_H-M   'P 1'
_cell_length_a   3.55813000
_cell_length_b   9.35385503
_cell_length_c   11.37956503
_cell_angle_alpha   90.00854407
_cell_angle_beta   90.00000000
_cell_angle_gamma   90.00000000
_symmetry_Int_Tables_number   1
_chemical_formula_structural   DyNp7(B6Ru)4
_chemical_formula_sum   'Dy1 Np7 B24 Ru4'
_cell_volume   378.73732132
_cell_formula_units_Z   1
loop_
 _symmetry_equiv_pos_site_id
 _symmetry_equiv_pos_as_xyz
  1  'x, y, z'
loop_
 _atom_site_type_symbol
 _atom_site_label
 _atom_site_symmetry_multiplicity
 _atom_site_fract_x
 _atom_site_fract_y
 _atom_site_fract_z
 _atom_site_occupancy
  Dy  Dy0  1  0.000000  0.338311  0.406805  1
  Np  Np1  1  0.000000  0.661341  0.593884  1
  Np  Np2  1  0.000000  0.838523  0.093654  1
  Np  Np3  1  0.000000  0.161941  0.906626  1
  Np  Np4  1  0.000000  0.959533  0.400561  1
  Np  Np5  1  0.000000  0.040894  0.598785  1
  Np  Np6  1  0.000000  0.459725  0.098435  1
  Np  Np7  1  0.000000  0.540259  0.901043  1
  B  B8  1  0.500000  0.552572  0.432193  1
  B  B9  1  0.500000  0.448187  0.568406  1
  B  B10  1  0.500000  0.051861  0.068027  1
  B  B11  1  0.500000  0.948057  0.932159  1
  B  B12  1  0.500000  0.742852  0.423570  1
  B  B13  1  0.500000  0.256491  0.576560  1
  B  B14  1  0.500000  0.242894  0.076396  1
  B  B15  1  0.500000  0.757100  0.923659  1
  B  B16  1  0.500000  0.806375  0.274437  1
  B  B17  1  0.500000  0.193674  0.725666  1
  B  B18  1  0.500000  0.306006  0.225043  1
  B  B19  1  0.500000  0.693568  0.774397  1
  B  B20  1  0.500000  0.647127  0.188879  1
  B  B21  1  0.500000  0.352717  0.811155  1
  B  B22  1  0.500000  0.146516  0.311375  1
  B  B23  1  0.500000  0.852928  0.688728  1
  B  B24  1  0.500000  0.989139  0.220723  1
  B  B25  1  0.500000  0.011163  0.779247  1
  B  B26  1  0.500000  0.489498  0.279063  1
  B  B27  1  0.500000  0.511066  0.720750  1
  B  B28  1  0.500000  0.645170  0.040266  1
  B  B29  1  0.500000  0.354899  0.959699  1
  B  B30  1  0.500000  0.144724  0.459797  1
  B  B31  1  0.500000  0.854611  0.540319  1
  Ru  Ru32  1  0.000000  0.646280  0.319461  1
  Ru  Ru33  1  0.000000  0.353570  0.680384  1
  Ru  Ru34  1  0.000000  0.147713  0.180263  1
  Ru  Ru35  1  0.000000  0.852716  0.819587  1
