# generated using pymatgen
data_Nd2CoSiBr
_symmetry_space_group_name_H-M   'P 1'
_cell_length_a   4.14387400
_cell_length_b   4.14387063
_cell_length_c   16.61670900
_cell_angle_alpha   90.00000000
_cell_angle_beta   90.00000000
_cell_angle_gamma   119.99997897
_symmetry_Int_Tables_number   1
_chemical_formula_structural   Nd2CoSiBr
_chemical_formula_sum   'Nd4 Co2 Si2 Br2'
_cell_volume   247.10894619
_cell_formula_units_Z   2
loop_
 _symmetry_equiv_pos_site_id
 _symmetry_equiv_pos_as_xyz
  1  'x, y, z'
loop_
 _atom_site_type_symbol
 _atom_site_label
 _atom_site_symmetry_multiplicity
 _atom_site_fract_x
 _atom_site_fract_y
 _atom_site_fract_z
 _atom_site_occupancy
  Nd  Nd0  1  0.000000  0.000000  0.108013  1
  Nd  Nd1  1  0.000000  0.000000  0.895760  1
  Nd  Nd2  1  0.000000  0.000000  0.604253  1
  Nd  Nd3  1  0.000000  0.000000  0.392002  1
  Co  Co4  1  0.333333  0.666667  0.501721  1
  Co  Co5  1  0.333333  0.666667  0.998274  1
  Si  Si6  1  0.666667  0.333333  0.496601  1
  Si  Si7  1  0.666667  0.333333  0.003412  1
  Br  Br8  1  0.333333  0.666667  0.249962  1
  Br  Br9  1  0.666667  0.333333  0.750005  1
