# generated using pymatgen
data_Y14Ho2In3AgRh4
_symmetry_space_group_name_H-M   'P 1'
_cell_length_a   9.67565991
_cell_length_b   9.68491222
_cell_length_c   9.67548842
_cell_angle_alpha   59.77805954
_cell_angle_beta   59.74015550
_cell_angle_gamma   59.77760352
_symmetry_Int_Tables_number   1
_chemical_formula_structural   Y14Ho2In3AgRh4
_chemical_formula_sum   'Y14 Ho2 In3 Ag1 Rh4'
_cell_volume   637.69531639
_cell_formula_units_Z   1
loop_
 _symmetry_equiv_pos_site_id
 _symmetry_equiv_pos_as_xyz
  1  'x, y, z'
loop_
 _atom_site_type_symbol
 _atom_site_label
 _atom_site_symmetry_multiplicity
 _atom_site_fract_x
 _atom_site_fract_y
 _atom_site_fract_z
 _atom_site_occupancy
  Y  Y0  1  0.187888  0.187438  0.811935  1
  Y  Y1  1  0.601682  0.601848  0.197279  1
  Y  Y2  1  0.441237  0.057944  0.441261  1
  Y  Y3  1  0.441227  0.440986  0.058042  1
  Y  Y4  1  0.811978  0.184343  0.811970  1
  Y  Y5  1  0.187187  0.812675  0.187198  1
  Y  Y6  1  0.438125  0.060937  0.060780  1
  Y  Y7  1  0.184133  0.812711  0.812196  1
  Y  Y8  1  0.061238  0.437521  0.061236  1
  Y  Y9  1  0.812196  0.812717  0.184120  1
  Y  Y10  1  0.197264  0.601840  0.601689  1
  Y  Y11  1  0.058036  0.441004  0.441209  1
  Y  Y12  1  0.060771  0.060964  0.438117  1
  Y  Y13  1  0.811923  0.187443  0.187892  1
  Ho  Ho14  1  0.600811  0.199646  0.600808  1
  Ho  Ho15  1  0.599620  0.599791  0.599598  1
  In  In16  1  0.832533  0.832968  0.503952  1
  In  In17  1  0.503948  0.832969  0.832531  1
  In  In18  1  0.832992  0.503196  0.832989  1
  Ag  Ag19  1  0.832899  0.833867  0.832901  1
  Rh  Rh20  1  0.393502  0.821313  0.393513  1
  Rh  Rh21  1  0.393964  0.391528  0.393973  1
  Rh  Rh22  1  0.819938  0.392169  0.394904  1
  Rh  Rh23  1  0.394907  0.392183  0.819905  1
