# generated using pymatgen
data_CrFe11(W6C)2
_symmetry_space_group_name_H-M   'P 1'
_cell_length_a   7.71036342
_cell_length_b   7.75189321
_cell_length_c   7.75189300
_cell_angle_alpha   59.99999665
_cell_angle_beta   59.82166104
_cell_angle_gamma   59.82165576
_symmetry_Int_Tables_number   1
_chemical_formula_structural   CrFe11(W6C)2
_chemical_formula_sum   'Cr1 Fe11 W12 C2'
_cell_volume   326.73782808
_cell_formula_units_Z   1
loop_
 _symmetry_equiv_pos_site_id
 _symmetry_equiv_pos_as_xyz
  1  'x, y, z'
loop_
 _atom_site_type_symbol
 _atom_site_label
 _atom_site_symmetry_multiplicity
 _atom_site_fract_x
 _atom_site_fract_y
 _atom_site_fract_z
 _atom_site_occupancy
  Cr  Cr0  1  0.625000  0.125000  0.125000  1
  Fe  Fe1  1  0.922138  0.235841  0.921011  1
  Fe  Fe2  1  0.327862  0.014159  0.328989  1
  Fe  Fe3  1  0.327862  0.328989  0.328989  1
  Fe  Fe4  1  0.013342  0.328886  0.328886  1
  Fe  Fe5  1  0.922138  0.921011  0.235841  1
  Fe  Fe6  1  0.236658  0.921114  0.921114  1
  Fe  Fe7  1  0.327862  0.328989  0.014159  1
  Fe  Fe8  1  0.125000  0.125000  0.625000  1
  Fe  Fe9  1  0.922138  0.921011  0.921011  1
  Fe  Fe10  1  0.125000  0.625000  0.125000  1
  Fe  Fe11  1  0.125000  0.125000  0.125000  1
  W  W12  1  0.302201  0.698033  0.698033  1
  W  W13  1  0.302201  0.301734  0.698033  1
  W  W14  1  0.550821  0.947394  0.554391  1
  W  W15  1  0.947799  0.551967  0.551967  1
  W  W16  1  0.550821  0.947394  0.947394  1
  W  W17  1  0.699179  0.302606  0.302606  1
  W  W18  1  0.947799  0.551967  0.948266  1
  W  W19  1  0.302201  0.698033  0.301734  1
  W  W20  1  0.550821  0.554391  0.947394  1
  W  W21  1  0.699179  0.302606  0.695609  1
  W  W22  1  0.699179  0.695609  0.302606  1
  W  W23  1  0.947799  0.948266  0.551967  1
  C  C24  1  0.750765  0.749745  0.749745  1
  C  C25  1  0.499235  0.500255  0.500255  1
