# generated using pymatgen
data_Er3Lu5Ti11Si16Mo
_symmetry_space_group_name_H-M   'P 1'
_cell_length_a   6.98560185
_cell_length_b   6.98650282
_cell_length_c   12.81729108
_cell_angle_alpha   89.98254475
_cell_angle_beta   90.03065423
_cell_angle_gamma   89.97943010
_symmetry_Int_Tables_number   1
_chemical_formula_structural   Er3Lu5Ti11Si16Mo
_chemical_formula_sum   'Er3 Lu5 Ti11 Si16 Mo1'
_cell_volume   625.54679705
_cell_formula_units_Z   1
loop_
 _symmetry_equiv_pos_site_id
 _symmetry_equiv_pos_as_xyz
  1  'x, y, z'
loop_
 _atom_site_type_symbol
 _atom_site_label
 _atom_site_symmetry_multiplicity
 _atom_site_fract_x
 _atom_site_fract_y
 _atom_site_fract_z
 _atom_site_occupancy
  Er  Er0  1  0.657590  0.998634  0.967053  1
  Er  Er1  1  0.002690  0.341384  0.532814  1
  Er  Er2  1  0.998574  0.657562  0.032994  1
  Lu  Lu3  1  0.341922  0.001764  0.467059  1
  Lu  Lu4  1  0.498201  0.840791  0.717091  1
  Lu  Lu5  1  0.500536  0.158828  0.216225  1
  Lu  Lu6  1  0.840647  0.498181  0.282928  1
  Lu  Lu7  1  0.158940  0.500566  0.783834  1
  Ti  Ti8  1  0.173200  0.827698  0.249640  1
  Ti  Ti9  1  0.827562  0.173031  0.750334  1
  Ti  Ti10  1  0.672349  0.672756  0.499983  1
  Ti  Ti11  1  0.152705  0.006896  0.875866  1
  Ti  Ti12  1  0.492713  0.650694  0.124639  1
  Ti  Ti13  1  0.506224  0.349823  0.625447  1
  Ti  Ti14  1  0.650571  0.492723  0.875476  1
  Ti  Ti15  1  0.349916  0.506632  0.374410  1
  Ti  Ti16  1  0.848770  0.993845  0.375930  1
  Ti  Ti17  1  0.007021  0.152645  0.124178  1
  Ti  Ti18  1  0.993659  0.848820  0.623941  1
  Si  Si19  1  0.203874  0.131967  0.683380  1
  Si  Si20  1  0.367579  0.701966  0.932414  1
  Si  Si21  1  0.632125  0.296384  0.432291  1
  Si  Si22  1  0.701971  0.367538  0.067638  1
  Si  Si23  1  0.297414  0.633810  0.567395  1
  Si  Si24  1  0.795625  0.868541  0.183860  1
  Si  Si25  1  0.132891  0.203001  0.316915  1
  Si  Si26  1  0.868470  0.795720  0.816175  1
  Si  Si27  1  0.292015  0.954538  0.065027  1
  Si  Si28  1  0.546393  0.792962  0.314794  1
  Si  Si29  1  0.452131  0.207661  0.814497  1
  Si  Si30  1  0.792350  0.546873  0.685564  1
  Si  Si31  1  0.207721  0.451923  0.185525  1
  Si  Si32  1  0.706770  0.046476  0.564683  1
  Si  Si33  1  0.954528  0.291956  0.934986  1
  Si  Si34  1  0.047327  0.708368  0.435010  1
  Mo  Mo35  1  0.327026  0.327039  0.000003  1
