# generated using pymatgen
data_Ga3GePd20
_symmetry_space_group_name_H-M   'P 1'
_cell_length_a   4.03063700
_cell_length_b   8.27614722
_cell_length_c   10.99734917
_cell_angle_alpha   89.61785141
_cell_angle_beta   90.00000000
_cell_angle_gamma   90.00000000
_symmetry_Int_Tables_number   1
_chemical_formula_structural   Ga3GePd20
_chemical_formula_sum   'Ga3 Ge1 Pd20'
_cell_volume   366.84301071
_cell_formula_units_Z   1
loop_
 _symmetry_equiv_pos_site_id
 _symmetry_equiv_pos_as_xyz
  1  'x, y, z'
loop_
 _atom_site_type_symbol
 _atom_site_label
 _atom_site_symmetry_multiplicity
 _atom_site_fract_x
 _atom_site_fract_y
 _atom_site_fract_z
 _atom_site_occupancy
  Ga  Ga0  1  0.750000  0.117096  0.917530  1
  Ga  Ga1  1  0.250000  0.622724  0.586169  1
  Ga  Ga2  1  0.250000  0.882514  0.082367  1
  Ge  Ge3  1  0.750000  0.376424  0.413674  1
  Pd  Pd4  1  0.250000  0.220152  0.042003  1
  Pd  Pd5  1  0.750000  0.713620  0.205588  1
  Pd  Pd6  1  0.250000  0.541127  0.337855  1
  Pd  Pd7  1  0.750000  0.455983  0.663658  1
  Pd  Pd8  1  0.250000  0.955932  0.835079  1
  Pd  Pd9  1  0.250000  0.286265  0.794588  1
  Pd  Pd10  1  0.750000  0.717586  0.457995  1
  Pd  Pd11  1  0.250000  0.570186  0.070479  1
  Pd  Pd12  1  0.250000  0.932773  0.569812  1
  Pd  Pd13  1  0.750000  0.786381  0.705065  1
  Pd  Pd14  1  0.750000  0.385768  0.182521  1
  Pd  Pd15  1  0.750000  0.070010  0.430174  1
  Pd  Pd16  1  0.250000  0.284513  0.540317  1
  Pd  Pd17  1  0.750000  0.780895  0.957780  1
  Pd  Pd18  1  0.250000  0.211877  0.293812  1
  Pd  Pd19  1  0.750000  0.043747  0.163682  1
  Pd  Pd20  1  0.250000  0.614667  0.819381  1
  Pd  Pd21  1  0.750000  0.430255  0.930347  1
  Pd  Pd22  1  0.250000  0.883923  0.318113  1
  Pd  Pd23  1  0.750000  0.115579  0.682011  1
