# generated using pymatgen
data_Li3Er4AlPt4
_symmetry_space_group_name_H-M   'P 1'
_cell_length_a   4.01954400
_cell_length_b   6.97508908
_cell_length_c   8.33756687
_cell_angle_alpha   90.44214745
_cell_angle_beta   90.00000000
_cell_angle_gamma   90.00000000
_symmetry_Int_Tables_number   1
_chemical_formula_structural   Li3Er4AlPt4
_chemical_formula_sum   'Li3 Er4 Al1 Pt4'
_cell_volume   233.75071306
_cell_formula_units_Z   1
loop_
 _symmetry_equiv_pos_site_id
 _symmetry_equiv_pos_as_xyz
  1  'x, y, z'
loop_
 _atom_site_type_symbol
 _atom_site_label
 _atom_site_symmetry_multiplicity
 _atom_site_fract_x
 _atom_site_fract_y
 _atom_site_fract_z
 _atom_site_occupancy
  Li  Li0  1  0.250000  0.870511  0.939631  1
  Li  Li1  1  0.750000  0.133905  0.063034  1
  Li  Li2  1  0.750000  0.632133  0.437051  1
  Er  Er3  1  0.250000  0.458108  0.180846  1
  Er  Er4  1  0.750000  0.541690  0.818600  1
  Er  Er5  1  0.750000  0.040285  0.683247  1
  Er  Er6  1  0.250000  0.957040  0.319262  1
  Al  Al7  1  0.250000  0.370631  0.560014  1
  Pt  Pt8  1  0.250000  0.740935  0.617229  1
  Pt  Pt9  1  0.750000  0.254676  0.390914  1
  Pt  Pt10  1  0.750000  0.746761  0.121923  1
  Pt  Pt11  1  0.250000  0.253324  0.868248  1
