# generated using pymatgen
data_Er8Cu3Si12Ag
_symmetry_space_group_name_H-M   'P 1'
_cell_length_a   8.02653900
_cell_length_b   8.02653903
_cell_length_c   8.00046600
_cell_angle_alpha   90.00000000
_cell_angle_beta   90.00000000
_cell_angle_gamma   119.99999576
_symmetry_Int_Tables_number   1
_chemical_formula_structural   Er8Cu3Si12Ag
_chemical_formula_sum   'Er8 Cu3 Si12 Ag1'
_cell_volume   446.37778841
_cell_formula_units_Z   1
loop_
 _symmetry_equiv_pos_site_id
 _symmetry_equiv_pos_as_xyz
  1  'x, y, z'
loop_
 _atom_site_type_symbol
 _atom_site_label
 _atom_site_symmetry_multiplicity
 _atom_site_fract_x
 _atom_site_fract_y
 _atom_site_fract_z
 _atom_site_occupancy
  Er  Er0  1  0.502393  0.004787  0.247205  1
  Er  Er1  1  0.501908  0.003816  0.752531  1
  Er  Er2  1  0.995213  0.497607  0.247205  1
  Er  Er3  1  0.996184  0.498092  0.752531  1
  Er  Er4  1  0.502393  0.497607  0.247205  1
  Er  Er5  1  0.501908  0.498092  0.752531  1
  Er  Er6  1  0.000000  0.000000  0.247555  1
  Er  Er7  1  0.000000  0.000000  0.751811  1
  Cu  Cu8  1  0.333333  0.666667  0.002999  1
  Cu  Cu9  1  0.666667  0.333333  0.001075  1
  Cu  Cu10  1  0.666667  0.333333  0.501373  1
  Si  Si11  1  0.169669  0.339339  0.999632  1
  Si  Si12  1  0.831210  0.662420  0.999741  1
  Si  Si13  1  0.660661  0.830331  0.999632  1
  Si  Si14  1  0.829615  0.659231  0.500051  1
  Si  Si15  1  0.337580  0.168790  0.999741  1
  Si  Si16  1  0.162163  0.324327  0.499572  1
  Si  Si17  1  0.169669  0.830331  0.999632  1
  Si  Si18  1  0.340769  0.170385  0.500051  1
  Si  Si19  1  0.831210  0.168790  0.999741  1
  Si  Si20  1  0.675673  0.837837  0.499572  1
  Si  Si21  1  0.829615  0.170385  0.500051  1
  Si  Si22  1  0.162163  0.837837  0.499572  1
  Ag  Ag23  1  0.333333  0.666667  0.498995  1
