# generated using pymatgen
data_Zr3MnAl3GaNi
_symmetry_space_group_name_H-M   'P 1'
_cell_length_a   7.11148200
_cell_length_b   7.11148007
_cell_length_c   3.44945500
_cell_angle_alpha   90.00000000
_cell_angle_beta   90.00000000
_cell_angle_gamma   119.99999036
_symmetry_Int_Tables_number   1
_chemical_formula_structural   Zr3MnAl3GaNi
_chemical_formula_sum   'Zr3 Mn1 Al3 Ga1 Ni1'
_cell_volume   151.07801505
_cell_formula_units_Z   1
loop_
 _symmetry_equiv_pos_site_id
 _symmetry_equiv_pos_as_xyz
  1  'x, y, z'
loop_
 _atom_site_type_symbol
 _atom_site_label
 _atom_site_symmetry_multiplicity
 _atom_site_fract_x
 _atom_site_fract_y
 _atom_site_fract_z
 _atom_site_occupancy
  Zr  Zr0  1  0.977295  0.390458  0.500000  1
  Zr  Zr1  1  0.609542  0.586837  0.500000  1
  Zr  Zr2  1  0.413163  0.022705  0.500000  1
  Mn  Mn3  1  0.666667  0.333333  0.000000  1
  Al  Al4  1  0.997308  0.748919  0.000000  1
  Al  Al5  1  0.251081  0.248387  0.000000  1
  Al  Al6  1  0.751613  0.002692  0.000000  1
  Ga  Ga7  1  0.333333  0.666667  0.000000  1
  Ni  Ni8  1  0.000000  0.000000  0.500000  1
