# generated using pymatgen
data_Pr6Mg3CdPt13
_symmetry_space_group_name_H-M   'P 1'
_cell_length_a   8.52492862
_cell_length_b   8.52492944
_cell_length_c   8.54983900
_cell_angle_alpha   109.53042683
_cell_angle_beta   109.53042879
_cell_angle_gamma   109.41194904
_symmetry_Int_Tables_number   1
_chemical_formula_structural   Pr6Mg3CdPt13
_chemical_formula_sum   'Pr6 Mg3 Cd1 Pt13'
_cell_volume   477.96899872
_cell_formula_units_Z   1
loop_
 _symmetry_equiv_pos_site_id
 _symmetry_equiv_pos_as_xyz
  1  'x, y, z'
loop_
 _atom_site_type_symbol
 _atom_site_label
 _atom_site_symmetry_multiplicity
 _atom_site_fract_x
 _atom_site_fract_y
 _atom_site_fract_z
 _atom_site_occupancy
  Pr  Pr0  1  0.699545  0.699545  0.004073  1
  Pr  Pr1  1  0.300455  0.000000  0.304526  1
  Pr  Pr2  1  0.000000  0.300455  0.304526  1
  Pr  Pr3  1  0.300455  0.300455  0.995927  1
  Pr  Pr4  1  0.699545  0.000000  0.695474  1
  Pr  Pr5  1  0.000000  0.699545  0.695474  1
  Mg  Mg6  1  0.000000  0.500000  0.000000  1
  Mg  Mg7  1  0.500000  0.000000  0.000000  1
  Mg  Mg8  1  0.500000  0.500000  0.500000  1
  Cd  Cd9  1  0.000000  0.000000  0.500000  1
  Pt  Pt10  1  0.340485  0.340485  0.669894  1
  Pt  Pt11  1  0.659515  0.000000  0.329407  1
  Pt  Pt12  1  0.000000  0.659515  0.329407  1
  Pt  Pt13  1  0.668573  0.331427  0.000000  1
  Pt  Pt14  1  0.331427  0.662855  0.331427  1
  Pt  Pt15  1  0.000000  0.340485  0.670593  1
  Pt  Pt16  1  0.331427  0.668573  0.000000  1
  Pt  Pt17  1  0.340485  0.000000  0.670593  1
  Pt  Pt18  1  0.662855  0.331427  0.331427  1
  Pt  Pt19  1  0.659515  0.659515  0.330106  1
  Pt  Pt20  1  0.668573  0.337145  0.668573  1
  Pt  Pt21  1  0.337145  0.668573  0.668573  1
  Pt  Pt22  1  0.000000  0.000000  0.000000  1
