# generated using pymatgen
data_K16HfSnAs8
_symmetry_space_group_name_H-M   'P 1'
_cell_length_a   11.04798640
_cell_length_b   11.04798621
_cell_length_c   11.04798700
_cell_angle_alpha   60.00000063
_cell_angle_beta   60.00000120
_cell_angle_gamma   60.00000023
_symmetry_Int_Tables_number   1
_chemical_formula_structural   K16HfSnAs8
_chemical_formula_sum   'K16 Hf1 Sn1 As8'
_cell_volume   953.53012446
_cell_formula_units_Z   1
loop_
 _symmetry_equiv_pos_site_id
 _symmetry_equiv_pos_as_xyz
  1  'x, y, z'
loop_
 _atom_site_type_symbol
 _atom_site_label
 _atom_site_symmetry_multiplicity
 _atom_site_fract_x
 _atom_site_fract_y
 _atom_site_fract_z
 _atom_site_occupancy
  K  K0  1  0.622714  0.131857  0.622714  1
  K  K1  1  0.622714  0.622714  0.131857  1
  K  K2  1  0.131857  0.622714  0.622714  1
  K  K3  1  0.622714  0.622714  0.622714  1
  K  K4  1  0.022155  0.022155  0.477845  1
  K  K5  1  0.780073  0.219927  0.219927  1
  K  K6  1  0.219927  0.780073  0.780073  1
  K  K7  1  0.780073  0.780073  0.219927  1
  K  K8  1  0.780073  0.219927  0.780073  1
  K  K9  1  0.219927  0.780073  0.219927  1
  K  K10  1  0.477845  0.022155  0.477845  1
  K  K11  1  0.477845  0.022155  0.022155  1
  K  K12  1  0.022155  0.477845  0.477845  1
  K  K13  1  0.022155  0.477845  0.022155  1
  K  K14  1  0.219927  0.219927  0.780073  1
  K  K15  1  0.477845  0.477845  0.022155  1
  Hf  Hf16  1  0.750000  0.750000  0.750000  1
  Sn  Sn17  1  0.500000  0.500000  0.500000  1
  As  As18  1  0.398025  0.805924  0.398025  1
  As  As19  1  0.848403  0.848403  0.454791  1
  As  As20  1  0.454791  0.848403  0.848403  1
  As  As21  1  0.848403  0.848403  0.848403  1
  As  As22  1  0.805924  0.398025  0.398025  1
  As  As23  1  0.398025  0.398025  0.398025  1
  As  As24  1  0.398025  0.398025  0.805924  1
  As  As25  1  0.848403  0.454791  0.848403  1
