# generated using pymatgen
data_Sr3SnAsPd2
_symmetry_space_group_name_H-M   'P 1'
_cell_length_a   5.98263400
_cell_length_b   8.71036400
_cell_length_c   14.24175000
_cell_angle_alpha   90.00000000
_cell_angle_beta   90.00000000
_cell_angle_gamma   90.00000000
_symmetry_Int_Tables_number   1
_chemical_formula_structural   Sr3SnAsPd2
_chemical_formula_sum   'Sr12 Sn4 As4 Pd8'
_cell_volume   742.15069233
_cell_formula_units_Z   4
loop_
 _symmetry_equiv_pos_site_id
 _symmetry_equiv_pos_as_xyz
  1  'x, y, z'
loop_
 _atom_site_type_symbol
 _atom_site_label
 _atom_site_symmetry_multiplicity
 _atom_site_fract_x
 _atom_site_fract_y
 _atom_site_fract_z
 _atom_site_occupancy
  Sr  Sr0  1  0.139159  0.390710  0.604510  1
  Sr  Sr1  1  0.860841  0.609290  0.104510  1
  Sr  Sr2  1  0.139159  0.109290  0.395490  1
  Sr  Sr3  1  0.860841  0.890710  0.895490  1
  Sr  Sr4  1  0.860841  0.609290  0.395490  1
  Sr  Sr5  1  0.139159  0.390710  0.895490  1
  Sr  Sr6  1  0.860841  0.890710  0.604510  1
  Sr  Sr7  1  0.139159  0.109290  0.104510  1
  Sr  Sr8  1  0.648004  0.251139  0.750000  1
  Sr  Sr9  1  0.351996  0.748861  0.250000  1
  Sr  Sr10  1  0.648004  0.248861  0.250000  1
  Sr  Sr11  1  0.351996  0.751139  0.750000  1
  Sn  Sn12  1  0.643847  0.250000  0.500000  1
  Sn  Sn13  1  0.356153  0.750000  0.000000  1
  Sn  Sn14  1  0.356153  0.750000  0.500000  1
  Sn  Sn15  1  0.643847  0.250000  0.000000  1
  As  As16  1  0.164476  0.097501  0.750000  1
  As  As17  1  0.835524  0.902499  0.250000  1
  As  As18  1  0.164476  0.402499  0.250000  1
  As  As19  1  0.835524  0.597501  0.750000  1
  Pd  Pd20  1  0.376343  0.035364  0.591062  1
  Pd  Pd21  1  0.623657  0.964636  0.091062  1
  Pd  Pd22  1  0.376343  0.464636  0.408938  1
  Pd  Pd23  1  0.623657  0.535364  0.908938  1
  Pd  Pd24  1  0.623657  0.964636  0.408938  1
  Pd  Pd25  1  0.376343  0.035364  0.908938  1
  Pd  Pd26  1  0.623657  0.535364  0.591062  1
  Pd  Pd27  1  0.376343  0.464636  0.091062  1
