# generated using pymatgen
data_PuTh(AlC)6
_symmetry_space_group_name_H-M   'P 1'
_cell_length_a   3.43267900
_cell_length_b   3.43267906
_cell_length_c   17.57774300
_cell_angle_alpha   90.00000000
_cell_angle_beta   90.00000000
_cell_angle_gamma   120.00000904
_symmetry_Int_Tables_number   1
_chemical_formula_structural   PuTh(AlC)6
_chemical_formula_sum   'Pu1 Th1 Al6 C6'
_cell_volume   179.37424941
_cell_formula_units_Z   1
loop_
 _symmetry_equiv_pos_site_id
 _symmetry_equiv_pos_as_xyz
  1  'x, y, z'
loop_
 _atom_site_type_symbol
 _atom_site_label
 _atom_site_symmetry_multiplicity
 _atom_site_fract_x
 _atom_site_fract_y
 _atom_site_fract_z
 _atom_site_occupancy
  Pu  Pu0  1  0.000000  0.000000  0.503189  1
  Th  Th1  1  0.000000  0.000000  0.003168  1
  Al  Al2  1  0.333333  0.666667  0.142129  1
  Al  Al3  1  0.666667  0.333333  0.864273  1
  Al  Al4  1  0.666667  0.333333  0.635630  1
  Al  Al5  1  0.333333  0.666667  0.758197  1
  Al  Al6  1  0.333333  0.666667  0.370795  1
  Al  Al7  1  0.666667  0.333333  0.248813  1
  C  C8  1  0.333333  0.666667  0.590944  1
  C  C9  1  0.666667  0.333333  0.415068  1
  C  C10  1  0.333333  0.666667  0.896764  1
  C  C11  1  0.666667  0.333333  0.109247  1
  C  C12  1  0.666667  0.333333  0.748608  1
  C  C13  1  0.333333  0.666667  0.257777  1
