# generated using pymatgen
data_Y4MgInPd4
_symmetry_space_group_name_H-M   'P 1'
_cell_length_a   3.75897200
_cell_length_b   7.75597100
_cell_length_c   7.75597100
_cell_angle_alpha   90.00000000
_cell_angle_beta   90.00000000
_cell_angle_gamma   90.00000000
_symmetry_Int_Tables_number   1
_chemical_formula_structural   Y4MgInPd4
_chemical_formula_sum   'Y4 Mg1 In1 Pd4'
_cell_volume   226.12128451
_cell_formula_units_Z   1
loop_
 _symmetry_equiv_pos_site_id
 _symmetry_equiv_pos_as_xyz
  1  'x, y, z'
loop_
 _atom_site_type_symbol
 _atom_site_label
 _atom_site_symmetry_multiplicity
 _atom_site_fract_x
 _atom_site_fract_y
 _atom_site_fract_z
 _atom_site_occupancy
  Y  Y0  1  0.500000  0.154784  0.679718  1
  Y  Y1  1  0.500000  0.845216  0.320282  1
  Y  Y2  1  0.500000  0.320282  0.154784  1
  Y  Y3  1  0.500000  0.679718  0.845216  1
  Mg  Mg4  1  0.000000  0.500000  0.500000  1
  In  In5  1  0.000000  0.000000  0.000000  1
  Pd  Pd6  1  0.000000  0.620966  0.143238  1
  Pd  Pd7  1  0.000000  0.379034  0.856762  1
  Pd  Pd8  1  0.000000  0.856762  0.620966  1
  Pd  Pd9  1  0.000000  0.143238  0.379034  1
