# generated using pymatgen
data_Y2Er10Os3Pd
_symmetry_space_group_name_H-M   'P 1'
_cell_length_a   6.36544565
_cell_length_b   7.31506636
_cell_length_c   8.97721900
_cell_angle_alpha   90.00000000
_cell_angle_beta   90.00000000
_cell_angle_gamma   90.31211784
_symmetry_Int_Tables_number   1
_chemical_formula_structural   Y2Er10Os3Pd
_chemical_formula_sum   'Y2 Er10 Os3 Pd1'
_cell_volume   418.00594717
_cell_formula_units_Z   1
loop_
 _symmetry_equiv_pos_site_id
 _symmetry_equiv_pos_as_xyz
  1  'x, y, z'
loop_
 _atom_site_type_symbol
 _atom_site_label
 _atom_site_symmetry_multiplicity
 _atom_site_fract_x
 _atom_site_fract_y
 _atom_site_fract_z
 _atom_site_occupancy
  Y  Y0  1  0.874250  0.532387  0.250000  1
  Y  Y1  1  0.619963  0.037732  0.250000  1
  Er  Er2  1  0.338693  0.669516  0.056950  1
  Er  Er3  1  0.170983  0.184294  0.442991  1
  Er  Er4  1  0.670491  0.322760  0.563269  1
  Er  Er5  1  0.823381  0.823220  0.931477  1
  Er  Er6  1  0.670491  0.322760  0.936731  1
  Er  Er7  1  0.823381  0.823220  0.568523  1
  Er  Er8  1  0.338693  0.669516  0.443050  1
  Er  Er9  1  0.170983  0.184294  0.057009  1
  Er  Er10  1  0.121911  0.463544  0.750000  1
  Er  Er11  1  0.369806  0.962340  0.750000  1
  Os  Os12  1  0.459188  0.384769  0.250000  1
  Os  Os13  1  0.963709  0.115064  0.750000  1
  Os  Os14  1  0.532551  0.614375  0.750000  1
  Pd  Pd15  1  0.051523  0.890206  0.250000  1
