# generated using pymatgen
data_PrEu3(Ga2Ag)4
_symmetry_space_group_name_H-M   'P 1'
_cell_length_a   4.47545400
_cell_length_b   7.10737180
_cell_length_c   10.59376427
_cell_angle_alpha   89.75963129
_cell_angle_beta   90.00000000
_cell_angle_gamma   90.00000000
_symmetry_Int_Tables_number   1
_chemical_formula_structural   PrEu3(Ga2Ag)4
_chemical_formula_sum   'Pr1 Eu3 Ga8 Ag4'
_cell_volume   336.97106880
_cell_formula_units_Z   1
loop_
 _symmetry_equiv_pos_site_id
 _symmetry_equiv_pos_as_xyz
  1  'x, y, z'
loop_
 _atom_site_type_symbol
 _atom_site_label
 _atom_site_symmetry_multiplicity
 _atom_site_fract_x
 _atom_site_fract_y
 _atom_site_fract_z
 _atom_site_occupancy
  Pr  Pr0  1  0.250000  0.283598  0.671371  1
  Eu  Eu1  1  0.250000  0.782237  0.827563  1
  Eu  Eu2  1  0.750000  0.218140  0.172392  1
  Eu  Eu3  1  0.750000  0.719277  0.328374  1
  Ga  Ga4  1  0.250000  0.700943  0.534437  1
  Ga  Ga5  1  0.750000  0.296773  0.464199  1
  Ga  Ga6  1  0.750000  0.797241  0.034108  1
  Ga  Ga7  1  0.250000  0.203915  0.965463  1
  Ga  Ga8  1  0.250000  0.920421  0.148447  1
  Ga  Ga9  1  0.750000  0.079430  0.851847  1
  Ga  Ga10  1  0.750000  0.580889  0.649106  1
  Ga  Ga11  1  0.250000  0.419250  0.351686  1
  Ag  Ag12  1  0.250000  0.539265  0.098051  1
  Ag  Ag13  1  0.750000  0.460607  0.899934  1
  Ag  Ag14  1  0.750000  0.959956  0.599505  1
  Ag  Ag15  1  0.250000  0.038058  0.403518  1
