# generated using pymatgen
data_Eu4HfCr3O12
_symmetry_space_group_name_H-M   'P 1'
_cell_length_a   5.52716553
_cell_length_b   5.63438750
_cell_length_c   7.87856057
_cell_angle_alpha   90.46635985
_cell_angle_beta   90.08932304
_cell_angle_gamma   89.88431315
_symmetry_Int_Tables_number   1
_chemical_formula_structural   Eu4HfCr3O12
_chemical_formula_sum   'Eu4 Hf1 Cr3 O12'
_cell_volume   245.34672900
_cell_formula_units_Z   1
loop_
 _symmetry_equiv_pos_site_id
 _symmetry_equiv_pos_as_xyz
  1  'x, y, z'
loop_
 _atom_site_type_symbol
 _atom_site_label
 _atom_site_symmetry_multiplicity
 _atom_site_fract_x
 _atom_site_fract_y
 _atom_site_fract_z
 _atom_site_occupancy
  Eu  Eu0  1  0.509204  0.549427  0.260186  1
  Eu  Eu1  1  0.991345  0.040373  0.260472  1
  Eu  Eu2  1  0.490796  0.450573  0.739814  1
  Eu  Eu3  1  0.008655  0.959627  0.739528  1
  Hf  Hf4  1  0.000000  0.500000  0.000000  1
  Cr  Cr5  1  0.500000  0.000000  0.500000  1
  Cr  Cr6  1  0.000000  0.500000  0.500000  1
  Cr  Cr7  1  0.500000  0.000000  0.000000  1
  O  O8  1  0.410039  0.971209  0.250654  1
  O  O9  1  0.086336  0.475183  0.254617  1
  O  O10  1  0.589961  0.028791  0.749346  1
  O  O11  1  0.913664  0.524817  0.745383  1
  O  O12  1  0.793648  0.800288  0.048957  1
  O  O13  1  0.704741  0.294079  0.456089  1
  O  O14  1  0.204594  0.206372  0.543722  1
  O  O15  1  0.301602  0.705927  0.953074  1
  O  O16  1  0.206352  0.199712  0.951043  1
  O  O17  1  0.295259  0.705921  0.543911  1
  O  O18  1  0.795406  0.793628  0.456278  1
  O  O19  1  0.698398  0.294073  0.046926  1
