# generated using pymatgen
data_Be(S8F)3
_symmetry_space_group_name_H-M   'P 1'
_cell_length_a   14.78234447
_cell_length_b   14.78234513
_cell_length_c   14.78234319
_cell_angle_alpha   118.72751617
_cell_angle_beta   118.72751860
_cell_angle_gamma   118.72750574
_symmetry_Int_Tables_number   1
_chemical_formula_structural   Be(S8F)3
_chemical_formula_sum   'Be1 S24 F3'
_cell_volume   941.01447738
_cell_formula_units_Z   1
loop_
 _symmetry_equiv_pos_site_id
 _symmetry_equiv_pos_as_xyz
  1  'x, y, z'
loop_
 _atom_site_type_symbol
 _atom_site_label
 _atom_site_symmetry_multiplicity
 _atom_site_fract_x
 _atom_site_fract_y
 _atom_site_fract_z
 _atom_site_occupancy
  Be  Be0  1  0.933877  0.933877  0.933877  1
  S  S1  1  0.800483  0.526586  0.526586  1
  S  S2  1  0.526586  0.526586  0.800483  1
  S  S3  1  0.526586  0.800483  0.526586  1
  S  S4  1  0.250472  0.382522  0.636506  1
  S  S5  1  0.345512  0.950609  0.345512  1
  S  S6  1  0.345512  0.345512  0.950609  1
  S  S7  1  0.950609  0.345512  0.345512  1
  S  S8  1  0.122098  0.738215  0.253751  1
  S  S9  1  0.253751  0.122098  0.738215  1
  S  S10  1  0.738215  0.253751  0.122098  1
  S  S11  1  0.738215  0.122098  0.253751  1
  S  S12  1  0.253751  0.738215  0.122098  1
  S  S13  1  0.122098  0.253751  0.738215  1
  S  S14  1  0.348965  0.881757  0.534035  1
  S  S15  1  0.534035  0.348965  0.881757  1
  S  S16  1  0.881757  0.534035  0.348965  1
  S  S17  1  0.881757  0.348965  0.534035  1
  S  S18  1  0.534035  0.881757  0.348965  1
  S  S19  1  0.348965  0.534035  0.881757  1
  S  S20  1  0.250472  0.636506  0.382522  1
  S  S21  1  0.382522  0.250472  0.636506  1
  S  S22  1  0.636506  0.382522  0.250472  1
  S  S23  1  0.636506  0.250472  0.382522  1
  S  S24  1  0.382522  0.636506  0.250472  1
  F  F25  1  0.866021  0.966732  0.966732  1
  F  F26  1  0.966732  0.966732  0.866021  1
  F  F27  1  0.966732  0.866021  0.966732  1
