# generated using pymatgen
data_Tb2Yb5Pr3Ru4
_symmetry_space_group_name_H-M   'P 1'
_cell_length_a   6.54377095
_cell_length_b   7.28618478
_cell_length_c   8.65359500
_cell_angle_alpha   96.23006426
_cell_angle_beta   112.63315487
_cell_angle_gamma   89.96213294
_symmetry_Int_Tables_number   1
_chemical_formula_structural   Tb2Yb5Pr3Ru4
_chemical_formula_sum   'Tb2 Yb5 Pr3 Ru4'
_cell_volume   378.19179078
_cell_formula_units_Z   1
loop_
 _symmetry_equiv_pos_site_id
 _symmetry_equiv_pos_as_xyz
  1  'x, y, z'
loop_
 _atom_site_type_symbol
 _atom_site_label
 _atom_site_symmetry_multiplicity
 _atom_site_fract_x
 _atom_site_fract_y
 _atom_site_fract_z
 _atom_site_occupancy
  Tb  Tb0  1  0.435845  0.750923  0.004505  1
  Tb  Tb1  1  0.563383  0.252339  0.000033  1
  Yb  Yb2  1  0.975785  0.918713  0.175697  1
  Yb  Yb3  1  0.800700  0.583913  0.824775  1
  Yb  Yb4  1  0.023903  0.082923  0.826069  1
  Yb  Yb5  1  0.199681  0.416383  0.177059  1
  Yb  Yb6  1  0.642462  0.815436  0.434142  1
  Pr  Pr7  1  0.207682  0.681583  0.565565  1
  Pr  Pr8  1  0.362989  0.179285  0.564629  1
  Pr  Pr9  1  0.788371  0.316665  0.431872  1
  Ru  Ru10  1  0.822924  0.564734  0.220273  1
  Ru  Ru11  1  0.596563  0.932329  0.785265  1
  Ru  Ru12  1  0.178438  0.434020  0.775254  1
  Ru  Ru13  1  0.401272  0.070755  0.214863  1
