# generated using pymatgen
data_Tc2Cl5O4
_symmetry_space_group_name_H-M   'P 1'
_cell_length_a   6.37149688
_cell_length_b   6.48482740
_cell_length_c   8.32629781
_cell_angle_alpha   69.97022115
_cell_angle_beta   81.24139564
_cell_angle_gamma   84.36716050
_symmetry_Int_Tables_number   1
_chemical_formula_structural   Tc2Cl5O4
_chemical_formula_sum   'Tc2 Cl5 O4'
_cell_volume   319.05655792
_cell_formula_units_Z   1
loop_
 _symmetry_equiv_pos_site_id
 _symmetry_equiv_pos_as_xyz
  1  'x, y, z'
loop_
 _atom_site_type_symbol
 _atom_site_label
 _atom_site_symmetry_multiplicity
 _atom_site_fract_x
 _atom_site_fract_y
 _atom_site_fract_z
 _atom_site_occupancy
  Tc  Tc0  1  0.365030  0.462161  0.564155  1
  Tc  Tc1  1  0.005217  0.986598  0.007032  1
  Cl  Cl2  1  0.960834  0.970198  0.743570  1
  Cl  Cl3  1  0.155596  0.124857  0.178744  1
  Cl  Cl4  1  0.317476  0.785421  0.987465  1
  Cl  Cl5  1  0.807434  0.312335  0.931026  1
  Cl  Cl6  1  0.585936  0.293938  0.409774  1
  O  O7  1  0.307307  0.285703  0.771287  1
  O  O8  1  0.838110  0.805014  0.144929  1
  O  O9  1  0.135223  0.543386  0.472893  1
  O  O10  1  0.479837  0.686890  0.568226  1
