# generated using pymatgen
data_Zn2FeNi2SbO8
_symmetry_space_group_name_H-M   'P 1'
_cell_length_a   6.13299630
_cell_length_b   6.13298191
_cell_length_c   6.17067812
_cell_angle_alpha   58.59588334
_cell_angle_beta   58.59598225
_cell_angle_gamma   58.76711481
_symmetry_Int_Tables_number   1
_chemical_formula_structural   Zn2FeNi2SbO8
_chemical_formula_sum   'Zn2 Fe1 Ni2 Sb1 O8'
_cell_volume   159.06648022
_cell_formula_units_Z   1
loop_
 _symmetry_equiv_pos_site_id
 _symmetry_equiv_pos_as_xyz
  1  'x, y, z'
loop_
 _atom_site_type_symbol
 _atom_site_label
 _atom_site_symmetry_multiplicity
 _atom_site_fract_x
 _atom_site_fract_y
 _atom_site_fract_z
 _atom_site_occupancy
  Zn  Zn0  1  0.138983  0.138987  0.129802  1
  Zn  Zn1  1  0.861014  0.861018  0.870195  1
  Fe  Fe2  1  0.499991  0.500000  0.000005  1
  Ni  Ni3  1  0.000004  0.499991  0.500019  1
  Ni  Ni4  1  0.500004  0.999990  0.500002  1
  Sb  Sb5  1  0.500004  0.500002  0.499994  1
  O  O6  1  0.269160  0.269164  0.255227  1
  O  O7  1  0.266377  0.266371  0.721884  1
  O  O8  1  0.268552  0.726058  0.260220  1
  O  O9  1  0.726059  0.268553  0.260218  1
  O  O10  1  0.273940  0.731454  0.739772  1
  O  O11  1  0.731447  0.273948  0.739776  1
  O  O12  1  0.733630  0.733630  0.278113  1
  O  O13  1  0.730835  0.730838  0.744774  1
