# generated using pymatgen
data_PuFeB4
_symmetry_space_group_name_H-M   'P 1'
_cell_length_a   3.35521900
_cell_length_b   5.90921100
_cell_length_c   11.45299100
_cell_angle_alpha   90.00000000
_cell_angle_beta   90.00000000
_cell_angle_gamma   90.00000000
_symmetry_Int_Tables_number   1
_chemical_formula_structural   PuFeB4
_chemical_formula_sum   'Pu4 Fe4 B16'
_cell_volume   227.07498256
_cell_formula_units_Z   4
loop_
 _symmetry_equiv_pos_site_id
 _symmetry_equiv_pos_as_xyz
  1  'x, y, z'
loop_
 _atom_site_type_symbol
 _atom_site_label
 _atom_site_symmetry_multiplicity
 _atom_site_fract_x
 _atom_site_fract_y
 _atom_site_fract_z
 _atom_site_occupancy
  Pu  Pu0  1  0.000000  0.627258  0.349741  1
  Pu  Pu1  1  0.000000  0.372742  0.650259  1
  Pu  Pu2  1  0.000000  0.127258  0.150259  1
  Pu  Pu3  1  0.000000  0.872742  0.849741  1
  Fe  Fe4  1  0.000000  0.631840  0.087619  1
  Fe  Fe5  1  0.000000  0.368160  0.912381  1
  Fe  Fe6  1  0.000000  0.131840  0.412381  1
  Fe  Fe7  1  0.000000  0.868160  0.587619  1
  B  B8  1  0.500000  0.781981  0.184359  1
  B  B9  1  0.500000  0.218019  0.815641  1
  B  B10  1  0.500000  0.281981  0.315641  1
  B  B11  1  0.500000  0.718019  0.684359  1
  B  B12  1  0.500000  0.861834  0.033101  1
  B  B13  1  0.500000  0.138166  0.966899  1
  B  B14  1  0.500000  0.361834  0.466899  1
  B  B15  1  0.500000  0.638166  0.533101  1
  B  B16  1  0.500000  0.887730  0.453880  1
  B  B17  1  0.500000  0.112270  0.546120  1
  B  B18  1  0.500000  0.387730  0.046120  1
  B  B19  1  0.500000  0.612270  0.953880  1
  B  B20  1  0.500000  0.976500  0.309735  1
  B  B21  1  0.500000  0.023500  0.690265  1
  B  B22  1  0.500000  0.476500  0.190265  1
  B  B23  1  0.500000  0.523500  0.809735  1
