# generated using pymatgen
data_Er5TcRuC7
_symmetry_space_group_name_H-M   'P 1'
_cell_length_a   8.17753123
_cell_length_b   8.17753018
_cell_length_c   3.44614500
_cell_angle_alpha   90.00000000
_cell_angle_beta   90.00000000
_cell_angle_gamma   121.95560080
_symmetry_Int_Tables_number   1
_chemical_formula_structural   Er5TcRuC7
_chemical_formula_sum   'Er5 Tc1 Ru1 C7'
_cell_volume   195.52779811
_cell_formula_units_Z   1
loop_
 _symmetry_equiv_pos_site_id
 _symmetry_equiv_pos_as_xyz
  1  'x, y, z'
loop_
 _atom_site_type_symbol
 _atom_site_label
 _atom_site_symmetry_multiplicity
 _atom_site_fract_x
 _atom_site_fract_y
 _atom_site_fract_z
 _atom_site_occupancy
  Er  Er0  1  0.500560  0.499440  0.000000  1
  Er  Er1  1  0.076486  0.337505  0.500000  1
  Er  Er2  1  0.921435  0.660710  0.500000  1
  Er  Er3  1  0.662495  0.923514  0.500000  1
  Er  Er4  1  0.339290  0.078565  0.500000  1
  Tc  Tc5  1  0.285500  0.714500  0.000000  1
  Ru  Ru6  1  0.713032  0.286968  0.000000  1
  C  C7  1  0.627942  0.372058  0.500000  1
  C  C8  1  0.375458  0.624542  0.500000  1
  C  C9  1  0.999363  0.000637  0.000000  1
  C  C10  1  0.170872  0.171220  0.000000  1
  C  C11  1  0.828780  0.829128  0.000000  1
  C  C12  1  0.000644  0.501856  0.000000  1
  C  C13  1  0.498144  0.999356  0.000000  1
