# generated using pymatgen
data_CsInFeF6
_symmetry_space_group_name_H-M   'P 1'
_cell_length_a   7.79429676
_cell_length_b   7.79429678
_cell_length_c   7.79429677
_cell_angle_alpha   118.63145956
_cell_angle_beta   121.94094230
_cell_angle_gamma   89.52909375
_symmetry_Int_Tables_number   1
_chemical_formula_structural   CsInFeF6
_chemical_formula_sum   'Cs2 In2 Fe2 F12'
_cell_volume   333.01159771
_cell_formula_units_Z   2
loop_
 _symmetry_equiv_pos_site_id
 _symmetry_equiv_pos_as_xyz
  1  'x, y, z'
loop_
 _atom_site_type_symbol
 _atom_site_label
 _atom_site_symmetry_multiplicity
 _atom_site_fract_x
 _atom_site_fract_y
 _atom_site_fract_z
 _atom_site_occupancy
  Cs  Cs0  1  0.387817  0.637817  0.750000  1
  Cs  Cs1  1  0.612183  0.362183  0.250000  1
  In  In2  1  0.000000  0.000000  0.500000  1
  In  In3  1  0.000000  0.500000  0.000000  1
  Fe  Fe4  1  0.000000  0.000000  0.000000  1
  Fe  Fe5  1  0.500000  0.000000  0.500000  1
  F  F6  1  0.314370  0.064370  0.250000  1
  F  F7  1  0.927837  0.677837  0.250000  1
  F  F8  1  0.325155  0.676324  0.254885  1
  F  F9  1  0.921438  0.070269  0.245115  1
  F  F10  1  0.325155  0.070269  0.648831  1
  F  F11  1  0.921438  0.676324  0.851169  1
  F  F12  1  0.685630  0.935630  0.750000  1
  F  F13  1  0.072163  0.322163  0.750000  1
  F  F14  1  0.674845  0.323676  0.745115  1
  F  F15  1  0.078562  0.929731  0.754885  1
  F  F16  1  0.674845  0.929731  0.351169  1
  F  F17  1  0.078562  0.323676  0.148831  1
