# generated using pymatgen
data_La6Pa2Tl3Pt8Pb
_symmetry_space_group_name_H-M   'P 1'
_cell_length_a   8.01148100
_cell_length_b   8.00106787
_cell_length_c   7.66376700
_cell_angle_alpha   90.00000000
_cell_angle_beta   90.00000000
_cell_angle_gamma   93.17583248
_symmetry_Int_Tables_number   1
_chemical_formula_structural   La6Pa2Tl3Pt8Pb
_chemical_formula_sum   'La6 Pa2 Tl3 Pt8 Pb1'
_cell_volume   490.49610272
_cell_formula_units_Z   1
loop_
 _symmetry_equiv_pos_site_id
 _symmetry_equiv_pos_as_xyz
  1  'x, y, z'
loop_
 _atom_site_type_symbol
 _atom_site_label
 _atom_site_symmetry_multiplicity
 _atom_site_fract_x
 _atom_site_fract_y
 _atom_site_fract_z
 _atom_site_occupancy
  La  La0  1  0.667052  0.667620  0.999619  1
  La  La1  1  0.830750  0.168661  0.500026  1
  La  La2  1  0.332948  0.332380  0.999619  1
  La  La3  1  0.169250  0.831339  0.500026  1
  La  La4  1  0.825347  0.171812  0.999885  1
  La  La5  1  0.174653  0.828188  0.999885  1
  Pa  Pa6  1  0.326144  0.327155  0.499703  1
  Pa  Pa7  1  0.673856  0.672845  0.499703  1
  Tl  Tl8  1  0.500000  0.000000  0.750349  1
  Tl  Tl9  1  0.500000  0.000000  0.250449  1
  Tl  Tl10  1  0.000000  0.500000  0.753449  1
  Pt  Pt11  1  0.864964  0.865017  0.742084  1
  Pt  Pt12  1  0.135036  0.134983  0.742084  1
  Pt  Pt13  1  0.622974  0.376453  0.722322  1
  Pt  Pt14  1  0.621002  0.375042  0.277884  1
  Pt  Pt15  1  0.378998  0.624958  0.277884  1
  Pt  Pt16  1  0.135197  0.134069  0.257305  1
  Pt  Pt17  1  0.864803  0.865931  0.257305  1
  Pt  Pt18  1  0.377026  0.623547  0.722322  1
  Pb  Pb19  1  0.000000  0.500000  0.248097  1
