# generated using pymatgen
data_CeTm15Cd4Os3Ru
_symmetry_space_group_name_H-M   'P 1'
_cell_length_a   9.55451336
_cell_length_b   9.55446360
_cell_length_c   9.55460411
_cell_angle_alpha   59.58507015
_cell_angle_beta   59.58588520
_cell_angle_gamma   59.58635008
_symmetry_Int_Tables_number   1
_chemical_formula_structural   CeTm15Cd4Os3Ru
_chemical_formula_sum   'Ce1 Tm15 Cd4 Os3 Ru1'
_cell_volume   610.94760883
_cell_formula_units_Z   1
loop_
 _symmetry_equiv_pos_site_id
 _symmetry_equiv_pos_as_xyz
  1  'x, y, z'
loop_
 _atom_site_type_symbol
 _atom_site_label
 _atom_site_symmetry_multiplicity
 _atom_site_fract_x
 _atom_site_fract_y
 _atom_site_fract_z
 _atom_site_occupancy
  Ce  Ce0  1  0.344123  0.344119  0.344123  1
  Tm  Tm1  1  0.560921  0.560902  0.939782  1
  Tm  Tm2  1  0.939558  0.560532  0.939558  1
  Tm  Tm3  1  0.560544  0.939553  0.939555  1
  Tm  Tm4  1  0.939560  0.939557  0.560541  1
  Tm  Tm5  1  0.560902  0.939795  0.560908  1
  Tm  Tm6  1  0.939786  0.560900  0.560926  1
  Tm  Tm7  1  0.189095  0.189117  0.813268  1
  Tm  Tm8  1  0.810484  0.187888  0.810480  1
  Tm  Tm9  1  0.187881  0.810487  0.810476  1
  Tm  Tm10  1  0.810484  0.810484  0.187877  1
  Tm  Tm11  1  0.189103  0.813277  0.189107  1
  Tm  Tm12  1  0.813274  0.189111  0.189099  1
  Tm  Tm13  1  0.347148  0.347149  0.957527  1
  Tm  Tm14  1  0.347143  0.957532  0.347153  1
  Tm  Tm15  1  0.957528  0.347146  0.347147  1
  Cd  Cd16  1  0.580286  0.580290  0.256808  1
  Cd  Cd17  1  0.580294  0.256802  0.580291  1
  Cd  Cd18  1  0.256812  0.580284  0.580287  1
  Cd  Cd19  1  0.580010  0.580005  0.580012  1
  Os  Os20  1  0.143095  0.143106  0.579440  1
  Os  Os21  1  0.143094  0.579440  0.143099  1
  Os  Os22  1  0.579442  0.143098  0.143103  1
  Ru  Ru23  1  0.139431  0.139428  0.139432  1
