# generated using pymatgen
data_Lu2MnVFe10P7
_symmetry_space_group_name_H-M   'P 1'
_cell_length_a   9.04494819
_cell_length_b   8.98424832
_cell_length_c   3.60926500
_cell_angle_alpha   90.00000000
_cell_angle_beta   90.00000000
_cell_angle_gamma   120.15435980
_symmetry_Int_Tables_number   1
_chemical_formula_structural   Lu2MnVFe10P7
_chemical_formula_sum   'Lu2 Mn1 V1 Fe10 P7'
_cell_volume   253.60605187
_cell_formula_units_Z   1
loop_
 _symmetry_equiv_pos_site_id
 _symmetry_equiv_pos_as_xyz
  1  'x, y, z'
loop_
 _atom_site_type_symbol
 _atom_site_label
 _atom_site_symmetry_multiplicity
 _atom_site_fract_x
 _atom_site_fract_y
 _atom_site_fract_z
 _atom_site_occupancy
  Lu  Lu0  1  0.671713  0.337637  0.000000  1
  Lu  Lu1  1  0.994449  0.996742  0.500000  1
  Mn  Mn2  1  0.216243  0.447290  0.500000  1
  V  V3  1  0.232195  0.782188  0.500000  1
  Fe  Fe4  1  0.757998  0.722477  0.000000  1
  Fe  Fe5  1  0.281381  0.045386  0.000000  1
  Fe  Fe6  1  0.961994  0.238406  0.000000  1
  Fe  Fe7  1  0.491992  0.944077  0.000000  1
  Fe  Fe8  1  0.062404  0.547225  0.000000  1
  Fe  Fe9  1  0.451262  0.507781  0.000000  1
  Fe  Fe10  1  0.720061  0.102335  0.500000  1
  Fe  Fe11  1  0.897062  0.616752  0.500000  1
  Fe  Fe12  1  0.378226  0.277122  0.500000  1
  Fe  Fe13  1  0.548576  0.762300  0.500000  1
  P  P14  1  0.460183  0.077734  0.500000  1
  P  P15  1  0.926524  0.378352  0.500000  1
  P  P16  1  0.622804  0.555250  0.500000  1
  P  P17  1  0.744083  0.962991  0.000000  1
  P  P18  1  0.029399  0.777220  0.000000  1
  P  P19  1  0.212035  0.253062  0.000000  1
  P  P20  1  0.339415  0.667678  0.000000  1
