# generated using pymatgen
data_YEr3Tc4F28
_symmetry_space_group_name_H-M   'P 1'
_cell_length_a   5.57091506
_cell_length_b   8.86724897
_cell_length_c   11.98794124
_cell_angle_alpha   62.69116523
_cell_angle_beta   89.98336283
_cell_angle_gamma   89.98751743
_symmetry_Int_Tables_number   1
_chemical_formula_structural   YEr3Tc4F28
_chemical_formula_sum   'Y1 Er3 Tc4 F28'
_cell_volume   526.18708651
_cell_formula_units_Z   1
loop_
 _symmetry_equiv_pos_site_id
 _symmetry_equiv_pos_as_xyz
  1  'x, y, z'
loop_
 _atom_site_type_symbol
 _atom_site_label
 _atom_site_symmetry_multiplicity
 _atom_site_fract_x
 _atom_site_fract_y
 _atom_site_fract_z
 _atom_site_occupancy
  Y  Y0  1  0.758887  0.814401  0.764729  1
  Er  Er1  1  0.258815  0.187582  0.735216  1
  Er  Er2  1  0.240970  0.185874  0.235526  1
  Er  Er3  1  0.741282  0.814370  0.264543  1
  Tc  Tc4  1  0.758197  0.271759  0.957432  1
  Tc  Tc5  1  0.258095  0.727017  0.542080  1
  Tc  Tc6  1  0.241894  0.726954  0.044217  1
  Tc  Tc7  1  0.741377  0.273707  0.456282  1
  F  F8  1  0.442140  0.705831  0.917896  1
  F  F9  1  0.943440  0.293737  0.582395  1
  F  F10  1  0.555755  0.292690  0.083073  1
  F  F11  1  0.056050  0.706436  0.416359  1
  F  F12  1  0.444722  0.275991  0.546111  1
  F  F13  1  0.945195  0.723549  0.955708  1
  F  F14  1  0.555945  0.724600  0.453163  1
  F  F15  1  0.054943  0.274668  0.046756  1
  F  F16  1  0.776008  0.519746  0.859996  1
  F  F17  1  0.275850  0.478201  0.640123  1
  F  F18  1  0.225109  0.478102  0.141066  1
  F  F19  1  0.724145  0.522433  0.359107  1
  F  F20  1  0.755246  0.024307  0.053631  1
  F  F21  1  0.255380  0.974327  0.446421  1
  F  F22  1  0.244533  0.974320  0.947275  1
  F  F23  1  0.744469  0.026553  0.551643  1
  F  F24  1  0.973330  0.726985  0.638265  1
  F  F25  1  0.473373  0.271534  0.860652  1
  F  F26  1  0.025980  0.271977  0.359935  1
  F  F27  1  0.527137  0.728472  0.140164  1
  F  F28  1  0.045334  0.747338  0.173632  1
  F  F29  1  0.544466  0.253221  0.326714  1
  F  F30  1  0.954972  0.252136  0.827425  1
  F  F31  1  0.452098  0.746121  0.672683  1
  F  F32  1  0.420507  0.971715  0.232551  1
  F  F33  1  0.920432  0.028426  0.267368  1
  F  F34  1  0.579581  0.031923  0.767849  1
  F  F35  1  0.084341  0.972996  0.732014  1
