# generated using pymatgen
data_CaPa2TiSb5
_symmetry_space_group_name_H-M   'P 1'
_cell_length_a   9.19953600
_cell_length_b   9.23240083
_cell_length_c   6.24097600
_cell_angle_alpha   90.00000000
_cell_angle_beta   90.00000000
_cell_angle_gamma   119.88230771
_symmetry_Int_Tables_number   1
_chemical_formula_structural   CaPa2TiSb5
_chemical_formula_sum   'Ca2 Pa4 Ti2 Sb10'
_cell_volume   459.59738354
_cell_formula_units_Z   2
loop_
 _symmetry_equiv_pos_site_id
 _symmetry_equiv_pos_as_xyz
  1  'x, y, z'
loop_
 _atom_site_type_symbol
 _atom_site_label
 _atom_site_symmetry_multiplicity
 _atom_site_fract_x
 _atom_site_fract_y
 _atom_site_fract_z
 _atom_site_occupancy
  Ca  Ca0  1  0.613598  0.000000  0.250000  1
  Ca  Ca1  1  0.386402  0.000000  0.750000  1
  Pa  Pa2  1  0.008427  0.616049  0.250000  1
  Pa  Pa3  1  0.991573  0.383951  0.750000  1
  Pa  Pa4  1  0.392378  0.383951  0.250000  1
  Pa  Pa5  1  0.607622  0.616049  0.750000  1
  Ti  Ti6  1  0.000000  0.000000  0.000000  1
  Ti  Ti7  1  0.000000  0.000000  0.500000  1
  Sb  Sb8  1  0.256021  0.000000  0.250000  1
  Sb  Sb9  1  0.743979  0.000000  0.750000  1
  Sb  Sb10  1  0.004475  0.262789  0.250000  1
  Sb  Sb11  1  0.995525  0.737211  0.750000  1
  Sb  Sb12  1  0.741686  0.737211  0.250000  1
  Sb  Sb13  1  0.258314  0.262789  0.750000  1
  Sb  Sb14  1  0.327839  0.655679  0.000000  1
  Sb  Sb15  1  0.672161  0.344321  0.000000  1
  Sb  Sb16  1  0.672161  0.344321  0.500000  1
  Sb  Sb17  1  0.327839  0.655679  0.500000  1
