# generated using pymatgen
data_Tb6Er8Tm2Cd3AgIr4
_symmetry_space_group_name_H-M   'P 1'
_cell_length_a   9.59608160
_cell_length_b   9.59608158
_cell_length_c   9.59497700
_cell_angle_alpha   60.00380420
_cell_angle_beta   60.00380427
_cell_angle_gamma   59.99238705
_symmetry_Int_Tables_number   1
_chemical_formula_structural   Tb6Er8Tm2Cd3AgIr4
_chemical_formula_sum   'Tb6 Er8 Tm2 Cd3 Ag1 Ir4'
_cell_volume   624.76512345
_cell_formula_units_Z   1
loop_
 _symmetry_equiv_pos_site_id
 _symmetry_equiv_pos_as_xyz
  1  'x, y, z'
loop_
 _atom_site_type_symbol
 _atom_site_label
 _atom_site_symmetry_multiplicity
 _atom_site_fract_x
 _atom_site_fract_y
 _atom_site_fract_z
 _atom_site_occupancy
  Tb  Tb0  1  0.187508  0.810912  0.810914  1
  Tb  Tb1  1  0.811061  0.188435  0.188489  1
  Tb  Tb2  1  0.810912  0.187508  0.810914  1
  Tb  Tb3  1  0.188435  0.811061  0.188489  1
  Tb  Tb4  1  0.810973  0.810973  0.187498  1
  Tb  Tb5  1  0.188366  0.188366  0.811144  1
  Er  Er6  1  0.598198  0.598198  0.598511  1
  Er  Er7  1  0.599540  0.599540  0.203307  1
  Er  Er8  1  0.599798  0.203358  0.599499  1
  Er  Er9  1  0.203358  0.599798  0.599499  1
  Er  Er10  1  0.060990  0.438288  0.438320  1
  Er  Er11  1  0.437285  0.061484  0.061531  1
  Er  Er12  1  0.438288  0.060990  0.438320  1
  Er  Er13  1  0.061484  0.437285  0.061531  1
  Tm  Tm14  1  0.438535  0.438535  0.060685  1
  Tm  Tm15  1  0.061325  0.061325  0.437407  1
  Cd  Cd16  1  0.830923  0.830923  0.508757  1
  Cd  Cd17  1  0.830896  0.508734  0.830901  1
  Cd  Cd18  1  0.508734  0.830896  0.830901  1
  Ag  Ag19  1  0.831608  0.831608  0.831559  1
  Ir  Ir20  1  0.391806  0.391806  0.391245  1
  Ir  Ir21  1  0.392445  0.392445  0.825738  1
  Ir  Ir22  1  0.391793  0.825738  0.392421  1
  Ir  Ir23  1  0.825738  0.391793  0.392421  1
