# generated using pymatgen
data_Ho2B6Ir8Rh
_symmetry_space_group_name_H-M   'P 1'
_cell_length_a   5.63737139
_cell_length_b   5.63737044
_cell_length_c   8.64330200
_cell_angle_alpha   90.00000000
_cell_angle_beta   90.00000000
_cell_angle_gamma   119.95741817
_symmetry_Int_Tables_number   1
_chemical_formula_structural   Ho2B6Ir8Rh
_chemical_formula_sum   'Ho2 B6 Ir8 Rh1'
_cell_volume   237.98507880
_cell_formula_units_Z   1
loop_
 _symmetry_equiv_pos_site_id
 _symmetry_equiv_pos_as_xyz
  1  'x, y, z'
loop_
 _atom_site_type_symbol
 _atom_site_label
 _atom_site_symmetry_multiplicity
 _atom_site_fract_x
 _atom_site_fract_y
 _atom_site_fract_z
 _atom_site_occupancy
  Ho  Ho0  1  0.000000  0.000000  0.701758  1
  Ho  Ho1  1  0.000000  0.000000  0.298549  1
  B  B2  1  0.666656  0.333344  0.999914  1
  B  B3  1  0.333344  0.666656  0.999914  1
  B  B4  1  0.666839  0.333161  0.667717  1
  B  B5  1  0.333161  0.666839  0.667717  1
  B  B6  1  0.333361  0.666639  0.332124  1
  B  B7  1  0.666639  0.333361  0.332124  1
  Ir  Ir8  1  0.500000  0.500000  0.836432  1
  Ir  Ir9  1  0.500000  0.000000  0.836260  1
  Ir  Ir10  1  0.000000  0.500000  0.836260  1
  Ir  Ir11  1  0.500000  0.000000  0.164149  1
  Ir  Ir12  1  0.000000  0.500000  0.164149  1
  Ir  Ir13  1  0.500000  0.500000  0.499150  1
  Ir  Ir14  1  0.500000  0.000000  0.499728  1
  Ir  Ir15  1  0.000000  0.500000  0.499728  1
  Rh  Rh16  1  0.500000  0.500000  0.164327  1
