# generated using pymatgen
data_SmTh2In3PtRh2
_symmetry_space_group_name_H-M   'P 1'
_cell_length_a   7.72211204
_cell_length_b   7.71784929
_cell_length_c   3.99329500
_cell_angle_alpha   90.00000000
_cell_angle_beta   90.00000000
_cell_angle_gamma   119.78999822
_symmetry_Int_Tables_number   1
_chemical_formula_structural   SmTh2In3PtRh2
_chemical_formula_sum   'Sm1 Th2 In3 Pt1 Rh2'
_cell_volume   206.54255836
_cell_formula_units_Z   1
loop_
 _symmetry_equiv_pos_site_id
 _symmetry_equiv_pos_as_xyz
  1  'x, y, z'
loop_
 _atom_site_type_symbol
 _atom_site_label
 _atom_site_symmetry_multiplicity
 _atom_site_fract_x
 _atom_site_fract_y
 _atom_site_fract_z
 _atom_site_occupancy
  Sm  Sm0  1  0.409883  0.001270  0.500000  1
  Th  Th1  1  0.997292  0.408269  0.500000  1
  Th  Th2  1  0.595880  0.585544  0.500000  1
  In  In3  1  0.252404  0.237576  0.000000  1
  In  In4  1  0.010965  0.761086  0.000000  1
  In  In5  1  0.736683  0.001070  0.000000  1
  Pt  Pt6  1  0.330638  0.649425  0.000000  1
  Rh  Rh7  1  0.981425  0.000553  0.500000  1
  Rh  Rh8  1  0.684830  0.355207  0.000000  1
