# generated using pymatgen
data_AgSb5O13
_symmetry_space_group_name_H-M   'P 1'
_cell_length_a   5.62712241
_cell_length_b   5.62712253
_cell_length_c   16.80734300
_cell_angle_alpha   90.00000000
_cell_angle_beta   90.00000000
_cell_angle_gamma   106.93195964
_symmetry_Int_Tables_number   1
_chemical_formula_structural   AgSb5O13
_chemical_formula_sum   'Ag2 Sb10 O26'
_cell_volume   509.12621055
_cell_formula_units_Z   2
loop_
 _symmetry_equiv_pos_site_id
 _symmetry_equiv_pos_as_xyz
  1  'x, y, z'
loop_
 _atom_site_type_symbol
 _atom_site_label
 _atom_site_symmetry_multiplicity
 _atom_site_fract_x
 _atom_site_fract_y
 _atom_site_fract_z
 _atom_site_occupancy
  Ag  Ag0  1  0.893758  0.149655  0.750000  1
  Ag  Ag1  1  0.149655  0.893758  0.250000  1
  Sb  Sb2  1  0.386011  0.614301  0.079602  1
  Sb  Sb3  1  0.614301  0.386011  0.920398  1
  Sb  Sb4  1  0.000384  0.000384  0.000000  1
  Sb  Sb5  1  0.386011  0.614301  0.420398  1
  Sb  Sb6  1  0.614301  0.386011  0.579602  1
  Sb  Sb7  1  0.000384  0.000384  0.500000  1
  Sb  Sb8  1  0.769325  0.233077  0.360783  1
  Sb  Sb9  1  0.769325  0.233077  0.139217  1
  Sb  Sb10  1  0.233077  0.769325  0.860783  1
  Sb  Sb11  1  0.233077  0.769325  0.639217  1
  O  O12  1  0.530100  0.068653  0.864082  1
  O  O13  1  0.068653  0.530100  0.364082  1
  O  O14  1  0.068653  0.530100  0.135918  1
  O  O15  1  0.530100  0.068653  0.635918  1
  O  O16  1  0.311239  0.311239  0.000000  1
  O  O17  1  0.311239  0.311239  0.500000  1
  O  O18  1  0.014204  0.986298  0.615050  1
  O  O19  1  0.171025  0.829398  0.750000  1
  O  O20  1  0.226040  0.774414  0.989704  1
  O  O21  1  0.226040  0.774414  0.510296  1
  O  O22  1  0.445770  0.552864  0.654019  1
  O  O23  1  0.552864  0.445770  0.154019  1
  O  O24  1  0.774414  0.226040  0.489704  1
  O  O25  1  0.986298  0.014204  0.384950  1
  O  O26  1  0.552864  0.445770  0.345981  1
  O  O27  1  0.986298  0.014204  0.115050  1
  O  O28  1  0.829398  0.171025  0.250000  1
  O  O29  1  0.774414  0.226040  0.010296  1
  O  O30  1  0.014204  0.986298  0.884950  1
  O  O31  1  0.445770  0.552864  0.845981  1
  O  O32  1  0.689176  0.689176  0.500000  1
  O  O33  1  0.689176  0.689176  0.000000  1
  O  O34  1  0.471354  0.932396  0.363901  1
  O  O35  1  0.932396  0.471354  0.636099  1
  O  O36  1  0.932396  0.471354  0.863901  1
  O  O37  1  0.471354  0.932396  0.136099  1
