# generated using pymatgen
data_TbCe(Al3Pd)6
_symmetry_space_group_name_H-M   'P 1'
_cell_length_a   10.42763215
_cell_length_b   10.42763241
_cell_length_c   10.42763400
_cell_angle_alpha   42.21794378
_cell_angle_beta   42.21795034
_cell_angle_gamma   42.21794511
_symmetry_Int_Tables_number   1
_chemical_formula_structural   TbCe(Al3Pd)6
_chemical_formula_sum   'Tb1 Ce1 Al18 Pd6'
_cell_volume   463.30480750
_cell_formula_units_Z   1
loop_
 _symmetry_equiv_pos_site_id
 _symmetry_equiv_pos_as_xyz
  1  'x, y, z'
loop_
 _atom_site_type_symbol
 _atom_site_label
 _atom_site_symmetry_multiplicity
 _atom_site_fract_x
 _atom_site_fract_y
 _atom_site_fract_z
 _atom_site_occupancy
  Tb  Tb0  1  0.166816  0.166816  0.166816  1
  Ce  Ce1  1  0.833205  0.833205  0.833205  1
  Al  Al2  1  0.107442  0.434494  0.762691  1
  Al  Al3  1  0.434494  0.762691  0.107442  1
  Al  Al4  1  0.564948  0.892882  0.237466  1
  Al  Al5  1  0.950042  0.950042  0.950042  1
  Al  Al6  1  0.049729  0.049729  0.049729  1
  Al  Al7  1  0.296899  0.704265  0.498775  1
  Al  Al8  1  0.892882  0.237466  0.564948  1
  Al  Al9  1  0.384267  0.384267  0.384267  1
  Al  Al10  1  0.498775  0.296899  0.704265  1
  Al  Al11  1  0.237466  0.564948  0.892882  1
  Al  Al12  1  0.716369  0.716369  0.716369  1
  Al  Al13  1  0.615776  0.615776  0.615776  1
  Al  Al14  1  0.334400  0.000563  0.665061  1
  Al  Al15  1  0.704265  0.498775  0.296899  1
  Al  Al16  1  0.665061  0.334400  0.000563  1
  Al  Al17  1  0.283914  0.283914  0.283914  1
  Al  Al18  1  0.000563  0.665061  0.334400  1
  Al  Al19  1  0.762691  0.107442  0.434494  1
  Pd  Pd20  1  0.417807  0.078062  0.759946  1
  Pd  Pd21  1  0.580530  0.240878  0.922773  1
  Pd  Pd22  1  0.078062  0.759946  0.417807  1
  Pd  Pd23  1  0.759946  0.417807  0.078062  1
  Pd  Pd24  1  0.922773  0.580530  0.240878  1
  Pd  Pd25  1  0.240878  0.922773  0.580530  1
