# generated using pymatgen
data_Tm2Co3Si6PRu9
_symmetry_space_group_name_H-M   'P 1'
_cell_length_a   9.42124544
_cell_length_b   9.46111446
_cell_length_c   3.83804600
_cell_angle_alpha   90.00000000
_cell_angle_beta   90.00000000
_cell_angle_gamma   120.14115705
_symmetry_Int_Tables_number   1
_chemical_formula_structural   Tm2Co3Si6PRu9
_chemical_formula_sum   'Tm2 Co3 Si6 P1 Ru9'
_cell_volume   295.85023995
_cell_formula_units_Z   1
loop_
 _symmetry_equiv_pos_site_id
 _symmetry_equiv_pos_as_xyz
  1  'x, y, z'
loop_
 _atom_site_type_symbol
 _atom_site_label
 _atom_site_symmetry_multiplicity
 _atom_site_fract_x
 _atom_site_fract_y
 _atom_site_fract_z
 _atom_site_occupancy
  Tm  Tm0  1  0.669500  0.333330  0.000000  1
  Tm  Tm1  1  0.999719  0.998799  0.500000  1
  Co  Co2  1  0.484273  0.939518  0.000000  1
  Co  Co3  1  0.060724  0.544943  0.000000  1
  Co  Co4  1  0.449547  0.511007  0.000000  1
  Si  Si5  1  0.333730  0.667696  0.000000  1
  Si  Si6  1  0.442817  0.061104  0.500000  1
  Si  Si7  1  0.940072  0.382759  0.500000  1
  Si  Si8  1  0.613664  0.556282  0.500000  1
  Si  Si9  1  0.737097  0.961516  0.000000  1
  Si  Si10  1  0.040567  0.774691  0.000000  1
  P  P11  1  0.227850  0.261256  0.000000  1
  Ru  Ru12  1  0.758784  0.722563  0.000000  1
  Ru  Ru13  1  0.275783  0.037955  0.000000  1
  Ru  Ru14  1  0.974573  0.241652  0.000000  1
  Ru  Ru15  1  0.716328  0.103741  0.500000  1
  Ru  Ru16  1  0.895882  0.611254  0.500000  1
  Ru  Ru17  1  0.381518  0.284754  0.500000  1
  Ru  Ru18  1  0.537474  0.764261  0.500000  1
  Ru  Ru19  1  0.235302  0.775164  0.500000  1
  Ru  Ru20  1  0.224798  0.465752  0.500000  1
