# generated using pymatgen
data_ScMn2(AlRh2)3
_symmetry_space_group_name_H-M   'P 1'
_cell_length_a   4.33135800
_cell_length_b   6.11816400
_cell_length_c   12.99362700
_cell_angle_alpha   90.00000000
_cell_angle_beta   90.00000000
_cell_angle_gamma   90.00000000
_symmetry_Int_Tables_number   1
_chemical_formula_structural   ScMn2(AlRh2)3
_chemical_formula_sum   'Sc2 Mn4 Al6 Rh12'
_cell_volume   344.33057739
_cell_formula_units_Z   2
loop_
 _symmetry_equiv_pos_site_id
 _symmetry_equiv_pos_as_xyz
  1  'x, y, z'
loop_
 _atom_site_type_symbol
 _atom_site_label
 _atom_site_symmetry_multiplicity
 _atom_site_fract_x
 _atom_site_fract_y
 _atom_site_fract_z
 _atom_site_occupancy
  Sc  Sc0  1  0.000140  0.000000  0.664614  1
  Sc  Sc1  1  0.500138  0.500000  0.835386  1
  Mn  Mn2  1  0.000004  0.000000  0.003304  1
  Mn  Mn3  1  0.499872  0.500000  0.167282  1
  Mn  Mn4  1  0.999872  0.000000  0.332718  1
  Mn  Mn5  1  0.500005  0.500000  0.496696  1
  Al  Al6  1  0.000008  0.500000  0.006438  1
  Al  Al7  1  0.499846  0.000000  0.169575  1
  Al  Al8  1  0.999846  0.500000  0.330424  1
  Al  Al9  1  0.500009  0.000000  0.493562  1
  Al  Al10  1  0.000110  0.500000  0.663350  1
  Al  Al11  1  0.500110  0.000000  0.836651  1
  Rh  Rh12  1  0.500016  0.245625  0.003960  1
  Rh  Rh13  1  0.500016  0.754375  0.003960  1
  Rh  Rh14  1  0.999877  0.249212  0.167743  1
  Rh  Rh15  1  0.999877  0.750789  0.167743  1
  Rh  Rh16  1  0.499876  0.250788  0.332256  1
  Rh  Rh17  1  0.499876  0.749212  0.332256  1
  Rh  Rh18  1  0.000015  0.254375  0.496040  1
  Rh  Rh19  1  0.000015  0.745624  0.496040  1
  Rh  Rh20  1  0.500120  0.255106  0.662828  1
  Rh  Rh21  1  0.500120  0.744894  0.662828  1
  Rh  Rh22  1  0.000120  0.244894  0.837172  1
  Rh  Rh23  1  0.000120  0.755107  0.837172  1
