# generated using pymatgen
data_DyLu3(ZnIr)4
_symmetry_space_group_name_H-M   'P 1'
_cell_length_a   4.01455900
_cell_length_b   6.93743362
_cell_length_c   8.05010132
_cell_angle_alpha   89.72171444
_cell_angle_beta   90.00000000
_cell_angle_gamma   90.00000000
_symmetry_Int_Tables_number   1
_chemical_formula_structural   DyLu3(ZnIr)4
_chemical_formula_sum   'Dy1 Lu3 Zn4 Ir4'
_cell_volume   224.19860700
_cell_formula_units_Z   1
loop_
 _symmetry_equiv_pos_site_id
 _symmetry_equiv_pos_as_xyz
  1  'x, y, z'
loop_
 _atom_site_type_symbol
 _atom_site_label
 _atom_site_symmetry_multiplicity
 _atom_site_fract_x
 _atom_site_fract_y
 _atom_site_fract_z
 _atom_site_occupancy
  Dy  Dy0  1  0.250000  0.536205  0.182495  1
  Lu  Lu1  1  0.750000  0.463008  0.816441  1
  Lu  Lu2  1  0.750000  0.964221  0.681920  1
  Lu  Lu3  1  0.250000  0.037308  0.319900  1
  Zn  Zn4  1  0.250000  0.639062  0.566246  1
  Zn  Zn5  1  0.750000  0.360221  0.434838  1
  Zn  Zn6  1  0.750000  0.861558  0.064718  1
  Zn  Zn7  1  0.250000  0.137330  0.933754  1
  Ir  Ir8  1  0.250000  0.756629  0.874278  1
  Ir  Ir9  1  0.750000  0.240047  0.122616  1
  Ir  Ir10  1  0.750000  0.747897  0.379359  1
  Ir  Ir11  1  0.250000  0.256518  0.623436  1
