# generated using pymatgen
data_BaLi2SnS4
_symmetry_space_group_name_H-M   'P 1'
_cell_length_a   6.56284500
_cell_length_b   6.56284569
_cell_length_c   16.21353600
_cell_angle_alpha   90.00000000
_cell_angle_beta   90.00000000
_cell_angle_gamma   120.00000156
_symmetry_Int_Tables_number   1
_chemical_formula_structural   BaLi2SnS4
_chemical_formula_sum   'Ba3 Li6 Sn3 S12'
_cell_volume   604.77343371
_cell_formula_units_Z   3
loop_
 _symmetry_equiv_pos_site_id
 _symmetry_equiv_pos_as_xyz
  1  'x, y, z'
loop_
 _atom_site_type_symbol
 _atom_site_label
 _atom_site_symmetry_multiplicity
 _atom_site_fract_x
 _atom_site_fract_y
 _atom_site_fract_z
 _atom_site_occupancy
  Ba  Ba0  1  0.430067  0.430067  0.500000  1
  Ba  Ba1  1  0.000000  0.569933  0.166667  1
  Ba  Ba2  1  0.569933  0.000000  0.833333  1
  Li  Li3  1  0.350694  0.416459  0.745391  1
  Li  Li4  1  0.934235  0.583541  0.921276  1
  Li  Li5  1  0.416459  0.350694  0.254609  1
  Li  Li6  1  0.065765  0.649306  0.412057  1
  Li  Li7  1  0.583541  0.934235  0.078724  1
  Li  Li8  1  0.649306  0.065765  0.587943  1
  Sn  Sn9  1  0.706479  0.000000  0.333333  1
  Sn  Sn10  1  0.000000  0.706479  0.666667  1
  Sn  Sn11  1  0.293521  0.293521  0.000000  1
  S  S12  1  0.755052  0.655881  0.331712  1
  S  S13  1  0.900828  0.244948  0.998379  1
  S  S14  1  0.344119  0.099172  0.665046  1
  S  S15  1  0.099172  0.344119  0.334954  1
  S  S16  1  0.244948  0.900828  0.001621  1
  S  S17  1  0.655881  0.755052  0.668288  1
  S  S18  1  0.947187  0.462243  0.548216  1
  S  S19  1  0.515056  0.052813  0.214883  1
  S  S20  1  0.052813  0.515056  0.785117  1
  S  S21  1  0.462243  0.947187  0.451784  1
  S  S22  1  0.484944  0.537757  0.118451  1
  S  S23  1  0.537757  0.484944  0.881549  1
