# generated using pymatgen
data_Ca3Np4PaH24
_symmetry_space_group_name_H-M   'P 1'
_cell_length_a   6.63431700
_cell_length_b   6.67150300
_cell_length_c   6.69927800
_cell_angle_alpha   90.00000000
_cell_angle_beta   90.00000000
_cell_angle_gamma   90.00000000
_symmetry_Int_Tables_number   1
_chemical_formula_structural   Ca3Np4PaH24
_chemical_formula_sum   'Ca3 Np4 Pa1 H24'
_cell_volume   296.51584430
_cell_formula_units_Z   1
loop_
 _symmetry_equiv_pos_site_id
 _symmetry_equiv_pos_as_xyz
  1  'x, y, z'
loop_
 _atom_site_type_symbol
 _atom_site_label
 _atom_site_symmetry_multiplicity
 _atom_site_fract_x
 _atom_site_fract_y
 _atom_site_fract_z
 _atom_site_occupancy
  Ca  Ca0  1  0.242969  0.000000  0.498132  1
  Ca  Ca1  1  0.757031  0.000000  0.498132  1
  Ca  Ca2  1  0.000000  0.500000  0.249912  1
  Np  Np3  1  0.000000  0.000000  0.999181  1
  Np  Np4  1  0.000000  0.500000  0.750001  1
  Np  Np5  1  0.500000  0.751775  0.001024  1
  Np  Np6  1  0.500000  0.248225  0.001024  1
  Pa  Pa7  1  0.500000  0.500000  0.502256  1
  H  H8  1  0.000000  0.153104  0.287165  1
  H  H9  1  0.500000  0.215724  0.661047  1
  H  H10  1  0.500000  0.784363  0.339520  1
  H  H11  1  0.798451  0.648485  0.512844  1
  H  H12  1  0.201549  0.648485  0.512844  1
  H  H13  1  0.346717  0.500000  0.801853  1
  H  H14  1  0.653283  0.500000  0.801853  1
  H  H15  1  0.312346  0.000000  0.148892  1
  H  H16  1  0.156997  0.297942  0.987442  1
  H  H17  1  0.843003  0.702058  0.987442  1
  H  H18  1  0.312901  0.000000  0.851905  1
  H  H19  1  0.843003  0.297942  0.987442  1
  H  H20  1  0.687654  0.000000  0.148892  1
  H  H21  1  0.687099  0.000000  0.851905  1
  H  H22  1  0.156997  0.702058  0.987442  1
  H  H23  1  0.000000  0.838742  0.710353  1
  H  H24  1  0.000000  0.161258  0.710353  1
  H  H25  1  0.000000  0.846896  0.287165  1
  H  H26  1  0.647838  0.500000  0.198863  1
  H  H27  1  0.352162  0.500000  0.198863  1
  H  H28  1  0.798451  0.351515  0.512844  1
  H  H29  1  0.201549  0.351515  0.512844  1
  H  H30  1  0.500000  0.784276  0.661047  1
  H  H31  1  0.500000  0.215637  0.339520  1
