# generated using pymatgen
data_La8Zn3Si12Pt
_symmetry_space_group_name_H-M   'P 1'
_cell_length_a   8.27440900
_cell_length_b   8.27440841
_cell_length_c   8.88788700
_cell_angle_alpha   90.00000000
_cell_angle_beta   90.00000000
_cell_angle_gamma   119.99999837
_symmetry_Int_Tables_number   1
_chemical_formula_structural   La8Zn3Si12Pt
_chemical_formula_sum   'La8 Zn3 Si12 Pt1'
_cell_volume   526.99088092
_cell_formula_units_Z   1
loop_
 _symmetry_equiv_pos_site_id
 _symmetry_equiv_pos_as_xyz
  1  'x, y, z'
loop_
 _atom_site_type_symbol
 _atom_site_label
 _atom_site_symmetry_multiplicity
 _atom_site_fract_x
 _atom_site_fract_y
 _atom_site_fract_z
 _atom_site_occupancy
  La  La0  1  0.000000  0.000000  0.249654  1
  La  La1  1  0.000000  0.000000  0.750118  1
  La  La2  1  0.499665  0.500335  0.249451  1
  La  La3  1  0.499665  0.999331  0.249451  1
  La  La4  1  0.000669  0.500335  0.249451  1
  La  La5  1  0.498808  0.501192  0.750431  1
  La  La6  1  0.498808  0.997616  0.750431  1
  La  La7  1  0.002384  0.501192  0.750431  1
  Zn  Zn8  1  0.666667  0.333333  0.503188  1
  Zn  Zn9  1  0.666667  0.333333  0.996535  1
  Zn  Zn10  1  0.333333  0.666667  0.003818  1
  Si  Si11  1  0.167096  0.832904  0.500598  1
  Si  Si12  1  0.167096  0.334192  0.500598  1
  Si  Si13  1  0.665808  0.832904  0.500598  1
  Si  Si14  1  0.836132  0.163868  0.499420  1
  Si  Si15  1  0.836132  0.672265  0.499420  1
  Si  Si16  1  0.327735  0.163868  0.499420  1
  Si  Si17  1  0.833593  0.166407  0.000630  1
  Si  Si18  1  0.833593  0.667185  0.000630  1
  Si  Si19  1  0.332815  0.166407  0.000630  1
  Si  Si20  1  0.166281  0.833719  0.999221  1
  Si  Si21  1  0.166281  0.332562  0.999221  1
  Si  Si22  1  0.667438  0.833719  0.999221  1
  Pt  Pt23  1  0.333333  0.666667  0.497431  1
