# generated using pymatgen
data_Nd6Tm10Cd3AgIr4
_symmetry_space_group_name_H-M   'P 1'
_cell_length_a   9.65972505
_cell_length_b   9.65972580
_cell_length_c   9.65972573
_cell_angle_alpha   59.93886816
_cell_angle_beta   59.93886371
_cell_angle_gamma   59.93887118
_symmetry_Int_Tables_number   1
_chemical_formula_structural   Nd6Tm10Cd3AgIr4
_chemical_formula_sum   'Nd6 Tm10 Cd3 Ag1 Ir4'
_cell_volume   636.46828976
_cell_formula_units_Z   1
loop_
 _symmetry_equiv_pos_site_id
 _symmetry_equiv_pos_as_xyz
  1  'x, y, z'
loop_
 _atom_site_type_symbol
 _atom_site_label
 _atom_site_symmetry_multiplicity
 _atom_site_fract_x
 _atom_site_fract_y
 _atom_site_fract_z
 _atom_site_occupancy
  Nd  Nd0  1  0.938209  0.558838  0.558838  1
  Nd  Nd1  1  0.558632  0.940136  0.940136  1
  Nd  Nd2  1  0.558838  0.938209  0.558838  1
  Nd  Nd3  1  0.940136  0.558632  0.940136  1
  Nd  Nd4  1  0.558838  0.558838  0.938209  1
  Nd  Nd5  1  0.940136  0.940136  0.558632  1
  Tm  Tm6  1  0.346660  0.346660  0.346660  1
  Tm  Tm7  1  0.348355  0.348355  0.957652  1
  Tm  Tm8  1  0.348355  0.957652  0.348355  1
  Tm  Tm9  1  0.957652  0.348355  0.348355  1
  Tm  Tm10  1  0.812314  0.186800  0.186800  1
  Tm  Tm11  1  0.186138  0.812862  0.812862  1
  Tm  Tm12  1  0.186800  0.812314  0.186800  1
  Tm  Tm13  1  0.812862  0.186138  0.812862  1
  Tm  Tm14  1  0.186800  0.186800  0.812314  1
  Tm  Tm15  1  0.812862  0.812862  0.186138  1
  Cd  Cd16  1  0.580091  0.580091  0.263286  1
  Cd  Cd17  1  0.580091  0.263286  0.580091  1
  Cd  Cd18  1  0.263286  0.580091  0.580091  1
  Ag  Ag19  1  0.581250  0.581250  0.581250  1
  Ir  Ir20  1  0.141246  0.141246  0.141246  1
  Ir  Ir21  1  0.141848  0.141848  0.576749  1
  Ir  Ir22  1  0.141848  0.576749  0.141848  1
  Ir  Ir23  1  0.576749  0.141848  0.141848  1
