# generated using pymatgen
data_Sr8GaMo3O16
_symmetry_space_group_name_H-M   'P 1'
_cell_length_a   5.69791131
_cell_length_b   5.69791211
_cell_length_c   12.69058961
_cell_angle_alpha   89.94489281
_cell_angle_beta   90.05511140
_cell_angle_gamma   89.37790985
_symmetry_Int_Tables_number   1
_chemical_formula_structural   Sr8GaMo3O16
_chemical_formula_sum   'Sr8 Ga1 Mo3 O16'
_cell_volume   411.99052275
_cell_formula_units_Z   1
loop_
 _symmetry_equiv_pos_site_id
 _symmetry_equiv_pos_as_xyz
  1  'x, y, z'
loop_
 _atom_site_type_symbol
 _atom_site_label
 _atom_site_symmetry_multiplicity
 _atom_site_fract_x
 _atom_site_fract_y
 _atom_site_fract_z
 _atom_site_occupancy
  Sr  Sr0  1  0.260675  0.758660  0.106024  1
  Sr  Sr1  1  0.261730  0.238270  0.600261  1
  Sr  Sr2  1  0.740371  0.759629  0.595832  1
  Sr  Sr3  1  0.741340  0.239325  0.106024  1
  Sr  Sr4  1  0.758660  0.260675  0.393976  1
  Sr  Sr5  1  0.759629  0.740371  0.904168  1
  Sr  Sr6  1  0.238270  0.261730  0.899739  1
  Sr  Sr7  1  0.239325  0.741340  0.393976  1
  Ga  Ga8  1  0.750000  0.750000  0.250000  1
  Mo  Mo9  1  0.250000  0.750000  0.750000  1
  Mo  Mo10  1  0.250000  0.250000  0.250000  1
  Mo  Mo11  1  0.750000  0.250000  0.750000  1
  O  O12  1  0.277792  0.222208  0.089712  1
  O  O13  1  0.283310  0.783580  0.584581  1
  O  O14  1  0.499916  0.000084  0.780198  1
  O  O15  1  0.491509  0.008491  0.267967  1
  O  O16  1  0.499170  0.499170  0.750000  1
  O  O17  1  0.499278  0.499278  0.250000  1
  O  O18  1  0.716420  0.216690  0.584581  1
  O  O19  1  0.722010  0.777990  0.095144  1
  O  O20  1  0.783580  0.283310  0.915419  1
  O  O21  1  0.777990  0.722010  0.404856  1
  O  O22  1  0.000722  0.000722  0.250000  1
  O  O23  1  0.008491  0.491509  0.232033  1
  O  O24  1  0.000830  0.000830  0.750000  1
  O  O25  1  0.000084  0.499916  0.719802  1
  O  O26  1  0.216690  0.716420  0.915419  1
  O  O27  1  0.222208  0.277792  0.410288  1
