# generated using pymatgen
data_Ho9Lu3In2Fe2Os
_symmetry_space_group_name_H-M   'P 1'
_cell_length_a   8.30737624
_cell_length_b   8.31448165
_cell_length_c   8.30737711
_cell_angle_alpha   108.58072303
_cell_angle_beta   108.64586326
_cell_angle_gamma   111.16534308
_symmetry_Int_Tables_number   1
_chemical_formula_structural   Ho9Lu3In2Fe2Os
_chemical_formula_sum   'Ho9 Lu3 In2 Fe2 Os1'
_cell_volume   441.61155005
_cell_formula_units_Z   1
loop_
 _symmetry_equiv_pos_site_id
 _symmetry_equiv_pos_as_xyz
  1  'x, y, z'
loop_
 _atom_site_type_symbol
 _atom_site_label
 _atom_site_symmetry_multiplicity
 _atom_site_fract_x
 _atom_site_fract_y
 _atom_site_fract_z
 _atom_site_occupancy
  Ho  Ho0  1  0.955368  0.192840  0.763117  1
  Ho  Ho1  1  0.808811  0.047234  0.238424  1
  Ho  Ho2  1  0.045493  0.806791  0.237590  1
  Ho  Ho3  1  0.429724  0.192840  0.237473  1
  Ho  Ho4  1  0.569200  0.806791  0.761298  1
  Ho  Ho5  1  0.308775  0.307606  0.615976  1
  Ho  Ho6  1  0.691790  0.691813  0.384812  1
  Ho  Ho7  1  0.691629  0.307606  0.998832  1
  Ho  Ho8  1  0.307002  0.691813  0.000022  1
  Lu  Lu9  1  0.191231  0.428260  0.237029  1
  Lu  Lu10  1  0.809615  0.572367  0.762754  1
  Lu  Lu11  1  0.190561  0.953798  0.763236  1
  In  In12  1  0.000899  0.501632  0.500732  1
  In  In13  1  0.500086  0.999922  0.499837  1
  Fe  Fe14  1  0.385379  0.385357  0.999978  1
  Fe  Fe15  1  0.613876  0.613534  0.999659  1
  Os  Os16  1  0.000561  0.999792  0.999231  1
