# generated using pymatgen
data_Pr3Lu(Bi2O7)2
_symmetry_space_group_name_H-M   'P 1'
_cell_length_a   6.71032589
_cell_length_b   6.82364327
_cell_length_c   7.92152118
_cell_angle_alpha   106.68953505
_cell_angle_beta   89.68376733
_cell_angle_gamma   97.80089561
_symmetry_Int_Tables_number   1
_chemical_formula_structural   Pr3Lu(Bi2O7)2
_chemical_formula_sum   'Pr3 Lu1 Bi4 O14'
_cell_volume   344.00869803
_cell_formula_units_Z   1
loop_
 _symmetry_equiv_pos_site_id
 _symmetry_equiv_pos_as_xyz
  1  'x, y, z'
loop_
 _atom_site_type_symbol
 _atom_site_label
 _atom_site_symmetry_multiplicity
 _atom_site_fract_x
 _atom_site_fract_y
 _atom_site_fract_z
 _atom_site_occupancy
  Pr  Pr0  1  0.543815  0.991523  0.747761  1
  Pr  Pr1  1  0.256575  0.538268  0.884014  1
  Pr  Pr2  1  0.740699  0.465380  0.117812  1
  Lu  Lu3  1  0.459010  0.004445  0.250791  1
  Bi  Bi4  1  0.001924  0.001069  0.498186  1
  Bi  Bi5  1  0.002427  0.001991  0.006753  1
  Bi  Bi6  1  0.719687  0.448780  0.602265  1
  Bi  Bi7  1  0.273759  0.539147  0.380662  1
  O  O8  1  0.446015  0.664234  0.175851  1
  O  O9  1  0.559042  0.354439  0.828535  1
  O  O10  1  0.305325  0.928546  0.961681  1
  O  O11  1  0.701066  0.070676  0.061007  1
  O  O12  1  0.301238  0.921101  0.501092  1
  O  O13  1  0.700226  0.079231  0.476366  1
  O  O14  1  0.529436  0.346614  0.339142  1
  O  O15  1  0.450624  0.629782  0.644841  1
  O  O16  1  0.932041  0.680090  0.965891  1
  O  O17  1  0.072833  0.325799  0.044951  1
  O  O18  1  0.073284  0.320955  0.625916  1
  O  O19  1  0.907561  0.681213  0.380743  1
  O  O20  1  0.894285  0.933942  0.736155  1
  O  O21  1  0.129125  0.072775  0.269587  1
