# generated using pymatgen
data_Y7Ho9MgCo4Hg3
_symmetry_space_group_name_H-M   'P 1'
_cell_length_a   9.47847274
_cell_length_b   9.45390062
_cell_length_c   9.45413300
_cell_angle_alpha   59.99919037
_cell_angle_beta   60.08491254
_cell_angle_gamma   60.15585980
_symmetry_Int_Tables_number   1
_chemical_formula_structural   Y7Ho9MgCo4Hg3
_chemical_formula_sum   'Y7 Ho9 Mg1 Co4 Hg3'
_cell_volume   600.12397011
_cell_formula_units_Z   1
loop_
 _symmetry_equiv_pos_site_id
 _symmetry_equiv_pos_as_xyz
  1  'x, y, z'
loop_
 _atom_site_type_symbol
 _atom_site_label
 _atom_site_symmetry_multiplicity
 _atom_site_fract_x
 _atom_site_fract_y
 _atom_site_fract_z
 _atom_site_occupancy
  Y  Y0  1  0.809402  0.810998  0.189800  1
  Y  Y1  1  0.938938  0.560514  0.561554  1
  Y  Y2  1  0.560069  0.939387  0.938005  1
  Y  Y3  1  0.560069  0.939387  0.562539  1
  Y  Y4  1  0.938938  0.560514  0.938995  1
  Y  Y5  1  0.560319  0.561626  0.939027  1
  Y  Y6  1  0.938150  0.939988  0.560932  1
  Ho  Ho7  1  0.346630  0.345062  0.344455  1
  Ho  Ho8  1  0.346630  0.345062  0.963852  1
  Ho  Ho9  1  0.346753  0.963658  0.344795  1
  Ho  Ho10  1  0.953412  0.348918  0.348834  1
  Ho  Ho11  1  0.809366  0.189121  0.189925  1
  Ho  Ho12  1  0.185155  0.813028  0.814078  1
  Ho  Ho13  1  0.185155  0.813028  0.187740  1
  Ho  Ho14  1  0.809366  0.189121  0.811589  1
  Ho  Ho15  1  0.185287  0.186826  0.813943  1
  Mg  Mg16  1  0.285836  0.571142  0.571511  1
  Co  Co17  1  0.138557  0.142637  0.141759  1
  Co  Co18  1  0.138557  0.142637  0.577048  1
  Co  Co19  1  0.141394  0.575972  0.141317  1
  Co  Co20  1  0.575585  0.144187  0.140113  1
  Hg  Hg21  1  0.582069  0.585066  0.585070  1
  Hg  Hg22  1  0.582069  0.585066  0.247797  1
  Hg  Hg23  1  0.582292  0.247059  0.585325  1
