# generated using pymatgen
data_K2Si4NiO10
_symmetry_space_group_name_H-M   'P 1'
_cell_length_a   7.19723934
_cell_length_b   8.14893564
_cell_length_c   10.04972879
_cell_angle_alpha   104.20520826
_cell_angle_beta   102.26308871
_cell_angle_gamma   112.57415760
_symmetry_Int_Tables_number   1
_chemical_formula_structural   K2Si4NiO10
_chemical_formula_sum   'K4 Si8 Ni2 O20'
_cell_volume   495.69998611
_cell_formula_units_Z   2
loop_
 _symmetry_equiv_pos_site_id
 _symmetry_equiv_pos_as_xyz
  1  'x, y, z'
loop_
 _atom_site_type_symbol
 _atom_site_label
 _atom_site_symmetry_multiplicity
 _atom_site_fract_x
 _atom_site_fract_y
 _atom_site_fract_z
 _atom_site_occupancy
  K  K0  1  0.670899  0.802051  0.994296  1
  K  K1  1  0.734452  0.236885  0.416165  1
  K  K2  1  0.265548  0.763115  0.583835  1
  K  K3  1  0.329101  0.197949  0.005704  1
  Si  Si4  1  0.063306  0.688336  0.865883  1
  Si  Si5  1  0.936694  0.311664  0.134117  1
  Si  Si6  1  0.223617  0.905515  0.209913  1
  Si  Si7  1  0.776383  0.094485  0.790087  1
  Si  Si8  1  0.394420  0.625615  0.261992  1
  Si  Si9  1  0.186786  0.376084  0.737774  1
  Si  Si10  1  0.813214  0.623916  0.262226  1
  Si  Si11  1  0.605580  0.374385  0.738008  1
  Ni  Ni12  1  0.737571  0.686944  0.585485  1
  Ni  Ni13  1  0.262429  0.313056  0.414515  1
  O  O14  1  0.989585  0.790236  0.225029  1
  O  O15  1  0.010415  0.209764  0.774971  1
  O  O16  1  0.833120  0.536002  0.868764  1
  O  O17  1  0.166880  0.463998  0.131236  1
  O  O18  1  0.582703  0.625598  0.191442  1
  O  O19  1  0.417297  0.374402  0.808558  1
  O  O20  1  0.217687  0.583902  0.841383  1
  O  O21  1  0.782313  0.416098  0.158617  1
  O  O22  1  0.869483  0.650646  0.430237  1
  O  O23  1  0.130517  0.349354  0.569763  1
  O  O24  1  0.427087  0.582530  0.410713  1
  O  O25  1  0.572913  0.417470  0.589287  1
  O  O26  1  0.028484  0.784074  0.748847  1
  O  O27  1  0.971516  0.215926  0.251153  1
  O  O28  1  0.807742  0.151510  0.966381  1
  O  O29  1  0.192258  0.848490  0.033619  1
  O  O30  1  0.607094  0.166852  0.714841  1
  O  O31  1  0.392906  0.833148  0.285159  1
  O  O32  1  0.327438  0.131578  0.280777  1
  O  O33  1  0.672562  0.868422  0.719223  1
