# generated using pymatgen
data_Y4NiPt3
_symmetry_space_group_name_H-M   'P 1'
_cell_length_a   4.44679100
_cell_length_b   5.56179521
_cell_length_c   7.09296188
_cell_angle_alpha   90.68871126
_cell_angle_beta   90.00000000
_cell_angle_gamma   90.00000000
_symmetry_Int_Tables_number   1
_chemical_formula_structural   Y4NiPt3
_chemical_formula_sum   'Y4 Ni1 Pt3'
_cell_volume   175.41145941
_cell_formula_units_Z   1
loop_
 _symmetry_equiv_pos_site_id
 _symmetry_equiv_pos_as_xyz
  1  'x, y, z'
loop_
 _atom_site_type_symbol
 _atom_site_label
 _atom_site_symmetry_multiplicity
 _atom_site_fract_x
 _atom_site_fract_y
 _atom_site_fract_z
 _atom_site_occupancy
  Y  Y0  1  0.250000  0.636911  0.179757  1
  Y  Y1  1  0.750000  0.361931  0.819181  1
  Y  Y2  1  0.750000  0.140103  0.317677  1
  Y  Y3  1  0.250000  0.859933  0.682577  1
  Ni  Ni4  1  0.250000  0.138372  0.039156  1
  Pt  Pt5  1  0.750000  0.865458  0.961978  1
  Pt  Pt6  1  0.750000  0.653607  0.454041  1
  Pt  Pt7  1  0.250000  0.343684  0.545632  1
