# generated using pymatgen
data_Cs2Np2ZnCuSe6
_symmetry_space_group_name_H-M   'P 1'
_cell_length_a   8.37725837
_cell_length_b   8.37725979
_cell_length_c   10.95248300
_cell_angle_alpha   90.00000000
_cell_angle_beta   90.00000000
_cell_angle_gamma   151.04060175
_symmetry_Int_Tables_number   1
_chemical_formula_structural   Cs2Np2ZnCuSe6
_chemical_formula_sum   'Cs2 Np2 Zn1 Cu1 Se6'
_cell_volume   372.16201117
_cell_formula_units_Z   1
loop_
 _symmetry_equiv_pos_site_id
 _symmetry_equiv_pos_as_xyz
  1  'x, y, z'
loop_
 _atom_site_type_symbol
 _atom_site_label
 _atom_site_symmetry_multiplicity
 _atom_site_fract_x
 _atom_site_fract_y
 _atom_site_fract_z
 _atom_site_occupancy
  Cs  Cs0  1  0.744842  0.255158  0.250000  1
  Cs  Cs1  1  0.256501  0.743499  0.750000  1
  Np  Np2  1  0.997961  0.002039  0.491400  1
  Np  Np3  1  0.997961  0.002039  0.008600  1
  Zn  Zn4  1  0.534631  0.465369  0.750000  1
  Cu  Cu5  1  0.469070  0.530930  0.250000  1
  Se  Se6  1  0.614138  0.385862  0.559702  1
  Se  Se7  1  0.384883  0.615117  0.437394  1
  Se  Se8  1  0.057729  0.942271  0.250000  1
  Se  Se9  1  0.943261  0.056739  0.750000  1
  Se  Se10  1  0.614138  0.385862  0.940298  1
  Se  Se11  1  0.384883  0.615117  0.062606  1
