# generated using pymatgen
data_Ba6Sn8BiSe
_symmetry_space_group_name_H-M   'P 1'
_cell_length_a   9.29244787
_cell_length_b   9.29244814
_cell_length_c   9.34614719
_cell_angle_alpha   119.81012652
_cell_angle_beta   119.81012160
_cell_angle_gamma   90.00000247
_symmetry_Int_Tables_number   1
_chemical_formula_structural   Ba6Sn8BiSe
_chemical_formula_sum   'Ba6 Sn8 Bi1 Se1'
_cell_volume   573.92056029
_cell_formula_units_Z   1
loop_
 _symmetry_equiv_pos_site_id
 _symmetry_equiv_pos_as_xyz
  1  'x, y, z'
loop_
 _atom_site_type_symbol
 _atom_site_label
 _atom_site_symmetry_multiplicity
 _atom_site_fract_x
 _atom_site_fract_y
 _atom_site_fract_z
 _atom_site_occupancy
  Ba  Ba0  1  0.240263  0.240263  0.480525  1
  Ba  Ba1  1  0.759737  0.759737  0.519475  1
  Ba  Ba2  1  0.673091  0.160470  0.000000  1
  Ba  Ba3  1  0.326909  0.839530  0.000000  1
  Ba  Ba4  1  0.839530  0.673091  0.000000  1
  Ba  Ba5  1  0.160470  0.326909  0.000000  1
  Sn  Sn6  1  0.336906  0.833801  0.389428  1
  Sn  Sn7  1  0.663094  0.166199  0.610572  1
  Sn  Sn8  1  0.052523  0.555627  0.389428  1
  Sn  Sn9  1  0.555627  0.336906  0.389428  1
  Sn  Sn10  1  0.166199  0.947477  0.610572  1
  Sn  Sn11  1  0.947477  0.444373  0.610572  1
  Sn  Sn12  1  0.444373  0.663094  0.610572  1
  Sn  Sn13  1  0.833801  0.052523  0.389428  1
  Bi  Bi14  1  0.500000  0.500000  0.000000  1
  Se  Se15  1  0.000000  0.000000  0.000000  1
