# generated using pymatgen
data_TaNb4AlSi2
_symmetry_space_group_name_H-M   'P 1'
_cell_length_a   7.63443808
_cell_length_b   7.63443702
_cell_length_c   7.63443871
_cell_angle_alpha   128.13864600
_cell_angle_beta   128.13862881
_cell_angle_gamma   76.40054795
_symmetry_Int_Tables_number   1
_chemical_formula_structural   TaNb4AlSi2
_chemical_formula_sum   'Ta2 Nb8 Al2 Si4'
_cell_volume   267.46014250
_cell_formula_units_Z   2
loop_
 _symmetry_equiv_pos_site_id
 _symmetry_equiv_pos_as_xyz
  1  'x, y, z'
loop_
 _atom_site_type_symbol
 _atom_site_label
 _atom_site_symmetry_multiplicity
 _atom_site_fract_x
 _atom_site_fract_y
 _atom_site_fract_z
 _atom_site_occupancy
  Ta  Ta0  1  0.000000  0.000000  0.000000  1
  Ta  Ta1  1  0.500000  0.500000  0.000000  1
  Nb  Nb2  1  0.018094  0.186824  0.500000  1
  Nb  Nb3  1  0.686824  0.518094  0.500000  1
  Nb  Nb4  1  0.518094  0.018094  0.831270  1
  Nb  Nb5  1  0.186824  0.686824  0.168730  1
  Nb  Nb6  1  0.981906  0.813176  0.500000  1
  Nb  Nb7  1  0.313176  0.481906  0.500000  1
  Nb  Nb8  1  0.481906  0.981906  0.168730  1
  Nb  Nb9  1  0.813176  0.313176  0.831270  1
  Al  Al10  1  0.750000  0.750000  0.000000  1
  Al  Al11  1  0.250000  0.250000  0.000000  1
  Si  Si12  1  0.370628  0.129372  0.500000  1
  Si  Si13  1  0.629372  0.870628  0.500000  1
  Si  Si14  1  0.870628  0.370628  0.241258  1
  Si  Si15  1  0.129372  0.629372  0.758742  1
