# generated using pymatgen
data_TbPa3F15
_symmetry_space_group_name_H-M   'P 1'
_cell_length_a   8.72325048
_cell_length_b   8.72324918
_cell_length_c   8.71448718
_cell_angle_alpha   79.57977312
_cell_angle_beta   79.57977345
_cell_angle_gamma   99.99918343
_symmetry_Int_Tables_number   1
_chemical_formula_structural   TbPa3F15
_chemical_formula_sum   'Tb2 Pa6 F30'
_cell_volume   626.67186446
_cell_formula_units_Z   2
loop_
 _symmetry_equiv_pos_site_id
 _symmetry_equiv_pos_as_xyz
  1  'x, y, z'
loop_
 _atom_site_type_symbol
 _atom_site_label
 _atom_site_symmetry_multiplicity
 _atom_site_fract_x
 _atom_site_fract_y
 _atom_site_fract_z
 _atom_site_occupancy
  Tb  Tb0  1  0.178270  0.821730  0.250000  1
  Tb  Tb1  1  0.821730  0.178270  0.750000  1
  Pa  Pa2  1  0.750024  0.249976  0.250000  1
  Pa  Pa3  1  0.249976  0.750024  0.750000  1
  Pa  Pa4  1  0.754878  0.679169  0.673568  1
  Pa  Pa5  1  0.320831  0.245122  0.826432  1
  Pa  Pa6  1  0.245122  0.320831  0.326432  1
  Pa  Pa7  1  0.679169  0.754878  0.173568  1
  F  F8  1  0.317702  0.345533  0.053421  1
  F  F9  1  0.945117  0.813294  0.159219  1
  F  F10  1  0.839643  0.448150  0.683812  1
  F  F11  1  0.448150  0.839643  0.183812  1
  F  F12  1  0.813294  0.945117  0.659219  1
  F  F13  1  0.345533  0.317702  0.553420  1
  F  F14  1  0.682298  0.654467  0.946579  1
  F  F15  1  0.054883  0.186706  0.840781  1
  F  F16  1  0.160357  0.551850  0.316188  1
  F  F17  1  0.551850  0.160357  0.816188  1
  F  F18  1  0.186706  0.054883  0.340781  1
  F  F19  1  0.654467  0.682298  0.446579  1
  F  F20  1  0.777159  0.276223  0.989847  1
  F  F21  1  0.013171  0.278719  0.213967  1
  F  F22  1  0.780894  0.511196  0.220988  1
  F  F23  1  0.511196  0.780894  0.720988  1
  F  F24  1  0.278719  0.013171  0.713967  1
  F  F25  1  0.276223  0.777159  0.489847  1
  F  F26  1  0.222841  0.723777  0.010153  1
  F  F27  1  0.986829  0.721281  0.786033  1
  F  F28  1  0.219106  0.488804  0.779012  1
  F  F29  1  0.488804  0.219106  0.279012  1
  F  F30  1  0.721281  0.986829  0.286033  1
  F  F31  1  0.723777  0.222841  0.510153  1
  F  F32  1  0.470134  0.529866  0.250000  1
  F  F33  1  0.752343  0.968079  0.966384  1
  F  F34  1  0.031921  0.247657  0.533616  1
  F  F35  1  0.247657  0.031921  0.033616  1
  F  F36  1  0.968079  0.752343  0.466384  1
  F  F37  1  0.529866  0.470134  0.750000  1
