# generated using pymatgen
data_Pr6InRhO12
_symmetry_space_group_name_H-M   'P 1'
_cell_length_a   6.86703101
_cell_length_b   6.86703071
_cell_length_c   6.86703023
_cell_angle_alpha   96.96208484
_cell_angle_beta   96.96208919
_cell_angle_gamma   96.96209848
_symmetry_Int_Tables_number   1
_chemical_formula_structural   Pr6InRhO12
_chemical_formula_sum   'Pr6 In1 Rh1 O12'
_cell_volume   316.01499145
_cell_formula_units_Z   1
loop_
 _symmetry_equiv_pos_site_id
 _symmetry_equiv_pos_as_xyz
  1  'x, y, z'
loop_
 _atom_site_type_symbol
 _atom_site_label
 _atom_site_symmetry_multiplicity
 _atom_site_fract_x
 _atom_site_fract_y
 _atom_site_fract_z
 _atom_site_occupancy
  Pr  Pr0  1  0.587514  0.100214  0.274916  1
  Pr  Pr1  1  0.100214  0.274916  0.587514  1
  Pr  Pr2  1  0.725084  0.412486  0.899786  1
  Pr  Pr3  1  0.274916  0.587514  0.100214  1
  Pr  Pr4  1  0.899786  0.725084  0.412486  1
  Pr  Pr5  1  0.412486  0.899786  0.725084  1
  In  In6  1  0.000000  0.000000  0.000000  1
  Rh  Rh7  1  0.500000  0.500000  0.500000  1
  O  O8  1  0.689280  0.070378  0.938137  1
  O  O9  1  0.929622  0.061863  0.310720  1
  O  O10  1  0.429332  0.207141  0.563279  1
  O  O11  1  0.061863  0.310720  0.929622  1
  O  O12  1  0.563279  0.429332  0.207141  1
  O  O13  1  0.792859  0.436721  0.570668  1
  O  O14  1  0.207141  0.563279  0.429332  1
  O  O15  1  0.436721  0.570668  0.792859  1
  O  O16  1  0.938137  0.689280  0.070378  1
  O  O17  1  0.570668  0.792859  0.436721  1
  O  O18  1  0.070378  0.938137  0.689280  1
  O  O19  1  0.310720  0.929622  0.061863  1
