# generated using pymatgen
data_ErZr7(Si4W3)4
_symmetry_space_group_name_H-M   'P 1'
_cell_length_a   6.63518855
_cell_length_b   6.79332449
_cell_length_c   12.73059789
_cell_angle_alpha   89.93162798
_cell_angle_beta   90.02763999
_cell_angle_gamma   89.99930660
_symmetry_Int_Tables_number   1
_chemical_formula_structural   ErZr7(Si4W3)4
_chemical_formula_sum   'Er1 Zr7 Si16 W12'
_cell_volume   573.83108324
_cell_formula_units_Z   1
loop_
 _symmetry_equiv_pos_site_id
 _symmetry_equiv_pos_as_xyz
  1  'x, y, z'
loop_
 _atom_site_type_symbol
 _atom_site_label
 _atom_site_symmetry_multiplicity
 _atom_site_fract_x
 _atom_site_fract_y
 _atom_site_fract_z
 _atom_site_occupancy
  Er  Er0  1  0.996125  0.831031  0.590977  1
  Zr  Zr1  1  0.496170  0.670716  0.591847  1
  Zr  Zr2  1  0.995107  0.827838  0.907977  1
  Zr  Zr3  1  0.505748  0.327537  0.092321  1
  Zr  Zr4  1  0.005892  0.174055  0.405514  1
  Zr  Zr5  1  0.506071  0.328752  0.406910  1
  Zr  Zr6  1  0.005428  0.171610  0.092735  1
  Zr  Zr7  1  0.494092  0.671725  0.909149  1
  Si  Si8  1  0.666202  0.959764  0.455860  1
  Si  Si9  1  0.167008  0.541445  0.043335  1
  Si  Si10  1  0.332226  0.041869  0.957729  1
  Si  Si11  1  0.832316  0.456400  0.542550  1
  Si  Si12  1  0.336313  0.043184  0.542233  1
  Si  Si13  1  0.832651  0.458409  0.957738  1
  Si  Si14  1  0.667224  0.958340  0.042931  1
  Si  Si15  1  0.167750  0.539499  0.455582  1
  Si  Si16  1  0.465470  0.379732  0.750540  1
  Si  Si17  1  0.965145  0.122695  0.751190  1
  Si  Si18  1  0.533668  0.619294  0.249208  1
  Si  Si19  1  0.034154  0.878890  0.250599  1
  Si  Si20  1  0.697117  0.858214  0.750906  1
  Si  Si21  1  0.200562  0.640342  0.751132  1
  Si  Si22  1  0.301056  0.140129  0.249503  1
  Si  Si23  1  0.799923  0.359443  0.249497  1
  W  W24  1  0.664997  0.164794  0.625101  1
  W  W25  1  0.168033  0.337470  0.876447  1
  W  W26  1  0.331992  0.836257  0.124143  1
  W  W27  1  0.830525  0.662478  0.374761  1
  W  W28  1  0.334736  0.835689  0.375274  1
  W  W29  1  0.832283  0.663917  0.124263  1
  W  W30  1  0.666046  0.164087  0.876428  1
  W  W31  1  0.167417  0.336668  0.624489  1
  W  W32  1  0.833880  0.505436  0.751242  1
  W  W33  1  0.333809  0.993716  0.751074  1
  W  W34  1  0.166260  0.490568  0.249888  1
  W  W35  1  0.666605  0.008005  0.248925  1
