# generated using pymatgen
data_Tm3Bi3(WO7)2
_symmetry_space_group_name_H-M   'P 1'
_cell_length_a   6.45573944
_cell_length_b   6.68856431
_cell_length_c   7.62293200
_cell_angle_alpha   106.64056827
_cell_angle_beta   89.74599183
_cell_angle_gamma   98.49762694
_symmetry_Int_Tables_number   1
_chemical_formula_structural   Tm3Bi3(WO7)2
_chemical_formula_sum   'Tm3 Bi3 W2 O14'
_cell_volume   311.65887585
_cell_formula_units_Z   1
loop_
 _symmetry_equiv_pos_site_id
 _symmetry_equiv_pos_as_xyz
  1  'x, y, z'
loop_
 _atom_site_type_symbol
 _atom_site_label
 _atom_site_symmetry_multiplicity
 _atom_site_fract_x
 _atom_site_fract_y
 _atom_site_fract_z
 _atom_site_occupancy
  Tm  Tm0  1  0.544612  0.990810  0.749905  1
  Tm  Tm1  1  0.458146  0.006414  0.253068  1
  Tm  Tm2  1  0.254680  0.535257  0.885283  1
  Bi  Bi3  1  0.744890  0.478950  0.112332  1
  Bi  Bi4  1  0.722189  0.455734  0.615116  1
  Bi  Bi5  1  0.265120  0.540057  0.386452  1
  W  W6  1  0.004206  0.008547  0.502860  1
  W  W7  1  0.005915  0.001942  0.999202  1
  O  O8  1  0.442299  0.655218  0.162491  1
  O  O9  1  0.538198  0.339667  0.826877  1
  O  O10  1  0.293144  0.925404  0.948590  1
  O  O11  1  0.711610  0.047183  0.050528  1
  O  O12  1  0.297016  0.920728  0.511003  1
  O  O13  1  0.705461  0.083003  0.491028  1
  O  O14  1  0.527609  0.354791  0.345795  1
  O  O15  1  0.454600  0.642682  0.664756  1
  O  O16  1  0.940401  0.676789  0.952783  1
  O  O17  1  0.084438  0.312636  0.033662  1
  O  O18  1  0.095232  0.305679  0.627661  1
  O  O19  1  0.904121  0.710551  0.379150  1
  O  O20  1  0.894850  0.945275  0.737083  1
  O  O21  1  0.111266  0.062685  0.264377  1
