# generated using pymatgen
data_Tb16Cd4CuOs3
_symmetry_space_group_name_H-M   'P 1'
_cell_length_a   9.59366421
_cell_length_b   9.80654355
_cell_length_c   9.80654300
_cell_angle_alpha   59.99999850
_cell_angle_beta   59.26321787
_cell_angle_gamma   59.26321945
_symmetry_Int_Tables_number   1
_chemical_formula_structural   Tb16Cd4CuOs3
_chemical_formula_sum   'Tb16 Cd4 Cu1 Os3'
_cell_volume   645.02130011
_cell_formula_units_Z   1
loop_
 _symmetry_equiv_pos_site_id
 _symmetry_equiv_pos_as_xyz
  1  'x, y, z'
loop_
 _atom_site_type_symbol
 _atom_site_label
 _atom_site_symmetry_multiplicity
 _atom_site_fract_x
 _atom_site_fract_y
 _atom_site_fract_z
 _atom_site_occupancy
  Tb  Tb0  1  0.349052  0.350533  0.350533  1
  Tb  Tb1  1  0.349052  0.350533  0.949882  1
  Tb  Tb2  1  0.349052  0.949882  0.350533  1
  Tb  Tb3  1  0.969748  0.343417  0.343417  1
  Tb  Tb4  1  0.815631  0.189860  0.189860  1
  Tb  Tb5  1  0.186302  0.811225  0.811225  1
  Tb  Tb6  1  0.186302  0.811225  0.191250  1
  Tb  Tb7  1  0.815631  0.189860  0.804648  1
  Tb  Tb8  1  0.186302  0.191250  0.811225  1
  Tb  Tb9  1  0.815631  0.804648  0.189860  1
  Tb  Tb10  1  0.933122  0.564034  0.564034  1
  Tb  Tb11  1  0.550753  0.939939  0.939939  1
  Tb  Tb12  1  0.550753  0.939939  0.569368  1
  Tb  Tb13  1  0.933122  0.564034  0.938810  1
  Tb  Tb14  1  0.550753  0.569368  0.939939  1
  Tb  Tb15  1  0.933122  0.938810  0.564034  1
  Cd  Cd16  1  0.581258  0.579023  0.579023  1
  Cd  Cd17  1  0.581258  0.579023  0.260697  1
  Cd  Cd18  1  0.581258  0.260697  0.579023  1
  Cd  Cd19  1  0.255745  0.581418  0.581418  1
  Cu  Cu20  1  0.573721  0.142093  0.142093  1
  Os  Os21  1  0.150811  0.136397  0.136397  1
  Os  Os22  1  0.150811  0.136397  0.576397  1
  Os  Os23  1  0.150811  0.576397  0.136397  1
