# generated using pymatgen
data_Sc3Be2(CuSi2)2
_symmetry_space_group_name_H-M   'P 1'
_cell_length_a   7.46945387
_cell_length_b   7.37479430
_cell_length_c   7.37479423
_cell_angle_alpha   149.16866664
_cell_angle_beta   130.32757618
_cell_angle_gamma   59.49406931
_symmetry_Int_Tables_number   1
_chemical_formula_structural   Sc3Be2(CuSi2)2
_chemical_formula_sum   'Sc3 Be2 Cu2 Si4'
_cell_volume   157.52125388
_cell_formula_units_Z   1
loop_
 _symmetry_equiv_pos_site_id
 _symmetry_equiv_pos_as_xyz
  1  'x, y, z'
loop_
 _atom_site_type_symbol
 _atom_site_label
 _atom_site_symmetry_multiplicity
 _atom_site_fract_x
 _atom_site_fract_y
 _atom_site_fract_z
 _atom_site_occupancy
  Sc  Sc0  1  0.399723  0.874507  0.525216  1
  Sc  Sc1  1  0.600277  0.125493  0.474784  1
  Sc  Sc2  1  0.000000  0.000000  0.000000  1
  Be  Be3  1  0.669621  0.343764  0.325857  1
  Be  Be4  1  0.330379  0.656236  0.674143  1
  Cu  Cu5  1  0.009625  0.319935  0.689689  1
  Cu  Cu6  1  0.990375  0.680065  0.310311  1
  Si  Si7  1  0.248021  0.218424  0.029597  1
  Si  Si8  1  0.751979  0.781576  0.970403  1
  Si  Si9  1  0.698808  0.507182  0.191626  1
  Si  Si10  1  0.301192  0.492818  0.808374  1
