# generated using pymatgen
data_CeSm4Co19As12
_symmetry_space_group_name_H-M   'P 1'
_cell_length_a   12.52414800
_cell_length_b   12.54298762
_cell_length_c   3.85774900
_cell_angle_alpha   90.00000000
_cell_angle_beta   90.00000000
_cell_angle_gamma   119.95032654
_symmetry_Int_Tables_number   1
_chemical_formula_structural   CeSm4Co19As12
_chemical_formula_sum   'Ce1 Sm4 Co19 As12'
_cell_volume   525.08661647
_cell_formula_units_Z   1
loop_
 _symmetry_equiv_pos_site_id
 _symmetry_equiv_pos_as_xyz
  1  'x, y, z'
loop_
 _atom_site_type_symbol
 _atom_site_label
 _atom_site_symmetry_multiplicity
 _atom_site_fract_x
 _atom_site_fract_y
 _atom_site_fract_z
 _atom_site_occupancy
  Ce  Ce0  1  0.184750  0.000000  0.500000  1
  Sm  Sm1  1  0.334037  0.667966  0.000000  1
  Sm  Sm2  1  0.666072  0.332034  0.000000  1
  Sm  Sm3  1  0.000142  0.189841  0.500000  1
  Sm  Sm4  1  0.810303  0.810159  0.500000  1
  Co  Co5  1  0.200918  0.380259  0.000000  1
  Co  Co6  1  0.622617  0.823073  0.000000  1
  Co  Co7  1  0.177900  0.800636  0.000000  1
  Co  Co8  1  0.820658  0.619741  0.000000  1
  Co  Co9  1  0.799545  0.176927  0.000000  1
  Co  Co10  1  0.377264  0.199364  0.000000  1
  Co  Co11  1  0.558515  0.000000  0.000000  1
  Co  Co12  1  0.999930  0.558350  0.000000  1
  Co  Co13  1  0.441580  0.441650  0.000000  1
  Co  Co14  1  0.122693  0.482361  0.500000  1
  Co  Co15  1  0.518907  0.642070  0.500000  1
  Co  Co16  1  0.358665  0.877831  0.500000  1
  Co  Co17  1  0.640331  0.517639  0.500000  1
  Co  Co18  1  0.876837  0.357930  0.500000  1
  Co  Co19  1  0.480834  0.122169  0.500000  1
  Co  Co20  1  0.717941  0.000000  0.500000  1
  Co  Co21  1  0.998972  0.714807  0.500000  1
  Co  Co22  1  0.284165  0.285193  0.500000  1
  Co  Co23  1  0.005229  0.000000  0.000000  1
  As  As24  1  0.369827  0.000000  0.000000  1
  As  As25  1  0.000007  0.370738  0.000000  1
  As  As26  1  0.629270  0.629262  0.000000  1
  As  As27  1  0.314696  0.481379  0.500000  1
  As  As28  1  0.521026  0.835470  0.500000  1
  As  As29  1  0.165752  0.686220  0.500000  1
  As  As30  1  0.833318  0.518621  0.500000  1
  As  As31  1  0.685556  0.164530  0.500000  1
  As  As32  1  0.479532  0.313780  0.500000  1
  As  As33  1  0.822912  0.000000  0.000000  1
  As  As34  1  0.997932  0.816565  0.000000  1
  As  As35  1  0.181366  0.183435  0.000000  1
