# generated using pymatgen
data_Ho9TmIr5Au
_symmetry_space_group_name_H-M   'P 1'
_cell_length_a   10.97671988
_cell_length_b   10.92778400
_cell_length_c   6.31274519
_cell_angle_alpha   90.00000000
_cell_angle_beta   89.85227064
_cell_angle_gamma   90.00000000
_symmetry_Int_Tables_number   1
_chemical_formula_structural   Ho9TmIr5Au
_chemical_formula_sum   'Ho18 Tm2 Ir10 Au2'
_cell_volume   757.21899454
_cell_formula_units_Z   2
loop_
 _symmetry_equiv_pos_site_id
 _symmetry_equiv_pos_as_xyz
  1  'x, y, z'
loop_
 _atom_site_type_symbol
 _atom_site_label
 _atom_site_symmetry_multiplicity
 _atom_site_fract_x
 _atom_site_fract_y
 _atom_site_fract_z
 _atom_site_occupancy
  Ho  Ho0  1  0.292016  0.087984  0.372053  1
  Ho  Ho1  1  0.292016  0.912016  0.872053  1
  Ho  Ho2  1  0.698160  0.091862  0.866247  1
  Ho  Ho3  1  0.698160  0.908138  0.366247  1
  Ho  Ho4  1  0.577787  0.789093  0.877132  1
  Ho  Ho5  1  0.577787  0.210907  0.377132  1
  Ho  Ho6  1  0.409034  0.790310  0.376423  1
  Ho  Ho7  1  0.409034  0.209690  0.876423  1
  Ho  Ho8  1  0.209933  0.411685  0.621895  1
  Ho  Ho9  1  0.209933  0.588315  0.121895  1
  Ho  Ho10  1  0.789380  0.419890  0.123194  1
  Ho  Ho11  1  0.789380  0.580110  0.623194  1
  Ho  Ho12  1  0.917373  0.705245  0.138301  1
  Ho  Ho13  1  0.917373  0.294755  0.638301  1
  Ho  Ho14  1  0.095687  0.703289  0.623786  1
  Ho  Ho15  1  0.095687  0.296711  0.123786  1
  Ho  Ho16  1  0.009113  0.998066  0.500115  1
  Ho  Ho17  1  0.009113  0.001934  0.000115  1
  Tm  Tm18  1  0.499917  0.498755  0.000603  1
  Tm  Tm19  1  0.499917  0.501245  0.500603  1
  Ir  Ir20  1  0.154053  0.154178  0.750098  1
  Ir  Ir21  1  0.154053  0.845822  0.250098  1
  Ir  Ir22  1  0.655124  0.346831  0.748086  1
  Ir  Ir23  1  0.655124  0.653169  0.248086  1
  Ir  Ir24  1  0.348100  0.346760  0.251760  1
  Ir  Ir25  1  0.348100  0.653240  0.751760  1
  Ir  Ir26  1  0.499521  0.999866  0.120999  1
  Ir  Ir27  1  0.499521  0.000134  0.620999  1
  Ir  Ir28  1  0.000135  0.500899  0.878826  1
  Ir  Ir29  1  0.000135  0.499101  0.378826  1
  Au  Au30  1  0.844666  0.155092  0.250480  1
  Au  Au31  1  0.844666  0.844908  0.750480  1
