# generated using pymatgen
data_Tb3HoGa12Fe
_symmetry_space_group_name_H-M   'P 1'
_cell_length_a   7.45441225
_cell_length_b   7.45441242
_cell_length_c   7.45441224
_cell_angle_alpha   109.42678261
_cell_angle_beta   109.42677712
_cell_angle_gamma   109.42677930
_symmetry_Int_Tables_number   1
_chemical_formula_structural   Tb3HoGa12Fe
_chemical_formula_sum   'Tb3 Ho1 Ga12 Fe1'
_cell_volume   319.39702540
_cell_formula_units_Z   1
loop_
 _symmetry_equiv_pos_site_id
 _symmetry_equiv_pos_as_xyz
  1  'x, y, z'
loop_
 _atom_site_type_symbol
 _atom_site_label
 _atom_site_symmetry_multiplicity
 _atom_site_fract_x
 _atom_site_fract_y
 _atom_site_fract_z
 _atom_site_occupancy
  Tb  Tb0  1  0.000000  0.000000  0.500000  1
  Tb  Tb1  1  0.000000  0.500000  0.000000  1
  Tb  Tb2  1  0.500000  0.000000  0.000000  1
  Ho  Ho3  1  0.500000  0.500000  0.500000  1
  Ga  Ga4  1  0.749733  0.250267  0.500000  1
  Ga  Ga5  1  0.749733  0.500000  0.250267  1
  Ga  Ga6  1  0.500000  0.250267  0.749733  1
  Ga  Ga7  1  0.250267  0.500000  0.749733  1
  Ga  Ga8  1  0.250267  0.749733  0.500000  1
  Ga  Ga9  1  0.500000  0.749733  0.250267  1
  Ga  Ga10  1  0.716316  0.716316  0.999582  1
  Ga  Ga11  1  0.283684  0.000418  0.283684  1
  Ga  Ga12  1  0.000418  0.283684  0.283684  1
  Ga  Ga13  1  0.283684  0.283684  0.000418  1
  Ga  Ga14  1  0.716316  0.999582  0.716316  1
  Ga  Ga15  1  0.999582  0.716316  0.716316  1
  Fe  Fe16  1  0.000000  0.000000  0.000000  1
