# generated using pymatgen
data_Tm12Cd2Fe2Ir
_symmetry_space_group_name_H-M   'P 1'
_cell_length_a   8.23594644
_cell_length_b   8.23594703
_cell_length_c   8.23594722
_cell_angle_alpha   108.24715616
_cell_angle_beta   108.24714968
_cell_angle_gamma   111.94810695
_symmetry_Int_Tables_number   1
_chemical_formula_structural   Tm12Cd2Fe2Ir
_chemical_formula_sum   'Tm12 Cd2 Fe2 Ir1'
_cell_volume   429.44416556
_cell_formula_units_Z   1
loop_
 _symmetry_equiv_pos_site_id
 _symmetry_equiv_pos_as_xyz
  1  'x, y, z'
loop_
 _atom_site_type_symbol
 _atom_site_label
 _atom_site_symmetry_multiplicity
 _atom_site_fract_x
 _atom_site_fract_y
 _atom_site_fract_z
 _atom_site_occupancy
  Tm  Tm0  1  0.192551  0.431490  0.238939  1
  Tm  Tm1  1  0.807449  0.568510  0.761061  1
  Tm  Tm2  1  0.192551  0.953612  0.761061  1
  Tm  Tm3  1  0.953612  0.192551  0.761061  1
  Tm  Tm4  1  0.807449  0.046388  0.238939  1
  Tm  Tm5  1  0.046388  0.807449  0.238939  1
  Tm  Tm6  1  0.431490  0.192551  0.238939  1
  Tm  Tm7  1  0.568510  0.807449  0.761061  1
  Tm  Tm8  1  0.308346  0.308346  0.616692  1
  Tm  Tm9  1  0.691654  0.691654  0.383308  1
  Tm  Tm10  1  0.691654  0.308346  0.000000  1
  Tm  Tm11  1  0.308346  0.691654  0.000000  1
  Cd  Cd12  1  0.000000  0.500000  0.500000  1
  Cd  Cd13  1  0.500000  0.000000  0.500000  1
  Fe  Fe14  1  0.384366  0.384366  0.000000  1
  Fe  Fe15  1  0.615634  0.615634  0.000000  1
  Ir  Ir16  1  0.000000  0.000000  0.000000  1
