# generated using pymatgen
data_Ho2PRhBr2
_symmetry_space_group_name_H-M   'P 1'
_cell_length_a   4.06816700
_cell_length_b   4.06816728
_cell_length_c   10.65317000
_cell_angle_alpha   90.00000000
_cell_angle_beta   90.00000000
_cell_angle_gamma   120.00000588
_symmetry_Int_Tables_number   1
_chemical_formula_structural   Ho2PRhBr2
_chemical_formula_sum   'Ho2 P1 Rh1 Br2'
_cell_volume   152.68874944
_cell_formula_units_Z   1
loop_
 _symmetry_equiv_pos_site_id
 _symmetry_equiv_pos_as_xyz
  1  'x, y, z'
loop_
 _atom_site_type_symbol
 _atom_site_label
 _atom_site_symmetry_multiplicity
 _atom_site_fract_x
 _atom_site_fract_y
 _atom_site_fract_z
 _atom_site_occupancy
  Ho  Ho0  1  0.000000  0.000000  0.165827  1
  Ho  Ho1  1  0.000000  0.000000  0.834760  1
  P  P2  1  0.666667  0.333333  0.012874  1
  Rh  Rh3  1  0.333333  0.666667  0.990024  1
  Br  Br4  1  0.666667  0.333333  0.662469  1
  Br  Br5  1  0.333333  0.666667  0.334045  1
