# generated using pymatgen
data_Tb15Tm5(SnPb)8
_symmetry_space_group_name_H-M   'P 1'
_cell_length_a   8.05870536
_cell_length_b   8.21047438
_cell_length_c   15.56049900
_cell_angle_alpha   90.03341945
_cell_angle_beta   89.96676169
_cell_angle_gamma   90.07990785
_symmetry_Int_Tables_number   1
_chemical_formula_structural   Tb15Tm5(SnPb)8
_chemical_formula_sum   'Tb15 Tm5 Sn8 Pb8'
_cell_volume   1029.57141975
_cell_formula_units_Z   1
loop_
 _symmetry_equiv_pos_site_id
 _symmetry_equiv_pos_as_xyz
  1  'x, y, z'
loop_
 _atom_site_type_symbol
 _atom_site_label
 _atom_site_symmetry_multiplicity
 _atom_site_fract_x
 _atom_site_fract_y
 _atom_site_fract_z
 _atom_site_occupancy
  Tb  Tb0  1  0.865259  0.661317  0.624918  1
  Tb  Tb1  1  0.634312  0.161105  0.375757  1
  Tb  Tb2  1  0.135419  0.338634  0.122868  1
  Tb  Tb3  1  0.634244  0.161700  0.124348  1
  Tb  Tb4  1  0.134241  0.338391  0.375783  1
  Tb  Tb5  1  0.365903  0.838637  0.624669  1
  Tb  Tb6  1  0.866110  0.660940  0.876357  1
  Tb  Tb7  1  0.520497  0.320703  0.900808  1
  Tb  Tb8  1  0.021535  0.178555  0.600068  1
  Tb  Tb9  1  0.479380  0.679253  0.400821  1
  Tb  Tb10  1  0.978580  0.820684  0.099295  1
  Tb  Tb11  1  0.479910  0.679840  0.098109  1
  Tb  Tb12  1  0.979304  0.821001  0.400420  1
  Tb  Tb13  1  0.520922  0.321205  0.600163  1
  Tb  Tb14  1  0.020287  0.178346  0.900414  1
  Tm  Tm15  1  0.364569  0.839601  0.874230  1
  Tm  Tm16  1  0.196665  0.503124  0.750692  1
  Tm  Tm17  1  0.695944  0.996966  0.750465  1
  Tm  Tm18  1  0.804139  0.497046  0.250020  1
  Tm  Tm19  1  0.303780  0.002642  0.249428  1
  Sn  Sn20  1  0.560528  0.619357  0.750966  1
  Sn  Sn21  1  0.061560  0.881597  0.750960  1
  Sn  Sn22  1  0.438701  0.382326  0.249960  1
  Sn  Sn23  1  0.939206  0.118234  0.249387  1
  Sn  Sn24  1  0.329003  0.150205  0.750645  1
  Sn  Sn25  1  0.828760  0.349127  0.750383  1
  Sn  Sn26  1  0.671115  0.849039  0.249802  1
  Sn  Sn27  1  0.171360  0.650137  0.249643  1
  Pb  Pb28  1  0.292747  0.035898  0.040135  1
  Pb  Pb29  1  0.792550  0.462842  0.458203  1
  Pb  Pb30  1  0.708209  0.962742  0.542353  1
  Pb  Pb31  1  0.209762  0.540655  0.957512  1
  Pb  Pb32  1  0.703270  0.961389  0.957768  1
  Pb  Pb33  1  0.207424  0.537167  0.542435  1
  Pb  Pb34  1  0.292237  0.037186  0.457991  1
  Pb  Pb35  1  0.792572  0.462411  0.042219  1
