# generated using pymatgen
data_Sm4C2Cl3
_symmetry_space_group_name_H-M   'P 1'
_cell_length_a   3.74769000
_cell_length_b   10.82092400
_cell_length_c   20.14762300
_cell_angle_alpha   90.00000000
_cell_angle_beta   90.00000000
_cell_angle_gamma   90.00000000
_symmetry_Int_Tables_number   1
_chemical_formula_structural   Sm4C2Cl3
_chemical_formula_sum   'Sm16 C8 Cl12'
_cell_volume   817.05599802
_cell_formula_units_Z   4
loop_
 _symmetry_equiv_pos_site_id
 _symmetry_equiv_pos_as_xyz
  1  'x, y, z'
loop_
 _atom_site_type_symbol
 _atom_site_label
 _atom_site_symmetry_multiplicity
 _atom_site_fract_x
 _atom_site_fract_y
 _atom_site_fract_z
 _atom_site_occupancy
  Sm  Sm0  1  0.250000  0.139205  0.572056  1
  Sm  Sm1  1  0.250000  0.639205  0.927944  1
  Sm  Sm2  1  0.750000  0.860795  0.427944  1
  Sm  Sm3  1  0.750000  0.360795  0.072056  1
  Sm  Sm4  1  0.250000  0.638184  0.755323  1
  Sm  Sm5  1  0.250000  0.138184  0.744677  1
  Sm  Sm6  1  0.750000  0.361816  0.244677  1
  Sm  Sm7  1  0.750000  0.861816  0.255323  1
  Sm  Sm8  1  0.250000  0.101005  0.332977  1
  Sm  Sm9  1  0.250000  0.601005  0.167023  1
  Sm  Sm10  1  0.750000  0.898995  0.667023  1
  Sm  Sm11  1  0.750000  0.398995  0.832977  1
  Sm  Sm12  1  0.250000  0.122627  0.163063  1
  Sm  Sm13  1  0.250000  0.622627  0.336937  1
  Sm  Sm14  1  0.750000  0.877373  0.836937  1
  Sm  Sm15  1  0.750000  0.377373  0.663063  1
  C  C16  1  0.250000  0.863020  0.348337  1
  C  C17  1  0.250000  0.363020  0.151663  1
  C  C18  1  0.750000  0.136980  0.651663  1
  C  C19  1  0.750000  0.636980  0.848337  1
  C  C20  1  0.250000  0.388747  0.749796  1
  C  C21  1  0.250000  0.888747  0.750204  1
  C  C22  1  0.750000  0.611253  0.250204  1
  C  C23  1  0.750000  0.111253  0.249796  1
  Cl  Cl24  1  0.250000  0.379249  0.951927  1
  Cl  Cl25  1  0.250000  0.879249  0.548073  1
  Cl  Cl26  1  0.750000  0.620751  0.048073  1
  Cl  Cl27  1  0.750000  0.120751  0.451927  1
  Cl  Cl28  1  0.250000  0.886728  0.946231  1
  Cl  Cl29  1  0.250000  0.386728  0.553769  1
  Cl  Cl30  1  0.750000  0.113272  0.053769  1
  Cl  Cl31  1  0.750000  0.613272  0.446231  1
  Cl  Cl32  1  0.250000  0.360204  0.354723  1
  Cl  Cl33  1  0.250000  0.860204  0.145277  1
  Cl  Cl34  1  0.750000  0.639796  0.645277  1
  Cl  Cl35  1  0.750000  0.139796  0.854723  1
