# generated using pymatgen
data_Tm12Co3CuSiSn
_symmetry_space_group_name_H-M   'P 1'
_cell_length_a   8.25507833
_cell_length_b   8.25507725
_cell_length_c   8.25507707
_cell_angle_alpha   112.92152435
_cell_angle_beta   110.55264920
_cell_angle_gamma   105.03814777
_symmetry_Int_Tables_number   1
_chemical_formula_structural   Tm12Co3CuSiSn
_chemical_formula_sum   'Tm12 Co3 Cu1 Si1 Sn1'
_cell_volume   430.92851985
_cell_formula_units_Z   1
loop_
 _symmetry_equiv_pos_site_id
 _symmetry_equiv_pos_as_xyz
  1  'x, y, z'
loop_
 _atom_site_type_symbol
 _atom_site_label
 _atom_site_symmetry_multiplicity
 _atom_site_fract_x
 _atom_site_fract_y
 _atom_site_fract_z
 _atom_site_occupancy
  Tm  Tm0  1  0.426092  0.232348  0.193744  1
  Tm  Tm1  1  0.579167  0.776680  0.802487  1
  Tm  Tm2  1  0.025806  0.223320  0.802487  1
  Tm  Tm3  1  0.961397  0.767652  0.193744  1
  Tm  Tm4  1  0.182617  0.287418  0.470033  1
  Tm  Tm5  1  0.815919  0.718542  0.534462  1
  Tm  Tm6  1  0.182617  0.712582  0.895199  1
  Tm  Tm7  1  0.815919  0.281458  0.097378  1
  Tm  Tm8  1  0.314759  0.623782  0.314485  1
  Tm  Tm9  1  0.690705  0.376218  0.690979  1
  Tm  Tm10  1  0.314759  0.000274  0.690979  1
  Tm  Tm11  1  0.690705  0.999726  0.314485  1
  Co  Co12  1  0.641032  0.000000  0.641032  1
  Co  Co13  1  0.112000  0.611015  0.500985  1
  Co  Co14  1  0.889970  0.388985  0.500985  1
  Cu  Cu15  1  0.994750  0.000000  0.994750  1
  Si  Si16  1  0.364743  0.000000  0.364743  1
  Sn  Sn17  1  0.497042  0.500000  0.997042  1
