# generated using pymatgen
data_Sc22Tc7Sn
_symmetry_space_group_name_H-M   'P 1'
_cell_length_a   9.65308684
_cell_length_b   9.42927616
_cell_length_c   9.65308698
_cell_angle_alpha   60.76404887
_cell_angle_beta   59.23493170
_cell_angle_gamma   60.76405088
_symmetry_Int_Tables_number   1
_chemical_formula_structural   Sc22Tc7Sn
_chemical_formula_sum   'Sc22 Tc7 Sn1'
_cell_volume   624.57752069
_cell_formula_units_Z   1
loop_
 _symmetry_equiv_pos_site_id
 _symmetry_equiv_pos_as_xyz
  1  'x, y, z'
loop_
 _atom_site_type_symbol
 _atom_site_label
 _atom_site_symmetry_multiplicity
 _atom_site_fract_x
 _atom_site_fract_y
 _atom_site_fract_z
 _atom_site_occupancy
  Sc  Sc0  1  0.806278  0.800984  0.193722  1
  Sc  Sc1  1  0.198172  0.801828  0.198172  1
  Sc  Sc2  1  0.806278  0.199016  0.193722  1
  Sc  Sc3  1  0.193722  0.199016  0.806278  1
  Sc  Sc4  1  0.801828  0.198172  0.801828  1
  Sc  Sc5  1  0.193722  0.800984  0.806278  1
  Sc  Sc6  1  0.597035  0.625840  0.151283  1
  Sc  Sc7  1  0.611877  0.149422  0.611877  1
  Sc  Sc8  1  0.151283  0.625840  0.597035  1
  Sc  Sc9  1  0.611877  0.626821  0.611877  1
  Sc  Sc10  1  0.402965  0.374160  0.848717  1
  Sc  Sc11  1  0.388123  0.850578  0.388123  1
  Sc  Sc12  1  0.848717  0.374160  0.402965  1
  Sc  Sc13  1  0.388123  0.373179  0.388123  1
  Sc  Sc14  1  0.845668  0.845393  0.463545  1
  Sc  Sc15  1  0.829585  0.479582  0.829585  1
  Sc  Sc16  1  0.463545  0.845393  0.845668  1
  Sc  Sc17  1  0.829585  0.861247  0.829585  1
  Sc  Sc18  1  0.154332  0.154607  0.536455  1
  Sc  Sc19  1  0.170415  0.520418  0.170415  1
  Sc  Sc20  1  0.536455  0.154607  0.154332  1
  Sc  Sc21  1  0.170415  0.138753  0.170415  1
  Tc  Tc22  1  0.000000  0.000000  0.000000  1
  Tc  Tc23  1  0.500000  0.500000  0.500000  1
  Tc  Tc24  1  0.000000  0.000000  0.500000  1
  Tc  Tc25  1  0.500000  0.000000  0.500000  1
  Tc  Tc26  1  0.000000  0.500000  0.500000  1
  Tc  Tc27  1  0.500000  0.500000  0.000000  1
  Tc  Tc28  1  0.500000  0.000000  0.000000  1
  Sn  Sn29  1  0.000000  0.500000  0.000000  1
