# generated using pymatgen
data_KRb5Ho2F12
_symmetry_space_group_name_H-M   'P 1'
_cell_length_a   6.82660090
_cell_length_b   6.59467897
_cell_length_c   11.44169495
_cell_angle_alpha   55.23214454
_cell_angle_beta   90.07261723
_cell_angle_gamma   90.18149165
_symmetry_Int_Tables_number   1
_chemical_formula_structural   KRb5Ho2F12
_chemical_formula_sum   'K1 Rb5 Ho2 F12'
_cell_volume   423.13367034
_cell_formula_units_Z   1
loop_
 _symmetry_equiv_pos_site_id
 _symmetry_equiv_pos_as_xyz
  1  'x, y, z'
loop_
 _atom_site_type_symbol
 _atom_site_label
 _atom_site_symmetry_multiplicity
 _atom_site_fract_x
 _atom_site_fract_y
 _atom_site_fract_z
 _atom_site_occupancy
  K  K0  1  0.000000  0.500000  0.500000  1
  Rb  Rb1  1  0.500000  0.500000  0.000000  1
  Rb  Rb2  1  0.049722  0.735091  0.751817  1
  Rb  Rb3  1  0.950278  0.264909  0.248183  1
  Rb  Rb4  1  0.550483  0.267107  0.746193  1
  Rb  Rb5  1  0.449517  0.732893  0.253807  1
  Ho  Ho6  1  0.500000  0.000000  0.500000  1
  Ho  Ho7  1  0.000000  0.000000  0.000000  1
  F  F8  1  0.764347  0.771136  0.561119  1
  F  F9  1  0.235653  0.228864  0.438881  1
  F  F10  1  0.264782  0.226217  0.937140  1
  F  F11  1  0.735218  0.773783  0.062860  1
  F  F12  1  0.451425  0.885462  0.717758  1
  F  F13  1  0.548575  0.114538  0.282242  1
  F  F14  1  0.952780  0.120307  0.779324  1
  F  F15  1  0.047220  0.879693  0.220676  1
  F  F16  1  0.324132  0.684634  0.544501  1
  F  F17  1  0.675868  0.315366  0.455499  1
  F  F18  1  0.829507  0.316348  0.954075  1
  F  F19  1  0.170493  0.683652  0.045925  1
