# generated using pymatgen
data_Nd9Lu11Ga16
_symmetry_space_group_name_H-M   'P 1'
_cell_length_a   7.87641280
_cell_length_b   7.87800818
_cell_length_c   14.51241400
_cell_angle_alpha   89.65032521
_cell_angle_beta   90.21949676
_cell_angle_gamma   90.02103438
_symmetry_Int_Tables_number   1
_chemical_formula_structural   Nd9Lu11Ga16
_chemical_formula_sum   'Nd9 Lu11 Ga16'
_cell_volume   900.47830739
_cell_formula_units_Z   1
loop_
 _symmetry_equiv_pos_site_id
 _symmetry_equiv_pos_as_xyz
  1  'x, y, z'
loop_
 _atom_site_type_symbol
 _atom_site_label
 _atom_site_symmetry_multiplicity
 _atom_site_fract_x
 _atom_site_fract_y
 _atom_site_fract_z
 _atom_site_occupancy
  Nd  Nd0  1  0.004938  0.856130  0.125848  1
  Nd  Nd1  1  0.643367  0.994821  0.461880  1
  Nd  Nd2  1  0.356579  0.007169  0.959149  1
  Nd  Nd3  1  0.992946  0.645648  0.540043  1
  Nd  Nd4  1  0.491062  0.854309  0.212300  1
  Nd  Nd5  1  0.505841  0.144208  0.710899  1
  Nd  Nd6  1  0.854718  0.492661  0.789121  1
  Nd  Nd7  1  0.142820  0.504724  0.290244  1
  Nd  Nd8  1  0.007216  0.355594  0.037785  1
  Lu  Lu9  1  0.493013  0.353477  0.122516  1
  Lu  Lu10  1  0.998345  0.145279  0.625847  1
  Lu  Lu11  1  0.855551  0.006324  0.873388  1
  Lu  Lu12  1  0.147190  0.996612  0.374874  1
  Lu  Lu13  1  0.502382  0.645393  0.625069  1
  Lu  Lu14  1  0.355252  0.496167  0.873042  1
  Lu  Lu15  1  0.647504  0.501695  0.378579  1
  Lu  Lu16  1  0.321906  0.320918  0.499435  1
  Lu  Lu17  1  0.178468  0.822606  0.749390  1
  Lu  Lu18  1  0.818837  0.180157  0.250322  1
  Lu  Lu19  1  0.676865  0.679065  0.999660  1
  Ga  Ga20  1  0.289078  0.939407  0.561945  1
  Ga  Ga21  1  0.708077  0.063122  0.060486  1
  Ga  Ga22  1  0.941262  0.288034  0.439038  1
  Ga  Ga23  1  0.443139  0.211766  0.312980  1
  Ga  Ga24  1  0.559300  0.789744  0.812212  1
  Ga  Ga25  1  0.211501  0.440058  0.686712  1
  Ga  Ga26  1  0.783234  0.555016  0.189717  1
  Ga  Ga27  1  0.061010  0.708394  0.933700  1
  Ga  Ga28  1  0.794906  0.853675  0.686410  1
  Ga  Ga29  1  0.207664  0.151852  0.188237  1
  Ga  Ga30  1  0.851059  0.793140  0.318883  1
  Ga  Ga31  1  0.352416  0.702782  0.435247  1
  Ga  Ga32  1  0.645307  0.295029  0.933921  1
  Ga  Ga33  1  0.706786  0.352521  0.568179  1
  Ga  Ga34  1  0.301770  0.646936  0.059180  1
  Ga  Ga35  1  0.148694  0.205562  0.813762  1
