# generated using pymatgen
data_Tm6Co16MoP12Os
_symmetry_space_group_name_H-M   'P 1'
_cell_length_a   3.68950900
_cell_length_b   10.49033000
_cell_length_c   12.17030300
_cell_angle_alpha   90.00000000
_cell_angle_beta   90.00000000
_cell_angle_gamma   90.00000000
_symmetry_Int_Tables_number   1
_chemical_formula_structural   Tm6Co16MoP12Os
_chemical_formula_sum   'Tm6 Co16 Mo1 P12 Os1'
_cell_volume   471.04143912
_cell_formula_units_Z   1
loop_
 _symmetry_equiv_pos_site_id
 _symmetry_equiv_pos_as_xyz
  1  'x, y, z'
loop_
 _atom_site_type_symbol
 _atom_site_label
 _atom_site_symmetry_multiplicity
 _atom_site_fract_x
 _atom_site_fract_y
 _atom_site_fract_z
 _atom_site_occupancy
  Tm  Tm0  1  0.000000  0.500000  0.525812  1
  Tm  Tm1  1  0.500000  0.000000  0.474237  1
  Tm  Tm2  1  0.500000  0.818773  0.206657  1
  Tm  Tm3  1  0.500000  0.181227  0.206657  1
  Tm  Tm4  1  0.000000  0.681784  0.794583  1
  Tm  Tm5  1  0.000000  0.318216  0.794583  1
  Co  Co6  1  0.500000  0.500000  0.701553  1
  Co  Co7  1  0.000000  0.000000  0.297798  1
  Co  Co8  1  0.000000  0.500000  0.986155  1
  Co  Co9  1  0.500000  0.000000  0.013494  1
  Co  Co10  1  0.500000  0.331141  0.988633  1
  Co  Co11  1  0.500000  0.668859  0.988633  1
  Co  Co12  1  0.000000  0.166128  0.010241  1
  Co  Co13  1  0.000000  0.833872  0.010241  1
  Co  Co14  1  0.500000  0.295885  0.432631  1
  Co  Co15  1  0.500000  0.704115  0.432631  1
  Co  Co16  1  0.000000  0.202062  0.569199  1
  Co  Co17  1  0.000000  0.797938  0.569199  1
  Co  Co18  1  0.500000  0.878775  0.707474  1
  Co  Co19  1  0.500000  0.121225  0.707474  1
  Co  Co20  1  0.000000  0.622882  0.293812  1
  Co  Co21  1  0.000000  0.377118  0.293812  1
  Mo  Mo22  1  0.500000  0.500000  0.156362  1
  P  P23  1  0.500000  0.500000  0.879671  1
  P  P24  1  0.000000  0.000000  0.120338  1
  P  P25  1  0.500000  0.500000  0.351280  1
  P  P26  1  0.000000  0.000000  0.647701  1
  P  P27  1  0.500000  0.312619  0.617138  1
  P  P28  1  0.500000  0.687381  0.617138  1
  P  P29  1  0.000000  0.187360  0.384091  1
  P  P30  1  0.000000  0.812640  0.384091  1
  P  P31  1  0.500000  0.846805  0.891439  1
  P  P32  1  0.500000  0.153195  0.891439  1
  P  P33  1  0.000000  0.656509  0.107080  1
  P  P34  1  0.000000  0.343491  0.107080  1
  Os  Os35  1  0.000000  0.000000  0.839644  1
