# generated using pymatgen
data_Y18Tm2Cd6FeNi
_symmetry_space_group_name_H-M   'P 1'
_cell_length_a   9.61673300
_cell_length_b   9.61673688
_cell_length_c   9.79318800
_cell_angle_alpha   90.00000000
_cell_angle_beta   90.00000000
_cell_angle_gamma   119.99995755
_symmetry_Int_Tables_number   1
_chemical_formula_structural   Y18Tm2Cd6FeNi
_chemical_formula_sum   'Y18 Tm2 Cd6 Fe1 Ni1'
_cell_volume   784.35054230
_cell_formula_units_Z   1
loop_
 _symmetry_equiv_pos_site_id
 _symmetry_equiv_pos_as_xyz
  1  'x, y, z'
loop_
 _atom_site_type_symbol
 _atom_site_label
 _atom_site_symmetry_multiplicity
 _atom_site_fract_x
 _atom_site_fract_y
 _atom_site_fract_z
 _atom_site_occupancy
  Y  Y0  1  0.541679  0.458321  0.250000  1
  Y  Y1  1  0.541679  0.083358  0.250000  1
  Y  Y2  1  0.916642  0.458321  0.250000  1
  Y  Y3  1  0.456526  0.543474  0.750000  1
  Y  Y4  1  0.456527  0.913053  0.750000  1
  Y  Y5  1  0.086947  0.543474  0.750000  1
  Y  Y6  1  0.210892  0.789108  0.436225  1
  Y  Y7  1  0.210892  0.421786  0.436225  1
  Y  Y8  1  0.578214  0.789108  0.436225  1
  Y  Y9  1  0.790363  0.209637  0.562200  1
  Y  Y10  1  0.790363  0.580726  0.562200  1
  Y  Y11  1  0.419274  0.209637  0.562200  1
  Y  Y12  1  0.790363  0.209637  0.937800  1
  Y  Y13  1  0.790363  0.580726  0.937800  1
  Y  Y14  1  0.419274  0.209637  0.937800  1
  Y  Y15  1  0.210892  0.789108  0.063775  1
  Y  Y16  1  0.210892  0.421786  0.063775  1
  Y  Y17  1  0.578214  0.789108  0.063775  1
  Tm  Tm18  1  0.000000  0.000000  0.500095  1
  Tm  Tm19  1  0.000000  0.000000  0.999905  1
  Cd  Cd20  1  0.885948  0.114052  0.250000  1
  Cd  Cd21  1  0.885948  0.771896  0.250000  1
  Cd  Cd22  1  0.228105  0.114052  0.250000  1
  Cd  Cd23  1  0.114058  0.885942  0.750000  1
  Cd  Cd24  1  0.114058  0.228115  0.750000  1
  Cd  Cd25  1  0.771884  0.885942  0.750000  1
  Fe  Fe26  1  0.333333  0.666667  0.250000  1
  Ni  Ni27  1  0.666667  0.333333  0.750000  1
