# generated using pymatgen
data_LiSc4Co16(P4Ru)3
_symmetry_space_group_name_H-M   'P 1'
_cell_length_a   3.62811900
_cell_length_b   10.20968111
_cell_length_c   11.70702063
_cell_angle_alpha   89.81759862
_cell_angle_beta   90.00000000
_cell_angle_gamma   90.00000000
_symmetry_Int_Tables_number   1
_chemical_formula_structural   LiSc4Co16(P4Ru)3
_chemical_formula_sum   'Li1 Sc4 Co16 P12 Ru3'
_cell_volume   433.64853512
_cell_formula_units_Z   1
loop_
 _symmetry_equiv_pos_site_id
 _symmetry_equiv_pos_as_xyz
  1  'x, y, z'
loop_
 _atom_site_type_symbol
 _atom_site_label
 _atom_site_symmetry_multiplicity
 _atom_site_fract_x
 _atom_site_fract_y
 _atom_site_fract_z
 _atom_site_occupancy
  Li  Li0  1  0.250000  0.705964  0.990599  1
  Sc  Sc1  1  0.250000  0.584329  0.703701  1
  Sc  Sc2  1  0.250000  0.915354  0.205578  1
  Sc  Sc3  1  0.750000  0.415326  0.296549  1
  Sc  Sc4  1  0.750000  0.079230  0.798237  1
  Co  Co5  1  0.250000  0.409888  0.486812  1
  Co  Co6  1  0.250000  0.092500  0.987112  1
  Co  Co7  1  0.750000  0.590429  0.515005  1
  Co  Co8  1  0.750000  0.907419  0.015182  1
  Co  Co9  1  0.250000  0.223836  0.176781  1
  Co  Co10  1  0.250000  0.278709  0.677227  1
  Co  Co11  1  0.750000  0.779947  0.820927  1
  Co  Co12  1  0.750000  0.718983  0.326149  1
  Co  Co13  1  0.250000  0.889822  0.702675  1
  Co  Co14  1  0.250000  0.617754  0.201174  1
  Co  Co15  1  0.750000  0.112611  0.295253  1
  Co  Co16  1  0.750000  0.385751  0.797639  1
  Co  Co17  1  0.250000  0.464758  0.929885  1
  Co  Co18  1  0.250000  0.035536  0.428401  1
  Co  Co19  1  0.750000  0.537584  0.067992  1
  Co  Co20  1  0.750000  0.965770  0.568999  1
  P  P21  1  0.250000  0.423604  0.115141  1
  P  P22  1  0.250000  0.080547  0.614054  1
  P  P23  1  0.750000  0.580745  0.882250  1
  P  P24  1  0.750000  0.919427  0.384987  1
  P  P25  1  0.250000  0.264626  0.865432  1
  P  P26  1  0.250000  0.234436  0.364935  1
  P  P27  1  0.750000  0.735657  0.136998  1
  P  P28  1  0.750000  0.767482  0.634855  1
  P  P29  1  0.250000  0.593127  0.387940  1
  P  P30  1  0.250000  0.901700  0.891212  1
  P  P31  1  0.750000  0.406686  0.612413  1
  P  P32  1  0.750000  0.092772  0.109836  1
  Ru  Ru33  1  0.250000  0.781349  0.493935  1
  Ru  Ru34  1  0.750000  0.287268  0.008449  1
  Ru  Ru35  1  0.750000  0.219078  0.505687  1
