# generated using pymatgen
data_Nd4Cu3Pt
_symmetry_space_group_name_H-M   'P 1'
_cell_length_a   4.53763200
_cell_length_b   5.70730564
_cell_length_c   7.34195488
_cell_angle_alpha   89.71449292
_cell_angle_beta   90.00000000
_cell_angle_gamma   90.00000000
_symmetry_Int_Tables_number   1
_chemical_formula_structural   Nd4Cu3Pt
_chemical_formula_sum   'Nd4 Cu3 Pt1'
_cell_volume   190.13703713
_cell_formula_units_Z   1
loop_
 _symmetry_equiv_pos_site_id
 _symmetry_equiv_pos_as_xyz
  1  'x, y, z'
loop_
 _atom_site_type_symbol
 _atom_site_label
 _atom_site_symmetry_multiplicity
 _atom_site_fract_x
 _atom_site_fract_y
 _atom_site_fract_z
 _atom_site_occupancy
  Nd  Nd0  1  0.250000  0.369293  0.678036  1
  Nd  Nd1  1  0.750000  0.635042  0.323614  1
  Nd  Nd2  1  0.750000  0.869606  0.816294  1
  Nd  Nd3  1  0.250000  0.129617  0.180838  1
  Cu  Cu4  1  0.750000  0.130517  0.461850  1
  Cu  Cu5  1  0.750000  0.380908  0.968354  1
  Cu  Cu6  1  0.250000  0.615283  0.033002  1
  Pt  Pt7  1  0.250000  0.869735  0.538012  1
