# generated using pymatgen
data_Hf12Ga8Co4CN3
_symmetry_space_group_name_H-M   'P 1'
_cell_length_a   8.41500629
_cell_length_b   8.41494381
_cell_length_c   8.41465320
_cell_angle_alpha   59.89353247
_cell_angle_beta   59.89278972
_cell_angle_gamma   59.89532240
_symmetry_Int_Tables_number   1
_chemical_formula_structural   Hf12Ga8Co4CN3
_chemical_formula_sum   'Hf12 Ga8 Co4 C1 N3'
_cell_volume   420.31997744
_cell_formula_units_Z   1
loop_
 _symmetry_equiv_pos_site_id
 _symmetry_equiv_pos_as_xyz
  1  'x, y, z'
loop_
 _atom_site_type_symbol
 _atom_site_label
 _atom_site_symmetry_multiplicity
 _atom_site_fract_x
 _atom_site_fract_y
 _atom_site_fract_z
 _atom_site_occupancy
  Hf  Hf0  1  0.555007  0.945558  0.554955  1
  Hf  Hf1  1  0.304447  0.695012  0.695019  1
  Hf  Hf2  1  0.694139  0.305937  0.305946  1
  Hf  Hf3  1  0.305939  0.694157  0.305954  1
  Hf  Hf4  1  0.694992  0.695036  0.304451  1
  Hf  Hf5  1  0.305937  0.305944  0.694166  1
  Hf  Hf6  1  0.555008  0.554964  0.945549  1
  Hf  Hf7  1  0.945552  0.554988  0.554981  1
  Hf  Hf8  1  0.555860  0.944063  0.944054  1
  Hf  Hf9  1  0.944064  0.944056  0.555834  1
  Hf  Hf10  1  0.694993  0.304442  0.695045  1
  Hf  Hf11  1  0.944061  0.555843  0.944046  1
  Ga  Ga12  1  0.918636  0.918548  0.918453  1
  Ga  Ga13  1  0.004578  0.331789  0.331882  1
  Ga  Ga14  1  0.331729  0.004577  0.331915  1
  Ga  Ga15  1  0.331765  0.331856  0.004565  1
  Ga  Ga16  1  0.918271  0.245423  0.918085  1
  Ga  Ga17  1  0.918235  0.918145  0.245435  1
  Ga  Ga18  1  0.245422  0.918211  0.918117  1
  Ga  Ga19  1  0.331364  0.331452  0.331547  1
  Co  Co20  1  0.125000  0.125000  0.125000  1
  Co  Co21  1  0.625000  0.125000  0.125000  1
  Co  Co22  1  0.125000  0.625000  0.125000  1
  Co  Co23  1  0.125000  0.125000  0.625000  1
  C  C24  1  0.625000  0.625000  0.625000  1
  N  N25  1  0.125000  0.625000  0.625000  1
  N  N26  1  0.625000  0.125000  0.625000  1
  N  N27  1  0.625000  0.625000  0.125000  1
