# generated using pymatgen
data_Li2Tb15Tm(InRh2)2
_symmetry_space_group_name_H-M   'P 1'
_cell_length_a   9.68017576
_cell_length_b   9.68017580
_cell_length_c   9.68097300
_cell_angle_alpha   59.99727912
_cell_angle_beta   59.99727901
_cell_angle_gamma   59.90666640
_symmetry_Int_Tables_number   1
_chemical_formula_structural   Li2Tb15Tm(InRh2)2
_chemical_formula_sum   'Li2 Tb15 Tm1 In2 Rh4'
_cell_volume   640.98134008
_cell_formula_units_Z   1
loop_
 _symmetry_equiv_pos_site_id
 _symmetry_equiv_pos_as_xyz
  1  'x, y, z'
loop_
 _atom_site_type_symbol
 _atom_site_label
 _atom_site_symmetry_multiplicity
 _atom_site_fract_x
 _atom_site_fract_y
 _atom_site_fract_z
 _atom_site_occupancy
  Li  Li0  1  0.427866  0.427866  0.424020  1
  Li  Li1  1  0.427866  0.427866  0.720247  1
  Tb  Tb2  1  0.811215  0.187230  0.811986  1
  Tb  Tb3  1  0.183334  0.183334  0.816666  1
  Tb  Tb4  1  0.653195  0.042584  0.652111  1
  Tb  Tb5  1  0.064306  0.064306  0.435694  1
  Tb  Tb6  1  0.438462  0.438462  0.061538  1
  Tb  Tb7  1  0.650946  0.650946  0.648356  1
  Tb  Tb8  1  0.811215  0.187230  0.189569  1
  Tb  Tb9  1  0.187230  0.811215  0.811986  1
  Tb  Tb10  1  0.042584  0.653195  0.652111  1
  Tb  Tb11  1  0.437490  0.062889  0.063461  1
  Tb  Tb12  1  0.437490  0.062889  0.436161  1
  Tb  Tb13  1  0.062889  0.437490  0.063461  1
  Tb  Tb14  1  0.650946  0.650946  0.049752  1
  Tb  Tb15  1  0.187230  0.811215  0.189569  1
  Tb  Tb16  1  0.062889  0.437490  0.436161  1
  Tm  Tm17  1  0.807662  0.807662  0.192338  1
  In  In18  1  0.415842  0.744677  0.419741  1
  In  In19  1  0.744677  0.415842  0.419741  1
  Rh  Rh20  1  0.855856  0.427023  0.858561  1
  Rh  Rh21  1  0.855895  0.855895  0.862433  1
  Rh  Rh22  1  0.855895  0.855895  0.425779  1
  Rh  Rh23  1  0.427023  0.855856  0.858561  1
