# generated using pymatgen
data_Dy2Y7ErRu4
_symmetry_space_group_name_H-M   'P 1'
_cell_length_a   6.35036543
_cell_length_b   7.31002039
_cell_length_c   8.49413705
_cell_angle_alpha   96.76676463
_cell_angle_beta   111.94616800
_cell_angle_gamma   89.86048356
_symmetry_Int_Tables_number   1
_chemical_formula_structural   Dy2Y7ErRu4
_chemical_formula_sum   'Dy2 Y7 Er1 Ru4'
_cell_volume   362.81711402
_cell_formula_units_Z   1
loop_
 _symmetry_equiv_pos_site_id
 _symmetry_equiv_pos_as_xyz
  1  'x, y, z'
loop_
 _atom_site_type_symbol
 _atom_site_label
 _atom_site_symmetry_multiplicity
 _atom_site_fract_x
 _atom_site_fract_y
 _atom_site_fract_z
 _atom_site_occupancy
  Dy  Dy0  1  0.360302  0.184372  0.566101  1
  Dy  Dy1  1  0.420031  0.749615  0.999835  1
  Y  Y2  1  0.791555  0.584117  0.813757  1
  Y  Y3  1  0.977543  0.915775  0.186195  1
  Y  Y4  1  0.208345  0.415382  0.186514  1
  Y  Y5  1  0.022802  0.084674  0.814020  1
  Y  Y6  1  0.205950  0.684822  0.565594  1
  Y  Y7  1  0.639998  0.815408  0.434736  1
  Y  Y8  1  0.794391  0.314914  0.434276  1
  Er  Er9  1  0.579412  0.250229  0.000021  1
  Ru  Ru10  1  0.600657  0.926376  0.780661  1
  Ru  Ru11  1  0.819792  0.575663  0.217805  1
  Ru  Ru12  1  0.398106  0.075572  0.219480  1
  Ru  Ru13  1  0.181116  0.423080  0.781006  1
