# generated using pymatgen
data_Pr3NdAl16(SiIr3)2
_symmetry_space_group_name_H-M   'P 1'
_cell_length_a   7.59798746
_cell_length_b   7.58175736
_cell_length_c   9.58853640
_cell_angle_alpha   89.94110431
_cell_angle_beta   89.90886108
_cell_angle_gamma   119.63497971
_symmetry_Int_Tables_number   1
_chemical_formula_structural   Pr3NdAl16(SiIr3)2
_chemical_formula_sum   'Pr3 Nd1 Al16 Si2 Ir6'
_cell_volume   480.10430975
_cell_formula_units_Z   1
loop_
 _symmetry_equiv_pos_site_id
 _symmetry_equiv_pos_as_xyz
  1  'x, y, z'
loop_
 _atom_site_type_symbol
 _atom_site_label
 _atom_site_symmetry_multiplicity
 _atom_site_fract_x
 _atom_site_fract_y
 _atom_site_fract_z
 _atom_site_occupancy
  Pr  Pr0  1  0.995263  0.665777  0.244352  1
  Pr  Pr1  1  0.004795  0.334234  0.755631  1
  Pr  Pr2  1  0.673688  0.999573  0.247126  1
  Nd  Nd3  1  0.326067  0.000203  0.752906  1
  Al  Al4  1  0.131946  0.130342  0.250375  1
  Al  Al5  1  0.868640  0.869771  0.749597  1
  Al  Al6  1  0.997452  0.666057  0.567658  1
  Al  Al7  1  0.334917  0.001385  0.427869  1
  Al  Al8  1  0.002946  0.334339  0.432703  1
  Al  Al9  1  0.664642  0.998580  0.572860  1
  Al  Al10  1  0.660948  0.993779  0.923961  1
  Al  Al11  1  0.338602  0.006212  0.075344  1
  Al  Al12  1  0.334731  0.333430  0.551036  1
  Al  Al13  1  0.665258  0.666225  0.449346  1
  Al  Al14  1  0.661786  0.665015  0.051859  1
  Al  Al15  1  0.338217  0.334624  0.947780  1
  Al  Al16  1  0.340359  0.546525  0.249855  1
  Al  Al17  1  0.659164  0.452891  0.750141  1
  Al  Al18  1  0.545298  0.341349  0.250214  1
  Al  Al19  1  0.454555  0.659008  0.749776  1
  Si  Si20  1  0.004816  0.328830  0.073884  1
  Si  Si21  1  0.995792  0.671720  0.925782  1
  Ir  Ir22  1  0.687749  0.337570  0.001009  1
  Ir  Ir23  1  0.312157  0.662496  0.998637  1
  Ir  Ir24  1  0.328193  0.669841  0.500340  1
  Ir  Ir25  1  0.671636  0.330117  0.499994  1
  Ir  Ir26  1  0.000205  0.000044  0.999790  1
  Ir  Ir27  1  0.000177  0.000064  0.500174  1
