# generated using pymatgen
data_Yb2Th3SnBi2C
_symmetry_space_group_name_H-M   'P 1'
_cell_length_a   9.33431708
_cell_length_b   9.35448297
_cell_length_c   6.54807700
_cell_angle_alpha   90.00000000
_cell_angle_beta   90.00000000
_cell_angle_gamma   120.07148613
_symmetry_Int_Tables_number   1
_chemical_formula_structural   Yb2Th3SnBi2C
_chemical_formula_sum   'Yb4 Th6 Sn2 Bi4 C2'
_cell_volume   494.80429021
_cell_formula_units_Z   2
loop_
 _symmetry_equiv_pos_site_id
 _symmetry_equiv_pos_as_xyz
  1  'x, y, z'
loop_
 _atom_site_type_symbol
 _atom_site_label
 _atom_site_symmetry_multiplicity
 _atom_site_fract_x
 _atom_site_fract_y
 _atom_site_fract_z
 _atom_site_occupancy
  Yb  Yb0  1  0.662941  0.330576  0.996071  1
  Yb  Yb1  1  0.337059  0.667635  0.996071  1
  Yb  Yb2  1  0.337059  0.667635  0.503929  1
  Yb  Yb3  1  0.662941  0.330576  0.503929  1
  Th  Th4  1  0.776242  0.781009  0.750000  1
  Th  Th5  1  0.223758  0.004766  0.750000  1
  Th  Th6  1  0.000000  0.217619  0.750000  1
  Th  Th7  1  0.220312  0.220618  0.250000  1
  Th  Th8  1  0.779688  0.000306  0.250000  1
  Th  Th9  1  0.000000  0.783108  0.250000  1
  Sn  Sn10  1  0.403600  0.404864  0.750000  1
  Sn  Sn11  1  0.596400  0.001264  0.750000  1
  Bi  Bi12  1  0.000000  0.595691  0.750000  1
  Bi  Bi13  1  0.594148  0.592517  0.250000  1
  Bi  Bi14  1  0.405852  0.998368  0.250000  1
  Bi  Bi15  1  0.000000  0.406488  0.250000  1
  C  C16  1  0.000000  0.998481  0.001315  1
  C  C17  1  0.000000  0.998481  0.498685  1
