# generated using pymatgen
data_Ho3Tm13MgCd3Ni4
_symmetry_space_group_name_H-M   'P 1'
_cell_length_a   9.45744702
_cell_length_b   9.41300955
_cell_length_c   9.41301000
_cell_angle_alpha   59.99999841
_cell_angle_beta   60.15530802
_cell_angle_gamma   60.15531020
_symmetry_Int_Tables_number   1
_chemical_formula_structural   Ho3Tm13MgCd3Ni4
_chemical_formula_sum   'Ho3 Tm13 Mg1 Cd3 Ni4'
_cell_volume   593.92479880
_cell_formula_units_Z   1
loop_
 _symmetry_equiv_pos_site_id
 _symmetry_equiv_pos_as_xyz
  1  'x, y, z'
loop_
 _atom_site_type_symbol
 _atom_site_label
 _atom_site_symmetry_multiplicity
 _atom_site_fract_x
 _atom_site_fract_y
 _atom_site_fract_z
 _atom_site_occupancy
  Ho  Ho0  1  0.597795  0.597392  0.597392  1
  Ho  Ho1  1  0.597795  0.597392  0.207423  1
  Ho  Ho2  1  0.597795  0.207423  0.597392  1
  Tm  Tm3  1  0.202857  0.599048  0.599048  1
  Tm  Tm4  1  0.061342  0.438299  0.438299  1
  Tm  Tm5  1  0.436031  0.063676  0.063676  1
  Tm  Tm6  1  0.436031  0.063676  0.436616  1
  Tm  Tm7  1  0.061342  0.438299  0.062059  1
  Tm  Tm8  1  0.436031  0.436616  0.063676  1
  Tm  Tm9  1  0.061342  0.062059  0.438299  1
  Tm  Tm10  1  0.183917  0.814966  0.814966  1
  Tm  Tm11  1  0.814816  0.185237  0.185237  1
  Tm  Tm12  1  0.814816  0.185237  0.814709  1
  Tm  Tm13  1  0.183917  0.814966  0.186152  1
  Tm  Tm14  1  0.814816  0.814709  0.185237  1
  Tm  Tm15  1  0.183917  0.186152  0.814966  1
  Mg  Mg16  1  0.522664  0.825779  0.825779  1
  Cd  Cd17  1  0.832898  0.831675  0.831675  1
  Cd  Cd18  1  0.832898  0.831675  0.503751  1
  Cd  Cd19  1  0.832898  0.503751  0.831675  1
  Ni  Ni20  1  0.389590  0.392984  0.392984  1
  Ni  Ni21  1  0.389590  0.392984  0.824444  1
  Ni  Ni22  1  0.389590  0.824444  0.392984  1
  Ni  Ni23  1  0.825315  0.391562  0.391562  1
