# generated using pymatgen
data_Nd2Th(SnRh)3
_symmetry_space_group_name_H-M   'P 1'
_cell_length_a   7.54405904
_cell_length_b   7.65656406
_cell_length_c   4.10995800
_cell_angle_alpha   90.00000000
_cell_angle_beta   90.00000000
_cell_angle_gamma   120.49455785
_symmetry_Int_Tables_number   1
_chemical_formula_structural   Nd2Th(SnRh)3
_chemical_formula_sum   'Nd2 Th1 Sn3 Rh3'
_cell_volume   204.56016583
_cell_formula_units_Z   1
loop_
 _symmetry_equiv_pos_site_id
 _symmetry_equiv_pos_as_xyz
  1  'x, y, z'
loop_
 _atom_site_type_symbol
 _atom_site_label
 _atom_site_symmetry_multiplicity
 _atom_site_fract_x
 _atom_site_fract_y
 _atom_site_fract_z
 _atom_site_occupancy
  Nd  Nd0  1  0.409688  0.410991  0.000000  1
  Nd  Nd1  1  0.590312  0.001303  0.000000  1
  Th  Th2  1  0.000000  0.585254  0.000000  1
  Sn  Sn3  1  0.739950  0.748629  0.500000  1
  Sn  Sn4  1  0.000000  0.242357  0.500000  1
  Sn  Sn5  1  0.260050  0.008679  0.500000  1
  Rh  Rh6  1  0.000000  0.985674  0.000000  1
  Rh  Rh7  1  0.690135  0.353624  0.500000  1
  Rh  Rh8  1  0.309865  0.663489  0.500000  1
