# generated using pymatgen
data_HoErGa10Tc3
_symmetry_space_group_name_H-M   'P 1'
_cell_length_a   9.05400801
_cell_length_b   9.05400801
_cell_length_c   6.32749800
_cell_angle_alpha   90.00000000
_cell_angle_beta   90.00000000
_cell_angle_gamma   90.00618900
_symmetry_Int_Tables_number   1
_chemical_formula_structural   HoErGa10Tc3
_chemical_formula_sum   'Ho2 Er2 Ga20 Tc6'
_cell_volume   518.69703215
_cell_formula_units_Z   2
loop_
 _symmetry_equiv_pos_site_id
 _symmetry_equiv_pos_as_xyz
  1  'x, y, z'
loop_
 _atom_site_type_symbol
 _atom_site_label
 _atom_site_symmetry_multiplicity
 _atom_site_fract_x
 _atom_site_fract_y
 _atom_site_fract_z
 _atom_site_occupancy
  Ho  Ho0  1  0.683011  0.183011  0.000000  1
  Ho  Ho1  1  0.316989  0.816989  0.000000  1
  Er  Er2  1  0.816976  0.683024  0.000000  1
  Er  Er3  1  0.183024  0.316976  0.000000  1
  Ga  Ga4  1  0.939948  0.205220  0.292062  1
  Ga  Ga5  1  0.705220  0.439948  0.292062  1
  Ga  Ga6  1  0.500000  0.000000  0.289000  1
  Ga  Ga7  1  0.560096  0.705208  0.707942  1
  Ga  Ga8  1  0.294780  0.560052  0.707938  1
  Ga  Ga9  1  0.794792  0.939904  0.292058  1
  Ga  Ga10  1  0.939948  0.205220  0.707938  1
  Ga  Ga11  1  0.294780  0.560052  0.292062  1
  Ga  Ga12  1  0.060052  0.794780  0.292062  1
  Ga  Ga13  1  0.705220  0.439948  0.707938  1
  Ga  Ga14  1  0.439904  0.294792  0.707942  1
  Ga  Ga15  1  0.060052  0.794780  0.707938  1
  Ga  Ga16  1  0.205208  0.060096  0.707942  1
  Ga  Ga17  1  0.794792  0.939904  0.707942  1
  Ga  Ga18  1  0.205208  0.060096  0.292058  1
  Ga  Ga19  1  0.000000  0.500000  0.711065  1
  Ga  Ga20  1  0.000000  0.500000  0.288935  1
  Ga  Ga21  1  0.560096  0.705208  0.292058  1
  Ga  Ga22  1  0.439904  0.294792  0.292058  1
  Ga  Ga23  1  0.500000  0.000000  0.711000  1
  Tc  Tc24  1  0.679219  0.179219  0.500000  1
  Tc  Tc25  1  0.820781  0.679219  0.500000  1
  Tc  Tc26  1  0.179219  0.320781  0.500000  1
  Tc  Tc27  1  0.000000  0.000000  0.000000  1
  Tc  Tc28  1  0.320781  0.820781  0.500000  1
  Tc  Tc29  1  0.500000  0.500000  0.000000  1
