# generated using pymatgen
data_Lu8ReB24Ir2Ru
_symmetry_space_group_name_H-M   'P 1'
_cell_length_a   3.60487900
_cell_length_b   9.03958865
_cell_length_c   11.39093621
_cell_angle_alpha   90.16807790
_cell_angle_beta   90.00000000
_cell_angle_gamma   90.00000000
_symmetry_Int_Tables_number   1
_chemical_formula_structural   Lu8ReB24Ir2Ru
_chemical_formula_sum   'Lu8 Re1 B24 Ir2 Ru1'
_cell_volume   371.19054985
_cell_formula_units_Z   1
loop_
 _symmetry_equiv_pos_site_id
 _symmetry_equiv_pos_as_xyz
  1  'x, y, z'
loop_
 _atom_site_type_symbol
 _atom_site_label
 _atom_site_symmetry_multiplicity
 _atom_site_fract_x
 _atom_site_fract_y
 _atom_site_fract_z
 _atom_site_occupancy
  Lu  Lu0  1  0.000000  0.317602  0.412581  1
  Lu  Lu1  1  0.000000  0.685254  0.590876  1
  Lu  Lu2  1  0.000000  0.822280  0.081686  1
  Lu  Lu3  1  0.000000  0.175804  0.915239  1
  Lu  Lu4  1  0.000000  0.945652  0.372507  1
  Lu  Lu5  1  0.000000  0.053659  0.626379  1
  Lu  Lu6  1  0.000000  0.441330  0.125726  1
  Lu  Lu7  1  0.000000  0.557713  0.875073  1
  Re  Re8  1  0.000000  0.862039  0.820483  1
  B  B9  1  0.500000  0.554221  0.434892  1
  B  B10  1  0.500000  0.446766  0.565381  1
  B  B11  1  0.500000  0.053977  0.066706  1
  B  B12  1  0.500000  0.946900  0.934072  1
  B  B13  1  0.500000  0.751029  0.421606  1
  B  B14  1  0.500000  0.249576  0.578111  1
  B  B15  1  0.500000  0.248540  0.079433  1
  B  B16  1  0.500000  0.750740  0.920528  1
  B  B17  1  0.500000  0.792441  0.264268  1
  B  B18  1  0.500000  0.207405  0.734772  1
  B  B19  1  0.500000  0.292721  0.235318  1
  B  B20  1  0.500000  0.706627  0.765112  1
  B  B21  1  0.500000  0.630869  0.182785  1
  B  B22  1  0.500000  0.368264  0.817060  1
  B  B23  1  0.500000  0.131764  0.315924  1
  B  B24  1  0.500000  0.868904  0.684298  1
  B  B25  1  0.500000  0.981768  0.212971  1
  B  B26  1  0.500000  0.018981  0.786779  1
  B  B27  1  0.500000  0.480913  0.286941  1
  B  B28  1  0.500000  0.518912  0.713315  1
  B  B29  1  0.500000  0.605561  0.030051  1
  B  B30  1  0.500000  0.392469  0.970791  1
  B  B31  1  0.500000  0.107007  0.470540  1
  B  B32  1  0.500000  0.893940  0.527998  1
  Ir  Ir33  1  0.000000  0.637318  0.321817  1
  Ir  Ir34  1  0.000000  0.362512  0.678026  1
  Ru  Ru35  1  0.000000  0.138545  0.179952  1
