# generated using pymatgen
data_Pa2IrC2
_symmetry_space_group_name_H-M   'P 1'
_cell_length_a   3.55783369
_cell_length_b   3.55783476
_cell_length_c   6.81226729
_cell_angle_alpha   105.13737018
_cell_angle_beta   105.13737531
_cell_angle_gamma   90.00000582
_symmetry_Int_Tables_number   1
_chemical_formula_structural   Pa2IrC2
_chemical_formula_sum   'Pa2 Ir1 C2'
_cell_volume   80.13530584
_cell_formula_units_Z   1
loop_
 _symmetry_equiv_pos_site_id
 _symmetry_equiv_pos_as_xyz
  1  'x, y, z'
loop_
 _atom_site_type_symbol
 _atom_site_label
 _atom_site_symmetry_multiplicity
 _atom_site_fract_x
 _atom_site_fract_y
 _atom_site_fract_z
 _atom_site_occupancy
  Pa  Pa0  1  0.647354  0.647354  0.294708  1
  Pa  Pa1  1  0.352646  0.352646  0.705292  1
  Ir  Ir2  1  0.000000  0.000000  0.000000  1
  C  C3  1  0.169448  0.169447  0.338894  1
  C  C4  1  0.830552  0.830553  0.661106  1
