# generated using pymatgen
data_Ho8Ta2Ti9Si16Pt
_symmetry_space_group_name_H-M   'P 1'
_cell_length_a   7.03325618
_cell_length_b   7.03435881
_cell_length_c   12.85697302
_cell_angle_alpha   90.22502180
_cell_angle_beta   89.81715641
_cell_angle_gamma   89.70386759
_symmetry_Int_Tables_number   1
_chemical_formula_structural   Ho8Ta2Ti9Si16Pt
_chemical_formula_sum   'Ho8 Ta2 Ti9 Si16 Pt1'
_cell_volume   636.07495546
_cell_formula_units_Z   1
loop_
 _symmetry_equiv_pos_site_id
 _symmetry_equiv_pos_as_xyz
  1  'x, y, z'
loop_
 _atom_site_type_symbol
 _atom_site_label
 _atom_site_symmetry_multiplicity
 _atom_site_fract_x
 _atom_site_fract_y
 _atom_site_fract_z
 _atom_site_occupancy
  Ho  Ho0  1  0.341082  0.002775  0.467474  1
  Ho  Ho1  1  0.496976  0.841496  0.717923  1
  Ho  Ho2  1  0.501649  0.158201  0.214970  1
  Ho  Ho3  1  0.841374  0.497535  0.282039  1
  Ho  Ho4  1  0.158187  0.501728  0.785243  1
  Ho  Ho5  1  0.657270  0.998895  0.968616  1
  Ho  Ho6  1  0.003128  0.340671  0.532397  1
  Ho  Ho7  1  0.998602  0.657220  0.031335  1
  Ta  Ta8  1  0.174655  0.826667  0.248378  1
  Ta  Ta9  1  0.672969  0.673135  0.500009  1
  Ti  Ti10  1  0.826339  0.175302  0.751613  1
  Ti  Ti11  1  0.148982  0.003770  0.876690  1
  Ti  Ti12  1  0.493392  0.655009  0.124673  1
  Ti  Ti13  1  0.507555  0.350542  0.626703  1
  Ti  Ti14  1  0.654749  0.493931  0.875742  1
  Ti  Ti15  1  0.350109  0.507806  0.372986  1
  Ti  Ti16  1  0.849251  0.991926  0.374597  1
  Ti  Ti17  1  0.004140  0.147889  0.123885  1
  Ti  Ti18  1  0.992524  0.848643  0.624800  1
  Si  Si19  1  0.202273  0.132701  0.685034  1
  Si  Si20  1  0.372348  0.708814  0.932275  1
  Si  Si21  1  0.631301  0.295495  0.433844  1
  Si  Si22  1  0.708821  0.372212  0.067388  1
  Si  Si23  1  0.295335  0.630984  0.566495  1
  Si  Si24  1  0.797431  0.867733  0.183293  1
  Si  Si25  1  0.132917  0.202438  0.315295  1
  Si  Si26  1  0.867848  0.797790  0.816524  1
  Si  Si27  1  0.287652  0.946679  0.062857  1
  Si  Si28  1  0.546808  0.793013  0.314531  1
  Si  Si29  1  0.450350  0.208918  0.815504  1
  Si  Si30  1  0.793083  0.546820  0.685443  1
  Si  Si31  1  0.208980  0.450273  0.184645  1
  Si  Si32  1  0.708457  0.047996  0.565385  1
  Si  Si33  1  0.945436  0.286435  0.935598  1
  Si  Si34  1  0.047515  0.707650  0.435437  1
  Pt  Pt35  1  0.330512  0.330907  0.000382  1
