# generated using pymatgen
data_TbDyI6
_symmetry_space_group_name_H-M   'P 1'
_cell_length_a   8.78460257
_cell_length_b   8.78460247
_cell_length_c   8.78460101
_cell_angle_alpha   52.11439711
_cell_angle_beta   52.11439937
_cell_angle_gamma   52.11439759
_symmetry_Int_Tables_number   1
_chemical_formula_structural   TbDyI6
_chemical_formula_sum   'Tb1 Dy1 I6'
_cell_volume   390.50835948
_cell_formula_units_Z   1
loop_
 _symmetry_equiv_pos_site_id
 _symmetry_equiv_pos_as_xyz
  1  'x, y, z'
loop_
 _atom_site_type_symbol
 _atom_site_label
 _atom_site_symmetry_multiplicity
 _atom_site_fract_x
 _atom_site_fract_y
 _atom_site_fract_z
 _atom_site_occupancy
  Tb  Tb0  1  0.833584  0.833584  0.833584  1
  Dy  Dy1  1  0.166418  0.166418  0.166418  1
  I  I2  1  0.577231  0.221804  0.935451  1
  I  I3  1  0.778602  0.064952  0.421960  1
  I  I4  1  0.064952  0.421960  0.778602  1
  I  I5  1  0.421960  0.778602  0.064952  1
  I  I6  1  0.935451  0.577231  0.221804  1
  I  I7  1  0.221804  0.935451  0.577231  1
