# generated using pymatgen
data_CePr(Si2Rh3)2
_symmetry_space_group_name_H-M   'P 1'
_cell_length_a   6.72190876
_cell_length_b   6.72190867
_cell_length_c   6.72190885
_cell_angle_alpha   130.24596345
_cell_angle_beta   114.99152482
_cell_angle_gamma   86.06903517
_symmetry_Int_Tables_number   1
_chemical_formula_structural   CePr(Si2Rh3)2
_chemical_formula_sum   'Ce1 Pr1 Si4 Rh6'
_cell_volume   200.73895876
_cell_formula_units_Z   1
loop_
 _symmetry_equiv_pos_site_id
 _symmetry_equiv_pos_as_xyz
  1  'x, y, z'
loop_
 _atom_site_type_symbol
 _atom_site_label
 _atom_site_symmetry_multiplicity
 _atom_site_fract_x
 _atom_site_fract_y
 _atom_site_fract_z
 _atom_site_occupancy
  Ce  Ce0  1  0.750000  0.040320  0.290320  1
  Pr  Pr1  1  0.250000  0.964652  0.714652  1
  Si  Si2  1  0.078242  0.276191  0.197949  1
  Si  Si3  1  0.921530  0.724961  0.803431  1
  Si  Si4  1  0.421758  0.619707  0.197949  1
  Si  Si5  1  0.578470  0.381901  0.803431  1
  Rh  Rh6  1  0.501129  0.498898  0.500026  1
  Rh  Rh7  1  0.998871  0.498898  0.997769  1
  Rh  Rh8  1  0.285471  0.999768  0.282939  1
  Rh  Rh9  1  0.716830  0.999768  0.714298  1
  Rh  Rh10  1  0.214529  0.497468  0.714298  1
  Rh  Rh11  1  0.783170  0.497468  0.282939  1
