# generated using pymatgen
data_Er2CoRu2W
_symmetry_space_group_name_H-M   'P 1'
_cell_length_a   5.49014039
_cell_length_b   5.15876574
_cell_length_c   5.49014108
_cell_angle_alpha   123.69258503
_cell_angle_beta   118.98178950
_cell_angle_gamma   89.64722007
_symmetry_Int_Tables_number   1
_chemical_formula_structural   Er2CoRu2W
_chemical_formula_sum   'Er2 Co1 Ru2 W1'
_cell_volume   105.54897965
_cell_formula_units_Z   1
loop_
 _symmetry_equiv_pos_site_id
 _symmetry_equiv_pos_as_xyz
  1  'x, y, z'
loop_
 _atom_site_type_symbol
 _atom_site_label
 _atom_site_symmetry_multiplicity
 _atom_site_fract_x
 _atom_site_fract_y
 _atom_site_fract_z
 _atom_site_occupancy
  Er  Er0  1  0.371015  0.114592  0.243576  1
  Er  Er1  1  0.628985  0.885408  0.756424  1
  Co  Co2  1  0.000000  0.500000  0.000000  1
  Ru  Ru3  1  0.000000  0.500000  0.500000  1
  Ru  Ru4  1  0.500000  0.500000  0.000000  1
  W  W5  1  0.000000  0.000000  0.500000  1
