# generated using pymatgen
data_Pa6Al9AgPt2
_symmetry_space_group_name_H-M   'P 1'
_cell_length_a   9.74702100
_cell_length_b   9.74702043
_cell_length_c   8.35749600
_cell_angle_alpha   90.00000000
_cell_angle_beta   90.00000000
_cell_angle_gamma   119.99999177
_symmetry_Int_Tables_number   1
_chemical_formula_structural   Pa6Al9AgPt2
_chemical_formula_sum   'Pa12 Al18 Ag2 Pt4'
_cell_volume   687.62336141
_cell_formula_units_Z   2
loop_
 _symmetry_equiv_pos_site_id
 _symmetry_equiv_pos_as_xyz
  1  'x, y, z'
loop_
 _atom_site_type_symbol
 _atom_site_label
 _atom_site_symmetry_multiplicity
 _atom_site_fract_x
 _atom_site_fract_y
 _atom_site_fract_z
 _atom_site_occupancy
  Pa  Pa0  1  0.334846  0.000000  0.088145  1
  Pa  Pa1  1  0.665154  0.000000  0.911855  1
  Pa  Pa2  1  0.000000  0.334846  0.088145  1
  Pa  Pa3  1  0.665154  0.000000  0.588145  1
  Pa  Pa4  1  0.000000  0.334846  0.411855  1
  Pa  Pa5  1  0.000000  0.665154  0.911855  1
  Pa  Pa6  1  0.334846  0.000000  0.411855  1
  Pa  Pa7  1  0.000000  0.665154  0.588145  1
  Pa  Pa8  1  0.665154  0.665154  0.088145  1
  Pa  Pa9  1  0.334846  0.334846  0.911855  1
  Pa  Pa10  1  0.334846  0.334846  0.588145  1
  Pa  Pa11  1  0.665154  0.665154  0.411855  1
  Al  Al12  1  0.166246  0.499404  0.750000  1
  Al  Al13  1  0.833754  0.500596  0.250000  1
  Al  Al14  1  0.500596  0.666842  0.750000  1
  Al  Al15  1  0.499404  0.166246  0.750000  1
  Al  Al16  1  0.499404  0.333158  0.250000  1
  Al  Al17  1  0.500596  0.833754  0.250000  1
  Al  Al18  1  0.333158  0.833754  0.750000  1
  Al  Al19  1  0.666842  0.500596  0.750000  1
  Al  Al20  1  0.666842  0.166246  0.250000  1
  Al  Al21  1  0.333158  0.499404  0.250000  1
  Al  Al22  1  0.833754  0.333158  0.750000  1
  Al  Al23  1  0.166246  0.666842  0.250000  1
  Al  Al24  1  0.175440  0.000000  0.750000  1
  Al  Al25  1  0.824560  0.000000  0.250000  1
  Al  Al26  1  0.000000  0.175440  0.750000  1
  Al  Al27  1  0.000000  0.824560  0.250000  1
  Al  Al28  1  0.824560  0.824560  0.750000  1
  Al  Al29  1  0.175440  0.175440  0.250000  1
  Ag  Ag30  1  0.000000  0.000000  0.500000  1
  Ag  Ag31  1  0.000000  0.000000  0.000000  1
  Pt  Pt32  1  0.333333  0.666667  0.500000  1
  Pt  Pt33  1  0.666667  0.333333  0.500000  1
  Pt  Pt34  1  0.666667  0.333333  0.000000  1
  Pt  Pt35  1  0.333333  0.666667  0.000000  1
