# generated using pymatgen
data_Ba6Er2(WO6)3
_symmetry_space_group_name_H-M   'P 1'
_cell_length_a   5.95183257
_cell_length_b   5.95183169
_cell_length_c   14.85331204
_cell_angle_alpha   89.99999883
_cell_angle_beta   78.44235473
_cell_angle_gamma   120.00001660
_symmetry_Int_Tables_number   1
_chemical_formula_structural   Ba6Er2(WO6)3
_chemical_formula_sum   'Ba6 Er2 W3 O18'
_cell_volume   443.31296303
_cell_formula_units_Z   1
loop_
 _symmetry_equiv_pos_site_id
 _symmetry_equiv_pos_as_xyz
  1  'x, y, z'
loop_
 _atom_site_type_symbol
 _atom_site_label
 _atom_site_symmetry_multiplicity
 _atom_site_fract_x
 _atom_site_fract_y
 _atom_site_fract_z
 _atom_site_occupancy
  Ba  Ba0  1  0.272495  0.636248  0.091258  1
  Ba  Ba1  1  0.823249  0.911624  0.265127  1
  Ba  Ba2  1  0.374432  0.187216  0.438352  1
  Ba  Ba3  1  0.625567  0.812783  0.561649  1
  Ba  Ba4  1  0.176751  0.088376  0.734873  1
  Ba  Ba5  1  0.727505  0.363752  0.908742  1
  Er  Er6  1  0.550399  0.275200  0.174400  1
  Er  Er7  1  0.449601  0.724800  0.825599  1
  W  W8  1  0.000000  0.000000  0.000000  1
  W  W9  1  0.102966  0.551483  0.345551  1
  W  W10  1  0.897034  0.448517  0.654449  1
  O  O11  1  0.260384  0.130192  0.077685  1
  O  O12  1  0.792123  0.130193  0.077685  1
  O  O13  1  0.792124  0.661931  0.077685  1
  O  O14  1  0.318498  0.426890  0.254611  1
  O  O15  1  0.853783  0.426891  0.254611  1
  O  O16  1  0.318496  0.891606  0.254611  1
  O  O17  1  0.901553  0.212603  0.409497  1
  O  O18  1  0.901553  0.688948  0.409497  1
  O  O19  1  0.377899  0.688949  0.409497  1
  O  O20  1  0.098448  0.311050  0.590503  1
  O  O21  1  0.622101  0.311051  0.590503  1
  O  O22  1  0.098448  0.787396  0.590503  1
  O  O23  1  0.681502  0.108394  0.745389  1
  O  O24  1  0.146218  0.573108  0.745389  1
  O  O25  1  0.681503  0.573109  0.745389  1
  O  O26  1  0.207875  0.338068  0.922315  1
  O  O27  1  0.207875  0.869808  0.922315  1
  O  O28  1  0.739616  0.869808  0.922315  1
