# generated using pymatgen
data_La4Ir3Pt11
_symmetry_space_group_name_H-M   'P 1'
_cell_length_a   13.87337884
_cell_length_b   13.87337891
_cell_length_c   13.87337854
_cell_angle_alpha   22.68140887
_cell_angle_beta   22.68140963
_cell_angle_gamma   22.68140615
_symmetry_Int_Tables_number   1
_chemical_formula_structural   La4Ir3Pt11
_chemical_formula_sum   'La4 Ir3 Pt11'
_cell_volume   348.33621784
_cell_formula_units_Z   1
loop_
 _symmetry_equiv_pos_site_id
 _symmetry_equiv_pos_as_xyz
  1  'x, y, z'
loop_
 _atom_site_type_symbol
 _atom_site_label
 _atom_site_symmetry_multiplicity
 _atom_site_fract_x
 _atom_site_fract_y
 _atom_site_fract_z
 _atom_site_occupancy
  La  La0  1  0.953133  0.953133  0.953133  1
  La  La1  1  0.046867  0.046867  0.046867  1
  La  La2  1  0.853159  0.853159  0.853159  1
  La  La3  1  0.146841  0.146841  0.146841  1
  Ir  Ir4  1  0.500000  0.500000  0.000000  1
  Ir  Ir5  1  0.000000  0.500000  0.500000  1
  Ir  Ir6  1  0.500000  0.000000  0.500000  1
  Pt  Pt7  1  0.500000  0.500000  0.500000  1
  Pt  Pt8  1  0.721451  0.721451  0.721451  1
  Pt  Pt9  1  0.278549  0.278549  0.278549  1
  Pt  Pt10  1  0.612399  0.612399  0.612399  1
  Pt  Pt11  1  0.387601  0.387601  0.387601  1
  Pt  Pt12  1  0.388300  0.891816  0.388300  1
  Pt  Pt13  1  0.388300  0.388300  0.891816  1
  Pt  Pt14  1  0.891816  0.388300  0.388300  1
  Pt  Pt15  1  0.611700  0.108184  0.611700  1
  Pt  Pt16  1  0.611700  0.611700  0.108184  1
  Pt  Pt17  1  0.108184  0.611700  0.611700  1
