# generated using pymatgen
data_Y4Ho3Lu3Pb8
_symmetry_space_group_name_H-M   'P 1'
_cell_length_a   8.15585200
_cell_length_b   8.23895403
_cell_length_c   15.57266700
_cell_angle_alpha   89.99544496
_cell_angle_beta   90.00000000
_cell_angle_gamma   90.00000000
_symmetry_Int_Tables_number   1
_chemical_formula_structural   Y4Ho3Lu3Pb8
_chemical_formula_sum   'Y8 Ho6 Lu6 Pb16'
_cell_volume   1046.41609578
_cell_formula_units_Z   2
loop_
 _symmetry_equiv_pos_site_id
 _symmetry_equiv_pos_as_xyz
  1  'x, y, z'
loop_
 _atom_site_type_symbol
 _atom_site_label
 _atom_site_symmetry_multiplicity
 _atom_site_fract_x
 _atom_site_fract_y
 _atom_site_fract_z
 _atom_site_occupancy
  Y  Y0  1  0.533535  0.323384  0.901296  1
  Y  Y1  1  0.033535  0.176616  0.598704  1
  Y  Y2  1  0.466176  0.676852  0.401854  1
  Y  Y3  1  0.966176  0.823148  0.098146  1
  Y  Y4  1  0.469052  0.678806  0.096672  1
  Y  Y5  1  0.969052  0.821194  0.403328  1
  Y  Y6  1  0.532548  0.325145  0.599648  1
  Y  Y7  1  0.032548  0.174855  0.900352  1
  Ho  Ho8  1  0.627050  0.157115  0.379847  1
  Ho  Ho9  1  0.127050  0.342885  0.120153  1
  Ho  Ho10  1  0.625144  0.158723  0.121658  1
  Ho  Ho11  1  0.125144  0.341277  0.378342  1
  Ho  Ho12  1  0.374865  0.842661  0.621605  1
  Ho  Ho13  1  0.874865  0.657339  0.878395  1
  Lu  Lu14  1  0.372264  0.843911  0.876327  1
  Lu  Lu15  1  0.872264  0.656089  0.623673  1
  Lu  Lu16  1  0.205973  0.505686  0.749946  1
  Lu  Lu17  1  0.705973  0.994314  0.750054  1
  Lu  Lu18  1  0.794001  0.494866  0.250652  1
  Lu  Lu19  1  0.294001  0.005134  0.249348  1
  Pb  Pb20  1  0.284789  0.034054  0.041879  1
  Pb  Pb21  1  0.784789  0.465946  0.458121  1
  Pb  Pb22  1  0.717896  0.961858  0.544484  1
  Pb  Pb23  1  0.217896  0.538142  0.955516  1
  Pb  Pb24  1  0.711874  0.963495  0.956021  1
  Pb  Pb25  1  0.211874  0.536505  0.543979  1
  Pb  Pb26  1  0.284783  0.034910  0.456152  1
  Pb  Pb27  1  0.784783  0.465090  0.043848  1
  Pb  Pb28  1  0.567795  0.626596  0.750444  1
  Pb  Pb29  1  0.067795  0.873404  0.749556  1
  Pb  Pb30  1  0.432060  0.374682  0.250586  1
  Pb  Pb31  1  0.932060  0.125318  0.249414  1
  Pb  Pb32  1  0.346308  0.156339  0.750156  1
  Pb  Pb33  1  0.846308  0.343661  0.749844  1
  Pb  Pb34  1  0.653888  0.843968  0.250175  1
  Pb  Pb35  1  0.153888  0.656032  0.249825  1
