# generated using pymatgen
data_CsAl2Au3
_symmetry_space_group_name_H-M   'P 1'
_cell_length_a   5.65715900
_cell_length_b   7.26197400
_cell_length_c   13.60596800
_cell_angle_alpha   90.00000000
_cell_angle_beta   90.00000000
_cell_angle_gamma   90.00000000
_symmetry_Int_Tables_number   1
_chemical_formula_structural   CsAl2Au3
_chemical_formula_sum   'Cs4 Al8 Au12'
_cell_volume   558.96230360
_cell_formula_units_Z   4
loop_
 _symmetry_equiv_pos_site_id
 _symmetry_equiv_pos_as_xyz
  1  'x, y, z'
loop_
 _atom_site_type_symbol
 _atom_site_label
 _atom_site_symmetry_multiplicity
 _atom_site_fract_x
 _atom_site_fract_y
 _atom_site_fract_z
 _atom_site_occupancy
  Cs  Cs0  1  0.250000  0.094217  0.069295  1
  Cs  Cs1  1  0.250000  0.405783  0.569295  1
  Cs  Cs2  1  0.750000  0.905783  0.930705  1
  Cs  Cs3  1  0.750000  0.594217  0.430705  1
  Al  Al4  1  0.998723  0.910374  0.658302  1
  Al  Al5  1  0.501277  0.589626  0.158302  1
  Al  Al6  1  0.498723  0.089626  0.341698  1
  Al  Al7  1  0.001277  0.410374  0.841698  1
  Al  Al8  1  0.001277  0.089626  0.341698  1
  Al  Al9  1  0.498723  0.410374  0.841698  1
  Al  Al10  1  0.501277  0.910374  0.658302  1
  Al  Al11  1  0.998723  0.589626  0.158302  1
  Au  Au12  1  0.250000  0.125679  0.784066  1
  Au  Au13  1  0.250000  0.374321  0.284066  1
  Au  Au14  1  0.750000  0.874321  0.215934  1
  Au  Au15  1  0.750000  0.625679  0.715934  1
  Au  Au16  1  0.250000  0.708512  0.788699  1
  Au  Au17  1  0.250000  0.791488  0.288699  1
  Au  Au18  1  0.750000  0.291488  0.211301  1
  Au  Au19  1  0.750000  0.208512  0.711301  1
  Au  Au20  1  0.250000  0.574981  0.996328  1
  Au  Au21  1  0.250000  0.925019  0.496328  1
  Au  Au22  1  0.750000  0.425019  0.003672  1
  Au  Au23  1  0.750000  0.074981  0.503672  1
