# generated using pymatgen
data_Sr2CaNpO6
_symmetry_space_group_name_H-M   'P 1'
_cell_length_a   6.10190300
_cell_length_b   5.96855462
_cell_length_c   10.38826223
_cell_angle_alpha   54.96122041
_cell_angle_beta   90.00000000
_cell_angle_gamma   90.00000000
_symmetry_Int_Tables_number   1
_chemical_formula_structural   Sr2CaNpO6
_chemical_formula_sum   'Sr4 Ca2 Np2 O12'
_cell_volume   309.76755310
_cell_formula_units_Z   2
loop_
 _symmetry_equiv_pos_site_id
 _symmetry_equiv_pos_as_xyz
  1  'x, y, z'
loop_
 _atom_site_type_symbol
 _atom_site_label
 _atom_site_symmetry_multiplicity
 _atom_site_fract_x
 _atom_site_fract_y
 _atom_site_fract_z
 _atom_site_occupancy
  Sr  Sr0  1  0.455259  0.240376  0.748357  1
  Sr  Sr1  1  0.544741  0.759624  0.251643  1
  Sr  Sr2  1  0.955259  0.759624  0.751643  1
  Sr  Sr3  1  0.044741  0.240376  0.248357  1
  Ca  Ca4  1  0.000000  0.500000  0.500000  1
  Ca  Ca5  1  0.500000  0.500000  0.000000  1
  Np  Np6  1  0.000000  0.000000  0.000000  1
  Np  Np7  1  0.500000  0.000000  0.500000  1
  O  O8  1  0.721284  0.871175  0.942312  1
  O  O9  1  0.278716  0.128825  0.057688  1
  O  O10  1  0.221284  0.128825  0.557688  1
  O  O11  1  0.778716  0.871175  0.442312  1
  O  O12  1  0.038512  0.332347  0.766888  1
  O  O13  1  0.961488  0.667653  0.233112  1
  O  O14  1  0.538512  0.667653  0.733112  1
  O  O15  1  0.461488  0.332347  0.266888  1
  O  O16  1  0.189261  0.768314  0.951784  1
  O  O17  1  0.810739  0.231686  0.048216  1
  O  O18  1  0.689261  0.231686  0.548216  1
  O  O19  1  0.310739  0.768314  0.451784  1
