# generated using pymatgen
data_Zr3Al3FeCu2
_symmetry_space_group_name_H-M   'P 1'
_cell_length_a   7.03408000
_cell_length_b   7.03407866
_cell_length_c   3.44732800
_cell_angle_alpha   90.00000000
_cell_angle_beta   90.00000000
_cell_angle_gamma   119.99999691
_symmetry_Int_Tables_number   1
_chemical_formula_structural   Zr3Al3FeCu2
_chemical_formula_sum   'Zr3 Al3 Fe1 Cu2'
_cell_volume   147.71608060
_cell_formula_units_Z   1
loop_
 _symmetry_equiv_pos_site_id
 _symmetry_equiv_pos_as_xyz
  1  'x, y, z'
loop_
 _atom_site_type_symbol
 _atom_site_label
 _atom_site_symmetry_multiplicity
 _atom_site_fract_x
 _atom_site_fract_y
 _atom_site_fract_z
 _atom_site_occupancy
  Zr  Zr0  1  0.018700  0.413190  0.500000  1
  Zr  Zr1  1  0.586810  0.605510  0.500000  1
  Zr  Zr2  1  0.394490  0.981300  0.500000  1
  Al  Al3  1  0.993991  0.740057  0.000000  1
  Al  Al4  1  0.259943  0.253934  0.000000  1
  Al  Al5  1  0.746066  0.006009  0.000000  1
  Fe  Fe6  1  0.333333  0.666667  0.000000  1
  Cu  Cu7  1  0.000000  0.000000  0.500000  1
  Cu  Cu8  1  0.666667  0.333333  0.000000  1
