# generated using pymatgen
data_Ho8CdNi2Hg
_symmetry_space_group_name_H-M   'P 1'
_cell_length_a   9.46711130
_cell_length_b   9.46711108
_cell_length_c   9.47367500
_cell_angle_alpha   59.97706536
_cell_angle_beta   59.97706614
_cell_angle_gamma   60.14816963
_symmetry_Int_Tables_number   1
_chemical_formula_structural   Ho8CdNi2Hg
_chemical_formula_sum   'Ho16 Cd2 Ni4 Hg2'
_cell_volume   600.85741670
_cell_formula_units_Z   2
loop_
 _symmetry_equiv_pos_site_id
 _symmetry_equiv_pos_as_xyz
  1  'x, y, z'
loop_
 _atom_site_type_symbol
 _atom_site_label
 _atom_site_symmetry_multiplicity
 _atom_site_fract_x
 _atom_site_fract_y
 _atom_site_fract_z
 _atom_site_occupancy
  Ho  Ho0  1  0.348645  0.348645  0.347339  1
  Ho  Ho1  1  0.348645  0.348645  0.955370  1
  Ho  Ho2  1  0.352300  0.947704  0.349998  1
  Ho  Ho3  1  0.947704  0.352300  0.349998  1
  Ho  Ho4  1  0.811834  0.188489  0.189270  1
  Ho  Ho5  1  0.188489  0.811834  0.810407  1
  Ho  Ho6  1  0.188489  0.811834  0.189270  1
  Ho  Ho7  1  0.811834  0.188489  0.810407  1
  Ho  Ho8  1  0.189159  0.189159  0.810841  1
  Ho  Ho9  1  0.811048  0.811048  0.188952  1
  Ho  Ho10  1  0.935937  0.562976  0.564133  1
  Ho  Ho11  1  0.562976  0.935937  0.936954  1
  Ho  Ho12  1  0.562976  0.935937  0.564133  1
  Ho  Ho13  1  0.935937  0.562976  0.936954  1
  Ho  Ho14  1  0.563684  0.563684  0.936316  1
  Ho  Ho15  1  0.937091  0.937091  0.562909  1
  Cd  Cd16  1  0.580186  0.256639  0.581588  1
  Cd  Cd17  1  0.256639  0.580186  0.581588  1
  Ni  Ni18  1  0.142407  0.142407  0.144856  1
  Ni  Ni19  1  0.142407  0.142407  0.570330  1
  Ni  Ni20  1  0.140903  0.572894  0.143102  1
  Ni  Ni21  1  0.572894  0.140903  0.143102  1
  Hg  Hg22  1  0.583908  0.583908  0.586339  1
  Hg  Hg23  1  0.583908  0.583908  0.245846  1
