# generated using pymatgen
data_Tb3Y5Cd2(SnAu4)2
_symmetry_space_group_name_H-M   'P 1'
_cell_length_a   8.03184412
_cell_length_b   8.03184412
_cell_length_c   7.39256813
_cell_angle_alpha   89.98500816
_cell_angle_beta   89.98500816
_cell_angle_gamma   90.01313907
_symmetry_Int_Tables_number   1
_chemical_formula_structural   Tb3Y5Cd2(SnAu4)2
_chemical_formula_sum   'Tb3 Y5 Cd2 Sn2 Au8'
_cell_volume   476.89836873
_cell_formula_units_Z   1
loop_
 _symmetry_equiv_pos_site_id
 _symmetry_equiv_pos_as_xyz
  1  'x, y, z'
loop_
 _atom_site_type_symbol
 _atom_site_label
 _atom_site_symmetry_multiplicity
 _atom_site_fract_x
 _atom_site_fract_y
 _atom_site_fract_z
 _atom_site_occupancy
  Tb  Tb0  1  0.681838  0.681889  0.500011  1
  Tb  Tb1  1  0.318111  0.318162  0.499989  1
  Tb  Tb2  1  0.181816  0.818184  0.000000  1
  Y  Y3  1  0.839978  0.160022  0.500000  1
  Y  Y4  1  0.159838  0.840162  0.500000  1
  Y  Y5  1  0.340218  0.339946  0.000074  1
  Y  Y6  1  0.660054  0.659782  0.999926  1
  Y  Y7  1  0.817928  0.182072  0.000000  1
  Cd  Cd8  1  0.500024  0.000140  0.249967  1
  Cd  Cd9  1  0.999860  0.499976  0.750033  1
  Sn  Sn10  1  0.500110  0.000132  0.749911  1
  Sn  Sn11  1  0.999868  0.499890  0.250089  1
  Au  Au12  1  0.624284  0.368512  0.271888  1
  Au  Au13  1  0.375801  0.631509  0.271879  1
  Au  Au14  1  0.124313  0.131351  0.771960  1
  Au  Au15  1  0.875811  0.868480  0.771969  1
  Au  Au16  1  0.368491  0.624199  0.728121  1
  Au  Au17  1  0.631488  0.375716  0.728112  1
  Au  Au18  1  0.868649  0.875687  0.228040  1
  Au  Au19  1  0.131520  0.124189  0.228031  1
