# generated using pymatgen
data_Er11Tm5Cd4(IrRu)2
_symmetry_space_group_name_H-M   'P 1'
_cell_length_a   9.54947357
_cell_length_b   9.55160307
_cell_length_c   9.57571977
_cell_angle_alpha   59.70707271
_cell_angle_beta   59.73107280
_cell_angle_gamma   59.62878806
_symmetry_Int_Tables_number   1
_chemical_formula_structural   Er11Tm5Cd4(IrRu)2
_chemical_formula_sum   'Er11 Tm5 Cd4 Ir2 Ru2'
_cell_volume   613.24221749
_cell_formula_units_Z   1
loop_
 _symmetry_equiv_pos_site_id
 _symmetry_equiv_pos_as_xyz
  1  'x, y, z'
loop_
 _atom_site_type_symbol
 _atom_site_label
 _atom_site_symmetry_multiplicity
 _atom_site_fract_x
 _atom_site_fract_y
 _atom_site_fract_z
 _atom_site_occupancy
  Er  Er0  1  0.438010  0.061784  0.059615  1
  Er  Er1  1  0.438046  0.061799  0.439883  1
  Er  Er2  1  0.061912  0.438016  0.059703  1
  Er  Er3  1  0.438109  0.438096  0.061412  1
  Er  Er4  1  0.059310  0.059474  0.440411  1
  Er  Er5  1  0.188037  0.810171  0.813187  1
  Er  Er6  1  0.810413  0.187811  0.188384  1
  Er  Er7  1  0.810228  0.188166  0.813098  1
  Er  Er8  1  0.187816  0.810236  0.188640  1
  Er  Er9  1  0.811422  0.811162  0.188934  1
  Er  Er10  1  0.188032  0.188134  0.811923  1
  Tm  Tm11  1  0.598131  0.598003  0.598500  1
  Tm  Tm12  1  0.598386  0.598274  0.205743  1
  Tm  Tm13  1  0.596510  0.209957  0.597115  1
  Tm  Tm14  1  0.209628  0.596473  0.597045  1
  Tm  Tm15  1  0.061685  0.438157  0.439644  1
  Cd  Cd16  1  0.830230  0.830258  0.830242  1
  Cd  Cd17  1  0.830468  0.830296  0.508899  1
  Cd  Cd18  1  0.830898  0.507772  0.830571  1
  Cd  Cd19  1  0.507879  0.830834  0.830612  1
  Ir  Ir20  1  0.394167  0.825895  0.390498  1
  Ir  Ir21  1  0.826277  0.394193  0.390705  1
  Ru  Ru22  1  0.391814  0.392302  0.388233  1
  Ru  Ru23  1  0.392591  0.392737  0.827001  1
