# generated using pymatgen
data_Pr7DySc12Si15Os
_symmetry_space_group_name_H-M   'P 1'
_cell_length_a   7.23493808
_cell_length_b   7.58014997
_cell_length_c   14.20459786
_cell_angle_alpha   89.85614879
_cell_angle_beta   90.05570348
_cell_angle_gamma   90.16459415
_symmetry_Int_Tables_number   1
_chemical_formula_structural   Pr7DySc12Si15Os
_chemical_formula_sum   'Pr7 Dy1 Sc12 Si15 Os1'
_cell_volume   779.00132539
_cell_formula_units_Z   1
loop_
 _symmetry_equiv_pos_site_id
 _symmetry_equiv_pos_as_xyz
  1  'x, y, z'
loop_
 _atom_site_type_symbol
 _atom_site_label
 _atom_site_symmetry_multiplicity
 _atom_site_fract_x
 _atom_site_fract_y
 _atom_site_fract_z
 _atom_site_occupancy
  Pr  Pr0  1  0.011359  0.176376  0.096788  1
  Pr  Pr1  1  0.989976  0.828995  0.901209  1
  Pr  Pr2  1  0.488133  0.672102  0.903954  1
  Pr  Pr3  1  0.990598  0.828111  0.597141  1
  Pr  Pr4  1  0.510791  0.327458  0.096148  1
  Pr  Pr5  1  0.012441  0.176354  0.404229  1
  Pr  Pr6  1  0.510847  0.326811  0.405635  1
  Dy  Dy7  1  0.487026  0.677221  0.598823  1
  Sc  Sc8  1  0.153573  0.489424  0.749085  1
  Sc  Sc9  1  0.840344  0.499447  0.250272  1
  Sc  Sc10  1  0.339535  0.001874  0.250398  1
  Sc  Sc11  1  0.668049  0.002309  0.749151  1
  Sc  Sc12  1  0.318359  0.172094  0.627511  1
  Sc  Sc13  1  0.671139  0.825329  0.374217  1
  Sc  Sc14  1  0.173055  0.676855  0.374583  1
  Sc  Sc15  1  0.671939  0.827212  0.126702  1
  Sc  Sc16  1  0.836540  0.318498  0.627617  1
  Sc  Sc17  1  0.318407  0.171433  0.871053  1
  Sc  Sc18  1  0.836009  0.319182  0.870824  1
  Sc  Sc19  1  0.172310  0.677276  0.126071  1
  Si  Si20  1  0.967973  0.875584  0.250399  1
  Si  Si21  1  0.468591  0.622632  0.250400  1
  Si  Si22  1  0.528567  0.385359  0.747789  1
  Si  Si23  1  0.290363  0.876055  0.748252  1
  Si  Si24  1  0.710797  0.120707  0.250555  1
  Si  Si25  1  0.212197  0.380093  0.250391  1
  Si  Si26  1  0.776991  0.619183  0.747436  1
  Si  Si27  1  0.158832  0.470238  0.538731  1
  Si  Si28  1  0.849963  0.538060  0.461962  1
  Si  Si29  1  0.351069  0.959457  0.461158  1
  Si  Si30  1  0.850353  0.539020  0.038804  1
  Si  Si31  1  0.648864  0.031076  0.540137  1
  Si  Si32  1  0.152913  0.467133  0.962270  1
  Si  Si33  1  0.649881  0.036034  0.960746  1
  Si  Si34  1  0.350433  0.963968  0.040187  1
  Os  Os35  1  0.031779  0.121039  0.749372  1
