# generated using pymatgen
data_Ca2Tb3GaPb3
_symmetry_space_group_name_H-M   'P 1'
_cell_length_a   9.30829000
_cell_length_b   9.30832193
_cell_length_c   6.83605300
_cell_angle_alpha   90.00000000
_cell_angle_beta   90.00000000
_cell_angle_gamma   120.00011397
_symmetry_Int_Tables_number   1
_chemical_formula_structural   Ca2Tb3GaPb3
_chemical_formula_sum   'Ca4 Tb6 Ga2 Pb6'
_cell_volume   512.95214991
_cell_formula_units_Z   2
loop_
 _symmetry_equiv_pos_site_id
 _symmetry_equiv_pos_as_xyz
  1  'x, y, z'
loop_
 _atom_site_type_symbol
 _atom_site_label
 _atom_site_symmetry_multiplicity
 _atom_site_fract_x
 _atom_site_fract_y
 _atom_site_fract_z
 _atom_site_occupancy
  Ca  Ca0  1  0.333333  0.666667  0.000000  1
  Ca  Ca1  1  0.666667  0.333333  0.000000  1
  Ca  Ca2  1  0.666667  0.333333  0.500000  1
  Ca  Ca3  1  0.333333  0.666667  0.500000  1
  Tb  Tb4  1  0.260025  0.000000  0.250000  1
  Tb  Tb5  1  0.739975  0.000000  0.750000  1
  Tb  Tb6  1  0.000000  0.260024  0.250000  1
  Tb  Tb7  1  0.000000  0.739976  0.750000  1
  Tb  Tb8  1  0.739975  0.739975  0.250000  1
  Tb  Tb9  1  0.260025  0.260025  0.750000  1
  Ga  Ga10  1  0.000000  0.000000  0.000000  1
  Ga  Ga11  1  0.000000  0.000000  0.500000  1
  Pb  Pb12  1  0.614242  0.000000  0.250000  1
  Pb  Pb13  1  0.385758  0.000000  0.750000  1
  Pb  Pb14  1  0.000000  0.614243  0.250000  1
  Pb  Pb15  1  0.000000  0.385757  0.750000  1
  Pb  Pb16  1  0.385758  0.385757  0.250000  1
  Pb  Pb17  1  0.614242  0.614243  0.750000  1
