# generated using pymatgen
data_Pr5HoCo2(P3Rh4)4
_symmetry_space_group_name_H-M   'P 1'
_cell_length_a   3.92059300
_cell_length_b   11.27392257
_cell_length_c   12.97174165
_cell_angle_alpha   89.96372373
_cell_angle_beta   90.00000000
_cell_angle_gamma   90.00000000
_symmetry_Int_Tables_number   1
_chemical_formula_structural   Pr5HoCo2(P3Rh4)4
_chemical_formula_sum   'Pr5 Ho1 Co2 P12 Rh16'
_cell_volume   573.35685753
_cell_formula_units_Z   1
loop_
 _symmetry_equiv_pos_site_id
 _symmetry_equiv_pos_as_xyz
  1  'x, y, z'
loop_
 _atom_site_type_symbol
 _atom_site_label
 _atom_site_symmetry_multiplicity
 _atom_site_fract_x
 _atom_site_fract_y
 _atom_site_fract_z
 _atom_site_occupancy
  Pr  Pr0  1  0.000000  0.499853  0.520249  1
  Pr  Pr1  1  0.500000  0.999934  0.478382  1
  Pr  Pr2  1  0.500000  0.183509  0.201838  1
  Pr  Pr3  1  0.000000  0.684387  0.798592  1
  Pr  Pr4  1  0.000000  0.316038  0.798901  1
  Ho  Ho5  1  0.500000  0.815614  0.201434  1
  Co  Co6  1  0.000000  0.501378  0.985126  1
  Co  Co7  1  0.500000  0.998341  0.018271  1
  P  P8  1  0.500000  0.500884  0.886686  1
  P  P9  1  0.000000  0.997807  0.115960  1
  P  P10  1  0.500000  0.499590  0.345896  1
  P  P11  1  0.000000  0.000213  0.653933  1
  P  P12  1  0.500000  0.312713  0.618067  1
  P  P13  1  0.500000  0.687812  0.617123  1
  P  P14  1  0.000000  0.185850  0.381705  1
  P  P15  1  0.000000  0.812716  0.378036  1
  P  P16  1  0.500000  0.855322  0.897224  1
  P  P17  1  0.500000  0.144612  0.897622  1
  P  P18  1  0.000000  0.649876  0.104510  1
  P  P19  1  0.000000  0.354493  0.103416  1
  Rh  Rh20  1  0.500000  0.499659  0.166774  1
  Rh  Rh21  1  0.000000  0.998244  0.833620  1
  Rh  Rh22  1  0.500000  0.500535  0.704630  1
  Rh  Rh23  1  0.000000  0.996391  0.293406  1
  Rh  Rh24  1  0.500000  0.337043  0.996752  1
  Rh  Rh25  1  0.500000  0.664100  0.998490  1
  Rh  Rh26  1  0.000000  0.161302  0.003884  1
  Rh  Rh27  1  0.000000  0.836708  0.006525  1
  Rh  Rh28  1  0.500000  0.292637  0.429623  1
  Rh  Rh29  1  0.500000  0.708115  0.427479  1
  Rh  Rh30  1  0.000000  0.206844  0.569888  1
  Rh  Rh31  1  0.000000  0.792460  0.569085  1
  Rh  Rh32  1  0.500000  0.875864  0.711506  1
  Rh  Rh33  1  0.500000  0.123953  0.712082  1
  Rh  Rh34  1  0.000000  0.628356  0.284732  1
  Rh  Rh35  1  0.000000  0.376846  0.288552  1
