# generated using pymatgen
data_Lu10Sn5Bi
_symmetry_space_group_name_H-M   'P 1'
_cell_length_a   8.80232755
_cell_length_b   8.80232834
_cell_length_c   6.36493700
_cell_angle_alpha   90.00000000
_cell_angle_beta   90.00000000
_cell_angle_gamma   119.86021286
_symmetry_Int_Tables_number   1
_chemical_formula_structural   Lu10Sn5Bi
_chemical_formula_sum   'Lu10 Sn5 Bi1'
_cell_volume   427.69074344
_cell_formula_units_Z   1
loop_
 _symmetry_equiv_pos_site_id
 _symmetry_equiv_pos_as_xyz
  1  'x, y, z'
loop_
 _atom_site_type_symbol
 _atom_site_label
 _atom_site_symmetry_multiplicity
 _atom_site_fract_x
 _atom_site_fract_y
 _atom_site_fract_z
 _atom_site_occupancy
  Lu  Lu0  1  0.670959  0.332771  0.001938  1
  Lu  Lu1  1  0.332771  0.670959  0.001938  1
  Lu  Lu2  1  0.332771  0.670959  0.498062  1
  Lu  Lu3  1  0.670959  0.332771  0.498062  1
  Lu  Lu4  1  0.767413  0.767413  0.750000  1
  Lu  Lu5  1  0.233756  0.993232  0.750000  1
  Lu  Lu6  1  0.993232  0.233756  0.750000  1
  Lu  Lu7  1  0.235397  0.235397  0.250000  1
  Lu  Lu8  1  0.763307  0.000476  0.250000  1
  Lu  Lu9  1  0.000476  0.763307  0.250000  1
  Sn  Sn10  1  0.602416  0.999619  0.750000  1
  Sn  Sn11  1  0.999619  0.602416  0.750000  1
  Sn  Sn12  1  0.605152  0.605152  0.250000  1
  Sn  Sn13  1  0.395800  0.002472  0.250000  1
  Sn  Sn14  1  0.002472  0.395800  0.250000  1
  Bi  Bi15  1  0.393501  0.393501  0.750000  1
