# generated using pymatgen
data_Pr3U2PbS10
_symmetry_space_group_name_H-M   'P 1'
_cell_length_a   7.59006953
_cell_length_b   8.15062350
_cell_length_c   12.02040800
_cell_angle_alpha   90.00000000
_cell_angle_beta   90.00000000
_cell_angle_gamma   90.49596094
_symmetry_Int_Tables_number   1
_chemical_formula_structural   Pr3U2PbS10
_chemical_formula_sum   'Pr6 U4 Pb2 S20'
_cell_volume   743.60024591
_cell_formula_units_Z   2
loop_
 _symmetry_equiv_pos_site_id
 _symmetry_equiv_pos_as_xyz
  1  'x, y, z'
loop_
 _atom_site_type_symbol
 _atom_site_label
 _atom_site_symmetry_multiplicity
 _atom_site_fract_x
 _atom_site_fract_y
 _atom_site_fract_z
 _atom_site_occupancy
  Pr  Pr0  1  0.472733  0.999976  0.679177  1
  Pr  Pr1  1  0.027267  0.500024  0.179177  1
  Pr  Pr2  1  0.467764  0.499887  0.673130  1
  Pr  Pr3  1  0.032236  0.000113  0.173130  1
  Pr  Pr4  1  0.528488  0.998562  0.324818  1
  Pr  Pr5  1  0.971512  0.501438  0.824818  1
  U  U6  1  0.063869  0.754340  0.491401  1
  U  U7  1  0.436131  0.745660  0.991401  1
  U  U8  1  0.931234  0.250681  0.506706  1
  U  U9  1  0.568766  0.249319  0.006706  1
  Pb  Pb10  1  0.522925  0.500463  0.324475  1
  Pb  Pb11  1  0.977075  0.999537  0.824475  1
  S  S12  1  0.835669  0.957475  0.586843  1
  S  S13  1  0.664331  0.542525  0.086843  1
  S  S14  1  0.155774  0.465123  0.409433  1
  S  S15  1  0.344226  0.034877  0.909433  1
  S  S16  1  0.163565  0.041134  0.408022  1
  S  S17  1  0.336435  0.458866  0.908022  1
  S  S18  1  0.838297  0.542626  0.592252  1
  S  S19  1  0.661703  0.957374  0.092252  1
  S  S20  1  0.844717  0.757824  0.312725  1
  S  S21  1  0.655283  0.742176  0.812725  1
  S  S22  1  0.165158  0.256393  0.683491  1
  S  S23  1  0.334842  0.243607  0.183491  1
  S  S24  1  0.445433  0.757928  0.501962  1
  S  S25  1  0.054567  0.742072  0.001962  1
  S  S26  1  0.553957  0.243234  0.506185  1
  S  S27  1  0.946043  0.256766  0.006185  1
  S  S28  1  0.189286  0.746911  0.709857  1
  S  S29  1  0.310714  0.753089  0.209857  1
  S  S30  1  0.816753  0.240233  0.289523  1
  S  S31  1  0.683247  0.259767  0.789523  1
