# generated using pymatgen
data_TbY3Ga18(Ir2Pt)2
_symmetry_space_group_name_H-M   'P 1'
_cell_length_a   7.62247300
_cell_length_b   7.62256012
_cell_length_c   9.48186800
_cell_angle_alpha   90.00000000
_cell_angle_beta   90.00000000
_cell_angle_gamma   119.89125145
_symmetry_Int_Tables_number   1
_chemical_formula_structural   TbY3Ga18(Ir2Pt)2
_chemical_formula_sum   'Tb1 Y3 Ga18 Ir4 Pt2'
_cell_volume   477.63501535
_cell_formula_units_Z   1
loop_
 _symmetry_equiv_pos_site_id
 _symmetry_equiv_pos_as_xyz
  1  'x, y, z'
loop_
 _atom_site_type_symbol
 _atom_site_label
 _atom_site_symmetry_multiplicity
 _atom_site_fract_x
 _atom_site_fract_y
 _atom_site_fract_z
 _atom_site_occupancy
  Tb  Tb0  1  0.996497  0.669904  0.250000  1
  Y  Y1  1  0.003526  0.330096  0.750000  1
  Y  Y2  1  0.669910  0.996481  0.250000  1
  Y  Y3  1  0.330088  0.003530  0.750000  1
  Ga  Ga4  1  0.131845  0.131810  0.250000  1
  Ga  Ga5  1  0.868203  0.868208  0.750000  1
  Ga  Ga6  1  0.998582  0.337647  0.081183  1
  Ga  Ga7  1  0.001413  0.662329  0.918805  1
  Ga  Ga8  1  0.001413  0.662329  0.581195  1
  Ga  Ga9  1  0.337703  0.998609  0.418821  1
  Ga  Ga10  1  0.998582  0.337647  0.418817  1
  Ga  Ga11  1  0.662329  0.001426  0.581189  1
  Ga  Ga12  1  0.662329  0.001426  0.918811  1
  Ga  Ga13  1  0.337703  0.998609  0.081179  1
  Ga  Ga14  1  0.335725  0.335724  0.567326  1
  Ga  Ga15  1  0.664257  0.664278  0.432684  1
  Ga  Ga16  1  0.664257  0.664278  0.067316  1
  Ga  Ga17  1  0.335725  0.335724  0.932674  1
  Ga  Ga18  1  0.337483  0.546530  0.250000  1
  Ga  Ga19  1  0.662464  0.453411  0.750000  1
  Ga  Ga20  1  0.546561  0.337561  0.250000  1
  Ga  Ga21  1  0.453422  0.662467  0.750000  1
  Ir  Ir22  1  0.671191  0.328834  0.999989  1
  Ir  Ir23  1  0.328795  0.671173  0.999998  1
  Ir  Ir24  1  0.328795  0.671173  0.500002  1
  Ir  Ir25  1  0.671191  0.328834  0.500011  1
  Pt  Pt26  1  0.000005  0.999981  0.999997  1
  Pt  Pt27  1  0.000005  0.999981  0.500003  1
