# generated using pymatgen
data_Na4MgUSe6
_symmetry_space_group_name_H-M   'P 1'
_cell_length_a   7.07836653
_cell_length_b   7.07836681
_cell_length_c   7.31655327
_cell_angle_alpha   80.64218793
_cell_angle_beta   80.64219509
_cell_angle_gamma   120.03681820
_symmetry_Int_Tables_number   1
_chemical_formula_structural   Na4MgUSe6
_chemical_formula_sum   'Na4 Mg1 U1 Se6'
_cell_volume   300.08332236
_cell_formula_units_Z   1
loop_
 _symmetry_equiv_pos_site_id
 _symmetry_equiv_pos_as_xyz
  1  'x, y, z'
loop_
 _atom_site_type_symbol
 _atom_site_label
 _atom_site_symmetry_multiplicity
 _atom_site_fract_x
 _atom_site_fract_y
 _atom_site_fract_z
 _atom_site_occupancy
  Na  Na0  1  0.000107  0.999893  0.000000  1
  Na  Na1  1  0.501565  0.498435  0.500000  1
  Na  Na2  1  0.838499  0.161501  0.500000  1
  Na  Na3  1  0.159778  0.840222  0.500000  1
  Mg  Mg4  1  0.667556  0.332444  0.000000  1
  U  U5  1  0.332594  0.667406  0.000000  1
  Se  Se6  1  0.276243  0.283950  0.226023  1
  Se  Se7  1  0.427145  0.067433  0.773111  1
  Se  Se8  1  0.083948  0.436051  0.776301  1
  Se  Se9  1  0.716050  0.723757  0.773977  1
  Se  Se10  1  0.563949  0.916052  0.223699  1
  Se  Se11  1  0.932567  0.572855  0.226889  1
