# generated using pymatgen
data_Dy4Cd2IrAu3
_symmetry_space_group_name_H-M   'P 1'
_cell_length_a   3.77797300
_cell_length_b   7.85112050
_cell_length_c   7.85112084
_cell_angle_alpha   89.82052521
_cell_angle_beta   90.00000000
_cell_angle_gamma   90.00000000
_symmetry_Int_Tables_number   1
_chemical_formula_structural   Dy4Cd2IrAu3
_chemical_formula_sum   'Dy4 Cd2 Ir1 Au3'
_cell_volume   232.87347521
_cell_formula_units_Z   1
loop_
 _symmetry_equiv_pos_site_id
 _symmetry_equiv_pos_as_xyz
  1  'x, y, z'
loop_
 _atom_site_type_symbol
 _atom_site_label
 _atom_site_symmetry_multiplicity
 _atom_site_fract_x
 _atom_site_fract_y
 _atom_site_fract_z
 _atom_site_occupancy
  Dy  Dy0  1  0.500000  0.167463  0.667463  1
  Dy  Dy1  1  0.500000  0.813856  0.313856  1
  Dy  Dy2  1  0.500000  0.351815  0.177293  1
  Dy  Dy3  1  0.500000  0.677293  0.851815  1
  Cd  Cd4  1  0.000000  0.999233  0.002208  1
  Cd  Cd5  1  0.000000  0.502208  0.499233  1
  Ir  Ir6  1  0.000000  0.626972  0.126972  1
  Au  Au7  1  0.000000  0.368278  0.868278  1
  Au  Au8  1  0.000000  0.866007  0.626876  1
  Au  Au9  1  0.000000  0.126876  0.366007  1
