# generated using pymatgen
data_Dy8Zr11Si16Os
_symmetry_space_group_name_H-M   'P 1'
_cell_length_a   7.05927295
_cell_length_b   7.27689927
_cell_length_c   13.88079300
_cell_angle_alpha   90.00000000
_cell_angle_beta   90.00000000
_cell_angle_gamma   89.94768099
_symmetry_Int_Tables_number   1
_chemical_formula_structural   Dy8Zr11Si16Os
_chemical_formula_sum   'Dy8 Zr11 Si16 Os1'
_cell_volume   713.05073933
_cell_formula_units_Z   1
loop_
 _symmetry_equiv_pos_site_id
 _symmetry_equiv_pos_as_xyz
  1  'x, y, z'
loop_
 _atom_site_type_symbol
 _atom_site_label
 _atom_site_symmetry_multiplicity
 _atom_site_fract_x
 _atom_site_fract_y
 _atom_site_fract_z
 _atom_site_occupancy
  Dy  Dy0  1  0.013150  0.176993  0.094875  1
  Dy  Dy1  1  0.988619  0.823145  0.900735  1
  Dy  Dy2  1  0.486480  0.673967  0.901396  1
  Dy  Dy3  1  0.988619  0.823145  0.599265  1
  Dy  Dy4  1  0.515047  0.323696  0.096075  1
  Dy  Dy5  1  0.013150  0.176993  0.405125  1
  Dy  Dy6  1  0.515047  0.323696  0.403925  1
  Dy  Dy7  1  0.486480  0.673967  0.598604  1
  Zr  Zr8  1  0.845111  0.500306  0.250000  1
  Zr  Zr9  1  0.343526  0.998499  0.250000  1
  Zr  Zr10  1  0.655183  0.001597  0.750000  1
  Zr  Zr11  1  0.325424  0.176957  0.625927  1
  Zr  Zr12  1  0.671138  0.822998  0.375800  1
  Zr  Zr13  1  0.172256  0.676261  0.377300  1
  Zr  Zr14  1  0.671138  0.822998  0.124200  1
  Zr  Zr15  1  0.828124  0.327391  0.627175  1
  Zr  Zr16  1  0.325424  0.176957  0.874073  1
  Zr  Zr17  1  0.828124  0.327391  0.872825  1
  Zr  Zr18  1  0.172256  0.676261  0.122700  1
  Si  Si19  1  0.033089  0.117697  0.750000  1
  Si  Si20  1  0.967908  0.879934  0.250000  1
  Si  Si21  1  0.467941  0.616184  0.250000  1
  Si  Si22  1  0.519668  0.387875  0.750000  1
  Si  Si23  1  0.283468  0.864588  0.750000  1
  Si  Si24  1  0.719804  0.127021  0.250000  1
  Si  Si25  1  0.218461  0.371934  0.250000  1
  Si  Si26  1  0.794101  0.627047  0.750000  1
  Si  Si27  1  0.154558  0.469078  0.547070  1
  Si  Si28  1  0.842984  0.534396  0.462196  1
  Si  Si29  1  0.345368  0.969386  0.459875  1
  Si  Si30  1  0.842984  0.534396  0.037804  1
  Si  Si31  1  0.656996  0.033146  0.541486  1
  Si  Si32  1  0.154558  0.469078  0.952930  1
  Si  Si33  1  0.656996  0.033146  0.958514  1
  Si  Si34  1  0.345368  0.969386  0.040125  1
  Os  Os35  1  0.151450  0.492491  0.750000  1
