# generated using pymatgen
data_Lu6TiAl12V3Os7
_symmetry_space_group_name_H-M   'P 1'
_cell_length_a   8.86770293
_cell_length_b   8.86770401
_cell_length_c   8.87223606
_cell_angle_alpha   60.01690387
_cell_angle_beta   60.01690173
_cell_angle_gamma   60.00000135
_symmetry_Int_Tables_number   1
_chemical_formula_structural   Lu6TiAl12V3Os7
_chemical_formula_sum   'Lu6 Ti1 Al12 V3 Os7'
_cell_volume   493.45928803
_cell_formula_units_Z   1
loop_
 _symmetry_equiv_pos_site_id
 _symmetry_equiv_pos_as_xyz
  1  'x, y, z'
loop_
 _atom_site_type_symbol
 _atom_site_label
 _atom_site_symmetry_multiplicity
 _atom_site_fract_x
 _atom_site_fract_y
 _atom_site_fract_z
 _atom_site_occupancy
  Lu  Lu0  1  0.709846  0.709846  0.289073  1
  Lu  Lu1  1  0.291235  0.709846  0.289073  1
  Lu  Lu2  1  0.709846  0.291235  0.289073  1
  Lu  Lu3  1  0.288334  0.288334  0.711634  1
  Lu  Lu4  1  0.711699  0.288334  0.711634  1
  Lu  Lu5  1  0.288334  0.711699  0.711634  1
  Ti  Ti6  1  0.880806  0.880806  0.357582  1
  Al  Al7  1  0.120548  0.120548  0.638357  1
  Al  Al8  1  0.119234  0.641325  0.120209  1
  Al  Al9  1  0.641325  0.119234  0.120209  1
  Al  Al10  1  0.119234  0.119234  0.120209  1
  Al  Al11  1  0.668222  0.668222  0.995334  1
  Al  Al12  1  0.667690  0.996494  0.668127  1
  Al  Al13  1  0.996494  0.667690  0.668127  1
  Al  Al14  1  0.667690  0.667690  0.668127  1
  Al  Al15  1  0.332841  0.332841  0.001475  1
  Al  Al16  1  0.332415  0.002630  0.332539  1
  Al  Al17  1  0.002630  0.332415  0.332539  1
  Al  Al18  1  0.332415  0.332415  0.332539  1
  V  V19  1  0.879405  0.360520  0.880670  1
  V  V20  1  0.360520  0.879405  0.880670  1
  V  V21  1  0.879405  0.879405  0.880670  1
  Os  Os22  1  0.003000  0.003000  0.991001  1
  Os  Os23  1  0.997257  0.997257  0.506219  1
  Os  Os24  1  0.499269  0.997257  0.506219  1
  Os  Os25  1  0.997257  0.499269  0.506219  1
  Os  Os26  1  0.503203  0.503203  0.996947  1
  Os  Os27  1  0.996646  0.503203  0.996947  1
  Os  Os28  1  0.503203  0.996646  0.996947  1
