# generated using pymatgen
data_Ba6NdLuBi6
_symmetry_space_group_name_H-M   'P 1'
_cell_length_a   8.90478330
_cell_length_b   10.09484312
_cell_length_c   8.90425700
_cell_angle_alpha   113.58104503
_cell_angle_beta   103.93655555
_cell_angle_gamma   113.52086289
_symmetry_Int_Tables_number   1
_chemical_formula_structural   Ba6NdLuBi6
_chemical_formula_sum   'Ba6 Nd1 Lu1 Bi6'
_cell_volume   591.33225956
_cell_formula_units_Z   1
loop_
 _symmetry_equiv_pos_site_id
 _symmetry_equiv_pos_as_xyz
  1  'x, y, z'
loop_
 _atom_site_type_symbol
 _atom_site_label
 _atom_site_symmetry_multiplicity
 _atom_site_fract_x
 _atom_site_fract_y
 _atom_site_fract_z
 _atom_site_occupancy
  Ba  Ba0  1  0.324617  0.324000  0.320815  1
  Ba  Ba1  1  0.001099  0.127556  0.584844  1
  Ba  Ba2  1  0.824775  0.825583  0.823923  1
  Ba  Ba3  1  0.083590  0.622676  0.501723  1
  Ba  Ba4  1  0.549135  0.014291  0.141528  1
  Ba  Ba5  1  0.643016  0.517341  0.052251  1
  Nd  Nd6  1  0.129777  0.570464  0.014979  1
  Lu  Lu7  1  0.513418  0.069551  0.629962  1
  Bi  Bi8  1  0.875147  0.244189  0.022400  1
  Bi  Bi9  1  0.127154  0.900109  0.265661  1
  Bi  Bi10  1  0.363166  0.571864  0.779573  1
  Bi  Bi11  1  0.285129  0.070391  0.852664  1
  Bi  Bi12  1  0.752489  0.387373  0.621130  1
  Bi  Bi13  1  0.527487  0.754614  0.388547  1
