# generated using pymatgen
data_LaCrH5
_symmetry_space_group_name_H-M   'P 1'
_cell_length_a   4.49775100
_cell_length_b   4.79181000
_cell_length_c   11.87508500
_cell_angle_alpha   90.00000000
_cell_angle_beta   90.00000000
_cell_angle_gamma   90.00000000
_symmetry_Int_Tables_number   1
_chemical_formula_structural   LaCrH5
_chemical_formula_sum   'La4 Cr4 H20'
_cell_volume   255.93620456
_cell_formula_units_Z   4
loop_
 _symmetry_equiv_pos_site_id
 _symmetry_equiv_pos_as_xyz
  1  'x, y, z'
loop_
 _atom_site_type_symbol
 _atom_site_label
 _atom_site_symmetry_multiplicity
 _atom_site_fract_x
 _atom_site_fract_y
 _atom_site_fract_z
 _atom_site_occupancy
  La  La0  1  0.269336  0.253115  0.646694  1
  La  La1  1  0.769336  0.246885  0.353306  1
  La  La2  1  0.230664  0.746885  0.146694  1
  La  La3  1  0.730664  0.753115  0.853306  1
  Cr  Cr4  1  0.277020  0.253097  0.924022  1
  Cr  Cr5  1  0.777020  0.246903  0.075978  1
  Cr  Cr6  1  0.222980  0.746903  0.424022  1
  Cr  Cr7  1  0.722980  0.753097  0.575978  1
  H  H8  1  0.500349  0.527799  0.494858  1
  H  H9  1  0.000349  0.972201  0.505142  1
  H  H10  1  0.999651  0.472201  0.994858  1
  H  H11  1  0.499651  0.027799  0.005142  1
  H  H12  1  0.190772  0.004284  0.825558  1
  H  H13  1  0.690772  0.495716  0.174442  1
  H  H14  1  0.309228  0.995716  0.325558  1
  H  H15  1  0.809228  0.504284  0.674442  1
  H  H16  1  0.193965  0.505693  0.826556  1
  H  H17  1  0.693965  0.994307  0.173444  1
  H  H18  1  0.306035  0.494307  0.326556  1
  H  H19  1  0.806035  0.005693  0.673444  1
  H  H20  1  0.567653  0.253410  0.832241  1
  H  H21  1  0.067653  0.246590  0.167759  1
  H  H22  1  0.932347  0.746590  0.332241  1
  H  H23  1  0.432347  0.753410  0.667759  1
  H  H24  1  0.003330  0.026251  0.994870  1
  H  H25  1  0.503330  0.473749  0.005130  1
  H  H26  1  0.496670  0.973749  0.494870  1
  H  H27  1  0.996670  0.526251  0.505130  1
