# generated using pymatgen
data_SrHoEr5Co6Sn23
_symmetry_space_group_name_H-M   'P 1'
_cell_length_a   9.72426145
_cell_length_b   9.72426031
_cell_length_c   9.93344212
_cell_angle_alpha   90.14725539
_cell_angle_beta   89.85274767
_cell_angle_gamma   120.07221603
_symmetry_Int_Tables_number   1
_chemical_formula_structural   SrHoEr5Co6Sn23
_chemical_formula_sum   'Sr1 Ho1 Er5 Co6 Sn23'
_cell_volume   812.87767183
_cell_formula_units_Z   1
loop_
 _symmetry_equiv_pos_site_id
 _symmetry_equiv_pos_as_xyz
  1  'x, y, z'
loop_
 _atom_site_type_symbol
 _atom_site_label
 _atom_site_symmetry_multiplicity
 _atom_site_fract_x
 _atom_site_fract_y
 _atom_site_fract_z
 _atom_site_occupancy
  Sr  Sr0  1  0.000093  0.999907  0.999950  1
  Ho  Ho1  1  0.480603  0.519397  0.305813  1
  Er  Er2  1  0.518982  0.481018  0.694375  1
  Er  Er3  1  0.518741  0.037971  0.694600  1
  Er  Er4  1  0.962029  0.481259  0.694600  1
  Er  Er5  1  0.038101  0.518829  0.305456  1
  Er  Er6  1  0.481171  0.961899  0.305456  1
  Co  Co7  1  0.169756  0.830244  0.799831  1
  Co  Co8  1  0.169802  0.339594  0.800069  1
  Co  Co9  1  0.660406  0.830198  0.800069  1
  Co  Co10  1  0.339503  0.169539  0.199926  1
  Co  Co11  1  0.830461  0.660497  0.199926  1
  Co  Co12  1  0.830089  0.169911  0.199931  1
  Sn  Sn13  1  0.666540  0.333460  0.181213  1
  Sn  Sn14  1  0.666665  0.333335  0.876086  1
  Sn  Sn15  1  0.333052  0.666948  0.123201  1
  Sn  Sn16  1  0.348188  0.348285  0.999827  1
  Sn  Sn17  1  0.000131  0.651879  0.999813  1
  Sn  Sn18  1  0.651884  0.999825  0.999733  1
  Sn  Sn19  1  0.651715  0.651812  0.999827  1
  Sn  Sn20  1  0.333348  0.666652  0.818901  1
  Sn  Sn21  1  0.439841  0.219548  0.453712  1
  Sn  Sn22  1  0.219886  0.780114  0.546205  1
  Sn  Sn23  1  0.219382  0.439321  0.547022  1
  Sn  Sn24  1  0.560679  0.780618  0.547022  1
  Sn  Sn25  1  0.119067  0.880933  0.276903  1
  Sn  Sn26  1  0.780452  0.560159  0.453712  1
  Sn  Sn27  1  0.780194  0.219806  0.453676  1
  Sn  Sn28  1  0.348121  0.999869  0.999813  1
  Sn  Sn29  1  0.117912  0.236330  0.277244  1
  Sn  Sn30  1  0.763670  0.882088  0.277244  1
  Sn  Sn31  1  0.237005  0.118953  0.722865  1
  Sn  Sn32  1  0.881047  0.762995  0.722865  1
  Sn  Sn33  1  0.881076  0.118924  0.723200  1
  Sn  Sn34  1  0.000232  0.999768  0.500179  1
  Sn  Sn35  1  0.000175  0.348116  0.999733  1
