# generated using pymatgen
data_TbSm7(Ho3Sn4)4
_symmetry_space_group_name_H-M   'P 1'
_cell_length_a   8.06563474
_cell_length_b   8.22192090
_cell_length_c   15.51825392
_cell_angle_alpha   90.06629344
_cell_angle_beta   90.08561954
_cell_angle_gamma   89.91010980
_symmetry_Int_Tables_number   1
_chemical_formula_structural   TbSm7(Ho3Sn4)4
_chemical_formula_sum   'Tb1 Sm7 Ho12 Sn16'
_cell_volume   1029.09007468
_cell_formula_units_Z   1
loop_
 _symmetry_equiv_pos_site_id
 _symmetry_equiv_pos_as_xyz
  1  'x, y, z'
loop_
 _atom_site_type_symbol
 _atom_site_label
 _atom_site_symmetry_multiplicity
 _atom_site_fract_x
 _atom_site_fract_y
 _atom_site_fract_z
 _atom_site_occupancy
  Tb  Tb0  1  0.518475  0.321181  0.902553  1
  Sm  Sm1  1  0.016818  0.179431  0.597468  1
  Sm  Sm2  1  0.483263  0.679161  0.403140  1
  Sm  Sm3  1  0.982992  0.820738  0.096730  1
  Sm  Sm4  1  0.482673  0.678484  0.096696  1
  Sm  Sm5  1  0.983181  0.820902  0.403188  1
  Sm  Sm6  1  0.516346  0.321005  0.596684  1
  Sm  Sm7  1  0.017100  0.179603  0.903048  1
  Ho  Ho8  1  0.364229  0.836410  0.877232  1
  Ho  Ho9  1  0.863389  0.663319  0.622919  1
  Ho  Ho10  1  0.636428  0.163528  0.377298  1
  Ho  Ho11  1  0.135582  0.336837  0.122175  1
  Ho  Ho12  1  0.635568  0.163505  0.122433  1
  Ho  Ho13  1  0.136505  0.336557  0.377491  1
  Ho  Ho14  1  0.363711  0.836798  0.623300  1
  Ho  Ho15  1  0.864186  0.663230  0.877590  1
  Ho  Ho16  1  0.196611  0.502849  0.750373  1
  Ho  Ho17  1  0.696349  0.996925  0.750308  1
  Ho  Ho18  1  0.803297  0.496915  0.249789  1
  Ho  Ho19  1  0.303483  0.003108  0.249823  1
  Sn  Sn20  1  0.298614  0.039208  0.041516  1
  Sn  Sn21  1  0.798737  0.460747  0.458286  1
  Sn  Sn22  1  0.701272  0.961017  0.541889  1
  Sn  Sn23  1  0.203863  0.537361  0.957588  1
  Sn  Sn24  1  0.701074  0.962064  0.957885  1
  Sn  Sn25  1  0.201063  0.539866  0.541803  1
  Sn  Sn26  1  0.298655  0.039096  0.458467  1
  Sn  Sn27  1  0.796662  0.459696  0.040925  1
  Sn  Sn28  1  0.562555  0.620797  0.750183  1
  Sn  Sn29  1  0.062368  0.878137  0.750200  1
  Sn  Sn30  1  0.437069  0.378395  0.249811  1
  Sn  Sn31  1  0.937262  0.122075  0.249847  1
  Sn  Sn32  1  0.327769  0.146262  0.750961  1
  Sn  Sn33  1  0.825583  0.354919  0.750513  1
  Sn  Sn34  1  0.673619  0.855079  0.249872  1
  Sn  Sn35  1  0.173648  0.644798  0.250015  1
