# generated using pymatgen
data_NpUAl20(IrRu)2
_symmetry_space_group_name_H-M   'P 1'
_cell_length_a   6.84381715
_cell_length_b   6.84381957
_cell_length_c   9.11155355
_cell_angle_alpha   89.97314633
_cell_angle_beta   90.02685132
_cell_angle_gamma   97.63183808
_symmetry_Int_Tables_number   1
_chemical_formula_structural   NpUAl20(IrRu)2
_chemical_formula_sum   'Np1 U1 Al20 Ir2 Ru2'
_cell_volume   422.98515984
_cell_formula_units_Z   1
loop_
 _symmetry_equiv_pos_site_id
 _symmetry_equiv_pos_as_xyz
  1  'x, y, z'
loop_
 _atom_site_type_symbol
 _atom_site_label
 _atom_site_symmetry_multiplicity
 _atom_site_fract_x
 _atom_site_fract_y
 _atom_site_fract_z
 _atom_site_occupancy
  Np  Np0  1  0.878719  0.121281  0.751047  1
  U  U1  1  0.121869  0.878131  0.250315  1
  Al  Al2  1  0.780618  0.780860  0.999589  1
  Al  Al3  1  0.779786  0.781356  0.500705  1
  Al  Al4  1  0.219140  0.219382  0.999589  1
  Al  Al5  1  0.218644  0.220214  0.500705  1
  Al  Al6  1  0.622401  0.377599  0.946691  1
  Al  Al7  1  0.378667  0.621333  0.052875  1
  Al  Al8  1  0.623589  0.376411  0.551338  1
  Al  Al9  1  0.377027  0.622973  0.449237  1
  Al  Al10  1  0.843530  0.156470  0.399262  1
  Al  Al11  1  0.155625  0.844375  0.601157  1
  Al  Al12  1  0.843868  0.156132  0.103623  1
  Al  Al13  1  0.155761  0.844239  0.896584  1
  Al  Al14  1  0.408638  0.140754  0.748281  1
  Al  Al15  1  0.141581  0.407129  0.251478  1
  Al  Al16  1  0.592871  0.858419  0.251478  1
  Al  Al17  1  0.859246  0.591362  0.748281  1
  Al  Al18  1  0.520899  0.778247  0.747553  1
  Al  Al19  1  0.777833  0.520414  0.252182  1
  Al  Al20  1  0.479586  0.222167  0.252182  1
  Al  Al21  1  0.221753  0.479101  0.747553  1
  Ir  Ir22  1  0.499445  0.999619  0.000436  1
  Ir  Ir23  1  0.000381  0.500555  0.000436  1
  Ru  Ru24  1  0.498315  0.999791  0.498712  1
  Ru  Ru25  1  0.000209  0.501685  0.498712  1
