# generated using pymatgen
data_Ce2Fe7Co(MoP3)2
_symmetry_space_group_name_H-M   'P 1'
_cell_length_a   3.71634300
_cell_length_b   10.55803500
_cell_length_c   11.96416400
_cell_angle_alpha   90.00000000
_cell_angle_beta   90.00000000
_cell_angle_gamma   90.00000000
_symmetry_Int_Tables_number   1
_chemical_formula_structural   Ce2Fe7Co(MoP3)2
_chemical_formula_sum   'Ce4 Fe14 Co2 Mo4 P12'
_cell_volume   469.44124645
_cell_formula_units_Z   2
loop_
 _symmetry_equiv_pos_site_id
 _symmetry_equiv_pos_as_xyz
  1  'x, y, z'
loop_
 _atom_site_type_symbol
 _atom_site_label
 _atom_site_symmetry_multiplicity
 _atom_site_fract_x
 _atom_site_fract_y
 _atom_site_fract_z
 _atom_site_occupancy
  Ce  Ce0  1  0.250000  0.582287  0.703514  1
  Ce  Ce1  1  0.250000  0.917713  0.203514  1
  Ce  Ce2  1  0.750000  0.419151  0.297158  1
  Ce  Ce3  1  0.750000  0.080849  0.797158  1
  Fe  Fe4  1  0.250000  0.406167  0.487104  1
  Fe  Fe5  1  0.250000  0.093833  0.987104  1
  Fe  Fe6  1  0.750000  0.596471  0.512963  1
  Fe  Fe7  1  0.750000  0.903529  0.012963  1
  Fe  Fe8  1  0.250000  0.216382  0.175114  1
  Fe  Fe9  1  0.250000  0.283618  0.675114  1
  Fe  Fe10  1  0.750000  0.780801  0.825751  1
  Fe  Fe11  1  0.750000  0.719199  0.325751  1
  Fe  Fe12  1  0.250000  0.883436  0.701259  1
  Fe  Fe13  1  0.250000  0.616564  0.201259  1
  Fe  Fe14  1  0.750000  0.119982  0.297504  1
  Fe  Fe15  1  0.750000  0.380018  0.797504  1
  Fe  Fe16  1  0.250000  0.465224  0.933549  1
  Fe  Fe17  1  0.250000  0.034776  0.433549  1
  Co  Co18  1  0.750000  0.534527  0.067243  1
  Co  Co19  1  0.750000  0.965473  0.567243  1
  Mo  Mo20  1  0.250000  0.702672  0.988969  1
  Mo  Mo21  1  0.250000  0.797328  0.488969  1
  Mo  Mo22  1  0.750000  0.295516  0.010792  1
  Mo  Mo23  1  0.750000  0.204484  0.510792  1
  P  P24  1  0.250000  0.421538  0.113189  1
  P  P25  1  0.250000  0.078462  0.613189  1
  P  P26  1  0.750000  0.575839  0.886077  1
  P  P27  1  0.750000  0.924161  0.386077  1
  P  P28  1  0.250000  0.271687  0.864972  1
  P  P29  1  0.250000  0.228313  0.364972  1
  P  P30  1  0.750000  0.726932  0.136659  1
  P  P31  1  0.750000  0.773068  0.636659  1
  P  P32  1  0.250000  0.598628  0.393795  1
  P  P33  1  0.250000  0.901372  0.893795  1
  P  P34  1  0.750000  0.404076  0.604387  1
  P  P35  1  0.750000  0.095924  0.104387  1
