# generated using pymatgen
data_LaCrFe(Sb6Os)2
_symmetry_space_group_name_H-M   'P 1'
_cell_length_a   8.16432044
_cell_length_b   8.11817803
_cell_length_c   8.11443132
_cell_angle_alpha   109.33869100
_cell_angle_beta   109.65143463
_cell_angle_gamma   109.66419723
_symmetry_Int_Tables_number   1
_chemical_formula_structural   LaCrFe(Sb6Os)2
_chemical_formula_sum   'La1 Cr1 Fe1 Sb12 Os2'
_cell_volume   412.77636285
_cell_formula_units_Z   1
loop_
 _symmetry_equiv_pos_site_id
 _symmetry_equiv_pos_as_xyz
  1  'x, y, z'
loop_
 _atom_site_type_symbol
 _atom_site_label
 _atom_site_symmetry_multiplicity
 _atom_site_fract_x
 _atom_site_fract_y
 _atom_site_fract_z
 _atom_site_occupancy
  La  La0  1  0.000000  0.000000  0.000000  1
  Cr  Cr1  1  0.500000  0.500000  0.500000  1
  Fe  Fe2  1  0.500000  0.000000  0.000000  1
  Sb  Sb3  1  0.341201  0.175472  0.845665  1
  Sb  Sb4  1  0.658799  0.824528  0.154335  1
  Sb  Sb5  1  0.660770  0.502739  0.845972  1
  Sb  Sb6  1  0.339230  0.497261  0.154028  1
  Sb  Sb7  1  0.182941  0.843399  0.340364  1
  Sb  Sb8  1  0.817059  0.156601  0.659636  1
  Sb  Sb9  1  0.503284  0.849437  0.671318  1
  Sb  Sb10  1  0.496716  0.150563  0.328682  1
  Sb  Sb11  1  0.834136  0.330173  0.175589  1
  Sb  Sb12  1  0.165864  0.669827  0.824411  1
  Sb  Sb13  1  0.845421  0.659790  0.502467  1
  Sb  Sb14  1  0.154579  0.340210  0.497533  1
  Os  Os15  1  0.000000  0.000000  0.500000  1
  Os  Os16  1  0.000000  0.500000  0.000000  1
