# generated using pymatgen
data_Ho7Er3In8CoPt3
_symmetry_space_group_name_H-M   'P 1'
_cell_length_a   3.60011900
_cell_length_b   8.09258793
_cell_length_c   18.11682784
_cell_angle_alpha   89.97603435
_cell_angle_beta   90.00000000
_cell_angle_gamma   90.00000000
_symmetry_Int_Tables_number   1
_chemical_formula_structural   Ho7Er3In8CoPt3
_chemical_formula_sum   'Ho7 Er3 In8 Co1 Pt3'
_cell_volume   527.82068091
_cell_formula_units_Z   1
loop_
 _symmetry_equiv_pos_site_id
 _symmetry_equiv_pos_as_xyz
  1  'x, y, z'
loop_
 _atom_site_type_symbol
 _atom_site_label
 _atom_site_symmetry_multiplicity
 _atom_site_fract_x
 _atom_site_fract_y
 _atom_site_fract_z
 _atom_site_occupancy
  Ho  Ho0  1  0.000000  0.617627  0.086964  1
  Ho  Ho1  1  0.000000  0.232079  0.224350  1
  Ho  Ho2  1  0.000000  0.759230  0.779313  1
  Ho  Ho3  1  0.000000  0.258376  0.720500  1
  Ho  Ho4  1  0.000000  0.754321  0.279354  1
  Ho  Ho5  1  0.000000  0.000512  0.001436  1
  Ho  Ho6  1  0.000000  0.500800  0.498481  1
  Er  Er7  1  0.000000  0.110871  0.408911  1
  Er  Er8  1  0.000000  0.883813  0.583463  1
  Er  Er9  1  0.000000  0.384171  0.915972  1
  In  In10  1  0.500000  0.421208  0.351326  1
  In  In11  1  0.500000  0.577342  0.647549  1
  In  In12  1  0.500000  0.077166  0.852093  1
  In  In13  1  0.500000  0.929104  0.152238  1
  In  In14  1  0.500000  0.291688  0.068506  1
  In  In15  1  0.500000  0.708875  0.934322  1
  In  In16  1  0.500000  0.208144  0.564198  1
  In  In17  1  0.500000  0.794002  0.428884  1
  Co  Co18  1  0.500000  0.017272  0.305160  1
  Pt  Pt19  1  0.500000  0.976318  0.694989  1
  Pt  Pt20  1  0.500000  0.476488  0.804150  1
  Pt  Pt21  1  0.500000  0.520590  0.197842  1
