# generated using pymatgen
data_Tb2Er(AgGe)3
_symmetry_space_group_name_H-M   'P 1'
_cell_length_a   7.19175117
_cell_length_b   7.20344853
_cell_length_c   4.20985400
_cell_angle_alpha   90.00000000
_cell_angle_beta   90.00000000
_cell_angle_gamma   120.05382299
_symmetry_Int_Tables_number   1
_chemical_formula_structural   Tb2Er(AgGe)3
_chemical_formula_sum   'Tb2 Er1 Ag3 Ge3'
_cell_volume   188.77173991
_cell_formula_units_Z   1
loop_
 _symmetry_equiv_pos_site_id
 _symmetry_equiv_pos_as_xyz
  1  'x, y, z'
loop_
 _atom_site_type_symbol
 _atom_site_label
 _atom_site_symmetry_multiplicity
 _atom_site_fract_x
 _atom_site_fract_y
 _atom_site_fract_z
 _atom_site_occupancy
  Tb  Tb0  1  0.584044  0.000250  0.000000  1
  Tb  Tb1  1  0.415956  0.416206  0.000000  1
  Er  Er2  1  0.000000  0.584248  0.000000  1
  Ag  Ag3  1  0.748947  0.748510  0.500000  1
  Ag  Ag4  1  0.251053  0.999563  0.500000  1
  Ag  Ag5  1  0.000000  0.252049  0.500000  1
  Ge  Ge6  1  0.000000  0.998734  0.000000  1
  Ge  Ge7  1  0.668451  0.334446  0.500000  1
  Ge  Ge8  1  0.331549  0.665995  0.500000  1
