# generated using pymatgen
data_Ca2Tm(B3Ir4)2
_symmetry_space_group_name_H-M   'P 1'
_cell_length_a   9.93948436
_cell_length_b   9.08544120
_cell_length_c   5.62567302
_cell_angle_alpha   81.33532990
_cell_angle_beta   64.64116624
_cell_angle_gamma   34.02348366
_symmetry_Int_Tables_number   1
_chemical_formula_structural   Ca2Tm(B3Ir4)2
_chemical_formula_sum   'Ca2 Tm1 B6 Ir8'
_cell_volume   234.96023672
_cell_formula_units_Z   1
loop_
 _symmetry_equiv_pos_site_id
 _symmetry_equiv_pos_as_xyz
  1  'x, y, z'
loop_
 _atom_site_type_symbol
 _atom_site_label
 _atom_site_symmetry_multiplicity
 _atom_site_fract_x
 _atom_site_fract_y
 _atom_site_fract_z
 _atom_site_occupancy
  Ca  Ca0  1  0.318053  0.318053  0.681947  1
  Ca  Ca1  1  0.681947  0.681947  0.318053  1
  Tm  Tm2  1  0.500000  0.500000  0.500000  1
  B  B3  1  0.670623  0.983691  0.016309  1
  B  B4  1  0.983691  0.670623  0.329377  1
  B  B5  1  0.329377  0.016309  0.983691  1
  B  B6  1  0.016309  0.329377  0.670623  1
  B  B7  1  0.167648  0.832352  0.167648  1
  B  B8  1  0.832352  0.167648  0.832352  1
  Ir  Ir9  1  0.584871  0.584871  0.915129  1
  Ir  Ir10  1  0.914013  0.914013  0.085987  1
  Ir  Ir11  1  0.415129  0.415129  0.084871  1
  Ir  Ir12  1  0.084871  0.084871  0.415129  1
  Ir  Ir13  1  0.915129  0.915129  0.584871  1
  Ir  Ir14  1  0.250000  0.250000  0.250000  1
  Ir  Ir15  1  0.085987  0.085987  0.914013  1
  Ir  Ir16  1  0.750000  0.750000  0.750000  1
