# generated using pymatgen
data_Nd2Zn2Ga3Ge
_symmetry_space_group_name_H-M   'P 1'
_cell_length_a   9.27107951
_cell_length_b   9.27108028
_cell_length_c   4.23423600
_cell_angle_alpha   90.00000000
_cell_angle_beta   90.00000000
_cell_angle_gamma   153.20277688
_symmetry_Int_Tables_number   1
_chemical_formula_structural   Nd2Zn2Ga3Ge
_chemical_formula_sum   'Nd2 Zn2 Ga3 Ge1'
_cell_volume   164.07886340
_cell_formula_units_Z   1
loop_
 _symmetry_equiv_pos_site_id
 _symmetry_equiv_pos_as_xyz
  1  'x, y, z'
loop_
 _atom_site_type_symbol
 _atom_site_label
 _atom_site_symmetry_multiplicity
 _atom_site_fract_x
 _atom_site_fract_y
 _atom_site_fract_z
 _atom_site_occupancy
  Nd  Nd0  1  0.896907  0.103093  0.750000  1
  Nd  Nd1  1  0.102662  0.897338  0.250000  1
  Zn  Zn2  1  0.670137  0.329863  0.750000  1
  Zn  Zn3  1  0.329613  0.670387  0.250000  1
  Ga  Ga4  1  0.249655  0.750345  0.750000  1
  Ga  Ga5  1  0.750624  0.249376  0.250000  1
  Ga  Ga6  1  0.535624  0.464376  0.750000  1
  Ge  Ge7  1  0.464777  0.535223  0.250000  1
