# generated using pymatgen
data_ZrSc21(IrOs)4
_symmetry_space_group_name_H-M   'P 1'
_cell_length_a   9.47497065
_cell_length_b   9.47500324
_cell_length_c   9.47923973
_cell_angle_alpha   59.96997095
_cell_angle_beta   59.97042146
_cell_angle_gamma   59.89190812
_symmetry_Int_Tables_number   1
_chemical_formula_structural   ZrSc21(IrOs)4
_chemical_formula_sum   'Zr1 Sc21 Ir4 Os4'
_cell_volume   600.98584839
_cell_formula_units_Z   1
loop_
 _symmetry_equiv_pos_site_id
 _symmetry_equiv_pos_as_xyz
  1  'x, y, z'
loop_
 _atom_site_type_symbol
 _atom_site_label
 _atom_site_symmetry_multiplicity
 _atom_site_fract_x
 _atom_site_fract_y
 _atom_site_fract_z
 _atom_site_occupancy
  Zr  Zr0  1  0.841723  0.841679  0.844818  1
  Sc  Sc1  1  0.531605  0.156770  0.156572  1
  Sc  Sc2  1  0.157070  0.157105  0.530984  1
  Sc  Sc3  1  0.156713  0.531688  0.156541  1
  Sc  Sc4  1  0.843752  0.843719  0.467952  1
  Sc  Sc5  1  0.844237  0.467811  0.844337  1
  Sc  Sc6  1  0.467873  0.844183  0.844323  1
  Sc  Sc7  1  0.157710  0.157764  0.155353  1
  Sc  Sc8  1  0.197433  0.805228  0.196308  1
  Sc  Sc9  1  0.197922  0.801150  0.802315  1
  Sc  Sc10  1  0.805184  0.197422  0.196335  1
  Sc  Sc11  1  0.801205  0.801261  0.197984  1
  Sc  Sc12  1  0.197271  0.197223  0.805143  1
  Sc  Sc13  1  0.801127  0.197881  0.802367  1
  Sc  Sc14  1  0.382668  0.382667  0.382626  1
  Sc  Sc15  1  0.150412  0.613895  0.617270  1
  Sc  Sc16  1  0.613910  0.150382  0.617285  1
  Sc  Sc17  1  0.615842  0.615825  0.150731  1
  Sc  Sc18  1  0.384574  0.851271  0.381829  1
  Sc  Sc19  1  0.382959  0.382975  0.851354  1
  Sc  Sc20  1  0.851252  0.384591  0.381826  1
  Sc  Sc21  1  0.617325  0.617318  0.617532  1
  Ir  Ir22  1  0.499813  0.499810  0.999516  1
  Ir  Ir23  1  0.999502  0.999496  0.501350  1
  Ir  Ir24  1  0.499794  0.999804  0.499705  1
  Ir  Ir25  1  0.999805  0.499795  0.499703  1
  Os  Os26  1  0.503296  0.998354  0.999002  1
  Os  Os27  1  0.998359  0.503280  0.999005  1
  Os  Os28  1  0.500116  0.500111  0.500393  1
  Os  Os29  1  0.999547  0.999544  0.999542  1
