# generated using pymatgen
data_AcNdMg2(SiIr2)2
_symmetry_space_group_name_H-M   'P 1'
_cell_length_a   4.16856600
_cell_length_b   4.16856600
_cell_length_c   11.13116100
_cell_angle_alpha   90.00000000
_cell_angle_beta   90.00000000
_cell_angle_gamma   90.00000000
_symmetry_Int_Tables_number   1
_chemical_formula_structural   AcNdMg2(SiIr2)2
_chemical_formula_sum   'Ac1 Nd1 Mg2 Si2 Ir4'
_cell_volume   193.42554461
_cell_formula_units_Z   1
loop_
 _symmetry_equiv_pos_site_id
 _symmetry_equiv_pos_as_xyz
  1  'x, y, z'
loop_
 _atom_site_type_symbol
 _atom_site_label
 _atom_site_symmetry_multiplicity
 _atom_site_fract_x
 _atom_site_fract_y
 _atom_site_fract_z
 _atom_site_occupancy
  Ac  Ac0  1  0.000000  0.500000  0.242635  1
  Nd  Nd1  1  0.500000  0.000000  0.761694  1
  Mg  Mg2  1  0.000000  0.000000  0.505587  1
  Mg  Mg3  1  0.500000  0.500000  0.505587  1
  Si  Si4  1  0.000000  0.500000  0.882661  1
  Si  Si5  1  0.500000  0.000000  0.109567  1
  Ir  Ir6  1  0.000000  0.000000  0.995711  1
  Ir  Ir7  1  0.500000  0.500000  0.995711  1
  Ir  Ir8  1  0.000000  0.500000  0.667812  1
  Ir  Ir9  1  0.500000  0.000000  0.333036  1
