# generated using pymatgen
data_Ho3Th5(Ta3Si4)4
_symmetry_space_group_name_H-M   'P 1'
_cell_length_a   7.11184925
_cell_length_b   7.11369673
_cell_length_c   13.24821122
_cell_angle_alpha   90.08684318
_cell_angle_beta   89.85662155
_cell_angle_gamma   89.92096696
_symmetry_Int_Tables_number   1
_chemical_formula_structural   Ho3Th5(Ta3Si4)4
_chemical_formula_sum   'Ho3 Th5 Ta12 Si16'
_cell_volume   670.24388199
_cell_formula_units_Z   1
loop_
 _symmetry_equiv_pos_site_id
 _symmetry_equiv_pos_as_xyz
  1  'x, y, z'
loop_
 _atom_site_type_symbol
 _atom_site_label
 _atom_site_symmetry_multiplicity
 _atom_site_fract_x
 _atom_site_fract_y
 _atom_site_fract_z
 _atom_site_occupancy
  Ho  Ho0  1  0.001991  0.338816  0.218616  1
  Ho  Ho1  1  0.998446  0.660827  0.716633  1
  Ho  Ho2  1  0.160289  0.501345  0.467490  1
  Th  Th3  1  0.501719  0.836489  0.032180  1
  Th  Th4  1  0.836925  0.502348  0.967840  1
  Th  Th5  1  0.498279  0.163485  0.531892  1
  Th  Th6  1  0.335669  0.998690  0.780727  1
  Th  Th7  1  0.663260  0.001921  0.283151  1
  Ta  Ta8  1  0.168520  0.169719  0.999596  1
  Ta  Ta9  1  0.830621  0.831342  0.499164  1
  Ta  Ta10  1  0.332075  0.669669  0.250870  1
  Ta  Ta11  1  0.667709  0.330587  0.749140  1
  Ta  Ta12  1  0.157472  0.991346  0.375036  1
  Ta  Ta13  1  0.842238  0.007646  0.874218  1
  Ta  Ta14  1  0.507585  0.657845  0.623842  1
  Ta  Ta15  1  0.340714  0.495489  0.875269  1
  Ta  Ta16  1  0.493784  0.341128  0.125661  1
  Ta  Ta17  1  0.658387  0.504331  0.376248  1
  Ta  Ta18  1  0.995713  0.158300  0.624900  1
  Ta  Ta19  1  0.005681  0.840210  0.126760  1
  Si  Si20  1  0.285839  0.044320  0.187099  1
  Si  Si21  1  0.714236  0.956765  0.685549  1
  Si  Si22  1  0.455431  0.785983  0.436757  1
  Si  Si23  1  0.207366  0.536840  0.066714  1
  Si  Si24  1  0.539610  0.210641  0.935734  1
  Si  Si25  1  0.798535  0.462670  0.563895  1
  Si  Si26  1  0.039118  0.296445  0.811098  1
  Si  Si27  1  0.962807  0.701538  0.314684  1
  Si  Si28  1  0.366007  0.301319  0.316182  1
  Si  Si29  1  0.630386  0.702408  0.812304  1
  Si  Si30  1  0.198674  0.865134  0.565474  1
  Si  Si31  1  0.124355  0.797683  0.933862  1
  Si  Si32  1  0.801761  0.128800  0.067836  1
  Si  Si33  1  0.879345  0.207075  0.434030  1
  Si  Si34  1  0.293066  0.379717  0.683183  1
  Si  Si35  1  0.706387  0.621127  0.186365  1
