# generated using pymatgen
data_Ba2DyHO3
_symmetry_space_group_name_H-M   'P 1'
_cell_length_a   4.41605500
_cell_length_b   4.41605200
_cell_length_c   14.01260300
_cell_angle_alpha   90.00000000
_cell_angle_beta   90.00000000
_cell_angle_gamma   90.00000000
_symmetry_Int_Tables_number   1
_chemical_formula_structural   Ba2DyHO3
_chemical_formula_sum   'Ba4 Dy2 H2 O6'
_cell_volume   273.26717697
_cell_formula_units_Z   2
loop_
 _symmetry_equiv_pos_site_id
 _symmetry_equiv_pos_as_xyz
  1  'x, y, z'
loop_
 _atom_site_type_symbol
 _atom_site_label
 _atom_site_symmetry_multiplicity
 _atom_site_fract_x
 _atom_site_fract_y
 _atom_site_fract_z
 _atom_site_occupancy
  Ba  Ba0  1  0.499999  0.000000  0.100990  1
  Ba  Ba1  1  0.499999  0.000000  0.374749  1
  Ba  Ba2  1  0.000000  0.499999  0.625251  1
  Ba  Ba3  1  0.000000  0.499999  0.899010  1
  Dy  Dy4  1  0.000000  0.499999  0.235385  1
  Dy  Dy5  1  0.499999  0.000000  0.764615  1
  H  H6  1  0.000000  0.499999  0.422714  1
  H  H7  1  0.499999  0.000000  0.577287  1
  O  O8  1  0.000000  0.499999  0.080012  1
  O  O9  1  0.000000  0.000000  0.258977  1
  O  O10  1  0.499999  0.499999  0.258977  1
  O  O11  1  0.000000  0.000000  0.741023  1
  O  O12  1  0.499999  0.499999  0.741023  1
  O  O13  1  0.499999  0.000000  0.919988  1
