# generated using pymatgen
data_HoEr4Zr(SnIr)6
_symmetry_space_group_name_H-M   'P 1'
_cell_length_a   7.46056740
_cell_length_b   7.52226743
_cell_length_c   7.74291300
_cell_angle_alpha   90.00000000
_cell_angle_beta   90.00000000
_cell_angle_gamma   120.32905738
_symmetry_Int_Tables_number   1
_chemical_formula_structural   HoEr4Zr(SnIr)6
_chemical_formula_sum   'Ho1 Er4 Zr1 Sn6 Ir6'
_cell_volume   375.06456375
_cell_formula_units_Z   1
loop_
 _symmetry_equiv_pos_site_id
 _symmetry_equiv_pos_as_xyz
  1  'x, y, z'
loop_
 _atom_site_type_symbol
 _atom_site_label
 _atom_site_symmetry_multiplicity
 _atom_site_fract_x
 _atom_site_fract_y
 _atom_site_fract_z
 _atom_site_occupancy
  Ho  Ho0  1  0.597100  0.593351  0.750000  1
  Er  Er1  1  0.405504  0.004471  0.250000  1
  Er  Er2  1  0.595953  0.597258  0.250000  1
  Er  Er3  1  0.001209  0.408400  0.750000  1
  Er  Er4  1  0.402243  0.995549  0.750000  1
  Zr  Zr5  1  0.999050  0.398667  0.250000  1
  Sn  Sn6  1  0.264623  0.262457  0.501203  1
  Sn  Sn7  1  0.264623  0.262457  0.998797  1
  Sn  Sn8  1  0.734922  0.997345  0.998705  1
  Sn  Sn9  1  0.000499  0.741666  0.491958  1
  Sn  Sn10  1  0.734922  0.997345  0.501295  1
  Sn  Sn11  1  0.000499  0.741666  0.008042  1
  Ir  Ir12  1  0.677364  0.335268  0.491283  1
  Ir  Ir13  1  0.677364  0.335268  0.008717  1
  Ir  Ir14  1  0.321978  0.658176  0.013578  1
  Ir  Ir15  1  0.321978  0.658176  0.486422  1
  Ir  Ir16  1  0.000340  0.999255  0.750000  1
  Ir  Ir17  1  0.999830  0.013225  0.250000  1
