# generated using pymatgen
data_Hf18MnVCoRe7
_symmetry_space_group_name_H-M   'P 1'
_cell_length_a   8.58049500
_cell_length_b   8.58049419
_cell_length_c   8.45593900
_cell_angle_alpha   90.00000000
_cell_angle_beta   90.00000000
_cell_angle_gamma   119.99999927
_symmetry_Int_Tables_number   1
_chemical_formula_structural   Hf18MnVCoRe7
_chemical_formula_sum   'Hf18 Mn1 V1 Co1 Re7'
_cell_volume   539.15932435
_cell_formula_units_Z   1
loop_
 _symmetry_equiv_pos_site_id
 _symmetry_equiv_pos_as_xyz
  1  'x, y, z'
loop_
 _atom_site_type_symbol
 _atom_site_label
 _atom_site_symmetry_multiplicity
 _atom_site_fract_x
 _atom_site_fract_y
 _atom_site_fract_z
 _atom_site_occupancy
  Hf  Hf0  1  0.199434  0.800566  0.443257  1
  Hf  Hf1  1  0.199434  0.398872  0.443257  1
  Hf  Hf2  1  0.601128  0.800566  0.443257  1
  Hf  Hf3  1  0.800716  0.199284  0.558217  1
  Hf  Hf4  1  0.800716  0.601430  0.558217  1
  Hf  Hf5  1  0.398570  0.199284  0.558217  1
  Hf  Hf6  1  0.801038  0.198962  0.940067  1
  Hf  Hf7  1  0.801038  0.602076  0.940067  1
  Hf  Hf8  1  0.397924  0.198962  0.940067  1
  Hf  Hf9  1  0.200674  0.799326  0.058578  1
  Hf  Hf10  1  0.200674  0.401350  0.058578  1
  Hf  Hf11  1  0.598650  0.799326  0.058578  1
  Hf  Hf12  1  0.540310  0.459690  0.249830  1
  Hf  Hf13  1  0.540310  0.080619  0.249830  1
  Hf  Hf14  1  0.919381  0.459690  0.249830  1
  Hf  Hf15  1  0.458820  0.541180  0.750311  1
  Hf  Hf16  1  0.458820  0.917643  0.750311  1
  Hf  Hf17  1  0.082357  0.541180  0.750311  1
  Mn  Mn18  1  0.333333  0.666667  0.251462  1
  V  V19  1  0.000000  0.000000  0.497191  1
  Co  Co20  1  0.666667  0.333333  0.750873  1
  Re  Re21  1  0.889241  0.110759  0.253579  1
  Re  Re22  1  0.889241  0.778483  0.253579  1
  Re  Re23  1  0.221517  0.110759  0.253579  1
  Re  Re24  1  0.110409  0.889591  0.745971  1
  Re  Re25  1  0.110409  0.220819  0.745971  1
  Re  Re26  1  0.779181  0.889591  0.745971  1
  Re  Re27  1  0.000000  0.000000  0.001045  1
