# generated using pymatgen
data_DyY3BS3
_symmetry_space_group_name_H-M   'P 1'
_cell_length_a   6.75094652
_cell_length_b   6.75094596
_cell_length_c   6.75094601
_cell_angle_alpha   131.94183233
_cell_angle_beta   131.94183022
_cell_angle_gamma   70.32091339
_symmetry_Int_Tables_number   1
_chemical_formula_structural   DyY3BS3
_chemical_formula_sum   'Dy1 Y3 B1 S3'
_cell_volume   166.83244298
_cell_formula_units_Z   1
loop_
 _symmetry_equiv_pos_site_id
 _symmetry_equiv_pos_as_xyz
  1  'x, y, z'
loop_
 _atom_site_type_symbol
 _atom_site_label
 _atom_site_symmetry_multiplicity
 _atom_site_fract_x
 _atom_site_fract_y
 _atom_site_fract_z
 _atom_site_occupancy
  Dy  Dy0  1  0.234459  0.234459  0.000000  1
  Y  Y1  1  0.765510  0.765510  0.000000  1
  Y  Y2  1  0.499983  0.999983  0.500000  1
  Y  Y3  1  0.999983  0.499983  0.500000  1
  B  B4  1  0.000095  0.000095  0.000000  1
  S  S5  1  0.750004  0.250004  0.500000  1
  S  S6  1  0.250004  0.750004  0.500000  1
  S  S7  1  0.499962  0.499962  0.000000  1
