# generated using pymatgen
data_Eu2HfWO7
_symmetry_space_group_name_H-M   'P 1'
_cell_length_a   7.55148625
_cell_length_b   7.55093797
_cell_length_c   7.55093809
_cell_angle_alpha   60.17493793
_cell_angle_beta   59.99760197
_cell_angle_gamma   59.99760390
_symmetry_Int_Tables_number   1
_chemical_formula_structural   Eu2HfWO7
_chemical_formula_sum   'Eu4 Hf2 W2 O14'
_cell_volume   304.84169118
_cell_formula_units_Z   2
loop_
 _symmetry_equiv_pos_site_id
 _symmetry_equiv_pos_as_xyz
  1  'x, y, z'
loop_
 _atom_site_type_symbol
 _atom_site_label
 _atom_site_symmetry_multiplicity
 _atom_site_fract_x
 _atom_site_fract_y
 _atom_site_fract_z
 _atom_site_occupancy
  Eu  Eu0  1  0.625000  0.125000  0.125000  1
  Eu  Eu1  1  0.125000  0.625000  0.125000  1
  Eu  Eu2  1  0.125000  0.125000  0.625000  1
  Eu  Eu3  1  0.125000  0.125000  0.125000  1
  Hf  Hf4  1  0.625000  0.125000  0.625000  1
  Hf  Hf5  1  0.625000  0.625000  0.125000  1
  W  W6  1  0.125000  0.625000  0.625000  1
  W  W7  1  0.625000  0.625000  0.625000  1
  O  O8  1  0.249155  0.250845  0.250845  1
  O  O9  1  0.000845  0.999155  0.999155  1
  O  O10  1  0.702059  0.696620  0.307868  1
  O  O11  1  0.293453  0.307868  0.696620  1
  O  O12  1  0.702059  0.307868  0.696620  1
  O  O13  1  0.293453  0.696620  0.307868  1
  O  O14  1  0.301530  0.698470  0.698470  1
  O  O15  1  0.703427  0.296573  0.296573  1
  O  O16  1  0.547941  0.553380  0.942132  1
  O  O17  1  0.956547  0.942132  0.553380  1
  O  O18  1  0.547941  0.942132  0.553380  1
  O  O19  1  0.956547  0.553380  0.942132  1
  O  O20  1  0.948470  0.551530  0.551530  1
  O  O21  1  0.546573  0.953427  0.953427  1
