# generated using pymatgen
data_Be3Fe5Si3Ni
_symmetry_space_group_name_H-M   'P 1'
_cell_length_a   3.78986311
_cell_length_b   5.44360022
_cell_length_c   11.40015012
_cell_angle_alpha   89.98331839
_cell_angle_beta   89.99934773
_cell_angle_gamma   90.02743335
_symmetry_Int_Tables_number   1
_chemical_formula_structural   Be3Fe5Si3Ni
_chemical_formula_sum   'Be6 Fe10 Si6 Ni2'
_cell_volume   235.19075589
_cell_formula_units_Z   2
loop_
 _symmetry_equiv_pos_site_id
 _symmetry_equiv_pos_as_xyz
  1  'x, y, z'
loop_
 _atom_site_type_symbol
 _atom_site_label
 _atom_site_symmetry_multiplicity
 _atom_site_fract_x
 _atom_site_fract_y
 _atom_site_fract_z
 _atom_site_occupancy
  Be  Be0  1  0.999947  0.000182  0.004249  1
  Be  Be1  1  0.499929  0.498889  0.163436  1
  Be  Be2  1  0.999857  0.001715  0.333228  1
  Be  Be3  1  0.499997  0.498971  0.503304  1
  Be  Be4  1  0.999978  0.000120  0.662459  1
  Be  Be5  1  0.500095  0.500134  0.833238  1
  Fe  Fe6  1  0.499968  0.251013  0.995408  1
  Fe  Fe7  1  0.499965  0.749054  0.995664  1
  Fe  Fe8  1  0.999929  0.248729  0.169504  1
  Fe  Fe9  1  0.999941  0.751173  0.170014  1
  Fe  Fe10  1  0.499858  0.246828  0.333427  1
  Fe  Fe11  1  0.499857  0.753177  0.333370  1
  Fe  Fe12  1  0.999987  0.248829  0.497116  1
  Fe  Fe13  1  0.999986  0.751212  0.496553  1
  Fe  Fe14  1  0.500004  0.251067  0.671234  1
  Fe  Fe15  1  0.499986  0.748985  0.670982  1
  Si  Si16  1  0.999946  0.500110  0.006337  1
  Si  Si17  1  0.499942  0.000751  0.161547  1
  Si  Si18  1  0.999869  0.498547  0.333214  1
  Si  Si19  1  0.499991  0.000895  0.505206  1
  Si  Si20  1  0.999967  0.499848  0.660437  1
  Si  Si21  1  0.500178  0.999817  0.833184  1
  Ni  Ni22  1  0.000365  0.253176  0.833582  1
  Ni  Ni23  1  0.000456  0.746783  0.833308  1
