# generated using pymatgen
data_Yb8Bi5Te
_symmetry_space_group_name_H-M   'P 1'
_cell_length_a   8.33256511
_cell_length_b   8.33256438
_cell_length_c   8.33256447
_cell_angle_alpha   109.56214108
_cell_angle_beta   109.56213451
_cell_angle_gamma   109.28954294
_symmetry_Int_Tables_number   1
_chemical_formula_structural   Yb8Bi5Te
_chemical_formula_sum   'Yb8 Bi5 Te1'
_cell_volume   445.35967410
_cell_formula_units_Z   1
loop_
 _symmetry_equiv_pos_site_id
 _symmetry_equiv_pos_as_xyz
  1  'x, y, z'
loop_
 _atom_site_type_symbol
 _atom_site_label
 _atom_site_symmetry_multiplicity
 _atom_site_fract_x
 _atom_site_fract_y
 _atom_site_fract_z
 _atom_site_occupancy
  Yb  Yb0  1  0.149025  0.499393  0.000372  1
  Yb  Yb1  1  0.648969  0.499978  0.000031  1
  Yb  Yb2  1  0.500607  0.000979  0.649631  1
  Yb  Yb3  1  0.351063  0.351031  0.351009  1
  Yb  Yb4  1  0.500022  0.000054  0.148991  1
  Yb  Yb5  1  0.999946  0.648937  0.499969  1
  Yb  Yb6  1  0.851347  0.850975  0.850369  1
  Yb  Yb7  1  0.999021  0.148653  0.499628  1
  Bi  Bi8  1  0.875062  0.249086  0.124994  1
  Bi  Bi9  1  0.624092  0.750068  0.375006  1
  Bi  Bi10  1  0.125000  0.875000  0.250000  1
  Bi  Bi11  1  0.249932  0.124938  0.874024  1
  Bi  Bi12  1  0.750914  0.375908  0.625976  1
  Te  Te13  1  0.375000  0.625000  0.750000  1
