# generated using pymatgen
data_YbHoTh3Si3C
_symmetry_space_group_name_H-M   'P 1'
_cell_length_a   8.75970800
_cell_length_b   8.75970930
_cell_length_c   6.39219200
_cell_angle_alpha   90.00000000
_cell_angle_beta   90.00000000
_cell_angle_gamma   120.00001021
_symmetry_Int_Tables_number   1
_chemical_formula_structural   YbHoTh3Si3C
_chemical_formula_sum   'Yb2 Ho2 Th6 Si6 C2'
_cell_volume   424.77575593
_cell_formula_units_Z   2
loop_
 _symmetry_equiv_pos_site_id
 _symmetry_equiv_pos_as_xyz
  1  'x, y, z'
loop_
 _atom_site_type_symbol
 _atom_site_label
 _atom_site_symmetry_multiplicity
 _atom_site_fract_x
 _atom_site_fract_y
 _atom_site_fract_z
 _atom_site_occupancy
  Yb  Yb0  1  0.666667  0.333333  0.000000  1
  Yb  Yb1  1  0.333333  0.666667  0.000000  1
  Ho  Ho2  1  0.333333  0.666667  0.500000  1
  Ho  Ho3  1  0.666667  0.333333  0.500000  1
  Th  Th4  1  0.765332  0.765332  0.750930  1
  Th  Th5  1  0.234668  0.000000  0.750930  1
  Th  Th6  1  0.000000  0.234668  0.750930  1
  Th  Th7  1  0.234668  0.234668  0.249070  1
  Th  Th8  1  0.765332  0.000000  0.249070  1
  Th  Th9  1  0.000000  0.765332  0.249070  1
  Si  Si10  1  0.399923  0.399923  0.732524  1
  Si  Si11  1  0.600077  0.000000  0.732524  1
  Si  Si12  1  0.000000  0.600077  0.732524  1
  Si  Si13  1  0.600077  0.600077  0.267476  1
  Si  Si14  1  0.399923  0.000000  0.267476  1
  Si  Si15  1  0.000000  0.399923  0.267476  1
  C  C16  1  0.000000  0.000000  0.000000  1
  C  C17  1  0.000000  0.000000  0.500000  1
