# generated using pymatgen
data_Sr2Ga4Ir3Rh
_symmetry_space_group_name_H-M   'P 1'
_cell_length_a   8.62801867
_cell_length_b   7.42821590
_cell_length_c   6.01528501
_cell_angle_alpha   79.08649072
_cell_angle_beta   57.71161286
_cell_angle_gamma   43.32703525
_symmetry_Int_Tables_number   1
_chemical_formula_structural   Sr2Ga4Ir3Rh
_chemical_formula_sum   'Sr2 Ga4 Ir3 Rh1'
_cell_volume   210.01868864
_cell_formula_units_Z   1
loop_
 _symmetry_equiv_pos_site_id
 _symmetry_equiv_pos_as_xyz
  1  'x, y, z'
loop_
 _atom_site_type_symbol
 _atom_site_label
 _atom_site_symmetry_multiplicity
 _atom_site_fract_x
 _atom_site_fract_y
 _atom_site_fract_z
 _atom_site_occupancy
  Sr  Sr0  1  0.500807  0.500807  0.499193  1
  Sr  Sr1  1  0.749776  0.749776  0.750224  1
  Ga  Ga2  1  0.816190  0.182943  0.818494  1
  Ga  Ga3  1  0.182943  0.816190  0.182373  1
  Ga  Ga4  1  0.435198  0.064327  0.430368  1
  Ga  Ga5  1  0.064327  0.435198  0.070106  1
  Ir  Ir6  1  0.116684  0.116684  0.883316  1
  Ir  Ir7  1  0.884245  0.884245  0.115755  1
  Ir  Ir8  1  0.133582  0.133582  0.366418  1
  Rh  Rh9  1  0.366248  0.366248  0.133752  1
