# generated using pymatgen
data_Ho7Tm3(SiBi)4
_symmetry_space_group_name_H-M   'P 1'
_cell_length_a   8.60087406
_cell_length_b   8.60686952
_cell_length_c   7.86847578
_cell_angle_alpha   90.04421303
_cell_angle_beta   90.02550862
_cell_angle_gamma   125.70548844
_symmetry_Int_Tables_number   1
_chemical_formula_structural   Ho7Tm3(SiBi)4
_chemical_formula_sum   'Ho7 Tm3 Si4 Bi4'
_cell_volume   472.98659307
_cell_formula_units_Z   1
loop_
 _symmetry_equiv_pos_site_id
 _symmetry_equiv_pos_as_xyz
  1  'x, y, z'
loop_
 _atom_site_type_symbol
 _atom_site_label
 _atom_site_symmetry_multiplicity
 _atom_site_fract_x
 _atom_site_fract_y
 _atom_site_fract_z
 _atom_site_occupancy
  Ho  Ho0  1  0.956855  0.713451  0.664742  1
  Ho  Ho1  1  0.456749  0.213279  0.835237  1
  Ho  Ho2  1  0.786975  0.543414  0.164905  1
  Ho  Ho3  1  0.543213  0.786995  0.164793  1
  Ho  Ho4  1  0.212988  0.456807  0.835202  1
  Ho  Ho5  1  0.713122  0.956796  0.664718  1
  Ho  Ho6  1  0.286862  0.043331  0.335107  1
  Tm  Tm7  1  0.043621  0.285499  0.335706  1
  Tm  Tm8  1  0.000013  0.000266  0.000317  1
  Tm  Tm9  1  0.499555  0.499753  0.499837  1
  Si  Si10  1  0.364558  0.365355  0.133855  1
  Si  Si11  1  0.634645  0.634682  0.866543  1
  Si  Si12  1  0.134461  0.134803  0.632756  1
  Si  Si13  1  0.865748  0.866144  0.366649  1
  Bi  Bi14  1  0.793206  0.207740  0.000953  1
  Bi  Bi15  1  0.207530  0.792834  0.999799  1
  Bi  Bi16  1  0.708282  0.292626  0.499648  1
  Bi  Bi17  1  0.291617  0.706225  0.499234  1
