# generated using pymatgen
data_CaTb3(NdSn)16
_symmetry_space_group_name_H-M   'P 1'
_cell_length_a   8.23049987
_cell_length_b   8.40688606
_cell_length_c   16.00753600
_cell_angle_alpha   90.00000000
_cell_angle_beta   90.00000000
_cell_angle_gamma   89.93355603
_symmetry_Int_Tables_number   1
_chemical_formula_structural   CaTb3(NdSn)16
_chemical_formula_sum   'Ca1 Tb3 Nd16 Sn16'
_cell_volume   1107.60668646
_cell_formula_units_Z   1
loop_
 _symmetry_equiv_pos_site_id
 _symmetry_equiv_pos_as_xyz
  1  'x, y, z'
loop_
 _atom_site_type_symbol
 _atom_site_label
 _atom_site_symmetry_multiplicity
 _atom_site_fract_x
 _atom_site_fract_y
 _atom_site_fract_z
 _atom_site_occupancy
  Ca  Ca0  1  0.801696  0.498181  0.750000  1
  Tb  Tb1  1  0.198792  0.501788  0.250000  1
  Tb  Tb2  1  0.698731  0.997843  0.250000  1
  Tb  Tb3  1  0.302404  0.001294  0.750000  1
  Nd  Nd4  1  0.017668  0.181130  0.401334  1
  Nd  Nd5  1  0.367348  0.837530  0.120957  1
  Nd  Nd6  1  0.130574  0.337679  0.620155  1
  Nd  Nd7  1  0.483011  0.680878  0.902070  1
  Nd  Nd8  1  0.867438  0.663090  0.121369  1
  Nd  Nd9  1  0.130574  0.337679  0.879845  1
  Nd  Nd10  1  0.483011  0.680878  0.597930  1
  Nd  Nd11  1  0.632637  0.163845  0.620433  1
  Nd  Nd12  1  0.867438  0.663090  0.378631  1
  Nd  Nd13  1  0.017668  0.181130  0.098666  1
  Nd  Nd14  1  0.982009  0.817828  0.901954  1
  Nd  Nd15  1  0.632637  0.163845  0.879567  1
  Nd  Nd16  1  0.518130  0.319180  0.099011  1
  Nd  Nd17  1  0.367348  0.837530  0.379043  1
  Nd  Nd18  1  0.982009  0.817828  0.598046  1
  Nd  Nd19  1  0.518130  0.319180  0.400989  1
  Sn  Sn20  1  0.792216  0.462679  0.540161  1
  Sn  Sn21  1  0.707933  0.965008  0.456472  1
  Sn  Sn22  1  0.673552  0.860250  0.750000  1
  Sn  Sn23  1  0.207291  0.535655  0.456747  1
  Sn  Sn24  1  0.292269  0.034810  0.956385  1
  Sn  Sn25  1  0.824393  0.354542  0.250000  1
  Sn  Sn26  1  0.792216  0.462679  0.959839  1
  Sn  Sn27  1  0.564907  0.616786  0.250000  1
  Sn  Sn28  1  0.207291  0.535655  0.043253  1
  Sn  Sn29  1  0.431892  0.383217  0.750000  1
  Sn  Sn30  1  0.182049  0.646638  0.750000  1
  Sn  Sn31  1  0.934877  0.111538  0.750000  1
  Sn  Sn32  1  0.292269  0.034810  0.543615  1
  Sn  Sn33  1  0.707933  0.965008  0.043528  1
  Sn  Sn34  1  0.324884  0.146037  0.250000  1
  Sn  Sn35  1  0.064774  0.883261  0.250000  1
