# generated using pymatgen
data_Dy10Tl7In(IrPt)2
_symmetry_space_group_name_H-M   'P 1'
_cell_length_a   3.63810700
_cell_length_b   8.22258564
_cell_length_c   18.44686955
_cell_angle_alpha   89.80118098
_cell_angle_beta   90.00000000
_cell_angle_gamma   90.00000000
_symmetry_Int_Tables_number   1
_chemical_formula_structural   Dy10Tl7In(IrPt)2
_chemical_formula_sum   'Dy10 Tl7 In1 Ir2 Pt2'
_cell_volume   551.82825684
_cell_formula_units_Z   1
loop_
 _symmetry_equiv_pos_site_id
 _symmetry_equiv_pos_as_xyz
  1  'x, y, z'
loop_
 _atom_site_type_symbol
 _atom_site_label
 _atom_site_symmetry_multiplicity
 _atom_site_fract_x
 _atom_site_fract_y
 _atom_site_fract_z
 _atom_site_occupancy
  Dy  Dy0  1  0.000000  0.112624  0.410592  1
  Dy  Dy1  1  0.000000  0.886615  0.588685  1
  Dy  Dy2  1  0.000000  0.385922  0.911029  1
  Dy  Dy3  1  0.000000  0.614462  0.089257  1
  Dy  Dy4  1  0.000000  0.236039  0.222910  1
  Dy  Dy5  1  0.000000  0.764319  0.777414  1
  Dy  Dy6  1  0.000000  0.246008  0.720255  1
  Dy  Dy7  1  0.000000  0.752048  0.279850  1
  Dy  Dy8  1  0.000000  0.000265  0.999921  1
  Dy  Dy9  1  0.000000  0.501748  0.499728  1
  Tl  Tl10  1  0.500000  0.424357  0.353491  1
  Tl  Tl11  1  0.500000  0.578434  0.646993  1
  Tl  Tl12  1  0.500000  0.075592  0.852799  1
  Tl  Tl13  1  0.500000  0.925162  0.147529  1
  Tl  Tl14  1  0.500000  0.292977  0.064401  1
  Tl  Tl15  1  0.500000  0.707335  0.935831  1
  Tl  Tl16  1  0.500000  0.206551  0.564923  1
  In  In17  1  0.500000  0.794867  0.432924  1
  Ir  Ir18  1  0.500000  0.017483  0.305324  1
  Ir  Ir19  1  0.500000  0.978051  0.696086  1
  Pt  Pt20  1  0.500000  0.476703  0.802179  1
  Pt  Pt21  1  0.500000  0.522440  0.197879  1
