# generated using pymatgen
data_Pa8Si15Au
_symmetry_space_group_name_H-M   'P 1'
_cell_length_a   8.16996300
_cell_length_b   8.16996368
_cell_length_c   7.85885700
_cell_angle_alpha   90.00000000
_cell_angle_beta   90.00000000
_cell_angle_gamma   120.00000130
_symmetry_Int_Tables_number   1
_chemical_formula_structural   Pa8Si15Au
_chemical_formula_sum   'Pa8 Si15 Au1'
_cell_volume   454.28691501
_cell_formula_units_Z   1
loop_
 _symmetry_equiv_pos_site_id
 _symmetry_equiv_pos_as_xyz
  1  'x, y, z'
loop_
 _atom_site_type_symbol
 _atom_site_label
 _atom_site_symmetry_multiplicity
 _atom_site_fract_x
 _atom_site_fract_y
 _atom_site_fract_z
 _atom_site_occupancy
  Pa  Pa0  1  0.495153  0.504847  0.744442  1
  Pa  Pa1  1  0.495343  0.504657  0.255556  1
  Pa  Pa2  1  0.009695  0.504847  0.744442  1
  Pa  Pa3  1  0.009316  0.504657  0.255556  1
  Pa  Pa4  1  0.495153  0.990305  0.744442  1
  Pa  Pa5  1  0.495343  0.990684  0.255556  1
  Pa  Pa6  1  0.000000  0.000000  0.748143  1
  Pa  Pa7  1  0.000000  0.000000  0.251894  1
  Si  Si8  1  0.839382  0.160618  0.000051  1
  Si  Si9  1  0.169208  0.830792  0.000030  1
  Si  Si10  1  0.321236  0.160618  0.000051  1
  Si  Si11  1  0.166151  0.833849  0.499858  1
  Si  Si12  1  0.661582  0.830792  0.000030  1
  Si  Si13  1  0.832583  0.167417  0.500124  1
  Si  Si14  1  0.839382  0.678764  0.000051  1
  Si  Si15  1  0.667697  0.833849  0.499858  1
  Si  Si16  1  0.169208  0.338418  0.000030  1
  Si  Si17  1  0.334835  0.167417  0.500124  1
  Si  Si18  1  0.166151  0.332303  0.499858  1
  Si  Si19  1  0.832583  0.665165  0.500124  1
  Si  Si20  1  0.333333  0.666667  0.000207  1
  Si  Si21  1  0.333333  0.666667  0.499835  1
  Si  Si22  1  0.666667  0.333333  0.500149  1
  Au  Au23  1  0.666667  0.333333  0.999590  1
