# generated using pymatgen
data_ErLu3(Ni2Sn)2
_symmetry_space_group_name_H-M   'P 1'
_cell_length_a   7.21655331
_cell_length_b   7.21655331
_cell_length_c   3.63562300
_cell_angle_alpha   90.00000000
_cell_angle_beta   90.00000000
_cell_angle_gamma   90.16307726
_symmetry_Int_Tables_number   1
_chemical_formula_structural   ErLu3(Ni2Sn)2
_chemical_formula_sum   'Er1 Lu3 Ni4 Sn2'
_cell_volume   189.33754045
_cell_formula_units_Z   1
loop_
 _symmetry_equiv_pos_site_id
 _symmetry_equiv_pos_as_xyz
  1  'x, y, z'
loop_
 _atom_site_type_symbol
 _atom_site_label
 _atom_site_symmetry_multiplicity
 _atom_site_fract_x
 _atom_site_fract_y
 _atom_site_fract_z
 _atom_site_occupancy
  Er  Er0  1  0.827219  0.672781  0.500000  1
  Lu  Lu1  1  0.672276  0.172520  0.500000  1
  Lu  Lu2  1  0.327480  0.827724  0.500000  1
  Lu  Lu3  1  0.172588  0.327412  0.500000  1
  Ni  Ni4  1  0.877718  0.374973  0.000000  1
  Ni  Ni5  1  0.125027  0.622282  0.000000  1
  Ni  Ni6  1  0.376887  0.123113  0.000000  1
  Ni  Ni7  1  0.620709  0.879291  0.000000  1
  Sn  Sn8  1  0.499438  0.499343  0.000000  1
  Sn  Sn9  1  0.000657  0.000562  0.000000  1
