# generated using pymatgen
data_YbNi5Sb
_symmetry_space_group_name_H-M   'P 1'
_cell_length_a   4.86790700
_cell_length_b   7.94832600
_cell_length_c   10.13084900
_cell_angle_alpha   90.00000000
_cell_angle_beta   90.00000000
_cell_angle_gamma   90.00000000
_symmetry_Int_Tables_number   1
_chemical_formula_structural   YbNi5Sb
_chemical_formula_sum   'Yb4 Ni20 Sb4'
_cell_volume   391.97988953
_cell_formula_units_Z   4
loop_
 _symmetry_equiv_pos_site_id
 _symmetry_equiv_pos_as_xyz
  1  'x, y, z'
loop_
 _atom_site_type_symbol
 _atom_site_label
 _atom_site_symmetry_multiplicity
 _atom_site_fract_x
 _atom_site_fract_y
 _atom_site_fract_z
 _atom_site_occupancy
  Yb  Yb0  1  0.750000  0.245392  0.557606  1
  Yb  Yb1  1  0.250000  0.254608  0.057606  1
  Yb  Yb2  1  0.750000  0.745392  0.942394  1
  Yb  Yb3  1  0.250000  0.754608  0.442394  1
  Ni  Ni4  1  0.750000  0.912476  0.482127  1
  Ni  Ni5  1  0.250000  0.587524  0.982127  1
  Ni  Ni6  1  0.750000  0.412476  0.017873  1
  Ni  Ni7  1  0.250000  0.087524  0.517873  1
  Ni  Ni8  1  0.250000  0.186605  0.747019  1
  Ni  Ni9  1  0.750000  0.313395  0.247019  1
  Ni  Ni10  1  0.250000  0.686605  0.752981  1
  Ni  Ni11  1  0.750000  0.813395  0.252981  1
  Ni  Ni12  1  0.750000  0.554381  0.404454  1
  Ni  Ni13  1  0.250000  0.945619  0.904454  1
  Ni  Ni14  1  0.750000  0.054381  0.095546  1
  Ni  Ni15  1  0.250000  0.445619  0.595546  1
  Ni  Ni16  1  0.498610  0.065512  0.308216  1
  Ni  Ni17  1  0.501390  0.434488  0.808216  1
  Ni  Ni18  1  0.001390  0.565512  0.191784  1
  Ni  Ni19  1  0.998610  0.934488  0.691784  1
  Ni  Ni20  1  0.501390  0.934488  0.691784  1
  Ni  Ni21  1  0.498610  0.565512  0.191784  1
  Ni  Ni22  1  0.998610  0.434488  0.808216  1
  Ni  Ni23  1  0.001390  0.065512  0.308216  1
  Sb  Sb24  1  0.750000  0.642355  0.641240  1
  Sb  Sb25  1  0.250000  0.857645  0.141240  1
  Sb  Sb26  1  0.750000  0.142355  0.858760  1
  Sb  Sb27  1  0.250000  0.357645  0.358760  1
