# generated using pymatgen
data_NaCaBiI6
_symmetry_space_group_name_H-M   'P 1'
_cell_length_a   8.70079092
_cell_length_b   8.70080334
_cell_length_c   8.70072600
_cell_angle_alpha   54.12463266
_cell_angle_beta   54.12455724
_cell_angle_gamma   54.12447583
_symmetry_Int_Tables_number   1
_chemical_formula_structural   NaCaBiI6
_chemical_formula_sum   'Na1 Ca1 Bi1 I6'
_cell_volume   401.86712473
_cell_formula_units_Z   1
loop_
 _symmetry_equiv_pos_site_id
 _symmetry_equiv_pos_as_xyz
  1  'x, y, z'
loop_
 _atom_site_type_symbol
 _atom_site_label
 _atom_site_symmetry_multiplicity
 _atom_site_fract_x
 _atom_site_fract_y
 _atom_site_fract_z
 _atom_site_occupancy
  Na  Na0  1  0.669687  0.669684  0.669687  1
  Ca  Ca1  1  0.330817  0.330817  0.330817  1
  Bi  Bi2  1  0.999792  0.999791  0.999792  1
  I  I3  1  0.242782  0.593202  0.925222  1
  I  I4  1  0.593202  0.925223  0.242781  1
  I  I5  1  0.925225  0.242784  0.593199  1
  I  I6  1  0.747113  0.395931  0.095455  1
  I  I7  1  0.395930  0.095455  0.747114  1
  I  I8  1  0.095454  0.747114  0.395934  1
