# generated using pymatgen
data_Ti4Al3V(BiO5)4
_symmetry_space_group_name_H-M   'P 1'
_cell_length_a   5.89339500
_cell_length_b   7.69519406
_cell_length_c   8.56608444
_cell_angle_alpha   89.89757531
_cell_angle_beta   90.00000000
_cell_angle_gamma   90.00000000
_symmetry_Int_Tables_number   1
_chemical_formula_structural   Ti4Al3V(BiO5)4
_chemical_formula_sum   'Ti4 Al3 V1 Bi4 O20'
_cell_volume   388.47831725
_cell_formula_units_Z   1
loop_
 _symmetry_equiv_pos_site_id
 _symmetry_equiv_pos_as_xyz
  1  'x, y, z'
loop_
 _atom_site_type_symbol
 _atom_site_label
 _atom_site_symmetry_multiplicity
 _atom_site_fract_x
 _atom_site_fract_y
 _atom_site_fract_z
 _atom_site_occupancy
  Ti  Ti0  1  0.498934  0.876655  0.144694  1
  Ti  Ti1  1  0.498318  0.627892  0.641467  1
  Ti  Ti2  1  0.498318  0.372108  0.358533  1
  Ti  Ti3  1  0.498934  0.123345  0.855306  1
  Al  Al4  1  0.249143  0.500000  0.000000  1
  Al  Al5  1  0.750016  0.000000  0.500000  1
  Al  Al6  1  0.249598  0.000000  0.500000  1
  V  V7  1  0.747889  0.500000  0.000000  1
  Bi  Bi8  1  0.005651  0.838770  0.835039  1
  Bi  Bi9  1  0.001532  0.333470  0.662312  1
  Bi  Bi10  1  0.005651  0.161230  0.164961  1
  Bi  Bi11  1  0.001532  0.666530  0.337688  1
  O  O12  1  0.485799  0.653925  0.079024  1
  O  O13  1  0.000363  0.152087  0.444813  1
  O  O14  1  0.259400  0.890888  0.299830  1
  O  O15  1  0.707577  0.000000  0.000000  1
  O  O16  1  0.741142  0.620398  0.791563  1
  O  O17  1  0.738848  0.112108  0.700193  1
  O  O18  1  0.485799  0.346075  0.920976  1
  O  O19  1  0.288924  0.500000  0.500000  1
  O  O20  1  0.000363  0.847913  0.555187  1
  O  O21  1  0.259400  0.109112  0.700170  1
  O  O22  1  0.012432  0.657139  0.057150  1
  O  O23  1  0.741142  0.379602  0.208437  1
  O  O24  1  0.738848  0.887892  0.299807  1
  O  O25  1  0.263565  0.615368  0.798758  1
  O  O26  1  0.290982  0.000000  0.000000  1
  O  O27  1  0.499112  0.851514  0.572654  1
  O  O28  1  0.499112  0.148486  0.427346  1
  O  O29  1  0.705681  0.500000  0.500000  1
  O  O30  1  0.263565  0.384632  0.201242  1
  O  O31  1  0.012432  0.342861  0.942850  1
