# generated using pymatgen
data_Y2Er2BBr6
_symmetry_space_group_name_H-M   'P 1'
_cell_length_a   3.94824900
_cell_length_b   13.10487400
_cell_length_c   13.57555300
_cell_angle_alpha   90.00000000
_cell_angle_beta   90.00000000
_cell_angle_gamma   90.00000000
_symmetry_Int_Tables_number   1
_chemical_formula_structural   Y2Er2BBr6
_chemical_formula_sum   'Y4 Er4 B2 Br12'
_cell_volume   702.41683735
_cell_formula_units_Z   2
loop_
 _symmetry_equiv_pos_site_id
 _symmetry_equiv_pos_as_xyz
  1  'x, y, z'
loop_
 _atom_site_type_symbol
 _atom_site_label
 _atom_site_symmetry_multiplicity
 _atom_site_fract_x
 _atom_site_fract_y
 _atom_site_fract_z
 _atom_site_occupancy
  Y  Y0  1  0.500000  0.122794  0.855693  1
  Y  Y1  1  0.500000  0.877206  0.144307  1
  Y  Y2  1  0.500000  0.622794  0.644307  1
  Y  Y3  1  0.500000  0.377206  0.355693  1
  Er  Er4  1  0.000000  0.100758  0.080064  1
  Er  Er5  1  0.000000  0.899242  0.919936  1
  Er  Er6  1  0.000000  0.600758  0.419936  1
  Er  Er7  1  0.000000  0.399242  0.580064  1
  B  B8  1  0.500000  0.000000  0.000000  1
  B  B9  1  0.500000  0.500000  0.500000  1
  Br  Br10  1  0.500000  0.268811  0.681276  1
  Br  Br11  1  0.500000  0.731189  0.318724  1
  Br  Br12  1  0.500000  0.768811  0.818724  1
  Br  Br13  1  0.500000  0.231189  0.181276  1
  Br  Br14  1  0.000000  0.261219  0.932254  1
  Br  Br15  1  0.000000  0.738781  0.067746  1
  Br  Br16  1  0.000000  0.481782  0.239307  1
  Br  Br17  1  0.000000  0.518218  0.760693  1
  Br  Br18  1  0.000000  0.981782  0.260693  1
  Br  Br19  1  0.000000  0.018218  0.739307  1
  Br  Br20  1  0.000000  0.238781  0.432254  1
  Br  Br21  1  0.000000  0.761219  0.567746  1
