# generated using pymatgen
data_CaAc4Ga2Sn
_symmetry_space_group_name_H-M   'P 1'
_cell_length_a   9.72037319
_cell_length_b   9.72037261
_cell_length_c   9.72037279
_cell_angle_alpha   128.13193483
_cell_angle_beta   128.13193525
_cell_angle_gamma   76.41138926
_symmetry_Int_Tables_number   1
_chemical_formula_structural   CaAc4Ga2Sn
_chemical_formula_sum   'Ca2 Ac8 Ga4 Sn2'
_cell_volume   552.13944748
_cell_formula_units_Z   2
loop_
 _symmetry_equiv_pos_site_id
 _symmetry_equiv_pos_as_xyz
  1  'x, y, z'
loop_
 _atom_site_type_symbol
 _atom_site_label
 _atom_site_symmetry_multiplicity
 _atom_site_fract_x
 _atom_site_fract_y
 _atom_site_fract_z
 _atom_site_occupancy
  Ca  Ca0  1  0.000000  0.000000  0.000000  1
  Ca  Ca1  1  0.500000  0.500000  0.000000  1
  Ac  Ac2  1  0.812536  0.312536  0.838499  1
  Ac  Ac3  1  0.187464  0.687464  0.161501  1
  Ac  Ac4  1  0.474038  0.974038  0.161501  1
  Ac  Ac5  1  0.312536  0.474038  0.500000  1
  Ac  Ac6  1  0.025962  0.187464  0.500000  1
  Ac  Ac7  1  0.525962  0.025962  0.838499  1
  Ac  Ac8  1  0.687464  0.525962  0.500000  1
  Ac  Ac9  1  0.974038  0.812536  0.500000  1
  Ga  Ga10  1  0.120180  0.620180  0.740361  1
  Ga  Ga11  1  0.879820  0.379820  0.259639  1
  Ga  Ga12  1  0.620180  0.879820  0.500000  1
  Ga  Ga13  1  0.379820  0.120180  0.500000  1
  Sn  Sn14  1  0.250000  0.250000  0.000000  1
  Sn  Sn15  1  0.750000  0.750000  0.000000  1
