# generated using pymatgen
data_Dy5ErAl24Ir3Os5
_symmetry_space_group_name_H-M   'P 1'
_cell_length_a   8.79162773
_cell_length_b   8.80360239
_cell_length_c   9.58332702
_cell_angle_alpha   89.99866418
_cell_angle_beta   89.82616471
_cell_angle_gamma   119.48598913
_symmetry_Int_Tables_number   1
_chemical_formula_structural   Dy5ErAl24Ir3Os5
_chemical_formula_sum   'Dy5 Er1 Al24 Ir3 Os5'
_cell_volume   645.65453270
_cell_formula_units_Z   1
loop_
 _symmetry_equiv_pos_site_id
 _symmetry_equiv_pos_as_xyz
  1  'x, y, z'
loop_
 _atom_site_type_symbol
 _atom_site_label
 _atom_site_symmetry_multiplicity
 _atom_site_fract_x
 _atom_site_fract_y
 _atom_site_fract_z
 _atom_site_occupancy
  Dy  Dy0  1  0.188814  0.385320  0.251351  1
  Dy  Dy1  1  0.811164  0.614592  0.748673  1
  Dy  Dy2  1  0.612942  0.811557  0.250100  1
  Dy  Dy3  1  0.387205  0.188459  0.749890  1
  Dy  Dy4  1  0.195243  0.808773  0.250982  1
  Er  Er5  1  0.804170  0.191669  0.748969  1
  Al  Al6  1  0.333579  0.667968  0.024819  1
  Al  Al7  1  0.666611  0.331903  0.974902  1
  Al  Al8  1  0.667743  0.332450  0.524316  1
  Al  Al9  1  0.332398  0.667392  0.475941  1
  Al  Al10  1  0.162311  0.326411  0.576741  1
  Al  Al11  1  0.837462  0.673439  0.423466  1
  Al  Al12  1  0.673126  0.836943  0.575965  1
  Al  Al13  1  0.835935  0.673716  0.076629  1
  Al  Al14  1  0.326995  0.163273  0.424226  1
  Al  Al15  1  0.163869  0.326170  0.923186  1
  Al  Al16  1  0.164015  0.835367  0.575997  1
  Al  Al17  1  0.326547  0.163091  0.076456  1
  Al  Al18  1  0.835980  0.164617  0.424328  1
  Al  Al19  1  0.673596  0.837145  0.923348  1
  Al  Al20  1  0.834457  0.162974  0.075433  1
  Al  Al21  1  0.165563  0.837032  0.924226  1
  Al  Al22  1  0.561387  0.125846  0.249638  1
  Al  Al23  1  0.439046  0.874449  0.750350  1
  Al  Al24  1  0.875062  0.439353  0.250490  1
  Al  Al25  1  0.124650  0.560236  0.749548  1
  Al  Al26  1  0.561271  0.438937  0.249652  1
  Al  Al27  1  0.438705  0.561075  0.750355  1
  Al  Al28  1  0.999120  0.001748  0.250053  1
  Al  Al29  1  0.000604  0.998531  0.749953  1
  Ir  Ir30  1  0.999873  0.499742  0.999839  1
  Ir  Ir31  1  0.500072  0.499913  0.999972  1
  Ir  Ir32  1  0.500077  0.499915  0.500043  1
  Os  Os33  1  0.500295  0.000165  0.999787  1
  Os  Os34  1  0.500256  0.000140  0.500186  1
  Os  Os35  1  0.999843  0.499719  0.500197  1
  Os  Os36  1  0.000011  0.999994  0.999960  1
  Os  Os37  1  0.000002  0.999976  0.500038  1
