# generated using pymatgen
data_Ho3Er2TmIr2
_symmetry_space_group_name_H-M   'P 1'
_cell_length_a   6.35975623
_cell_length_b   7.21375100
_cell_length_c   9.10794333
_cell_angle_alpha   90.00000000
_cell_angle_beta   90.12772462
_cell_angle_gamma   90.00000000
_symmetry_Int_Tables_number   1
_chemical_formula_structural   Ho3Er2TmIr2
_chemical_formula_sum   'Ho6 Er4 Tm2 Ir4'
_cell_volume   417.85043363
_cell_formula_units_Z   2
loop_
 _symmetry_equiv_pos_site_id
 _symmetry_equiv_pos_as_xyz
  1  'x, y, z'
loop_
 _atom_site_type_symbol
 _atom_site_label
 _atom_site_symmetry_multiplicity
 _atom_site_fract_x
 _atom_site_fract_y
 _atom_site_fract_z
 _atom_site_occupancy
  Ho  Ho0  1  0.327779  0.677496  0.061781  1
  Ho  Ho1  1  0.172221  0.177496  0.438219  1
  Ho  Ho2  1  0.870843  0.533742  0.250119  1
  Ho  Ho3  1  0.629157  0.033742  0.249881  1
  Ho  Ho4  1  0.128627  0.466114  0.749937  1
  Ho  Ho5  1  0.371373  0.966114  0.750063  1
  Er  Er6  1  0.671999  0.322688  0.937648  1
  Er  Er7  1  0.828001  0.822688  0.562352  1
  Er  Er8  1  0.328337  0.676989  0.438041  1
  Er  Er9  1  0.171663  0.176989  0.061959  1
  Tm  Tm10  1  0.671844  0.323054  0.562395  1
  Tm  Tm11  1  0.828156  0.823054  0.937605  1
  Ir  Ir12  1  0.044103  0.883328  0.249953  1
  Ir  Ir13  1  0.455897  0.383328  0.250047  1
  Ir  Ir14  1  0.954799  0.116589  0.750415  1
  Ir  Ir15  1  0.545201  0.616589  0.749585  1
