# generated using pymatgen
data_Ho16Cd3InPd4
_symmetry_space_group_name_H-M   'P 1'
_cell_length_a   9.67242901
_cell_length_b   9.67242879
_cell_length_c   9.67242966
_cell_angle_alpha   59.84859918
_cell_angle_beta   59.84860160
_cell_angle_gamma   59.84859633
_symmetry_Int_Tables_number   1
_chemical_formula_structural   Ho16Cd3InPd4
_chemical_formula_sum   'Ho16 Cd3 In1 Pd4'
_cell_volume   637.67136544
_cell_formula_units_Z   1
loop_
 _symmetry_equiv_pos_site_id
 _symmetry_equiv_pos_as_xyz
  1  'x, y, z'
loop_
 _atom_site_type_symbol
 _atom_site_label
 _atom_site_symmetry_multiplicity
 _atom_site_fract_x
 _atom_site_fract_y
 _atom_site_fract_z
 _atom_site_occupancy
  Ho  Ho0  1  0.351845  0.351845  0.351845  1
  Ho  Ho1  1  0.355157  0.355157  0.938246  1
  Ho  Ho2  1  0.355157  0.938246  0.355157  1
  Ho  Ho3  1  0.938246  0.355157  0.355157  1
  Ho  Ho4  1  0.810326  0.189696  0.189696  1
  Ho  Ho5  1  0.190087  0.809579  0.809579  1
  Ho  Ho6  1  0.189696  0.810326  0.189696  1
  Ho  Ho7  1  0.809579  0.190087  0.809579  1
  Ho  Ho8  1  0.189696  0.189696  0.810326  1
  Ho  Ho9  1  0.809579  0.809579  0.190087  1
  Ho  Ho10  1  0.935299  0.566591  0.566591  1
  Ho  Ho11  1  0.565017  0.934797  0.934797  1
  Ho  Ho12  1  0.566591  0.935299  0.566591  1
  Ho  Ho13  1  0.934797  0.565017  0.934797  1
  Ho  Ho14  1  0.566591  0.566591  0.935299  1
  Ho  Ho15  1  0.934797  0.934797  0.565017  1
  Cd  Cd16  1  0.581489  0.581489  0.251986  1
  Cd  Cd17  1  0.581489  0.251986  0.581489  1
  Cd  Cd18  1  0.251986  0.581489  0.581489  1
  In  In19  1  0.582431  0.582431  0.582431  1
  Pd  Pd20  1  0.144525  0.144525  0.144525  1
  Pd  Pd21  1  0.143798  0.143798  0.568021  1
  Pd  Pd22  1  0.143798  0.568021  0.143798  1
  Pd  Pd23  1  0.568021  0.143798  0.143798  1
