# generated using pymatgen
data_La5Re3(P3Rh4)4
_symmetry_space_group_name_H-M   'P 1'
_cell_length_a   12.81609700
_cell_length_b   12.81609848
_cell_length_c   4.04603800
_cell_angle_alpha   90.00000000
_cell_angle_beta   90.00000000
_cell_angle_gamma   119.99999876
_symmetry_Int_Tables_number   1
_chemical_formula_structural   La5Re3(P3Rh4)4
_chemical_formula_sum   'La5 Re3 P12 Rh16'
_cell_volume   575.53563159
_cell_formula_units_Z   1
loop_
 _symmetry_equiv_pos_site_id
 _symmetry_equiv_pos_as_xyz
  1  'x, y, z'
loop_
 _atom_site_type_symbol
 _atom_site_label
 _atom_site_symmetry_multiplicity
 _atom_site_fract_x
 _atom_site_fract_y
 _atom_site_fract_z
 _atom_site_occupancy
  La  La0  1  0.000000  0.815626  0.500000  1
  La  La1  1  0.184374  0.184374  0.500000  1
  La  La2  1  0.815626  0.000000  0.500000  1
  La  La3  1  0.333333  0.666667  0.000000  1
  La  La4  1  0.666667  0.333333  0.000000  1
  Re  Re5  1  0.000000  0.289715  0.500000  1
  Re  Re6  1  0.710285  0.710285  0.500000  1
  Re  Re7  1  0.289715  0.000000  0.500000  1
  P  P8  1  0.000000  0.184607  0.000000  1
  P  P9  1  0.815393  0.815393  0.000000  1
  P  P10  1  0.184607  0.000000  0.000000  1
  P  P11  1  0.521047  0.690282  0.500000  1
  P  P12  1  0.309718  0.830765  0.500000  1
  P  P13  1  0.169235  0.478953  0.500000  1
  P  P14  1  0.478953  0.169235  0.500000  1
  P  P15  1  0.690282  0.521047  0.500000  1
  P  P16  1  0.830765  0.309718  0.500000  1
  P  P17  1  0.000000  0.630169  0.000000  1
  P  P18  1  0.369831  0.369831  0.000000  1
  P  P19  1  0.630169  0.000000  0.000000  1
  Rh  Rh20  1  0.620160  0.803540  0.000000  1
  Rh  Rh21  1  0.196460  0.816620  0.000000  1
  Rh  Rh22  1  0.183380  0.379840  0.000000  1
  Rh  Rh23  1  0.379840  0.183380  0.000000  1
  Rh  Rh24  1  0.803540  0.620160  0.000000  1
  Rh  Rh25  1  0.816620  0.196460  0.000000  1
  Rh  Rh26  1  0.510961  0.873047  0.500000  1
  Rh  Rh27  1  0.126953  0.637913  0.500000  1
  Rh  Rh28  1  0.362087  0.489039  0.500000  1
  Rh  Rh29  1  0.489039  0.362087  0.500000  1
  Rh  Rh30  1  0.873047  0.510961  0.500000  1
  Rh  Rh31  1  0.637913  0.126953  0.500000  1
  Rh  Rh32  1  0.000000  0.000000  0.000000  1
  Rh  Rh33  1  0.000000  0.450318  0.000000  1
  Rh  Rh34  1  0.549682  0.549682  0.000000  1
  Rh  Rh35  1  0.450318  0.000000  0.000000  1
