# generated using pymatgen
data_Cs4Zr6PBr18
_symmetry_space_group_name_H-M   'P 1'
_cell_length_a   10.90480354
_cell_length_b   11.24612918
_cell_length_c   11.35202974
_cell_angle_alpha   118.36987097
_cell_angle_beta   100.48276831
_cell_angle_gamma   104.24629786
_symmetry_Int_Tables_number   1
_chemical_formula_structural   Cs4Zr6PBr18
_chemical_formula_sum   'Cs4 Zr6 P1 Br18'
_cell_volume   1112.00806258
_cell_formula_units_Z   1
loop_
 _symmetry_equiv_pos_site_id
 _symmetry_equiv_pos_as_xyz
  1  'x, y, z'
loop_
 _atom_site_type_symbol
 _atom_site_label
 _atom_site_symmetry_multiplicity
 _atom_site_fract_x
 _atom_site_fract_y
 _atom_site_fract_z
 _atom_site_occupancy
  Cs  Cs0  1  0.662064  0.537818  0.230770  1
  Cs  Cs1  1  0.337936  0.462182  0.769230  1
  Cs  Cs2  1  0.696655  0.228263  0.564717  1
  Cs  Cs3  1  0.303345  0.771737  0.435283  1
  Zr  Zr4  1  0.150670  0.056103  0.226693  1
  Zr  Zr5  1  0.849330  0.943897  0.773307  1
  Zr  Zr6  1  0.861609  0.121377  0.127740  1
  Zr  Zr7  1  0.138391  0.878623  0.872260  1
  Zr  Zr8  1  0.145280  0.235368  0.045125  1
  Zr  Zr9  1  0.854720  0.764632  0.954875  1
  P  P10  1  0.000000  0.000000  0.000000  1
  Br  Br11  1  0.007152  0.393758  0.188664  1
  Br  Br12  1  0.992848  0.606242  0.811336  1
  Br  Br13  1  0.323701  0.324635  0.302610  1
  Br  Br14  1  0.676299  0.675365  0.697390  1
  Br  Br15  1  0.310998  0.501333  0.097717  1
  Br  Br16  1  0.689002  0.498667  0.902283  1
  Br  Br17  1  0.003998  0.802994  0.201946  1
  Br  Br18  1  0.996002  0.197006  0.798054  1
  Br  Br19  1  0.710426  0.256921  0.270128  1
  Br  Br20  1  0.289574  0.743079  0.729872  1
  Br  Br21  1  0.311168  0.126439  0.909348  1
  Br  Br22  1  0.688832  0.873561  0.090652  1
  Br  Br23  1  0.014694  0.196319  0.392433  1
  Br  Br24  1  0.985306  0.803681  0.607567  1
  Br  Br25  1  0.315229  0.928218  0.109258  1
  Br  Br26  1  0.684771  0.071782  0.890742  1
  Br  Br27  1  0.323165  0.118840  0.481448  1
  Br  Br28  1  0.676835  0.881160  0.518552  1
