# generated using pymatgen
data_Sr3CaCuPd7
_symmetry_space_group_name_H-M   'P 1'
_cell_length_a   9.43350852
_cell_length_b   9.43350883
_cell_length_c   9.43350800
_cell_angle_alpha   34.76996846
_cell_angle_beta   34.76996519
_cell_angle_gamma   34.76996312
_symmetry_Int_Tables_number   1
_chemical_formula_structural   Sr3CaCuPd7
_chemical_formula_sum   'Sr3 Ca1 Cu1 Pd7'
_cell_volume   243.68224406
_cell_formula_units_Z   1
loop_
 _symmetry_equiv_pos_site_id
 _symmetry_equiv_pos_as_xyz
  1  'x, y, z'
loop_
 _atom_site_type_symbol
 _atom_site_label
 _atom_site_symmetry_multiplicity
 _atom_site_fract_x
 _atom_site_fract_y
 _atom_site_fract_z
 _atom_site_occupancy
  Sr  Sr0  1  0.563182  0.563182  0.563182  1
  Sr  Sr1  1  0.436554  0.436554  0.436554  1
  Sr  Sr2  1  0.937829  0.937829  0.937829  1
  Ca  Ca3  1  0.063116  0.063116  0.063116  1
  Cu  Cu4  1  0.749748  0.749748  0.749748  1
  Pd  Pd5  1  0.250065  0.250065  0.250065  1
  Pd  Pd6  1  0.002127  0.503863  0.503863  1
  Pd  Pd7  1  0.496334  0.996659  0.996659  1
  Pd  Pd8  1  0.503863  0.002127  0.503863  1
  Pd  Pd9  1  0.996659  0.496334  0.996659  1
  Pd  Pd10  1  0.503863  0.503863  0.002127  1
  Pd  Pd11  1  0.996659  0.996659  0.496334  1
