# generated using pymatgen
data_Nd4TmTa2TlO14
_symmetry_space_group_name_H-M   'P 1'
_cell_length_a   6.50045038
_cell_length_b   6.70191998
_cell_length_c   7.78446100
_cell_angle_alpha   90.00000000
_cell_angle_beta   90.00000000
_cell_angle_gamma   110.75529495
_symmetry_Int_Tables_number   1
_chemical_formula_structural   Nd4TmTa2TlO14
_chemical_formula_sum   'Nd4 Tm1 Ta2 Tl1 O14'
_cell_volume   317.12496636
_cell_formula_units_Z   1
loop_
 _symmetry_equiv_pos_site_id
 _symmetry_equiv_pos_as_xyz
  1  'x, y, z'
loop_
 _atom_site_type_symbol
 _atom_site_label
 _atom_site_symmetry_multiplicity
 _atom_site_fract_x
 _atom_site_fract_y
 _atom_site_fract_z
 _atom_site_occupancy
  Nd  Nd0  1  0.505033  0.508023  0.491879  1
  Nd  Nd1  1  0.505033  0.508023  0.008121  1
  Nd  Nd2  1  0.552708  0.009126  0.750000  1
  Nd  Nd3  1  0.469622  0.000717  0.250000  1
  Tm  Tm4  1  0.996487  0.528438  0.250000  1
  Ta  Ta5  1  0.006231  0.005821  0.497047  1
  Ta  Ta6  1  0.006231  0.005821  0.002953  1
  Tl  Tl7  1  0.003509  0.523174  0.750000  1
  O  O8  1  0.949948  0.025110  0.750000  1
  O  O9  1  0.070172  0.940208  0.250000  1
  O  O10  1  0.352603  0.630779  0.250000  1
  O  O11  1  0.656811  0.378470  0.750000  1
  O  O12  1  0.350043  0.622765  0.750000  1
  O  O13  1  0.632575  0.375227  0.250000  1
  O  O14  1  0.326479  0.085213  0.967387  1
  O  O15  1  0.672716  0.909867  0.476313  1
  O  O16  1  0.326479  0.085213  0.532613  1
  O  O17  1  0.672716  0.909867  0.023687  1
  O  O18  1  0.042822  0.296854  0.448293  1
  O  O19  1  0.929482  0.677215  0.994203  1
  O  O20  1  0.929482  0.677215  0.505797  1
  O  O21  1  0.042822  0.296854  0.051707  1
