# generated using pymatgen
data_Rb2LiTa(ZnAs2)2
_symmetry_space_group_name_H-M   'P 1'
_cell_length_a   7.89976767
_cell_length_b   7.89976800
_cell_length_c   5.95489400
_cell_angle_alpha   90.00000000
_cell_angle_beta   90.00000000
_cell_angle_gamma   135.64910262
_symmetry_Int_Tables_number   1
_chemical_formula_structural   Rb2LiTa(ZnAs2)2
_chemical_formula_sum   'Rb2 Li1 Ta1 Zn2 As4'
_cell_volume   259.78341129
_cell_formula_units_Z   1
loop_
 _symmetry_equiv_pos_site_id
 _symmetry_equiv_pos_as_xyz
  1  'x, y, z'
loop_
 _atom_site_type_symbol
 _atom_site_label
 _atom_site_symmetry_multiplicity
 _atom_site_fract_x
 _atom_site_fract_y
 _atom_site_fract_z
 _atom_site_occupancy
  Rb  Rb0  1  0.500000  0.000000  0.254532  1
  Rb  Rb1  1  0.000000  0.500000  0.745468  1
  Li  Li2  1  0.500000  0.500000  0.500000  1
  Ta  Ta3  1  0.000000  0.000000  0.000000  1
  Zn  Zn4  1  0.500000  0.500000  0.000000  1
  Zn  Zn5  1  0.000000  0.000000  0.500000  1
  As  As6  1  0.658644  0.862356  0.761188  1
  As  As7  1  0.137644  0.341356  0.238812  1
  As  As8  1  0.862356  0.658644  0.238812  1
  As  As9  1  0.341356  0.137644  0.761188  1
