# generated using pymatgen
data_TbDyV3P7Rh9
_symmetry_space_group_name_H-M   'P 1'
_cell_length_a   3.85974900
_cell_length_b   9.54011884
_cell_length_c   9.53875325
_cell_angle_alpha   119.99923035
_cell_angle_beta   90.00071435
_cell_angle_gamma   90.00004048
_symmetry_Int_Tables_number   1
_chemical_formula_structural   TbDyV3P7Rh9
_chemical_formula_sum   'Tb1 Dy1 V3 P7 Rh9'
_cell_volume   304.18546806
_cell_formula_units_Z   1
loop_
 _symmetry_equiv_pos_site_id
 _symmetry_equiv_pos_as_xyz
  1  'x, y, z'
loop_
 _atom_site_type_symbol
 _atom_site_label
 _atom_site_symmetry_multiplicity
 _atom_site_fract_x
 _atom_site_fract_y
 _atom_site_fract_z
 _atom_site_occupancy
  Tb  Tb0  1  0.261756  0.666451  0.333302  1
  Dy  Dy1  1  0.761528  0.333259  0.666561  1
  V  V2  1  0.762104  0.092514  0.875925  1
  V  V3  1  0.762067  0.124620  0.217115  1
  V  V4  1  0.762058  0.782739  0.907279  1
  P  P5  1  0.262455  0.000152  0.000190  1
  P  P6  1  0.761914  0.885146  0.596809  1
  P  P7  1  0.761904  0.403146  0.288196  1
  P  P8  1  0.761922  0.711767  0.115160  1
  P  P9  1  0.261712  0.116725  0.412180  1
  P  P10  1  0.261675  0.587737  0.704625  1
  P  P11  1  0.261686  0.295545  0.882966  1
  Rh  Rh12  1  0.262004  0.885706  0.158436  1
  Rh  Rh13  1  0.262002  0.841573  0.727312  1
  Rh  Rh14  1  0.262017  0.273015  0.114398  1
  Rh  Rh15  1  0.761851  0.612188  0.561049  1
  Rh  Rh16  1  0.761886  0.438753  0.050822  1
  Rh  Rh17  1  0.761876  0.948901  0.387784  1
  Rh  Rh18  1  0.261829  0.367679  0.437028  1
  Rh  Rh19  1  0.261874  0.563004  0.930461  1
  Rh  Rh20  1  0.261879  0.069378  0.632402  1
