# generated using pymatgen
data_Nd2Sm3Zr3(Ni4As3)4
_symmetry_space_group_name_H-M   'P 1'
_cell_length_a   12.82074302
_cell_length_b   12.82074255
_cell_length_c   3.98163800
_cell_angle_alpha   90.00000000
_cell_angle_beta   90.00000000
_cell_angle_gamma   119.99305710
_symmetry_Int_Tables_number   1
_chemical_formula_structural   Nd2Sm3Zr3(Ni4As3)4
_chemical_formula_sum   'Nd2 Sm3 Zr3 Ni16 As12'
_cell_volume   566.82521074
_cell_formula_units_Z   1
loop_
 _symmetry_equiv_pos_site_id
 _symmetry_equiv_pos_as_xyz
  1  'x, y, z'
loop_
 _atom_site_type_symbol
 _atom_site_label
 _atom_site_symmetry_multiplicity
 _atom_site_fract_x
 _atom_site_fract_y
 _atom_site_fract_z
 _atom_site_occupancy
  Nd  Nd0  1  0.666527  0.333392  0.000000  1
  Nd  Nd1  1  0.333393  0.666528  0.000000  1
  Sm  Sm2  1  0.186622  0.000126  0.500001  1
  Sm  Sm3  1  0.000126  0.186622  0.500001  1
  Sm  Sm4  1  0.813291  0.813292  0.500001  1
  Zr  Zr5  1  0.567397  0.000030  0.000000  1
  Zr  Zr6  1  0.432493  0.432493  0.000000  1
  Zr  Zr7  1  0.000030  0.567397  0.000000  1
  Ni  Ni8  1  0.999982  0.999982  0.000000  1
  Ni  Ni9  1  0.807847  0.184631  0.000000  1
  Ni  Ni10  1  0.376499  0.192223  0.000000  1
  Ni  Ni11  1  0.192223  0.376499  0.000000  1
  Ni  Ni12  1  0.815572  0.623403  0.000000  1
  Ni  Ni13  1  0.184632  0.807847  0.000000  1
  Ni  Ni14  1  0.623403  0.815572  0.000000  1
  Ni  Ni15  1  0.726027  0.999952  0.500001  1
  Ni  Ni16  1  0.484641  0.118666  0.500001  1
  Ni  Ni17  1  0.273925  0.273925  0.500001  1
  Ni  Ni18  1  0.881269  0.365968  0.500001  1
  Ni  Ni19  1  0.118666  0.484641  0.500001  1
  Ni  Ni20  1  0.634036  0.515303  0.500001  1
  Ni  Ni21  1  0.515303  0.634037  0.500001  1
  Ni  Ni22  1  0.999952  0.726027  0.500001  1
  Ni  Ni23  1  0.365967  0.881269  0.500001  1
  As  As24  1  0.360368  0.000088  0.000000  1
  As  As25  1  0.821803  0.000108  0.000000  1
  As  As26  1  0.178402  0.178402  0.000000  1
  As  As27  1  0.000088  0.360368  0.000000  1
  As  As28  1  0.639613  0.639613  0.000000  1
  As  As29  1  0.000108  0.821803  0.000000  1
  As  As30  1  0.697234  0.171506  0.500001  1
  As  As31  1  0.474146  0.302794  0.500001  1
  As  As32  1  0.302793  0.474145  0.500001  1
  As  As33  1  0.828546  0.525706  0.500001  1
  As  As34  1  0.171506  0.697235  0.500001  1
  As  As35  1  0.525705  0.828546  0.500001  1
