# generated using pymatgen
data_CeNdZr3Ge4
_symmetry_space_group_name_H-M   'P 1'
_cell_length_a   7.53492800
_cell_length_b   7.53492800
_cell_length_c   13.85700700
_cell_angle_alpha   90.00000000
_cell_angle_beta   90.00000000
_cell_angle_gamma   90.00000000
_symmetry_Int_Tables_number   1
_chemical_formula_structural   CeNdZr3Ge4
_chemical_formula_sum   'Ce4 Nd4 Zr12 Ge16'
_cell_volume   786.73351192
_cell_formula_units_Z   4
loop_
 _symmetry_equiv_pos_site_id
 _symmetry_equiv_pos_as_xyz
  1  'x, y, z'
loop_
 _atom_site_type_symbol
 _atom_site_label
 _atom_site_symmetry_multiplicity
 _atom_site_fract_x
 _atom_site_fract_y
 _atom_site_fract_z
 _atom_site_occupancy
  Ce  Ce0  1  0.657082  0.998802  0.966247  1
  Ce  Ce1  1  0.342918  0.001198  0.466247  1
  Ce  Ce2  1  0.498802  0.842918  0.716247  1
  Ce  Ce3  1  0.501198  0.157082  0.216247  1
  Nd  Nd4  1  0.001519  0.341185  0.533053  1
  Nd  Nd5  1  0.998481  0.658815  0.033053  1
  Nd  Nd6  1  0.841185  0.498481  0.283053  1
  Nd  Nd7  1  0.158815  0.501519  0.783053  1
  Zr  Zr8  1  0.825308  0.169810  0.750764  1
  Zr  Zr9  1  0.174692  0.830190  0.250764  1
  Zr  Zr10  1  0.669810  0.674692  0.500764  1
  Zr  Zr11  1  0.330190  0.325308  0.000764  1
  Zr  Zr12  1  0.504701  0.341161  0.623223  1
  Zr  Zr13  1  0.495299  0.658839  0.123223  1
  Zr  Zr14  1  0.841161  0.995299  0.373223  1
  Zr  Zr15  1  0.158839  0.004701  0.873223  1
  Zr  Zr16  1  0.658660  0.495779  0.875819  1
  Zr  Zr17  1  0.341340  0.504221  0.375819  1
  Zr  Zr18  1  0.995779  0.841340  0.625819  1
  Zr  Zr19  1  0.004221  0.158660  0.125819  1
  Ge  Ge20  1  0.628445  0.298250  0.429546  1
  Ge  Ge21  1  0.371555  0.701750  0.929546  1
  Ge  Ge22  1  0.798250  0.871555  0.179546  1
  Ge  Ge23  1  0.201750  0.128445  0.679546  1
  Ge  Ge24  1  0.698070  0.367464  0.070717  1
  Ge  Ge25  1  0.301930  0.632536  0.570717  1
  Ge  Ge26  1  0.867464  0.801930  0.820717  1
  Ge  Ge27  1  0.132536  0.198070  0.320717  1
  Ge  Ge28  1  0.706221  0.037405  0.567383  1
  Ge  Ge29  1  0.293779  0.962595  0.067383  1
  Ge  Ge30  1  0.537405  0.793779  0.317383  1
  Ge  Ge31  1  0.462595  0.206221  0.817383  1
  Ge  Ge32  1  0.960662  0.291253  0.933247  1
  Ge  Ge33  1  0.039338  0.708747  0.433247  1
  Ge  Ge34  1  0.791253  0.539338  0.683247  1
  Ge  Ge35  1  0.208747  0.460662  0.183247  1
