# generated using pymatgen
data_TiHgTeO6
_symmetry_space_group_name_H-M   'P 1'
_cell_length_a   5.25484408
_cell_length_b   5.25488406
_cell_length_c   4.99410301
_cell_angle_alpha   90.01674093
_cell_angle_beta   89.99187792
_cell_angle_gamma   120.00077424
_symmetry_Int_Tables_number   1
_chemical_formula_structural   TiHgTeO6
_chemical_formula_sum   'Ti1 Hg1 Te1 O6'
_cell_volume   119.42842205
_cell_formula_units_Z   1
loop_
 _symmetry_equiv_pos_site_id
 _symmetry_equiv_pos_as_xyz
  1  'x, y, z'
loop_
 _atom_site_type_symbol
 _atom_site_label
 _atom_site_symmetry_multiplicity
 _atom_site_fract_x
 _atom_site_fract_y
 _atom_site_fract_z
 _atom_site_occupancy
  Ti  Ti0  1  0.666643  0.333324  0.500005  1
  Hg  Hg1  1  0.999994  0.999996  0.000003  1
  Te  Te2  1  0.333335  0.666678  0.499997  1
  O  O3  1  0.372340  0.995974  0.285945  1
  O  O4  1  0.003983  0.376271  0.285938  1
  O  O5  1  0.623693  0.627605  0.285926  1
  O  O6  1  0.623695  0.996081  0.714070  1
  O  O7  1  0.372339  0.376364  0.714056  1
  O  O8  1  0.003981  0.627708  0.714056  1
