# generated using pymatgen
data_Li8Er3Tm5Sn7Sb
_symmetry_space_group_name_H-M   'P 1'
_cell_length_a   9.34330060
_cell_length_b   9.34330173
_cell_length_c   7.13851005
_cell_angle_alpha   90.05640371
_cell_angle_beta   89.94359872
_cell_angle_gamma   119.96940642
_symmetry_Int_Tables_number   1
_chemical_formula_structural   Li8Er3Tm5Sn7Sb
_chemical_formula_sum   'Li8 Er3 Tm5 Sn7 Sb1'
_cell_volume   539.84915240
_cell_formula_units_Z   1
loop_
 _symmetry_equiv_pos_site_id
 _symmetry_equiv_pos_as_xyz
  1  'x, y, z'
loop_
 _atom_site_type_symbol
 _atom_site_label
 _atom_site_symmetry_multiplicity
 _atom_site_fract_x
 _atom_site_fract_y
 _atom_site_fract_z
 _atom_site_occupancy
  Li  Li0  1  0.832132  0.665806  0.712679  1
  Li  Li1  1  0.833131  0.166869  0.713170  1
  Li  Li2  1  0.333700  0.666300  0.821321  1
  Li  Li3  1  0.666781  0.333219  0.320752  1
  Li  Li4  1  0.666264  0.833376  0.213602  1
  Li  Li5  1  0.166624  0.333736  0.213602  1
  Li  Li6  1  0.166913  0.833087  0.213644  1
  Li  Li7  1  0.334194  0.167868  0.712679  1
  Er  Er8  1  0.999109  0.000891  0.002354  1
  Er  Er9  1  0.999142  0.000858  0.499166  1
  Er  Er10  1  0.511138  0.488862  0.006494  1
  Tm  Tm11  1  0.020503  0.509016  0.504915  1
  Tm  Tm12  1  0.490984  0.979497  0.504915  1
  Tm  Tm13  1  0.513587  0.022919  0.008386  1
  Tm  Tm14  1  0.977081  0.486413  0.008386  1
  Tm  Tm15  1  0.488744  0.511256  0.506094  1
  Sn  Sn16  1  0.666933  0.333067  0.740970  1
  Sn  Sn17  1  0.332743  0.667257  0.241408  1
  Sn  Sn18  1  0.833056  0.166944  0.268737  1
  Sn  Sn19  1  0.166228  0.333683  0.769116  1
  Sn  Sn20  1  0.333693  0.165979  0.269434  1
  Sn  Sn21  1  0.834021  0.666307  0.269434  1
  Sn  Sn22  1  0.666317  0.833772  0.769116  1
  Sb  Sb23  1  0.166980  0.833020  0.767623  1
