# generated using pymatgen
data_Er8Ga12CoNi3
_symmetry_space_group_name_H-M   'P 1'
_cell_length_a   6.95524900
_cell_length_b   8.69699869
_cell_length_c   8.69699900
_cell_angle_alpha   119.99999738
_cell_angle_beta   90.00000000
_cell_angle_gamma   90.00000000
_symmetry_Int_Tables_number   1
_chemical_formula_structural   Er8Ga12CoNi3
_chemical_formula_sum   'Er8 Ga12 Co1 Ni3'
_cell_volume   455.59835820
_cell_formula_units_Z   1
loop_
 _symmetry_equiv_pos_site_id
 _symmetry_equiv_pos_as_xyz
  1  'x, y, z'
loop_
 _atom_site_type_symbol
 _atom_site_label
 _atom_site_symmetry_multiplicity
 _atom_site_fract_x
 _atom_site_fract_y
 _atom_site_fract_z
 _atom_site_occupancy
  Er  Er0  1  0.748244  0.000000  0.000000  1
  Er  Er1  1  0.249873  0.000000  0.000000  1
  Er  Er2  1  0.750252  0.478202  0.521798  1
  Er  Er3  1  0.252994  0.525061  0.474939  1
  Er  Er4  1  0.750252  0.043597  0.521798  1
  Er  Er5  1  0.252994  0.949878  0.474939  1
  Er  Er6  1  0.750252  0.478202  0.956403  1
  Er  Er7  1  0.252994  0.525061  0.050122  1
  Ga  Ga8  1  0.954470  0.828875  0.171125  1
  Ga  Ga9  1  0.047144  0.171680  0.828320  1
  Ga  Ga10  1  0.954470  0.342251  0.171125  1
  Ga  Ga11  1  0.454427  0.171258  0.828742  1
  Ga  Ga12  1  0.047144  0.656639  0.828320  1
  Ga  Ga13  1  0.545496  0.827439  0.172561  1
  Ga  Ga14  1  0.954470  0.828875  0.657749  1
  Ga  Ga15  1  0.454427  0.657483  0.828742  1
  Ga  Ga16  1  0.047144  0.171680  0.343361  1
  Ga  Ga17  1  0.545496  0.345123  0.172561  1
  Ga  Ga18  1  0.454427  0.171258  0.342517  1
  Ga  Ga19  1  0.545496  0.827439  0.654877  1
  Co  Co20  1  0.517069  0.666667  0.333333  1
  Ni  Ni21  1  0.969566  0.666667  0.333333  1
  Ni  Ni22  1  0.028625  0.333333  0.666667  1
  Ni  Ni23  1  0.472273  0.333333  0.666667  1
