# generated using pymatgen
data_CaLa8LuSn8
_symmetry_space_group_name_H-M   'P 1'
_cell_length_a   8.24243700
_cell_length_b   8.62021300
_cell_length_c   16.45689300
_cell_angle_alpha   90.00000000
_cell_angle_beta   90.00000000
_cell_angle_gamma   90.00000000
_symmetry_Int_Tables_number   1
_chemical_formula_structural   CaLa8LuSn8
_chemical_formula_sum   'Ca2 La16 Lu2 Sn16'
_cell_volume   1169.28796285
_cell_formula_units_Z   2
loop_
 _symmetry_equiv_pos_site_id
 _symmetry_equiv_pos_as_xyz
  1  'x, y, z'
loop_
 _atom_site_type_symbol
 _atom_site_label
 _atom_site_symmetry_multiplicity
 _atom_site_fract_x
 _atom_site_fract_y
 _atom_site_fract_z
 _atom_site_occupancy
  Ca  Ca0  1  0.820319  0.503864  0.750000  1
  Ca  Ca1  1  0.320319  0.996136  0.750000  1
  La  La2  1  0.650779  0.167098  0.620906  1
  La  La3  1  0.150779  0.332902  0.879094  1
  La  La4  1  0.347044  0.833377  0.124913  1
  La  La5  1  0.847044  0.666623  0.375087  1
  La  La6  1  0.347044  0.833377  0.375087  1
  La  La7  1  0.847044  0.666623  0.124913  1
  La  La8  1  0.650779  0.167098  0.879094  1
  La  La9  1  0.150779  0.332902  0.620906  1
  La  La10  1  0.497128  0.683996  0.595383  1
  La  La11  1  0.997128  0.816004  0.904617  1
  La  La12  1  0.505596  0.318708  0.097965  1
  La  La13  1  0.005596  0.181292  0.402035  1
  La  La14  1  0.505596  0.318708  0.402035  1
  La  La15  1  0.005596  0.181292  0.097965  1
  La  La16  1  0.497128  0.683996  0.904617  1
  La  La17  1  0.997128  0.816004  0.595383  1
  Lu  Lu18  1  0.181844  0.494830  0.250000  1
  Lu  Lu19  1  0.681844  0.005170  0.250000  1
  Sn  Sn20  1  0.688661  0.965966  0.455230  1
  Sn  Sn21  1  0.188661  0.534034  0.044770  1
  Sn  Sn22  1  0.309742  0.035553  0.961431  1
  Sn  Sn23  1  0.809742  0.464447  0.538569  1
  Sn  Sn24  1  0.309742  0.035553  0.538569  1
  Sn  Sn25  1  0.809742  0.464447  0.961431  1
  Sn  Sn26  1  0.688661  0.965966  0.044770  1
  Sn  Sn27  1  0.188661  0.534034  0.455230  1
  Sn  Sn28  1  0.452652  0.394445  0.750000  1
  Sn  Sn29  1  0.952652  0.105555  0.750000  1
  Sn  Sn30  1  0.539853  0.607723  0.250000  1
  Sn  Sn31  1  0.039853  0.892277  0.250000  1
  Sn  Sn32  1  0.696183  0.860203  0.750000  1
  Sn  Sn33  1  0.196183  0.639797  0.750000  1
  Sn  Sn34  1  0.311251  0.150391  0.250000  1
  Sn  Sn35  1  0.811251  0.349609  0.250000  1
