# generated using pymatgen
data_Dy2ErThPt4
_symmetry_space_group_name_H-M   'P 1'
_cell_length_a   4.57182100
_cell_length_b   5.63154215
_cell_length_c   7.06100033
_cell_angle_alpha   89.63700533
_cell_angle_beta   90.00000000
_cell_angle_gamma   90.00000000
_symmetry_Int_Tables_number   1
_chemical_formula_structural   Dy2ErThPt4
_chemical_formula_sum   'Dy2 Er1 Th1 Pt4'
_cell_volume   181.79170934
_cell_formula_units_Z   1
loop_
 _symmetry_equiv_pos_site_id
 _symmetry_equiv_pos_as_xyz
  1  'x, y, z'
loop_
 _atom_site_type_symbol
 _atom_site_label
 _atom_site_symmetry_multiplicity
 _atom_site_fract_x
 _atom_site_fract_y
 _atom_site_fract_z
 _atom_site_occupancy
  Dy  Dy0  1  0.750000  0.357002  0.814082  1
  Dy  Dy1  1  0.750000  0.142007  0.321692  1
  Er  Er2  1  0.250000  0.859730  0.682875  1
  Th  Th3  1  0.250000  0.640777  0.182403  1
  Pt  Pt4  1  0.250000  0.157687  0.042351  1
  Pt  Pt5  1  0.750000  0.842978  0.951543  1
  Pt  Pt6  1  0.750000  0.658922  0.460005  1
  Pt  Pt7  1  0.250000  0.340897  0.545049  1
