# generated using pymatgen
data_Ho16MgAl3Pd4
_symmetry_space_group_name_H-M   'P 1'
_cell_length_a   9.59673528
_cell_length_b   9.59673493
_cell_length_c   9.59673713
_cell_angle_alpha   59.93895767
_cell_angle_beta   59.93896593
_cell_angle_gamma   59.93895768
_symmetry_Int_Tables_number   1
_chemical_formula_structural   Ho16MgAl3Pd4
_chemical_formula_sum   'Ho16 Mg1 Al3 Pd4'
_cell_volume   624.09965177
_cell_formula_units_Z   1
loop_
 _symmetry_equiv_pos_site_id
 _symmetry_equiv_pos_as_xyz
  1  'x, y, z'
loop_
 _atom_site_type_symbol
 _atom_site_label
 _atom_site_symmetry_multiplicity
 _atom_site_fract_x
 _atom_site_fract_y
 _atom_site_fract_z
 _atom_site_occupancy
  Ho  Ho0  1  0.353746  0.353746  0.353746  1
  Ho  Ho1  1  0.353926  0.353926  0.933744  1
  Ho  Ho2  1  0.353926  0.933744  0.353926  1
  Ho  Ho3  1  0.933744  0.353926  0.353926  1
  Ho  Ho4  1  0.807638  0.193625  0.193625  1
  Ho  Ho5  1  0.191255  0.809983  0.809983  1
  Ho  Ho6  1  0.193625  0.807638  0.193625  1
  Ho  Ho7  1  0.809983  0.191255  0.809983  1
  Ho  Ho8  1  0.193625  0.193625  0.807638  1
  Ho  Ho9  1  0.809983  0.809983  0.191255  1
  Ho  Ho10  1  0.938152  0.566857  0.566857  1
  Ho  Ho11  1  0.566695  0.934546  0.934546  1
  Ho  Ho12  1  0.566857  0.938152  0.566857  1
  Ho  Ho13  1  0.934546  0.566695  0.934546  1
  Ho  Ho14  1  0.566857  0.566857  0.938152  1
  Ho  Ho15  1  0.934546  0.934546  0.566695  1
  Mg  Mg16  1  0.575400  0.575400  0.575400  1
  Al  Al17  1  0.575593  0.575593  0.264333  1
  Al  Al18  1  0.575593  0.264333  0.575593  1
  Al  Al19  1  0.264333  0.575593  0.575593  1
  Pd  Pd20  1  0.145732  0.145732  0.145732  1
  Pd  Pd21  1  0.143680  0.143680  0.566886  1
  Pd  Pd22  1  0.143680  0.566886  0.143680  1
  Pd  Pd23  1  0.566886  0.143680  0.143680  1
