# generated using pymatgen
data_Tb9YCd3Tc
_symmetry_space_group_name_H-M   'P 1'
_cell_length_a   9.60375813
_cell_length_b   9.60375792
_cell_length_c   10.00593600
_cell_angle_alpha   90.00000000
_cell_angle_beta   90.00000000
_cell_angle_gamma   120.01864028
_symmetry_Int_Tables_number   1
_chemical_formula_structural   Tb9YCd3Tc
_chemical_formula_sum   'Tb18 Y2 Cd6 Tc2'
_cell_volume   799.07798400
_cell_formula_units_Z   2
loop_
 _symmetry_equiv_pos_site_id
 _symmetry_equiv_pos_as_xyz
  1  'x, y, z'
loop_
 _atom_site_type_symbol
 _atom_site_label
 _atom_site_symmetry_multiplicity
 _atom_site_fract_x
 _atom_site_fract_y
 _atom_site_fract_z
 _atom_site_occupancy
  Tb  Tb0  1  0.999972  0.000028  0.500086  1
  Tb  Tb1  1  0.999972  0.000028  0.999914  1
  Tb  Tb2  1  0.209919  0.790081  0.440841  1
  Tb  Tb3  1  0.209956  0.419921  0.440889  1
  Tb  Tb4  1  0.580079  0.790044  0.440889  1
  Tb  Tb5  1  0.790089  0.209911  0.559154  1
  Tb  Tb6  1  0.790072  0.580124  0.559131  1
  Tb  Tb7  1  0.419876  0.209928  0.559131  1
  Tb  Tb8  1  0.790089  0.209911  0.940846  1
  Tb  Tb9  1  0.790072  0.580124  0.940869  1
  Tb  Tb10  1  0.419876  0.209928  0.940869  1
  Tb  Tb11  1  0.209919  0.790081  0.059159  1
  Tb  Tb12  1  0.209956  0.419921  0.059111  1
  Tb  Tb13  1  0.580079  0.790044  0.059111  1
  Tb  Tb14  1  0.539739  0.460261  0.250000  1
  Tb  Tb15  1  0.539767  0.079512  0.250000  1
  Tb  Tb16  1  0.920488  0.460233  0.250000  1
  Tb  Tb17  1  0.460302  0.539698  0.750000  1
  Y  Y18  1  0.460274  0.920548  0.750000  1
  Y  Y19  1  0.079452  0.539726  0.750000  1
  Cd  Cd20  1  0.885449  0.114551  0.250000  1
  Cd  Cd21  1  0.885518  0.770931  0.250000  1
  Cd  Cd22  1  0.229069  0.114482  0.250000  1
  Cd  Cd23  1  0.114580  0.885420  0.750000  1
  Cd  Cd24  1  0.114543  0.229118  0.750000  1
  Cd  Cd25  1  0.770882  0.885457  0.750000  1
  Tc  Tc26  1  0.333396  0.666604  0.250000  1
  Tc  Tc27  1  0.666618  0.333382  0.750000  1
