# generated using pymatgen
data_Sr10GeBi4As
_symmetry_space_group_name_H-M   'P 1'
_cell_length_a   8.71503500
_cell_length_b   10.05623800
_cell_length_c   13.63087000
_cell_angle_alpha   90.00000000
_cell_angle_beta   90.00000000
_cell_angle_gamma   90.00000000
_symmetry_Int_Tables_number   1
_chemical_formula_structural   Sr10GeBi4As
_chemical_formula_sum   'Sr20 Ge2 Bi8 As2'
_cell_volume   1194.61580067
_cell_formula_units_Z   2
loop_
 _symmetry_equiv_pos_site_id
 _symmetry_equiv_pos_as_xyz
  1  'x, y, z'
loop_
 _atom_site_type_symbol
 _atom_site_label
 _atom_site_symmetry_multiplicity
 _atom_site_fract_x
 _atom_site_fract_y
 _atom_site_fract_z
 _atom_site_occupancy
  Sr  Sr0  1  0.821567  0.531189  0.075403  1
  Sr  Sr1  1  0.678433  0.968811  0.575403  1
  Sr  Sr2  1  0.180404  0.033057  0.924194  1
  Sr  Sr3  1  0.319596  0.466943  0.424194  1
  Sr  Sr4  1  0.180404  0.466943  0.924194  1
  Sr  Sr5  1  0.319596  0.033057  0.424194  1
  Sr  Sr6  1  0.821567  0.968811  0.075403  1
  Sr  Sr7  1  0.678433  0.531189  0.575403  1
  Sr  Sr8  1  0.170062  0.750000  0.215829  1
  Sr  Sr9  1  0.329938  0.750000  0.715829  1
  Sr  Sr10  1  0.833858  0.250000  0.786851  1
  Sr  Sr11  1  0.666142  0.250000  0.286851  1
  Sr  Sr12  1  0.445718  0.750000  0.999125  1
  Sr  Sr13  1  0.054282  0.750000  0.499125  1
  Sr  Sr14  1  0.547873  0.250000  0.998776  1
  Sr  Sr15  1  0.952127  0.250000  0.498776  1
  Sr  Sr16  1  0.640536  0.750000  0.302134  1
  Sr  Sr17  1  0.859464  0.750000  0.802134  1
  Sr  Sr18  1  0.359524  0.250000  0.700040  1
  Sr  Sr19  1  0.140476  0.250000  0.200040  1
  Ge  Ge20  1  0.436645  0.750000  0.490937  1
  Ge  Ge21  1  0.063355  0.750000  0.990937  1
  Bi  Bi22  1  0.937415  0.507157  0.329254  1
  Bi  Bi23  1  0.562585  0.992843  0.829254  1
  Bi  Bi24  1  0.059282  0.010216  0.668508  1
  Bi  Bi25  1  0.440718  0.489784  0.168508  1
  Bi  Bi26  1  0.059282  0.489784  0.668508  1
  Bi  Bi27  1  0.440718  0.010216  0.168508  1
  Bi  Bi28  1  0.937415  0.992843  0.329254  1
  Bi  Bi29  1  0.562585  0.507157  0.829254  1
  As  As30  1  0.566636  0.250000  0.511590  1
  As  As31  1  0.933364  0.250000  0.011590  1
