# generated using pymatgen
data_YbHo2U5(ReB6)4
_symmetry_space_group_name_H-M   'P 1'
_cell_length_a   3.63689600
_cell_length_b   9.28725641
_cell_length_c   11.39625536
_cell_angle_alpha   89.99730690
_cell_angle_beta   90.00000000
_cell_angle_gamma   90.00000000
_symmetry_Int_Tables_number   1
_chemical_formula_structural   YbHo2U5(ReB6)4
_chemical_formula_sum   'Yb1 Ho2 U5 Re4 B24'
_cell_volume   384.92887450
_cell_formula_units_Z   1
loop_
 _symmetry_equiv_pos_site_id
 _symmetry_equiv_pos_as_xyz
  1  'x, y, z'
loop_
 _atom_site_type_symbol
 _atom_site_label
 _atom_site_symmetry_multiplicity
 _atom_site_fract_x
 _atom_site_fract_y
 _atom_site_fract_z
 _atom_site_occupancy
  Yb  Yb0  1  0.000000  0.835690  0.092729  1
  Ho  Ho1  1  0.000000  0.337040  0.407705  1
  Ho  Ho2  1  0.000000  0.663201  0.591251  1
  U  U3  1  0.000000  0.162781  0.907947  1
  U  U4  1  0.000000  0.955898  0.396021  1
  U  U5  1  0.000000  0.042404  0.603190  1
  U  U6  1  0.000000  0.458459  0.104535  1
  U  U7  1  0.000000  0.544713  0.897432  1
  Re  Re8  1  0.000000  0.645023  0.319634  1
  Re  Re9  1  0.000000  0.352557  0.683890  1
  Re  Re10  1  0.000000  0.146776  0.177955  1
  Re  Re11  1  0.000000  0.857266  0.818887  1
  B  B12  1  0.500000  0.551176  0.431803  1
  B  B13  1  0.500000  0.447738  0.569743  1
  B  B14  1  0.500000  0.052838  0.068033  1
  B  B15  1  0.500000  0.949678  0.930304  1
  B  B16  1  0.500000  0.742502  0.423127  1
  B  B17  1  0.500000  0.256847  0.576866  1
  B  B18  1  0.500000  0.243100  0.076035  1
  B  B19  1  0.500000  0.756739  0.922453  1
  B  B20  1  0.500000  0.801506  0.274762  1
  B  B21  1  0.500000  0.196793  0.726698  1
  B  B22  1  0.500000  0.302674  0.225124  1
  B  B23  1  0.500000  0.698289  0.774492  1
  B  B24  1  0.500000  0.643445  0.188922  1
  B  B25  1  0.500000  0.355226  0.812382  1
  B  B26  1  0.500000  0.144257  0.310682  1
  B  B27  1  0.500000  0.855499  0.688122  1
  B  B28  1  0.500000  0.989378  0.218981  1
  B  B29  1  0.500000  0.013223  0.781329  1
  B  B30  1  0.500000  0.488593  0.281182  1
  B  B31  1  0.500000  0.511589  0.719651  1
  B  B32  1  0.500000  0.639316  0.038519  1
  B  B33  1  0.500000  0.357658  0.960555  1
  B  B34  1  0.500000  0.140150  0.460670  1
  B  B35  1  0.500000  0.859979  0.538392  1
