# generated using pymatgen
data_Eu8Si15Ag
_symmetry_space_group_name_H-M   'P 1'
_cell_length_a   8.30182300
_cell_length_b   8.30182222
_cell_length_c   8.74978700
_cell_angle_alpha   90.00000000
_cell_angle_beta   90.00000000
_cell_angle_gamma   119.99999914
_symmetry_Int_Tables_number   1
_chemical_formula_structural   Eu8Si15Ag
_chemical_formula_sum   'Eu8 Si15 Ag1'
_cell_volume   522.24587079
_cell_formula_units_Z   1
loop_
 _symmetry_equiv_pos_site_id
 _symmetry_equiv_pos_as_xyz
  1  'x, y, z'
loop_
 _atom_site_type_symbol
 _atom_site_label
 _atom_site_symmetry_multiplicity
 _atom_site_fract_x
 _atom_site_fract_y
 _atom_site_fract_z
 _atom_site_occupancy
  Eu  Eu0  1  0.000000  0.000000  0.749879  1
  Eu  Eu1  1  0.000000  0.000000  0.250043  1
  Eu  Eu2  1  0.497062  0.502938  0.746736  1
  Eu  Eu3  1  0.497062  0.994125  0.746736  1
  Eu  Eu4  1  0.005875  0.502938  0.746736  1
  Eu  Eu5  1  0.497412  0.502588  0.253292  1
  Eu  Eu6  1  0.005177  0.502588  0.253292  1
  Eu  Eu7  1  0.497412  0.994823  0.253292  1
  Si  Si8  1  0.836291  0.163709  0.000110  1
  Si  Si9  1  0.836291  0.672583  0.000110  1
  Si  Si10  1  0.327417  0.163709  0.000110  1
  Si  Si11  1  0.833773  0.166227  0.499322  1
  Si  Si12  1  0.833773  0.667547  0.499322  1
  Si  Si13  1  0.332453  0.166227  0.499322  1
  Si  Si14  1  0.166484  0.833516  0.500348  1
  Si  Si15  1  0.667032  0.833516  0.500348  1
  Si  Si16  1  0.166484  0.332968  0.500348  1
  Si  Si17  1  0.164603  0.835397  0.000049  1
  Si  Si18  1  0.670793  0.835397  0.000049  1
  Si  Si19  1  0.164603  0.329207  0.000049  1
  Si  Si20  1  0.666667  0.333333  0.501821  1
  Si  Si21  1  0.333333  0.666667  0.499367  1
  Si  Si22  1  0.333333  0.666667  0.000374  1
  Ag  Ag23  1  0.666667  0.333333  0.998945  1
