# generated using pymatgen
data_EuY2Al3Si2Pt
_symmetry_space_group_name_H-M   'P 1'
_cell_length_a   7.01304900
_cell_length_b   7.01347656
_cell_length_c   4.26365300
_cell_angle_alpha   90.00000000
_cell_angle_beta   90.00000000
_cell_angle_gamma   119.99798812
_symmetry_Int_Tables_number   1
_chemical_formula_structural   EuY2Al3Si2Pt
_chemical_formula_sum   'Eu1 Y2 Al3 Si2 Pt1'
_cell_volume   181.61909656
_cell_formula_units_Z   1
loop_
 _symmetry_equiv_pos_site_id
 _symmetry_equiv_pos_as_xyz
  1  'x, y, z'
loop_
 _atom_site_type_symbol
 _atom_site_label
 _atom_site_symmetry_multiplicity
 _atom_site_fract_x
 _atom_site_fract_y
 _atom_site_fract_z
 _atom_site_occupancy
  Eu  Eu0  1  0.421552  0.000000  0.000000  1
  Y  Y1  1  0.002954  0.419502  0.000000  1
  Y  Y2  1  0.583453  0.580499  0.000000  1
  Al  Al3  1  0.765318  0.000000  0.500000  1
  Al  Al4  1  0.233615  0.237424  0.500000  1
  Al  Al5  1  0.996191  0.762575  0.500000  1
  Si  Si6  1  0.673506  0.342026  0.500000  1
  Si  Si7  1  0.331479  0.657973  0.500000  1
  Pt  Pt8  1  0.991933  0.000000  0.000000  1
