# generated using pymatgen
data_TiIrRh5W
_symmetry_space_group_name_H-M   'P 1'
_cell_length_a   5.49984400
_cell_length_b   5.50685543
_cell_length_c   4.41736900
_cell_angle_alpha   90.00000000
_cell_angle_beta   90.00000000
_cell_angle_gamma   119.95789123
_symmetry_Int_Tables_number   1
_chemical_formula_structural   TiIrRh5W
_chemical_formula_sum   'Ti1 Ir1 Rh5 W1'
_cell_volume   115.91308869
_cell_formula_units_Z   1
loop_
 _symmetry_equiv_pos_site_id
 _symmetry_equiv_pos_as_xyz
  1  'x, y, z'
loop_
 _atom_site_type_symbol
 _atom_site_label
 _atom_site_symmetry_multiplicity
 _atom_site_fract_x
 _atom_site_fract_y
 _atom_site_fract_z
 _atom_site_occupancy
  Ti  Ti0  1  0.332462  0.664926  0.250000  1
  Ir  Ir1  1  0.833525  0.667048  0.250000  1
  Rh  Rh2  1  0.166651  0.835428  0.750000  1
  Rh  Rh3  1  0.668777  0.835428  0.750000  1
  Rh  Rh4  1  0.331375  0.165172  0.250000  1
  Rh  Rh5  1  0.833799  0.165172  0.250000  1
  Rh  Rh6  1  0.166048  0.332096  0.750000  1
  W  W7  1  0.667365  0.334729  0.750000  1
