# generated using pymatgen
data_Tb6Er4Cd3In(HgPd)4
_symmetry_space_group_name_H-M   'P 1'
_cell_length_a   3.62971200
_cell_length_b   8.02544500
_cell_length_c   18.29754800
_cell_angle_alpha   90.00000000
_cell_angle_beta   90.00000000
_cell_angle_gamma   90.00000000
_symmetry_Int_Tables_number   1
_chemical_formula_structural   Tb6Er4Cd3In(HgPd)4
_chemical_formula_sum   'Tb6 Er4 Cd3 In1 Hg4 Pd4'
_cell_volume   533.00856171
_cell_formula_units_Z   1
loop_
 _symmetry_equiv_pos_site_id
 _symmetry_equiv_pos_as_xyz
  1  'x, y, z'
loop_
 _atom_site_type_symbol
 _atom_site_label
 _atom_site_symmetry_multiplicity
 _atom_site_fract_x
 _atom_site_fract_y
 _atom_site_fract_z
 _atom_site_occupancy
  Tb  Tb0  1  0.000000  0.498379  0.500147  1
  Tb  Tb1  1  0.000000  0.001252  0.999796  1
  Tb  Tb2  1  0.000000  0.740067  0.284191  1
  Tb  Tb3  1  0.000000  0.259583  0.715538  1
  Tb  Tb4  1  0.000000  0.758432  0.784031  1
  Tb  Tb5  1  0.000000  0.241429  0.215824  1
  Er  Er6  1  0.000000  0.609477  0.083784  1
  Er  Er7  1  0.000000  0.390450  0.916344  1
  Er  Er8  1  0.000000  0.890668  0.583569  1
  Er  Er9  1  0.000000  0.109647  0.415992  1
  Cd  Cd10  1  0.500000  0.582537  0.649291  1
  Cd  Cd11  1  0.500000  0.418051  0.350619  1
  Cd  Cd12  1  0.500000  0.917937  0.149206  1
  In  In13  1  0.500000  0.082219  0.850224  1
  Hg  Hg14  1  0.500000  0.712718  0.935115  1
  Hg  Hg15  1  0.500000  0.287512  0.065308  1
  Hg  Hg16  1  0.500000  0.786094  0.434970  1
  Hg  Hg17  1  0.500000  0.213054  0.565578  1
  Pd  Pd18  1  0.500000  0.530773  0.196292  1
  Pd  Pd19  1  0.500000  0.469249  0.803799  1
  Pd  Pd20  1  0.500000  0.969572  0.696731  1
  Pd  Pd21  1  0.500000  0.030899  0.303652  1
