# generated using pymatgen
data_Tb20Bi8PtRh3
_symmetry_space_group_name_H-M   'P 1'
_cell_length_a   8.08355558
_cell_length_b   9.02120100
_cell_length_c   12.51457889
_cell_angle_alpha   90.00000000
_cell_angle_beta   89.95666960
_cell_angle_gamma   90.00000000
_symmetry_Int_Tables_number   1
_chemical_formula_structural   Tb20Bi8PtRh3
_chemical_formula_sum   'Tb20 Bi8 Pt1 Rh3'
_cell_volume   912.60512709
_cell_formula_units_Z   1
loop_
 _symmetry_equiv_pos_site_id
 _symmetry_equiv_pos_as_xyz
  1  'x, y, z'
loop_
 _atom_site_type_symbol
 _atom_site_label
 _atom_site_symmetry_multiplicity
 _atom_site_fract_x
 _atom_site_fract_y
 _atom_site_fract_z
 _atom_site_occupancy
  Tb  Tb0  1  0.843105  0.750000  0.795722  1
  Tb  Tb1  1  0.157481  0.250000  0.204923  1
  Tb  Tb2  1  0.342012  0.250000  0.705950  1
  Tb  Tb3  1  0.660274  0.750000  0.291175  1
  Tb  Tb4  1  0.373090  0.750000  0.697279  1
  Tb  Tb5  1  0.624799  0.250000  0.304943  1
  Tb  Tb6  1  0.875873  0.250000  0.805156  1
  Tb  Tb7  1  0.124655  0.750000  0.194954  1
  Tb  Tb8  1  0.953754  0.750000  0.500571  1
  Tb  Tb9  1  0.045054  0.250000  0.499288  1
  Tb  Tb10  1  0.454614  0.250000  0.999182  1
  Tb  Tb11  1  0.544712  0.750000  0.000451  1
  Tb  Tb12  1  0.679383  0.044853  0.566305  1
  Tb  Tb13  1  0.320986  0.960934  0.433917  1
  Tb  Tb14  1  0.178324  0.958540  0.934970  1
  Tb  Tb15  1  0.320986  0.539066  0.433917  1
  Tb  Tb16  1  0.821577  0.041446  0.065353  1
  Tb  Tb17  1  0.679383  0.455147  0.566305  1
  Tb  Tb18  1  0.821577  0.458554  0.065353  1
  Tb  Tb19  1  0.178324  0.541460  0.934970  1
  Bi  Bi20  1  0.569866  0.491625  0.826196  1
  Bi  Bi21  1  0.430151  0.508400  0.173542  1
  Bi  Bi22  1  0.070152  0.508784  0.673271  1
  Bi  Bi23  1  0.430151  0.991600  0.173542  1
  Bi  Bi24  1  0.929841  0.491249  0.326446  1
  Bi  Bi25  1  0.569866  0.008375  0.826196  1
  Bi  Bi26  1  0.929841  0.008751  0.326446  1
  Bi  Bi27  1  0.070152  0.991216  0.673271  1
  Pt  Pt28  1  0.569586  0.750000  0.510103  1
  Rh  Rh29  1  0.430545  0.250000  0.489886  1
  Rh  Rh30  1  0.068940  0.250000  0.989679  1
  Rh  Rh31  1  0.930950  0.750000  0.010737  1
