# generated using pymatgen
data_CeNd7(GePt)8
_symmetry_space_group_name_H-M   'P 1'
_cell_length_a   4.49192900
_cell_length_b   7.70308867
_cell_length_c   14.59734226
_cell_angle_alpha   89.92394051
_cell_angle_beta   90.00000000
_cell_angle_gamma   90.00000000
_symmetry_Int_Tables_number   1
_chemical_formula_structural   CeNd7(GePt)8
_chemical_formula_sum   'Ce1 Nd7 Ge8 Pt8'
_cell_volume   505.09281263
_cell_formula_units_Z   1
loop_
 _symmetry_equiv_pos_site_id
 _symmetry_equiv_pos_as_xyz
  1  'x, y, z'
loop_
 _atom_site_type_symbol
 _atom_site_label
 _atom_site_symmetry_multiplicity
 _atom_site_fract_x
 _atom_site_fract_y
 _atom_site_fract_z
 _atom_site_occupancy
  Ce  Ce0  1  0.500000  0.785873  0.747235  1
  Nd  Nd1  1  0.500000  0.788567  0.251974  1
  Nd  Nd2  1  0.000000  0.290298  0.500719  1
  Nd  Nd3  1  0.500000  0.705583  0.499735  1
  Nd  Nd4  1  0.000000  0.294714  0.999822  1
  Nd  Nd5  1  0.000000  0.211455  0.247987  1
  Nd  Nd6  1  0.000000  0.212026  0.752597  1
  Nd  Nd7  1  0.500000  0.711031  0.999339  1
  Ge  Ge8  1  0.000000  0.912104  0.404543  1
  Ge  Ge9  1  0.000000  0.588102  0.148502  1
  Ge  Ge10  1  0.500000  0.411128  0.647765  1
  Ge  Ge11  1  0.000000  0.589006  0.848466  1
  Ge  Ge12  1  0.500000  0.411485  0.352496  1
  Ge  Ge13  1  0.000000  0.911937  0.597221  1
  Ge  Ge14  1  0.500000  0.088023  0.903544  1
  Ge  Ge15  1  0.500000  0.087363  0.095258  1
  Pt  Pt16  1  0.000000  0.919935  0.888462  1
  Pt  Pt17  1  0.000000  0.921373  0.109281  1
  Pt  Pt18  1  0.500000  0.418120  0.150155  1
  Pt  Pt19  1  0.000000  0.587094  0.652498  1
  Pt  Pt20  1  0.500000  0.420763  0.850007  1
  Pt  Pt21  1  0.500000  0.075424  0.612512  1
  Pt  Pt22  1  0.500000  0.078471  0.390406  1
  Pt  Pt23  1  0.000000  0.580125  0.349475  1
