# generated using pymatgen
data_Zr10BeTl5GaPb
_symmetry_space_group_name_H-M   'P 1'
_cell_length_a   8.76383254
_cell_length_b   8.78627512
_cell_length_c   5.94496613
_cell_angle_alpha   90.02404804
_cell_angle_beta   89.98847354
_cell_angle_gamma   120.08396967
_symmetry_Int_Tables_number   1
_chemical_formula_structural   Zr10BeTl5GaPb
_chemical_formula_sum   'Zr10 Be1 Tl5 Ga1 Pb1'
_cell_volume   396.10539085
_cell_formula_units_Z   1
loop_
 _symmetry_equiv_pos_site_id
 _symmetry_equiv_pos_as_xyz
  1  'x, y, z'
loop_
 _atom_site_type_symbol
 _atom_site_label
 _atom_site_symmetry_multiplicity
 _atom_site_fract_x
 _atom_site_fract_y
 _atom_site_fract_z
 _atom_site_occupancy
  Zr  Zr0  1  0.666499  0.333747  0.999321  1
  Zr  Zr1  1  0.333506  0.667247  0.999327  1
  Zr  Zr2  1  0.333543  0.666917  0.500937  1
  Zr  Zr3  1  0.666464  0.333434  0.500934  1
  Zr  Zr4  1  0.745967  0.746072  0.764963  1
  Zr  Zr5  1  0.254034  0.000099  0.764992  1
  Zr  Zr6  1  0.000004  0.253667  0.762792  1
  Zr  Zr7  1  0.253487  0.253077  0.235326  1
  Zr  Zr8  1  0.746499  0.999580  0.235286  1
  Zr  Zr9  1  0.000001  0.746235  0.235692  1
  Be  Be10  1  0.999991  0.999740  0.999318  1
  Tl  Tl11  1  0.387419  0.387975  0.745911  1
  Tl  Tl12  1  0.612547  0.000505  0.745866  1
  Tl  Tl13  1  0.000038  0.612780  0.745835  1
  Tl  Tl14  1  0.611688  0.612031  0.254135  1
  Tl  Tl15  1  0.388309  0.000269  0.254170  1
  Ga  Ga16  1  0.999996  0.999157  0.500582  1
  Pb  Pb17  1  0.000007  0.387469  0.254612  1
