# generated using pymatgen
data_K2BaNd(SbAu)4
_symmetry_space_group_name_H-M   'P 1'
_cell_length_a   4.70756200
_cell_length_b   4.70756176
_cell_length_c   19.65437400
_cell_angle_alpha   90.00000000
_cell_angle_beta   90.00000000
_cell_angle_gamma   120.00000172
_symmetry_Int_Tables_number   1
_chemical_formula_structural   K2BaNd(SbAu)4
_chemical_formula_sum   'K2 Ba1 Nd1 Sb4 Au4'
_cell_volume   377.20888569
_cell_formula_units_Z   1
loop_
 _symmetry_equiv_pos_site_id
 _symmetry_equiv_pos_as_xyz
  1  'x, y, z'
loop_
 _atom_site_type_symbol
 _atom_site_label
 _atom_site_symmetry_multiplicity
 _atom_site_fract_x
 _atom_site_fract_y
 _atom_site_fract_z
 _atom_site_occupancy
  K  K0  1  0.000000  0.000000  0.239436  1
  K  K1  1  0.000000  0.000000  0.760564  1
  Ba  Ba2  1  0.000000  0.000000  0.500000  1
  Nd  Nd3  1  0.000000  0.000000  0.000000  1
  Sb  Sb4  1  0.333333  0.666667  0.372675  1
  Sb  Sb5  1  0.666667  0.333333  0.627325  1
  Sb  Sb6  1  0.666667  0.333333  0.894054  1
  Sb  Sb7  1  0.333333  0.666667  0.105946  1
  Au  Au8  1  0.666667  0.333333  0.372126  1
  Au  Au9  1  0.333333  0.666667  0.627874  1
  Au  Au10  1  0.333333  0.666667  0.907192  1
  Au  Au11  1  0.666667  0.333333  0.092808  1
