# generated using pymatgen
data_KAcGeSe4
_symmetry_space_group_name_H-M   'P 1'
_cell_length_a   6.98722834
_cell_length_b   7.16126300
_cell_length_c   9.21898800
_cell_angle_alpha   90.00000000
_cell_angle_beta   107.58903637
_cell_angle_gamma   90.00000000
_symmetry_Int_Tables_number   1
_chemical_formula_structural   KAcGeSe4
_chemical_formula_sum   'K2 Ac2 Ge2 Se8'
_cell_volume   439.72782150
_cell_formula_units_Z   2
loop_
 _symmetry_equiv_pos_site_id
 _symmetry_equiv_pos_as_xyz
  1  'x, y, z'
loop_
 _atom_site_type_symbol
 _atom_site_label
 _atom_site_symmetry_multiplicity
 _atom_site_fract_x
 _atom_site_fract_y
 _atom_site_fract_z
 _atom_site_occupancy
  K  K0  1  0.744982  0.506174  0.938018  1
  K  K1  1  0.255018  0.006174  0.061982  1
  Ac  Ac2  1  0.768369  0.500232  0.445731  1
  Ac  Ac3  1  0.231631  0.000232  0.554269  1
  Ge  Ge4  1  0.214988  0.531200  0.312068  1
  Ge  Ge5  1  0.785012  0.031200  0.687932  1
  Se  Se6  1  0.594406  0.072557  0.426171  1
  Se  Se7  1  0.405594  0.572557  0.573829  1
  Se  Se8  1  0.014143  0.256196  0.273984  1
  Se  Se9  1  0.985857  0.756196  0.726016  1
  Se  Se10  1  0.029722  0.274302  0.739392  1
  Se  Se11  1  0.970278  0.774302  0.260608  1
  Se  Se12  1  0.411829  0.535959  0.146070  1
  Se  Se13  1  0.588171  0.035959  0.853930  1
