# generated using pymatgen
data_Np6PSe7
_symmetry_space_group_name_H-M   'P 1'
_cell_length_a   7.56987544
_cell_length_b   7.55238209
_cell_length_c   7.55823600
_cell_angle_alpha   109.46799639
_cell_angle_beta   109.46801897
_cell_angle_gamma   109.45492229
_symmetry_Int_Tables_number   1
_chemical_formula_structural   Np6PSe7
_chemical_formula_sum   'Np6 P1 Se7'
_cell_volume   332.73077870
_cell_formula_units_Z   1
loop_
 _symmetry_equiv_pos_site_id
 _symmetry_equiv_pos_as_xyz
  1  'x, y, z'
loop_
 _atom_site_type_symbol
 _atom_site_label
 _atom_site_symmetry_multiplicity
 _atom_site_fract_x
 _atom_site_fract_y
 _atom_site_fract_z
 _atom_site_occupancy
  Np  Np0  1  0.242435  0.139848  0.873717  1
  Np  Np1  1  0.125598  0.862242  0.236609  1
  Np  Np2  1  0.761948  0.371343  0.635186  1
  Np  Np3  1  0.891099  0.263662  0.128416  1
  Np  Np4  1  0.606224  0.734343  0.361754  1
  Np  Np5  1  0.370743  0.627845  0.766045  1
  P  P6  1  0.155633  0.500023  0.999921  1
  Se  Se7  1  0.354054  0.349315  0.361044  1
  Se  Se8  1  0.654474  0.499665  0.998797  1
  Se  Se9  1  0.494844  0.995714  0.647771  1
  Se  Se10  1  0.504802  0.012362  0.150429  1
  Se  Se11  1  0.998648  0.651756  0.504663  1
  Se  Se12  1  0.847195  0.852583  0.848053  1
  Se  Se13  1  0.992303  0.139297  0.487592  1
