# generated using pymatgen
data_ErLuFe3Re14C3
_symmetry_space_group_name_H-M   'P 1'
_cell_length_a   6.91937291
_cell_length_b   6.91937342
_cell_length_c   6.91937240
_cell_angle_alpha   82.45999425
_cell_angle_beta   82.45999784
_cell_angle_gamma   82.45998848
_symmetry_Int_Tables_number   1
_chemical_formula_structural   ErLuFe3Re14C3
_chemical_formula_sum   'Er1 Lu1 Fe3 Re14 C3'
_cell_volume   323.38185161
_cell_formula_units_Z   1
loop_
 _symmetry_equiv_pos_site_id
 _symmetry_equiv_pos_as_xyz
  1  'x, y, z'
loop_
 _atom_site_type_symbol
 _atom_site_label
 _atom_site_symmetry_multiplicity
 _atom_site_fract_x
 _atom_site_fract_y
 _atom_site_fract_z
 _atom_site_occupancy
  Er  Er0  1  0.350630  0.350630  0.350630  1
  Lu  Lu1  1  0.649460  0.649460  0.649460  1
  Fe  Fe2  1  0.000022  0.000022  0.499983  1
  Fe  Fe3  1  0.000022  0.499983  0.000022  1
  Fe  Fe4  1  0.499983  0.000022  0.000022  1
  Re  Re5  1  0.102176  0.102176  0.102176  1
  Re  Re6  1  0.897558  0.897558  0.897558  1
  Re  Re7  1  0.722415  0.277668  0.999882  1
  Re  Re8  1  0.277668  0.999882  0.722415  1
  Re  Re9  1  0.999882  0.722415  0.277668  1
  Re  Re10  1  0.277668  0.722415  0.999882  1
  Re  Re11  1  0.722415  0.999882  0.277668  1
  Re  Re12  1  0.999882  0.277668  0.722415  1
  Re  Re13  1  0.140102  0.653078  0.653078  1
  Re  Re14  1  0.653078  0.653078  0.140102  1
  Re  Re15  1  0.653078  0.140102  0.653078  1
  Re  Re16  1  0.347269  0.859437  0.347269  1
  Re  Re17  1  0.347269  0.347269  0.859437  1
  Re  Re18  1  0.859437  0.347269  0.347269  1
  C  C19  1  0.500538  0.500538  0.998908  1
  C  C20  1  0.500538  0.998908  0.500538  1
  C  C21  1  0.998908  0.500538  0.500538  1
