# generated using pymatgen
data_Y5Pu3(Si3Pt)4
_symmetry_space_group_name_H-M   'P 1'
_cell_length_a   8.18321900
_cell_length_b   8.18634260
_cell_length_c   8.34820400
_cell_angle_alpha   90.00000000
_cell_angle_beta   90.00000000
_cell_angle_gamma   119.98736669
_symmetry_Int_Tables_number   1
_chemical_formula_structural   Y5Pu3(Si3Pt)4
_chemical_formula_sum   'Y5 Pu3 Si12 Pt4'
_cell_volume   484.38763370
_cell_formula_units_Z   1
loop_
 _symmetry_equiv_pos_site_id
 _symmetry_equiv_pos_as_xyz
  1  'x, y, z'
loop_
 _atom_site_type_symbol
 _atom_site_label
 _atom_site_symmetry_multiplicity
 _atom_site_fract_x
 _atom_site_fract_y
 _atom_site_fract_z
 _atom_site_occupancy
  Y  Y0  1  0.500004  0.500085  0.750000  1
  Y  Y1  1  0.500080  0.499811  0.250000  1
  Y  Y2  1  0.000082  0.500085  0.750000  1
  Y  Y3  1  0.999730  0.499811  0.250000  1
  Y  Y4  1  0.500002  0.000004  0.750000  1
  Pu  Pu5  1  0.500097  0.000194  0.250000  1
  Pu  Pu6  1  0.999978  0.999955  0.750000  1
  Pu  Pu7  1  0.000044  0.000089  0.250000  1
  Si  Si8  1  0.834205  0.165237  0.001087  1
  Si  Si9  1  0.165810  0.834736  0.001536  1
  Si  Si10  1  0.331033  0.165237  0.001087  1
  Si  Si11  1  0.165810  0.834736  0.498464  1
  Si  Si12  1  0.668926  0.834736  0.001536  1
  Si  Si13  1  0.834205  0.165237  0.498913  1
  Si  Si14  1  0.835460  0.670920  0.999734  1
  Si  Si15  1  0.668926  0.834736  0.498464  1
  Si  Si16  1  0.164558  0.329115  0.999908  1
  Si  Si17  1  0.331033  0.165237  0.498913  1
  Si  Si18  1  0.164558  0.329115  0.500092  1
  Si  Si19  1  0.835460  0.670920  0.500266  1
  Pt  Pt20  1  0.667793  0.335588  0.996554  1
  Pt  Pt21  1  0.332207  0.664414  0.996492  1
  Pt  Pt22  1  0.332207  0.664414  0.503508  1
  Pt  Pt23  1  0.667793  0.335588  0.503446  1
