# generated using pymatgen
data_Li3Nd4CuAs8
_symmetry_space_group_name_H-M   'P 1'
_cell_length_a   3.92527500
_cell_length_b   3.92358608
_cell_length_c   20.67054600
_cell_angle_alpha   89.98817164
_cell_angle_beta   90.00000000
_cell_angle_gamma   90.00000000
_symmetry_Int_Tables_number   1
_chemical_formula_structural   Li3Nd4CuAs8
_chemical_formula_sum   'Li3 Nd4 Cu1 As8'
_cell_volume   318.35026296
_cell_formula_units_Z   1
loop_
 _symmetry_equiv_pos_site_id
 _symmetry_equiv_pos_as_xyz
  1  'x, y, z'
loop_
 _atom_site_type_symbol
 _atom_site_label
 _atom_site_symmetry_multiplicity
 _atom_site_fract_x
 _atom_site_fract_y
 _atom_site_fract_z
 _atom_site_occupancy
  Li  Li0  1  0.250000  0.231862  0.250108  1
  Li  Li1  1  0.750000  0.731779  0.250025  1
  Li  Li2  1  0.750000  0.766512  0.749848  1
  Nd  Nd3  1  0.250000  0.763331  0.620230  1
  Nd  Nd4  1  0.750000  0.235890  0.385588  1
  Nd  Nd5  1  0.750000  0.266349  0.879545  1
  Nd  Nd6  1  0.250000  0.735100  0.114634  1
  Cu  Cu7  1  0.250000  0.269400  0.750065  1
  As  As8  1  0.250000  0.767209  0.824583  1
  As  As9  1  0.750000  0.232949  0.170392  1
  As  As10  1  0.750000  0.266214  0.675514  1
  As  As11  1  0.250000  0.733502  0.329547  1
  As  As12  1  0.250000  0.265442  0.503321  1
  As  As13  1  0.250000  0.229738  0.996733  1
  As  As14  1  0.750000  0.770025  0.996595  1
  As  As15  1  0.750000  0.734699  0.503270  1
