# generated using pymatgen
data_La5Sm7(Si7Br3)2
_symmetry_space_group_name_H-M   'P 1'
_cell_length_a   4.06955000
_cell_length_b   11.79823500
_cell_length_c   16.45172200
_cell_angle_alpha   90.00000000
_cell_angle_beta   90.00000000
_cell_angle_gamma   90.00000000
_symmetry_Int_Tables_number   1
_chemical_formula_structural   La5Sm7(Si7Br3)2
_chemical_formula_sum   'La5 Sm7 Si14 Br6'
_cell_volume   789.90487343
_cell_formula_units_Z   1
loop_
 _symmetry_equiv_pos_site_id
 _symmetry_equiv_pos_as_xyz
  1  'x, y, z'
loop_
 _atom_site_type_symbol
 _atom_site_label
 _atom_site_symmetry_multiplicity
 _atom_site_fract_x
 _atom_site_fract_y
 _atom_site_fract_z
 _atom_site_occupancy
  La  La0  1  0.000000  0.662739  0.000000  1
  La  La1  1  0.500000  0.067069  0.877794  1
  La  La2  1  0.000000  0.933932  0.621284  1
  La  La3  1  0.500000  0.067069  0.122206  1
  La  La4  1  0.000000  0.933932  0.378716  1
  Sm  Sm5  1  0.500000  0.343081  0.500000  1
  Sm  Sm6  1  0.500000  0.362216  0.757206  1
  Sm  Sm7  1  0.000000  0.635585  0.740449  1
  Sm  Sm8  1  0.500000  0.362216  0.242794  1
  Sm  Sm9  1  0.000000  0.635585  0.259551  1
  Sm  Sm10  1  0.500000  0.360153  0.000000  1
  Sm  Sm11  1  0.000000  0.640007  0.500000  1
  Si  Si12  1  0.000000  0.157965  0.000000  1
  Si  Si13  1  0.500000  0.842252  0.500000  1
  Si  Si14  1  0.500000  0.568470  0.874626  1
  Si  Si15  1  0.000000  0.428429  0.623288  1
  Si  Si16  1  0.500000  0.568470  0.125374  1
  Si  Si17  1  0.000000  0.428429  0.376712  1
  Si  Si18  1  0.000000  0.258038  0.872855  1
  Si  Si19  1  0.500000  0.741623  0.626652  1
  Si  Si20  1  0.000000  0.258038  0.127145  1
  Si  Si21  1  0.500000  0.741623  0.373348  1
  Si  Si22  1  0.000000  0.460121  0.876530  1
  Si  Si23  1  0.500000  0.538725  0.621920  1
  Si  Si24  1  0.500000  0.538725  0.378080  1
  Si  Si25  1  0.000000  0.460121  0.123470  1
  Br  Br26  1  0.500000  0.116043  0.691410  1
  Br  Br27  1  0.000000  0.882512  0.808312  1
  Br  Br28  1  0.000000  0.143531  0.500000  1
  Br  Br29  1  0.500000  0.864743  0.000000  1
  Br  Br30  1  0.500000  0.116043  0.308590  1
  Br  Br31  1  0.000000  0.882512  0.191688  1
