# generated using pymatgen
data_MgUCu(PO5)2
_symmetry_space_group_name_H-M   'P 1'
_cell_length_a   5.16158747
_cell_length_b   5.80777336
_cell_length_c   7.49036432
_cell_angle_alpha   108.93309431
_cell_angle_beta   109.03375223
_cell_angle_gamma   88.18089618
_symmetry_Int_Tables_number   1
_chemical_formula_structural   MgUCu(PO5)2
_chemical_formula_sum   'Mg1 U1 Cu1 P2 O10'
_cell_volume   200.09071216
_cell_formula_units_Z   1
loop_
 _symmetry_equiv_pos_site_id
 _symmetry_equiv_pos_as_xyz
  1  'x, y, z'
loop_
 _atom_site_type_symbol
 _atom_site_label
 _atom_site_symmetry_multiplicity
 _atom_site_fract_x
 _atom_site_fract_y
 _atom_site_fract_z
 _atom_site_occupancy
  Mg  Mg0  1  0.500160  0.000174  0.500060  1
  U  U1  1  0.000072  0.999892  0.999985  1
  Cu  Cu2  1  0.500141  0.499757  0.500018  1
  P  P3  1  0.906763  0.633445  0.285511  1
  P  P4  1  0.093035  0.366440  0.714384  1
  O  O5  1  0.876817  0.358914  0.168824  1
  O  O6  1  0.833641  0.784682  0.142296  1
  O  O7  1  0.327111  0.049916  0.213942  1
  O  O8  1  0.707287  0.695066  0.408747  1
  O  O9  1  0.209716  0.715170  0.429634  1
  O  O10  1  0.789814  0.285334  0.570294  1
  O  O11  1  0.292703  0.305068  0.591364  1
  O  O12  1  0.672970  0.949962  0.786090  1
  O  O13  1  0.166463  0.215321  0.857665  1
  O  O14  1  0.123300  0.640857  0.831188  1
