# generated using pymatgen
data_PrEuUSe5
_symmetry_space_group_name_H-M   'P 1'
_cell_length_a   7.85654100
_cell_length_b   8.43894300
_cell_length_c   12.36635100
_cell_angle_alpha   90.00000000
_cell_angle_beta   90.00000000
_cell_angle_gamma   90.00000000
_symmetry_Int_Tables_number   1
_chemical_formula_structural   PrEuUSe5
_chemical_formula_sum   'Pr4 Eu4 U4 Se20'
_cell_volume   819.90022174
_cell_formula_units_Z   4
loop_
 _symmetry_equiv_pos_site_id
 _symmetry_equiv_pos_as_xyz
  1  'x, y, z'
loop_
 _atom_site_type_symbol
 _atom_site_label
 _atom_site_symmetry_multiplicity
 _atom_site_fract_x
 _atom_site_fract_y
 _atom_site_fract_z
 _atom_site_occupancy
  Pr  Pr0  1  0.464040  0.499061  0.675046  1
  Pr  Pr1  1  0.035960  0.000939  0.175046  1
  Pr  Pr2  1  0.535960  0.999061  0.324954  1
  Pr  Pr3  1  0.964040  0.500939  0.824954  1
  Eu  Eu4  1  0.530907  0.500211  0.321813  1
  Eu  Eu5  1  0.969093  0.999789  0.821813  1
  Eu  Eu6  1  0.469093  0.000211  0.678187  1
  Eu  Eu7  1  0.030907  0.499789  0.178187  1
  U  U8  1  0.070425  0.752146  0.492113  1
  U  U9  1  0.429575  0.747854  0.992113  1
  U  U10  1  0.929575  0.252146  0.507887  1
  U  U11  1  0.570425  0.247854  0.007887  1
  Se  Se12  1  0.834080  0.957758  0.587258  1
  Se  Se13  1  0.665920  0.542242  0.087258  1
  Se  Se14  1  0.165920  0.457758  0.412742  1
  Se  Se15  1  0.334080  0.042242  0.912742  1
  Se  Se16  1  0.169550  0.045536  0.409560  1
  Se  Se17  1  0.330450  0.454464  0.909560  1
  Se  Se18  1  0.830450  0.545536  0.590440  1
  Se  Se19  1  0.669550  0.954464  0.090440  1
  Se  Se20  1  0.840707  0.754807  0.313543  1
  Se  Se21  1  0.659293  0.745193  0.813543  1
  Se  Se22  1  0.159293  0.254807  0.686457  1
  Se  Se23  1  0.340707  0.245193  0.186457  1
  Se  Se24  1  0.450181  0.750755  0.497456  1
  Se  Se25  1  0.049819  0.749245  0.997456  1
  Se  Se26  1  0.549819  0.250755  0.502544  1
  Se  Se27  1  0.950181  0.249245  0.002544  1
  Se  Se28  1  0.185597  0.745955  0.712328  1
  Se  Se29  1  0.314403  0.754045  0.212328  1
  Se  Se30  1  0.814403  0.245955  0.287672  1
  Se  Se31  1  0.685597  0.254045  0.787672  1
