# generated using pymatgen
data_Lu6CrB14W
_symmetry_space_group_name_H-M   'P 1'
_cell_length_a   7.96385091
_cell_length_b   7.96384927
_cell_length_c   9.29388900
_cell_angle_alpha   90.00000000
_cell_angle_beta   90.00000000
_cell_angle_gamma   155.42665041
_symmetry_Int_Tables_number   1
_chemical_formula_structural   Lu6CrB14W
_chemical_formula_sum   'Lu6 Cr1 B14 W1'
_cell_volume   245.12551227
_cell_formula_units_Z   1
loop_
 _symmetry_equiv_pos_site_id
 _symmetry_equiv_pos_as_xyz
  1  'x, y, z'
loop_
 _atom_site_type_symbol
 _atom_site_label
 _atom_site_symmetry_multiplicity
 _atom_site_fract_x
 _atom_site_fract_y
 _atom_site_fract_z
 _atom_site_occupancy
  Lu  Lu0  1  0.894053  0.105947  0.435940  1
  Lu  Lu1  1  0.107094  0.892906  0.554972  1
  Lu  Lu2  1  0.894053  0.105947  0.064060  1
  Lu  Lu3  1  0.107094  0.892906  0.945028  1
  Lu  Lu4  1  0.241780  0.758220  0.250000  1
  Lu  Lu5  1  0.753533  0.246467  0.750000  1
  Cr  Cr6  1  0.052787  0.947213  0.250000  1
  B  B7  1  0.727552  0.272448  0.464775  1
  B  B8  1  0.271381  0.728619  0.531384  1
  B  B9  1  0.727552  0.272448  0.035225  1
  B  B10  1  0.271381  0.728619  0.968616  1
  B  B11  1  0.631484  0.368516  0.151673  1
  B  B12  1  0.364541  0.635459  0.855038  1
  B  B13  1  0.631484  0.368516  0.348327  1
  B  B14  1  0.364541  0.635459  0.644962  1
  B  B15  1  0.520746  0.479254  0.096655  1
  B  B16  1  0.482071  0.517929  0.911063  1
  B  B17  1  0.520746  0.479254  0.403345  1
  B  B18  1  0.482071  0.517929  0.588937  1
  B  B19  1  0.456096  0.543904  0.250000  1
  B  B20  1  0.550258  0.449742  0.750000  1
  W  W21  1  0.947700  0.052300  0.750000  1
