# generated using pymatgen
data_Tc4Ge7
_symmetry_space_group_name_H-M   'P 1'
_cell_length_a   5.96613000
_cell_length_b   5.96613000
_cell_length_c   19.70556000
_cell_angle_alpha   90.00000000
_cell_angle_beta   90.00000000
_cell_angle_gamma   90.00000000
_symmetry_Int_Tables_number   1
_chemical_formula_structural   Tc4Ge7
_chemical_formula_sum   'Tc16 Ge28'
_cell_volume   701.41363796
_cell_formula_units_Z   4
loop_
 _symmetry_equiv_pos_site_id
 _symmetry_equiv_pos_as_xyz
  1  'x, y, z'
loop_
 _atom_site_type_symbol
 _atom_site_label
 _atom_site_symmetry_multiplicity
 _atom_site_fract_x
 _atom_site_fract_y
 _atom_site_fract_z
 _atom_site_occupancy
  Tc  Tc0  1  0.000000  0.000000  0.000000  1
  Tc  Tc1  1  0.000000  0.499999  0.064515  1
  Tc  Tc2  1  0.499999  0.499999  0.129551  1
  Tc  Tc3  1  0.499999  0.000000  0.192869  1
  Tc  Tc4  1  0.000000  0.000000  0.250000  1
  Tc  Tc5  1  0.000000  0.499999  0.307131  1
  Tc  Tc6  1  0.499999  0.499999  0.370449  1
  Tc  Tc7  1  0.499999  0.000000  0.435485  1
  Tc  Tc8  1  0.000000  0.000000  0.500000  1
  Tc  Tc9  1  0.000000  0.499999  0.564515  1
  Tc  Tc10  1  0.499999  0.499999  0.629551  1
  Tc  Tc11  1  0.499999  0.000000  0.692870  1
  Tc  Tc12  1  0.000000  0.000000  0.750000  1
  Tc  Tc13  1  0.000000  0.499999  0.807131  1
  Tc  Tc14  1  0.499999  0.499999  0.870449  1
  Tc  Tc15  1  0.499999  0.000000  0.935485  1
  Ge  Ge16  1  0.654275  0.237782  0.036822  1
  Ge  Ge17  1  0.345721  0.762218  0.036822  1
  Ge  Ge18  1  0.211363  0.153457  0.109975  1
  Ge  Ge19  1  0.788637  0.846545  0.109975  1
  Ge  Ge20  1  0.843977  0.314910  0.180829  1
  Ge  Ge21  1  0.156023  0.685088  0.180829  1
  Ge  Ge22  1  0.332984  0.332984  0.250000  1
  Ge  Ge23  1  0.667017  0.667017  0.250000  1
  Ge  Ge24  1  0.685088  0.156023  0.319171  1
  Ge  Ge25  1  0.314910  0.843977  0.319171  1
  Ge  Ge26  1  0.153457  0.211363  0.390025  1
  Ge  Ge27  1  0.846545  0.788637  0.390025  1
  Ge  Ge28  1  0.762218  0.345721  0.463178  1
  Ge  Ge29  1  0.237782  0.654275  0.463178  1
  Ge  Ge30  1  0.345721  0.237782  0.536822  1
  Ge  Ge31  1  0.654275  0.762218  0.536822  1
  Ge  Ge32  1  0.788637  0.153457  0.609975  1
  Ge  Ge33  1  0.211363  0.846545  0.609975  1
  Ge  Ge34  1  0.156023  0.314910  0.680829  1
  Ge  Ge35  1  0.843977  0.685088  0.680829  1
  Ge  Ge36  1  0.667017  0.332984  0.750000  1
  Ge  Ge37  1  0.332984  0.667017  0.750000  1
  Ge  Ge38  1  0.314910  0.156023  0.819170  1
  Ge  Ge39  1  0.685088  0.843977  0.819170  1
  Ge  Ge40  1  0.846545  0.211363  0.890025  1
  Ge  Ge41  1  0.153457  0.788637  0.890025  1
  Ge  Ge42  1  0.237782  0.345721  0.963177  1
  Ge  Ge43  1  0.762218  0.654275  0.963177  1
