# generated using pymatgen
data_Ho2In(AsRh2)6
_symmetry_space_group_name_H-M   'P 1'
_cell_length_a   10.03810500
_cell_length_b   10.03810481
_cell_length_c   3.97513300
_cell_angle_alpha   90.00000000
_cell_angle_beta   90.00000000
_cell_angle_gamma   119.99999735
_symmetry_Int_Tables_number   1
_chemical_formula_structural   Ho2In(AsRh2)6
_chemical_formula_sum   'Ho2 In1 As6 Rh12'
_cell_volume   346.88519695
_cell_formula_units_Z   1
loop_
 _symmetry_equiv_pos_site_id
 _symmetry_equiv_pos_as_xyz
  1  'x, y, z'
loop_
 _atom_site_type_symbol
 _atom_site_label
 _atom_site_symmetry_multiplicity
 _atom_site_fract_x
 _atom_site_fract_y
 _atom_site_fract_z
 _atom_site_occupancy
  Ho  Ho0  1  0.333333  0.666667  0.245623  1
  Ho  Ho1  1  0.666667  0.333333  0.754377  1
  In  In2  1  0.000000  0.000000  0.500000  1
  As  As3  1  0.405017  0.117044  0.254769  1
  As  As4  1  0.712027  0.594983  0.254769  1
  As  As5  1  0.882956  0.287973  0.254769  1
  As  As6  1  0.594983  0.882956  0.745231  1
  As  As7  1  0.287973  0.405017  0.745231  1
  As  As8  1  0.117044  0.712027  0.745231  1
  Rh  Rh9  1  0.450726  0.385211  0.251448  1
  Rh  Rh10  1  0.934485  0.549274  0.251448  1
  Rh  Rh11  1  0.614789  0.065515  0.251448  1
  Rh  Rh12  1  0.549274  0.614789  0.748552  1
  Rh  Rh13  1  0.065515  0.450726  0.748552  1
  Rh  Rh14  1  0.385211  0.934485  0.748552  1
  Rh  Rh15  1  0.159493  0.873281  0.241652  1
  Rh  Rh16  1  0.713788  0.840507  0.241652  1
  Rh  Rh17  1  0.126719  0.286212  0.241652  1
  Rh  Rh18  1  0.840507  0.126719  0.758348  1
  Rh  Rh19  1  0.286212  0.159493  0.758348  1
  Rh  Rh20  1  0.873281  0.713788  0.758348  1
