# generated using pymatgen
data_Ta2Fe5(CoP)7
_symmetry_space_group_name_H-M   'P 1'
_cell_length_a   8.85238046
_cell_length_b   8.82278092
_cell_length_c   3.54511900
_cell_angle_alpha   90.00000000
_cell_angle_beta   90.00000000
_cell_angle_gamma   119.96604779
_symmetry_Int_Tables_number   1
_chemical_formula_structural   Ta2Fe5(CoP)7
_chemical_formula_sum   'Ta2 Fe5 Co7 P7'
_cell_volume   239.86975805
_cell_formula_units_Z   1
loop_
 _symmetry_equiv_pos_site_id
 _symmetry_equiv_pos_as_xyz
  1  'x, y, z'
loop_
 _atom_site_type_symbol
 _atom_site_label
 _atom_site_symmetry_multiplicity
 _atom_site_fract_x
 _atom_site_fract_y
 _atom_site_fract_z
 _atom_site_occupancy
  Ta  Ta0  1  0.663084  0.331613  0.500000  1
  Ta  Ta1  1  0.336425  0.667622  0.000000  1
  Fe  Fe2  1  0.390345  0.442834  0.500000  1
  Fe  Fe3  1  0.558300  0.948849  0.500000  1
  Fe  Fe4  1  0.218811  0.091407  0.500000  1
  Fe  Fe5  1  0.872050  0.779838  0.500000  1
  Fe  Fe6  1  0.909105  0.127349  0.500000  1
  Co  Co7  1  0.117368  0.835987  0.000000  1
  Co  Co8  1  0.721515  0.882970  0.000000  1
  Co  Co9  1  0.931667  0.369313  0.000000  1
  Co  Co10  1  0.631181  0.563952  0.000000  1
  Co  Co11  1  0.434994  0.067145  0.000000  1
  Co  Co12  1  0.053302  0.609606  0.500000  1
  Co  Co13  1  0.161526  0.280264  0.000000  1
  P  P14  1  0.000459  0.999585  0.000000  1
  P  P15  1  0.591562  0.714224  0.500000  1
  P  P16  1  0.701706  0.117950  0.000000  1
  P  P17  1  0.880343  0.584215  0.000000  1
  P  P18  1  0.414945  0.298066  0.000000  1
  P  P19  1  0.287579  0.878457  0.500000  1
  P  P20  1  0.123732  0.408755  0.500000  1
