# generated using pymatgen
data_Rb4ScMoCl12
_symmetry_space_group_name_H-M   'P 1'
_cell_length_a   7.34405643
_cell_length_b   7.34405643
_cell_length_c   10.43851100
_cell_angle_alpha   90.00000000
_cell_angle_beta   90.00000000
_cell_angle_gamma   91.00319616
_symmetry_Int_Tables_number   1
_chemical_formula_structural   Rb4ScMoCl12
_chemical_formula_sum   'Rb4 Sc1 Mo1 Cl12'
_cell_volume   562.91651443
_cell_formula_units_Z   1
loop_
 _symmetry_equiv_pos_site_id
 _symmetry_equiv_pos_as_xyz
  1  'x, y, z'
loop_
 _atom_site_type_symbol
 _atom_site_label
 _atom_site_symmetry_multiplicity
 _atom_site_fract_x
 _atom_site_fract_y
 _atom_site_fract_z
 _atom_site_occupancy
  Rb  Rb0  1  0.500000  0.000000  0.783901  1
  Rb  Rb1  1  0.000000  0.500000  0.216099  1
  Rb  Rb2  1  0.500000  0.000000  0.216099  1
  Rb  Rb3  1  0.000000  0.500000  0.783901  1
  Sc  Sc4  1  0.000000  0.000000  0.000000  1
  Mo  Mo5  1  0.500000  0.500000  0.500000  1
  Cl  Cl6  1  0.000000  0.000000  0.759541  1
  Cl  Cl7  1  0.500000  0.500000  0.274091  1
  Cl  Cl8  1  0.727584  0.727584  0.500000  1
  Cl  Cl9  1  0.243087  0.243087  0.000000  1
  Cl  Cl10  1  0.725168  0.274832  0.500000  1
  Cl  Cl11  1  0.238951  0.761049  0.000000  1
  Cl  Cl12  1  0.000000  0.000000  0.240459  1
  Cl  Cl13  1  0.500000  0.500000  0.725909  1
  Cl  Cl14  1  0.272416  0.272416  0.500000  1
  Cl  Cl15  1  0.756913  0.756913  0.000000  1
  Cl  Cl16  1  0.274832  0.725168  0.500000  1
  Cl  Cl17  1  0.761049  0.238951  0.000000  1
