# generated using pymatgen
data_Lu3Ti2SbRh10
_symmetry_space_group_name_H-M   'P 1'
_cell_length_a   4.19063300
_cell_length_b   5.64794722
_cell_length_c   11.01807222
_cell_angle_alpha   90.89089218
_cell_angle_beta   90.00000000
_cell_angle_gamma   90.00000000
_symmetry_Int_Tables_number   1
_chemical_formula_structural   Lu3Ti2SbRh10
_chemical_formula_sum   'Lu3 Ti2 Sb1 Rh10'
_cell_volume   260.74943197
_cell_formula_units_Z   1
loop_
 _symmetry_equiv_pos_site_id
 _symmetry_equiv_pos_as_xyz
  1  'x, y, z'
loop_
 _atom_site_type_symbol
 _atom_site_label
 _atom_site_symmetry_multiplicity
 _atom_site_fract_x
 _atom_site_fract_y
 _atom_site_fract_z
 _atom_site_occupancy
  Lu  Lu0  1  0.500000  0.327383  0.145056  1
  Lu  Lu1  1  0.500000  0.670884  0.855246  1
  Lu  Lu2  1  0.500000  0.832102  0.361476  1
  Ti  Ti3  1  0.000000  0.492652  0.504423  1
  Ti  Ti4  1  0.500000  0.160085  0.642088  1
  Sb  Sb5  1  0.000000  0.002315  0.997976  1
  Rh  Rh6  1  0.000000  0.018708  0.508588  1
  Rh  Rh7  1  0.000000  0.498132  0.997385  1
  Rh  Rh8  1  0.000000  0.073533  0.249663  1
  Rh  Rh9  1  0.000000  0.929979  0.747558  1
  Rh  Rh10  1  0.000000  0.573912  0.263412  1
  Rh  Rh11  1  0.000000  0.410204  0.729548  1
  Rh  Rh12  1  0.500000  0.321177  0.405457  1
  Rh  Rh13  1  0.500000  0.690167  0.605222  1
  Rh  Rh14  1  0.500000  0.811075  0.110546  1
  Rh  Rh15  1  0.500000  0.187692  0.876356  1
