# generated using pymatgen
data_Tb4Y12Cd4OsPd3
_symmetry_space_group_name_H-M   'P 1'
_cell_length_a   9.75432699
_cell_length_b   9.75432642
_cell_length_c   9.75432572
_cell_angle_alpha   59.50057396
_cell_angle_beta   59.50057683
_cell_angle_gamma   59.50057825
_symmetry_Int_Tables_number   1
_chemical_formula_structural   Tb4Y12Cd4OsPd3
_chemical_formula_sum   'Tb4 Y12 Cd4 Os1 Pd3'
_cell_volume   648.80744088
_cell_formula_units_Z   1
loop_
 _symmetry_equiv_pos_site_id
 _symmetry_equiv_pos_as_xyz
  1  'x, y, z'
loop_
 _atom_site_type_symbol
 _atom_site_label
 _atom_site_symmetry_multiplicity
 _atom_site_fract_x
 _atom_site_fract_y
 _atom_site_fract_z
 _atom_site_occupancy
  Tb  Tb0  1  0.353598  0.353598  0.353598  1
  Tb  Tb1  1  0.350466  0.350466  0.944519  1
  Tb  Tb2  1  0.350466  0.944519  0.350466  1
  Tb  Tb3  1  0.944519  0.350466  0.350466  1
  Y  Y4  1  0.816660  0.188301  0.188301  1
  Y  Y5  1  0.188334  0.810255  0.810255  1
  Y  Y6  1  0.188301  0.816660  0.188301  1
  Y  Y7  1  0.810255  0.188334  0.810255  1
  Y  Y8  1  0.188301  0.188301  0.816660  1
  Y  Y9  1  0.810255  0.810255  0.188334  1
  Y  Y10  1  0.934743  0.565947  0.565947  1
  Y  Y11  1  0.558849  0.937092  0.937092  1
  Y  Y12  1  0.565947  0.934743  0.565947  1
  Y  Y13  1  0.937092  0.558849  0.937092  1
  Y  Y14  1  0.565947  0.565947  0.934743  1
  Y  Y15  1  0.937092  0.937092  0.558849  1
  Cd  Cd16  1  0.580709  0.580709  0.580709  1
  Cd  Cd17  1  0.581185  0.581185  0.253879  1
  Cd  Cd18  1  0.581185  0.253879  0.581185  1
  Cd  Cd19  1  0.253879  0.581185  0.581185  1
  Os  Os20  1  0.144219  0.144219  0.144219  1
  Pd  Pd21  1  0.144934  0.144934  0.568126  1
  Pd  Pd22  1  0.144934  0.568126  0.144934  1
  Pd  Pd23  1  0.568126  0.144934  0.144934  1
