# generated using pymatgen
data_Y8Ho9Er3Sn16
_symmetry_space_group_name_H-M   'P 1'
_cell_length_a   8.02487200
_cell_length_b   8.16887913
_cell_length_c   15.44056100
_cell_angle_alpha   90.00000000
_cell_angle_beta   90.00000000
_cell_angle_gamma   90.01007197
_symmetry_Int_Tables_number   1
_chemical_formula_structural   Y8Ho9Er3Sn16
_chemical_formula_sum   'Y8 Ho9 Er3 Sn16'
_cell_volume   1012.19375297
_cell_formula_units_Z   1
loop_
 _symmetry_equiv_pos_site_id
 _symmetry_equiv_pos_as_xyz
  1  'x, y, z'
loop_
 _atom_site_type_symbol
 _atom_site_label
 _atom_site_symmetry_multiplicity
 _atom_site_fract_x
 _atom_site_fract_y
 _atom_site_fract_z
 _atom_site_occupancy
  Y  Y0  1  0.520542  0.319657  0.902472  1
  Y  Y1  1  0.020312  0.180362  0.597542  1
  Y  Y2  1  0.479464  0.680331  0.402460  1
  Y  Y3  1  0.979671  0.819611  0.097554  1
  Y  Y4  1  0.479464  0.680331  0.097540  1
  Y  Y5  1  0.979671  0.819611  0.402446  1
  Y  Y6  1  0.520542  0.319657  0.597528  1
  Y  Y7  1  0.020312  0.180362  0.902458  1
  Ho  Ho8  1  0.367302  0.836303  0.877751  1
  Ho  Ho9  1  0.867165  0.663736  0.622265  1
  Ho  Ho10  1  0.632735  0.163698  0.377699  1
  Ho  Ho11  1  0.132761  0.336305  0.122362  1
  Ho  Ho12  1  0.632735  0.163698  0.122301  1
  Ho  Ho13  1  0.132761  0.336305  0.377638  1
  Ho  Ho14  1  0.367302  0.836303  0.622249  1
  Ho  Ho15  1  0.867165  0.663736  0.877735  1
  Ho  Ho16  1  0.198079  0.503234  0.750000  1
  Er  Er17  1  0.698016  0.996627  0.750000  1
  Er  Er18  1  0.801984  0.496775  0.250000  1
  Er  Er19  1  0.301950  0.003239  0.250000  1
  Sn  Sn20  1  0.293642  0.036935  0.041744  1
  Sn  Sn21  1  0.793708  0.463147  0.458256  1
  Sn  Sn22  1  0.706328  0.963119  0.541663  1
  Sn  Sn23  1  0.206300  0.536985  0.958543  1
  Sn  Sn24  1  0.706328  0.963119  0.958337  1
  Sn  Sn25  1  0.206300  0.536985  0.541457  1
  Sn  Sn26  1  0.293642  0.036935  0.458256  1
  Sn  Sn27  1  0.793708  0.463147  0.041744  1
  Sn  Sn28  1  0.564858  0.619498  0.750000  1
  Sn  Sn29  1  0.064432  0.880819  0.750000  1
  Sn  Sn30  1  0.435637  0.380606  0.250000  1
  Sn  Sn31  1  0.935519  0.119320  0.250000  1
  Sn  Sn32  1  0.329530  0.147068  0.750000  1
  Sn  Sn33  1  0.829204  0.352375  0.750000  1
  Sn  Sn34  1  0.670505  0.852443  0.250000  1
  Sn  Sn35  1  0.170428  0.647620  0.250000  1
