# generated using pymatgen
data_Ce7Sm(Si3Ru)4
_symmetry_space_group_name_H-M   'P 1'
_cell_length_a   8.25352700
_cell_length_b   8.25352670
_cell_length_c   7.98350700
_cell_angle_alpha   90.00000000
_cell_angle_beta   90.00000000
_cell_angle_gamma   119.99999718
_symmetry_Int_Tables_number   1
_chemical_formula_structural   Ce7Sm(Si3Ru)4
_chemical_formula_sum   'Ce7 Sm1 Si12 Ru4'
_cell_volume   470.98111293
_cell_formula_units_Z   1
loop_
 _symmetry_equiv_pos_site_id
 _symmetry_equiv_pos_as_xyz
  1  'x, y, z'
loop_
 _atom_site_type_symbol
 _atom_site_label
 _atom_site_symmetry_multiplicity
 _atom_site_fract_x
 _atom_site_fract_y
 _atom_site_fract_z
 _atom_site_occupancy
  Ce  Ce0  1  0.499742  0.999486  0.250000  1
  Ce  Ce1  1  0.498678  0.997356  0.750000  1
  Ce  Ce2  1  0.000514  0.500258  0.250000  1
  Ce  Ce3  1  0.002644  0.501322  0.750000  1
  Ce  Ce4  1  0.499742  0.500258  0.250000  1
  Ce  Ce5  1  0.498678  0.501322  0.750000  1
  Ce  Ce6  1  0.000000  0.000000  0.250000  1
  Sm  Sm7  1  0.000000  0.000000  0.750000  1
  Si  Si8  1  0.165308  0.330617  0.002958  1
  Si  Si9  1  0.833767  0.667535  0.003932  1
  Si  Si10  1  0.669383  0.834692  0.002958  1
  Si  Si11  1  0.833767  0.667535  0.496068  1
  Si  Si12  1  0.332465  0.166233  0.003932  1
  Si  Si13  1  0.165308  0.330617  0.497042  1
  Si  Si14  1  0.165308  0.834692  0.002958  1
  Si  Si15  1  0.332465  0.166233  0.496068  1
  Si  Si16  1  0.833767  0.166233  0.003932  1
  Si  Si17  1  0.669383  0.834692  0.497042  1
  Si  Si18  1  0.833767  0.166233  0.496068  1
  Si  Si19  1  0.165308  0.834692  0.497042  1
  Ru  Ru20  1  0.333333  0.666667  0.983499  1
  Ru  Ru21  1  0.666667  0.333333  0.971724  1
  Ru  Ru22  1  0.666667  0.333333  0.528276  1
  Ru  Ru23  1  0.333333  0.666667  0.516501  1
