# generated using pymatgen
data_Tb5Th3(MgTc)2
_symmetry_space_group_name_H-M   'P 1'
_cell_length_a   9.77145401
_cell_length_b   9.86662192
_cell_length_c   9.86662102
_cell_angle_alpha   59.36288708
_cell_angle_beta   60.31854274
_cell_angle_gamma   60.31854763
_symmetry_Int_Tables_number   1
_chemical_formula_structural   Tb5Th3(MgTc)2
_chemical_formula_sum   'Tb10 Th6 Mg4 Tc4'
_cell_volume   672.51350737
_cell_formula_units_Z   2
loop_
 _symmetry_equiv_pos_site_id
 _symmetry_equiv_pos_as_xyz
  1  'x, y, z'
loop_
 _atom_site_type_symbol
 _atom_site_label
 _atom_site_symmetry_multiplicity
 _atom_site_fract_x
 _atom_site_fract_y
 _atom_site_fract_z
 _atom_site_occupancy
  Tb  Tb0  1  0.439264  0.060736  0.439264  1
  Tb  Tb1  1  0.060736  0.439264  0.060736  1
  Tb  Tb2  1  0.439264  0.439264  0.060736  1
  Tb  Tb3  1  0.060736  0.060736  0.439264  1
  Tb  Tb4  1  0.185170  0.814830  0.814830  1
  Tb  Tb5  1  0.814830  0.185170  0.185170  1
  Tb  Tb6  1  0.811580  0.188420  0.811580  1
  Tb  Tb7  1  0.188420  0.811580  0.188420  1
  Tb  Tb8  1  0.811580  0.811580  0.188420  1
  Tb  Tb9  1  0.188420  0.188420  0.811580  1
  Th  Th10  1  0.593927  0.596714  0.596714  1
  Th  Th11  1  0.596714  0.593927  0.212647  1
  Th  Th12  1  0.596714  0.212647  0.593927  1
  Th  Th13  1  0.212647  0.596714  0.596714  1
  Th  Th14  1  0.065658  0.434342  0.434342  1
  Th  Th15  1  0.434342  0.065658  0.065658  1
  Mg  Mg16  1  0.830801  0.829329  0.829329  1
  Mg  Mg17  1  0.829329  0.830801  0.510541  1
  Mg  Mg18  1  0.829329  0.510541  0.830801  1
  Mg  Mg19  1  0.510541  0.829329  0.829329  1
  Tc  Tc20  1  0.373790  0.398221  0.398221  1
  Tc  Tc21  1  0.398221  0.373790  0.829768  1
  Tc  Tc22  1  0.398221  0.829768  0.373790  1
  Tc  Tc23  1  0.829768  0.398221  0.398221  1
