# generated using pymatgen
data_HoPaFeCoB8
_symmetry_space_group_name_H-M   'P 1'
_cell_length_a   3.40889800
_cell_length_b   5.91032630
_cell_length_c   11.46633307
_cell_angle_alpha   89.88178314
_cell_angle_beta   90.00000000
_cell_angle_gamma   90.00000000
_symmetry_Int_Tables_number   1
_chemical_formula_structural   HoPaFeCoB8
_chemical_formula_sum   'Ho2 Pa2 Fe2 Co2 B16'
_cell_volume   231.01974127
_cell_formula_units_Z   2
loop_
 _symmetry_equiv_pos_site_id
 _symmetry_equiv_pos_as_xyz
  1  'x, y, z'
loop_
 _atom_site_type_symbol
 _atom_site_label
 _atom_site_symmetry_multiplicity
 _atom_site_fract_x
 _atom_site_fract_y
 _atom_site_fract_z
 _atom_site_occupancy
  Ho  Ho0  1  0.500000  0.127854  0.648389  1
  Ho  Ho1  1  0.500000  0.872146  0.351611  1
  Pa  Pa2  1  0.500000  0.372770  0.150564  1
  Pa  Pa3  1  0.500000  0.627230  0.849436  1
  Fe  Fe4  1  0.500000  0.133889  0.909586  1
  Fe  Fe5  1  0.500000  0.866111  0.090414  1
  Co  Co6  1  0.500000  0.365496  0.409129  1
  Co  Co7  1  0.500000  0.634504  0.590871  1
  B  B8  1  0.000000  0.110850  0.045935  1
  B  B9  1  0.000000  0.889150  0.954065  1
  B  B10  1  0.000000  0.387059  0.545201  1
  B  B11  1  0.000000  0.612941  0.454799  1
  B  B12  1  0.000000  0.138456  0.467188  1
  B  B13  1  0.000000  0.861544  0.532812  1
  B  B14  1  0.000000  0.360863  0.965347  1
  B  B15  1  0.000000  0.639137  0.034653  1
  B  B16  1  0.000000  0.023068  0.190711  1
  B  B17  1  0.000000  0.976932  0.809289  1
  B  B18  1  0.000000  0.476134  0.688516  1
  B  B19  1  0.000000  0.523866  0.311484  1
  B  B20  1  0.000000  0.216199  0.316158  1
  B  B21  1  0.000000  0.783801  0.683842  1
  B  B22  1  0.000000  0.282134  0.814531  1
  B  B23  1  0.000000  0.717866  0.185469  1
