# generated using pymatgen
data_TiNb2Al2FeC
_symmetry_space_group_name_H-M   'P 1'
_cell_length_a   8.18844665
_cell_length_b   8.19435039
_cell_length_c   8.21269731
_cell_angle_alpha   59.88433690
_cell_angle_beta   59.87443716
_cell_angle_gamma   60.17178981
_symmetry_Int_Tables_number   1
_chemical_formula_structural   TiNb2Al2FeC
_chemical_formula_sum   'Ti4 Nb8 Al8 Fe4 C4'
_cell_volume   389.44964346
_cell_formula_units_Z   4
loop_
 _symmetry_equiv_pos_site_id
 _symmetry_equiv_pos_as_xyz
  1  'x, y, z'
loop_
 _atom_site_type_symbol
 _atom_site_label
 _atom_site_symmetry_multiplicity
 _atom_site_fract_x
 _atom_site_fract_y
 _atom_site_fract_z
 _atom_site_occupancy
  Ti  Ti0  1  0.691111  0.308893  0.691115  1
  Ti  Ti1  1  0.940197  0.558649  0.558879  1
  Ti  Ti2  1  0.558821  0.942288  0.940214  1
  Ti  Ti3  1  0.942989  0.556952  0.942992  1
  Nb  Nb4  1  0.556091  0.554938  0.943524  1
  Nb  Nb5  1  0.943535  0.945418  0.556101  1
  Nb  Nb6  1  0.693740  0.692988  0.305635  1
  Nb  Nb7  1  0.304433  0.694210  0.695245  1
  Nb  Nb8  1  0.695271  0.306049  0.304409  1
  Nb  Nb9  1  0.305668  0.307609  0.693749  1
  Nb  Nb10  1  0.555865  0.944119  0.555899  1
  Nb  Nb11  1  0.307814  0.692185  0.307809  1
  Al  Al12  1  0.328931  0.333673  0.333932  1
  Al  Al13  1  0.247653  0.919086  0.920053  1
  Al  Al14  1  0.919653  0.248200  0.913490  1
  Al  Al15  1  0.920103  0.913192  0.247614  1
  Al  Al16  1  0.333740  0.003457  0.329149  1
  Al  Al17  1  0.334645  0.329116  0.002716  1
  Al  Al18  1  0.002711  0.333477  0.334750  1
  Al  Al19  1  0.913520  0.918633  0.919612  1
  Fe  Fe20  1  0.120960  0.126945  0.127387  1
  Fe  Fe21  1  0.625992  0.126783  0.128368  1
  Fe  Fe22  1  0.127713  0.624767  0.120596  1
  Fe  Fe23  1  0.128292  0.119097  0.626122  1
  C  C24  1  0.628788  0.619912  0.624675  1
  C  C25  1  0.117467  0.624354  0.629694  1
  C  C26  1  0.624623  0.126602  0.628805  1
  C  C27  1  0.629675  0.628409  0.117467  1
