# generated using pymatgen
data_SnHg2(PdSe2)3
_symmetry_space_group_name_H-M   'P 1'
_cell_length_a   7.64119900
_cell_length_b   7.64119849
_cell_length_c   5.53894000
_cell_angle_alpha   90.00000000
_cell_angle_beta   90.00000000
_cell_angle_gamma   120.00001517
_symmetry_Int_Tables_number   1
_chemical_formula_structural   SnHg2(PdSe2)3
_chemical_formula_sum   'Sn1 Hg2 Pd3 Se6'
_cell_volume   280.07878751
_cell_formula_units_Z   1
loop_
 _symmetry_equiv_pos_site_id
 _symmetry_equiv_pos_as_xyz
  1  'x, y, z'
loop_
 _atom_site_type_symbol
 _atom_site_label
 _atom_site_symmetry_multiplicity
 _atom_site_fract_x
 _atom_site_fract_y
 _atom_site_fract_z
 _atom_site_occupancy
  Sn  Sn0  1  0.000000  0.000000  0.000000  1
  Hg  Hg1  1  0.333333  0.666667  0.656954  1
  Hg  Hg2  1  0.666667  0.333333  0.343046  1
  Pd  Pd3  1  0.500000  0.500000  0.000000  1
  Pd  Pd4  1  0.000000  0.500000  0.000000  1
  Pd  Pd5  1  0.500000  0.000000  0.000000  1
  Se  Se6  1  0.819627  0.639253  0.757421  1
  Se  Se7  1  0.819627  0.180373  0.757421  1
  Se  Se8  1  0.360747  0.180373  0.757421  1
  Se  Se9  1  0.180373  0.360747  0.242579  1
  Se  Se10  1  0.180373  0.819627  0.242579  1
  Se  Se11  1  0.639253  0.819627  0.242579  1
