# generated using pymatgen
data_HoErCu2(AuO4)2
_symmetry_space_group_name_H-M   'P 1'
_cell_length_a   6.42741712
_cell_length_b   6.42741792
_cell_length_c   6.46406806
_cell_angle_alpha   126.03616046
_cell_angle_beta   126.20963715
_cell_angle_gamma   79.29455331
_symmetry_Int_Tables_number   1
_chemical_formula_structural   HoErCu2(AuO4)2
_chemical_formula_sum   'Ho1 Er1 Cu2 Au2 O8'
_cell_volume   168.79492505
_cell_formula_units_Z   1
loop_
 _symmetry_equiv_pos_site_id
 _symmetry_equiv_pos_as_xyz
  1  'x, y, z'
loop_
 _atom_site_type_symbol
 _atom_site_label
 _atom_site_symmetry_multiplicity
 _atom_site_fract_x
 _atom_site_fract_y
 _atom_site_fract_z
 _atom_site_occupancy
  Ho  Ho0  1  0.749840  0.249840  0.500000  1
  Er  Er1  1  0.000215  0.000215  0.000000  1
  Cu  Cu2  1  0.374989  0.624960  0.249943  1
  Cu  Cu3  1  0.375016  0.125045  0.750057  1
  Au  Au4  1  0.374952  0.625115  0.750038  1
  Au  Au5  1  0.875077  0.624914  0.249962  1
  O  O6  1  0.741943  0.283295  0.140128  1
  O  O7  1  0.143167  0.601815  0.859872  1
  O  O8  1  0.008750  0.965702  0.358485  1
  O  O9  1  0.607217  0.650265  0.641515  1
  O  O10  1  0.045988  0.384038  0.034858  1
  O  O11  1  0.349181  0.011131  0.965142  1
  O  O12  1  0.398677  0.238245  0.533258  1
  O  O13  1  0.704988  0.865419  0.466742  1
