# generated using pymatgen
data_Na8GaSn11Au4
_symmetry_space_group_name_H-M   'P 1'
_cell_length_a   9.70883122
_cell_length_b   9.70883143
_cell_length_c   7.67037693
_cell_angle_alpha   90.14331670
_cell_angle_beta   89.85668153
_cell_angle_gamma   119.82334068
_symmetry_Int_Tables_number   1
_chemical_formula_structural   Na8GaSn11Au4
_chemical_formula_sum   'Na8 Ga1 Sn11 Au4'
_cell_volume   627.26317085
_cell_formula_units_Z   1
loop_
 _symmetry_equiv_pos_site_id
 _symmetry_equiv_pos_as_xyz
  1  'x, y, z'
loop_
 _atom_site_type_symbol
 _atom_site_label
 _atom_site_symmetry_multiplicity
 _atom_site_fract_x
 _atom_site_fract_y
 _atom_site_fract_z
 _atom_site_occupancy
  Na  Na0  1  0.529612  0.062555  0.248123  1
  Na  Na1  1  0.066085  0.535742  0.751598  1
  Na  Na2  1  0.468554  0.531446  0.752225  1
  Na  Na3  1  0.532403  0.467597  0.249171  1
  Na  Na4  1  0.464258  0.933915  0.751598  1
  Na  Na5  1  0.937445  0.470388  0.248123  1
  Na  Na6  1  0.000912  0.999088  0.751190  1
  Na  Na7  1  0.001792  0.998208  0.245368  1
  Ga  Ga8  1  0.172332  0.827668  0.059707  1
  Sn  Sn9  1  0.830967  0.658618  0.557834  1
  Sn  Sn10  1  0.341382  0.169033  0.557834  1
  Sn  Sn11  1  0.829170  0.170830  0.946395  1
  Sn  Sn12  1  0.839363  0.662244  0.949035  1
  Sn  Sn13  1  0.829387  0.170613  0.556030  1
  Sn  Sn14  1  0.337756  0.160637  0.949035  1
  Sn  Sn15  1  0.656370  0.827179  0.054003  1
  Sn  Sn16  1  0.658450  0.829458  0.444869  1
  Sn  Sn17  1  0.170542  0.341550  0.444869  1
  Sn  Sn18  1  0.170129  0.829871  0.428913  1
  Sn  Sn19  1  0.172821  0.343630  0.054003  1
  Au  Au20  1  0.333186  0.666814  0.456527  1
  Au  Au21  1  0.665803  0.334197  0.543610  1
  Au  Au22  1  0.664681  0.335319  0.954453  1
  Au  Au23  1  0.326601  0.673399  0.045486  1
