# generated using pymatgen
data_LiTh2Mn2Co9P7
_symmetry_space_group_name_H-M   'P 1'
_cell_length_a   9.16485203
_cell_length_b   9.16628094
_cell_length_c   3.71337200
_cell_angle_alpha   90.00000000
_cell_angle_beta   90.00000000
_cell_angle_gamma   120.09551098
_symmetry_Int_Tables_number   1
_chemical_formula_structural   LiTh2Mn2Co9P7
_chemical_formula_sum   'Li1 Th2 Mn2 Co9 P7'
_cell_volume   269.89754086
_cell_formula_units_Z   1
loop_
 _symmetry_equiv_pos_site_id
 _symmetry_equiv_pos_as_xyz
  1  'x, y, z'
loop_
 _atom_site_type_symbol
 _atom_site_label
 _atom_site_symmetry_multiplicity
 _atom_site_fract_x
 _atom_site_fract_y
 _atom_site_fract_z
 _atom_site_occupancy
  Li  Li0  1  0.774393  0.226078  0.500000  1
  Th  Th1  1  0.331938  0.665690  0.000000  1
  Th  Th2  1  0.999427  0.000459  0.500000  1
  Mn  Mn3  1  0.768031  0.547847  0.500000  1
  Mn  Mn4  1  0.448650  0.215134  0.500000  1
  Co  Co5  1  0.043409  0.273802  0.000000  1
  Co  Co6  1  0.730082  0.765949  0.000000  1
  Co  Co7  1  0.235508  0.965025  0.000000  1
  Co  Co8  1  0.543848  0.057969  0.000000  1
  Co  Co9  1  0.939551  0.487592  0.000000  1
  Co  Co10  1  0.512110  0.455979  0.000000  1
  Co  Co11  1  0.616914  0.900009  0.500000  1
  Co  Co12  1  0.103067  0.717808  0.500000  1
  Co  Co13  1  0.287705  0.387338  0.500000  1
  P  P14  1  0.769799  0.031783  0.000000  1
  P  P15  1  0.968234  0.738103  0.000000  1
  P  P16  1  0.264954  0.229974  0.000000  1
  P  P17  1  0.377578  0.938851  0.500000  1
  P  P18  1  0.061944  0.435983  0.500000  1
  P  P19  1  0.560774  0.625976  0.500000  1
  P  P20  1  0.662084  0.332650  0.000000  1
