# generated using pymatgen
data_Tm10Sn7Sb
_symmetry_space_group_name_H-M   'P 1'
_cell_length_a   8.00947900
_cell_length_b   8.06212529
_cell_length_c   15.21355633
_cell_angle_alpha   89.75753311
_cell_angle_beta   90.00000000
_cell_angle_gamma   90.00000000
_symmetry_Int_Tables_number   1
_chemical_formula_structural   Tm10Sn7Sb
_chemical_formula_sum   'Tm20 Sn14 Sb2'
_cell_volume   982.38261481
_cell_formula_units_Z   2
loop_
 _symmetry_equiv_pos_site_id
 _symmetry_equiv_pos_as_xyz
  1  'x, y, z'
loop_
 _atom_site_type_symbol
 _atom_site_label
 _atom_site_symmetry_multiplicity
 _atom_site_fract_x
 _atom_site_fract_y
 _atom_site_fract_z
 _atom_site_occupancy
  Tm  Tm0  1  0.959535  0.822425  0.897393  1
  Tm  Tm1  1  0.459535  0.677575  0.602607  1
  Tm  Tm2  1  0.541528  0.328809  0.103574  1
  Tm  Tm3  1  0.041528  0.171191  0.396426  1
  Tm  Tm4  1  0.962773  0.826932  0.601881  1
  Tm  Tm5  1  0.462773  0.673068  0.898119  1
  Tm  Tm6  1  0.535221  0.320985  0.397753  1
  Tm  Tm7  1  0.035221  0.179015  0.102247  1
  Tm  Tm8  1  0.882356  0.661309  0.379480  1
  Tm  Tm9  1  0.382356  0.838691  0.120520  1
  Tm  Tm10  1  0.618329  0.160041  0.621583  1
  Tm  Tm11  1  0.118329  0.339959  0.878417  1
  Tm  Tm12  1  0.119665  0.338743  0.620790  1
  Tm  Tm13  1  0.619665  0.161257  0.879210  1
  Tm  Tm14  1  0.380301  0.839431  0.378428  1
  Tm  Tm15  1  0.880301  0.660569  0.121572  1
  Tm  Tm16  1  0.289110  0.002186  0.748356  1
  Tm  Tm17  1  0.789110  0.497814  0.751644  1
  Tm  Tm18  1  0.210751  0.502569  0.250391  1
  Tm  Tm19  1  0.710751  0.997431  0.249609  1
  Sn  Sn20  1  0.721021  0.969491  0.457702  1
  Sn  Sn21  1  0.221021  0.530509  0.042298  1
  Sn  Sn22  1  0.222670  0.530701  0.457361  1
  Sn  Sn23  1  0.722670  0.969299  0.042639  1
  Sn  Sn24  1  0.280848  0.031246  0.542360  1
  Sn  Sn25  1  0.780848  0.468754  0.957640  1
  Sn  Sn26  1  0.153700  0.647563  0.749745  1
  Sn  Sn27  1  0.653700  0.852437  0.750255  1
  Sn  Sn28  1  0.344962  0.147437  0.248854  1
  Sn  Sn29  1  0.844962  0.352563  0.251146  1
  Sn  Sn30  1  0.923075  0.125042  0.750062  1
  Sn  Sn31  1  0.423075  0.374958  0.749938  1
  Sn  Sn32  1  0.577573  0.625450  0.251245  1
  Sn  Sn33  1  0.077573  0.874550  0.248755  1
  Sb  Sb34  1  0.776580  0.471650  0.544464  1
  Sb  Sb35  1  0.276580  0.028350  0.955536  1
