# generated using pymatgen
data_Th4Ni3Hg2Rh
_symmetry_space_group_name_H-M   'P 1'
_cell_length_a   7.68679489
_cell_length_b   7.68679489
_cell_length_c   3.71551700
_cell_angle_alpha   90.00000000
_cell_angle_beta   90.00000000
_cell_angle_gamma   89.85815428
_symmetry_Int_Tables_number   1
_chemical_formula_structural   Th4Ni3Hg2Rh
_chemical_formula_sum   'Th4 Ni3 Hg2 Rh1'
_cell_volume   219.53739531
_cell_formula_units_Z   1
loop_
 _symmetry_equiv_pos_site_id
 _symmetry_equiv_pos_as_xyz
  1  'x, y, z'
loop_
 _atom_site_type_symbol
 _atom_site_label
 _atom_site_symmetry_multiplicity
 _atom_site_fract_x
 _atom_site_fract_y
 _atom_site_fract_z
 _atom_site_occupancy
  Th  Th0  1  0.325729  0.173837  0.500001  1
  Th  Th1  1  0.827323  0.327323  0.500001  1
  Th  Th2  1  0.171053  0.671053  0.500001  1
  Th  Th3  1  0.673837  0.825729  0.500001  1
  Ni  Ni4  1  0.629744  0.129746  0.000000  1
  Ni  Ni5  1  0.121543  0.377702  0.000000  1
  Ni  Ni6  1  0.877702  0.621541  0.000000  1
  Hg  Hg7  1  0.994560  0.001786  0.000000  1
  Hg  Hg8  1  0.501786  0.494560  0.000000  1
  Rh  Rh9  1  0.376725  0.876725  0.000000  1
