# generated using pymatgen
data_Tb4Ho4Re(TcB8)3
_symmetry_space_group_name_H-M   'P 1'
_cell_length_a   3.68672800
_cell_length_b   9.16139102
_cell_length_c   11.55350401
_cell_angle_alpha   90.02446266
_cell_angle_beta   90.00000000
_cell_angle_gamma   90.00000000
_symmetry_Int_Tables_number   1
_chemical_formula_structural   Tb4Ho4Re(TcB8)3
_chemical_formula_sum   'Tb4 Ho4 Re1 Tc3 B24'
_cell_volume   390.22599542
_cell_formula_units_Z   1
loop_
 _symmetry_equiv_pos_site_id
 _symmetry_equiv_pos_as_xyz
  1  'x, y, z'
loop_
 _atom_site_type_symbol
 _atom_site_label
 _atom_site_symmetry_multiplicity
 _atom_site_fract_x
 _atom_site_fract_y
 _atom_site_fract_z
 _atom_site_occupancy
  Tb  Tb0  1  0.000000  0.323957  0.414053  1
  Tb  Tb1  1  0.000000  0.676269  0.585914  1
  Tb  Tb2  1  0.000000  0.823798  0.086059  1
  Tb  Tb3  1  0.000000  0.176494  0.914187  1
  Ho  Ho4  1  0.000000  0.942705  0.369015  1
  Ho  Ho5  1  0.000000  0.057839  0.630070  1
  Ho  Ho6  1  0.000000  0.442700  0.131000  1
  Ho  Ho7  1  0.000000  0.556244  0.869515  1
  Re  Re8  1  0.000000  0.861112  0.820331  1
  Tc  Tc9  1  0.000000  0.639074  0.320236  1
  Tc  Tc10  1  0.000000  0.360995  0.679706  1
  Tc  Tc11  1  0.000000  0.139110  0.179820  1
  B  B12  1  0.500000  0.553744  0.432507  1
  B  B13  1  0.500000  0.446404  0.567535  1
  B  B14  1  0.500000  0.053726  0.067596  1
  B  B15  1  0.500000  0.946476  0.932692  1
  B  B16  1  0.500000  0.749211  0.418085  1
  B  B17  1  0.500000  0.251039  0.581863  1
  B  B18  1  0.500000  0.249150  0.081949  1
  B  B19  1  0.500000  0.750465  0.918247  1
  B  B20  1  0.500000  0.791828  0.265506  1
  B  B21  1  0.500000  0.208138  0.734352  1
  B  B22  1  0.500000  0.291831  0.234568  1
  B  B23  1  0.500000  0.707804  0.765571  1
  B  B24  1  0.500000  0.630566  0.185775  1
  B  B25  1  0.500000  0.369232  0.814220  1
  B  B26  1  0.500000  0.130616  0.314298  1
  B  B27  1  0.500000  0.869572  0.685562  1
  B  B28  1  0.500000  0.982658  0.211958  1
  B  B29  1  0.500000  0.017677  0.787839  1
  B  B30  1  0.500000  0.482615  0.288067  1
  B  B31  1  0.500000  0.517284  0.712073  1
  B  B32  1  0.500000  0.599194  0.027828  1
  B  B33  1  0.500000  0.400288  0.972409  1
  B  B34  1  0.500000  0.099462  0.471974  1
  B  B35  1  0.500000  0.900724  0.527620  1
