# generated using pymatgen
data_Zr4Nb6Ga5Si3
_symmetry_space_group_name_H-M   'P 1'
_cell_length_a   7.00390867
_cell_length_b   7.03792963
_cell_length_c   12.88634500
_cell_angle_alpha   90.00000000
_cell_angle_beta   90.00000000
_cell_angle_gamma   89.90037266
_symmetry_Int_Tables_number   1
_chemical_formula_structural   Zr4Nb6Ga5Si3
_chemical_formula_sum   'Zr8 Nb12 Ga10 Si6'
_cell_volume   635.20585519
_cell_formula_units_Z   2
loop_
 _symmetry_equiv_pos_site_id
 _symmetry_equiv_pos_as_xyz
  1  'x, y, z'
loop_
 _atom_site_type_symbol
 _atom_site_label
 _atom_site_symmetry_multiplicity
 _atom_site_fract_x
 _atom_site_fract_y
 _atom_site_fract_z
 _atom_site_occupancy
  Zr  Zr0  1  0.999522  0.660458  0.033523  1
  Zr  Zr1  1  0.000478  0.339542  0.533523  1
  Zr  Zr2  1  0.661738  0.999738  0.971286  1
  Zr  Zr3  1  0.165526  0.499476  0.779454  1
  Zr  Zr4  1  0.834474  0.500524  0.279454  1
  Zr  Zr5  1  0.507675  0.162998  0.217871  1
  Zr  Zr6  1  0.492325  0.837002  0.717871  1
  Zr  Zr7  1  0.338262  0.000262  0.471286  1
  Nb  Nb8  1  0.354499  0.503438  0.380506  1
  Nb  Nb9  1  0.847204  0.995907  0.369921  1
  Nb  Nb10  1  0.997742  0.149461  0.128843  1
  Nb  Nb11  1  0.002258  0.850539  0.628843  1
  Nb  Nb12  1  0.645501  0.496562  0.880506  1
  Nb  Nb13  1  0.500215  0.350691  0.619002  1
  Nb  Nb14  1  0.499785  0.649309  0.119002  1
  Nb  Nb15  1  0.152796  0.004093  0.869921  1
  Nb  Nb16  1  0.665529  0.666774  0.499538  1
  Nb  Nb17  1  0.836770  0.169763  0.749126  1
  Nb  Nb18  1  0.163230  0.830237  0.249126  1
  Nb  Nb19  1  0.334471  0.333226  0.999538  1
  Ga  Ga20  1  0.040547  0.699264  0.435028  1
  Ga  Ga21  1  0.959453  0.300736  0.935028  1
  Ga  Ga22  1  0.701000  0.040212  0.565111  1
  Ga  Ga23  1  0.201880  0.456933  0.186285  1
  Ga  Ga24  1  0.798120  0.543067  0.686285  1
  Ga  Ga25  1  0.462257  0.198334  0.813196  1
  Ga  Ga26  1  0.537743  0.801666  0.313196  1
  Ga  Ga27  1  0.299000  0.959788  0.065111  1
  Ga  Ga28  1  0.860236  0.793066  0.825730  1
  Ga  Ga29  1  0.139764  0.206934  0.325730  1
  Si  Si30  1  0.792410  0.861896  0.176462  1
  Si  Si31  1  0.292046  0.637135  0.573228  1
  Si  Si32  1  0.707954  0.362865  0.073228  1
  Si  Si33  1  0.639395  0.291722  0.425889  1
  Si  Si34  1  0.360605  0.708278  0.925889  1
  Si  Si35  1  0.207590  0.138104  0.676462  1
