# generated using pymatgen
data_Y12Fe4BiAu
_symmetry_space_group_name_H-M   'P 1'
_cell_length_a   8.44816320
_cell_length_b   8.44816367
_cell_length_c   8.44816200
_cell_angle_alpha   110.52006292
_cell_angle_beta   111.24682956
_cell_angle_gamma   106.68310125
_symmetry_Int_Tables_number   1
_chemical_formula_structural   Y12Fe4BiAu
_chemical_formula_sum   'Y12 Fe4 Bi1 Au1'
_cell_volume   463.31821425
_cell_formula_units_Z   1
loop_
 _symmetry_equiv_pos_site_id
 _symmetry_equiv_pos_as_xyz
  1  'x, y, z'
loop_
 _atom_site_type_symbol
 _atom_site_label
 _atom_site_symmetry_multiplicity
 _atom_site_fract_x
 _atom_site_fract_y
 _atom_site_fract_z
 _atom_site_occupancy
  Y  Y0  1  0.288843  0.186126  0.474969  1
  Y  Y1  1  0.711157  0.813874  0.525031  1
  Y  Y2  1  0.288843  0.813874  0.102717  1
  Y  Y3  1  0.711157  0.186126  0.897283  1
  Y  Y4  1  0.611859  0.308796  0.303064  1
  Y  Y5  1  0.388141  0.691204  0.696936  1
  Y  Y6  1  0.005732  0.308796  0.696936  1
  Y  Y7  1  0.994268  0.691204  0.303064  1
  Y  Y8  1  0.216564  0.425969  0.209406  1
  Y  Y9  1  0.783436  0.574031  0.790594  1
  Y  Y10  1  0.216564  0.007158  0.790594  1
  Y  Y11  1  0.783436  0.992842  0.209406  1
  Fe  Fe12  1  0.000000  0.389159  0.389159  1
  Fe  Fe13  1  0.000000  0.610841  0.610841  1
  Fe  Fe14  1  0.394316  0.894316  0.500000  1
  Fe  Fe15  1  0.605684  0.105684  0.500000  1
  Bi  Bi16  1  0.500000  0.500000  0.000000  1
  Au  Au17  1  0.000000  0.000000  0.000000  1
