# generated using pymatgen
data_Al2P2Se7S
_symmetry_space_group_name_H-M   'P 1'
_cell_length_a   6.11250437
_cell_length_b   6.02356639
_cell_length_c   9.74399439
_cell_angle_alpha   90.04199034
_cell_angle_beta   90.09775103
_cell_angle_gamma   89.93040113
_symmetry_Int_Tables_number   1
_chemical_formula_structural   Al2P2Se7S
_chemical_formula_sum   'Al2 P2 Se7 S1'
_cell_volume   358.76398626
_cell_formula_units_Z   1
loop_
 _symmetry_equiv_pos_site_id
 _symmetry_equiv_pos_as_xyz
  1  'x, y, z'
loop_
 _atom_site_type_symbol
 _atom_site_label
 _atom_site_symmetry_multiplicity
 _atom_site_fract_x
 _atom_site_fract_y
 _atom_site_fract_z
 _atom_site_occupancy
  Al  Al0  1  0.500139  0.500356  0.749918  1
  Al  Al1  1  0.497346  0.497645  0.248420  1
  P  P2  1  0.000903  0.500979  0.750043  1
  P  P3  1  0.497741  0.004415  0.248417  1
  Se  Se4  1  0.228905  0.298619  0.618930  1
  Se  Se5  1  0.770090  0.702146  0.619282  1
  Se  Se6  1  0.230492  0.700858  0.881620  1
  Se  Se7  1  0.772758  0.297886  0.880067  1
  Se  Se8  1  0.294115  0.771866  0.376443  1
  Se  Se9  1  0.700884  0.229545  0.381414  1
  Se  Se10  1  0.691155  0.770319  0.114328  1
  S  S11  1  0.315472  0.225366  0.131119  1
