# generated using pymatgen
data_Th8Co3Si12Rh
_symmetry_space_group_name_H-M   'P 1'
_cell_length_a   8.11800300
_cell_length_b   8.11800290
_cell_length_c   8.42869300
_cell_angle_alpha   90.00000000
_cell_angle_beta   90.00000000
_cell_angle_gamma   119.99999633
_symmetry_Int_Tables_number   1
_chemical_formula_structural   Th8Co3Si12Rh
_chemical_formula_sum   'Th8 Co3 Si12 Rh1'
_cell_volume   481.04897446
_cell_formula_units_Z   1
loop_
 _symmetry_equiv_pos_site_id
 _symmetry_equiv_pos_as_xyz
  1  'x, y, z'
loop_
 _atom_site_type_symbol
 _atom_site_label
 _atom_site_symmetry_multiplicity
 _atom_site_fract_x
 _atom_site_fract_y
 _atom_site_fract_z
 _atom_site_occupancy
  Th  Th0  1  0.000000  0.000000  0.748907  1
  Th  Th1  1  0.000000  0.000000  0.251161  1
  Th  Th2  1  0.500873  0.499127  0.748495  1
  Th  Th3  1  0.500873  0.001747  0.748495  1
  Th  Th4  1  0.998253  0.499127  0.748495  1
  Th  Th5  1  0.501506  0.498494  0.251616  1
  Th  Th6  1  0.996989  0.498494  0.251616  1
  Th  Th7  1  0.501506  0.003011  0.251616  1
  Co  Co8  1  0.666667  0.333333  0.997577  1
  Co  Co9  1  0.666667  0.333333  0.502400  1
  Co  Co10  1  0.333333  0.666667  0.497790  1
  Si  Si11  1  0.827947  0.172053  0.999379  1
  Si  Si12  1  0.827947  0.655895  0.999379  1
  Si  Si13  1  0.344105  0.172053  0.999379  1
  Si  Si14  1  0.828797  0.171203  0.500659  1
  Si  Si15  1  0.828797  0.657595  0.500659  1
  Si  Si16  1  0.342405  0.171203  0.500659  1
  Si  Si17  1  0.171269  0.828731  0.499377  1
  Si  Si18  1  0.657461  0.828731  0.499377  1
  Si  Si19  1  0.171269  0.342539  0.499377  1
  Si  Si20  1  0.165462  0.834538  0.000526  1
  Si  Si21  1  0.669076  0.834538  0.000526  1
  Si  Si22  1  0.165462  0.330924  0.000526  1
  Rh  Rh23  1  0.333333  0.666667  0.002012  1
