# generated using pymatgen
data_Ho3ErCu2(Si2Ru)2
_symmetry_space_group_name_H-M   'P 1'
_cell_length_a   4.20996100
_cell_length_b   6.92755178
_cell_length_c   7.34434905
_cell_angle_alpha   91.36293748
_cell_angle_beta   90.00000000
_cell_angle_gamma   90.00000000
_symmetry_Int_Tables_number   1
_chemical_formula_structural   Ho3ErCu2(Si2Ru)2
_chemical_formula_sum   'Ho3 Er1 Cu2 Si4 Ru2'
_cell_volume   214.13530505
_cell_formula_units_Z   1
loop_
 _symmetry_equiv_pos_site_id
 _symmetry_equiv_pos_as_xyz
  1  'x, y, z'
loop_
 _atom_site_type_symbol
 _atom_site_label
 _atom_site_symmetry_multiplicity
 _atom_site_fract_x
 _atom_site_fract_y
 _atom_site_fract_z
 _atom_site_occupancy
  Ho  Ho0  1  0.250000  0.993887  0.797231  1
  Ho  Ho1  1  0.750000  0.006328  0.203008  1
  Ho  Ho2  1  0.250000  0.493331  0.688237  1
  Er  Er3  1  0.750000  0.507343  0.310604  1
  Cu  Cu4  1  0.750000  0.831818  0.573577  1
  Cu  Cu5  1  0.250000  0.167760  0.426103  1
  Si  Si6  1  0.250000  0.298209  0.090776  1
  Si  Si7  1  0.750000  0.701567  0.910083  1
  Si  Si8  1  0.250000  0.795308  0.389731  1
  Si  Si9  1  0.750000  0.204926  0.609831  1
  Ru  Ru10  1  0.750000  0.346289  0.934555  1
  Ru  Ru11  1  0.250000  0.653234  0.066263  1
