# generated using pymatgen
data_La7Pr11(SmSi8)2
_symmetry_space_group_name_H-M   'P 1'
_cell_length_a   7.95278068
_cell_length_b   7.95538717
_cell_length_c   15.43734600
_cell_angle_alpha   90.04665544
_cell_angle_beta   89.97631162
_cell_angle_gamma   90.03552582
_symmetry_Int_Tables_number   1
_chemical_formula_structural   La7Pr11(SmSi8)2
_chemical_formula_sum   'La7 Pr11 Sm2 Si16'
_cell_volume   976.68091127
_cell_formula_units_Z   1
loop_
 _symmetry_equiv_pos_site_id
 _symmetry_equiv_pos_as_xyz
  1  'x, y, z'
loop_
 _atom_site_type_symbol
 _atom_site_label
 _atom_site_symmetry_multiplicity
 _atom_site_fract_x
 _atom_site_fract_y
 _atom_site_fract_z
 _atom_site_occupancy
  La  La0  1  0.012651  0.378610  0.552500  1
  La  La1  1  0.622121  0.986755  0.947907  1
  La  La2  1  0.121442  0.513111  0.802962  1
  La  La3  1  0.878090  0.486961  0.302183  1
  La  La4  1  0.512616  0.121811  0.197384  1
  La  La5  1  0.487071  0.878372  0.697513  1
  La  La6  1  0.378202  0.012461  0.447216  1
  Pr  Pr7  1  0.373839  0.480549  0.372679  1
  Pr  Pr8  1  0.873470  0.018871  0.376314  1
  Pr  Pr9  1  0.980649  0.126049  0.123019  1
  Pr  Pr10  1  0.019321  0.874133  0.622981  1
  Pr  Pr11  1  0.626913  0.520109  0.873794  1
  Pr  Pr12  1  0.480596  0.373684  0.626882  1
  Pr  Pr13  1  0.519514  0.627027  0.126495  1
  Pr  Pr14  1  0.125578  0.980572  0.877354  1
  Pr  Pr15  1  0.989013  0.619620  0.053846  1
  Pr  Pr16  1  0.691381  0.691742  0.500177  1
  Pr  Pr17  1  0.808474  0.191757  0.750089  1
  Sm  Sm18  1  0.190608  0.809015  0.249931  1
  Sm  Sm19  1  0.309558  0.309551  0.000160  1
  Si  Si20  1  0.081257  0.713506  0.438113  1
  Si  Si21  1  0.922436  0.288452  0.940402  1
  Si  Si22  1  0.713232  0.080272  0.560113  1
  Si  Si23  1  0.213334  0.420915  0.188421  1
  Si  Si24  1  0.786560  0.579882  0.689823  1
  Si  Si25  1  0.418830  0.213741  0.812014  1
  Si  Si26  1  0.578574  0.786722  0.309331  1
  Si  Si27  1  0.285686  0.920071  0.061242  1
  Si  Si28  1  0.830097  0.806019  0.795395  1
  Si  Si29  1  0.169615  0.193238  0.294755  1
  Si  Si30  1  0.807596  0.829392  0.203837  1
  Si  Si31  1  0.305029  0.669157  0.545452  1
  Si  Si32  1  0.693967  0.331015  0.045649  1
  Si  Si33  1  0.669373  0.305167  0.454033  1
  Si  Si34  1  0.328491  0.692377  0.955325  1
  Si  Si35  1  0.194818  0.169314  0.704713  1
