# generated using pymatgen
data_Tm19MgRh12
_symmetry_space_group_name_H-M   'P 1'
_cell_length_a   10.73011600
_cell_length_b   10.73011600
_cell_length_c   6.25688600
_cell_angle_alpha   90.00000000
_cell_angle_beta   90.00000000
_cell_angle_gamma   90.00000000
_symmetry_Int_Tables_number   1
_chemical_formula_structural   Tm19MgRh12
_chemical_formula_sum   'Tm19 Mg1 Rh12'
_cell_volume   720.38900588
_cell_formula_units_Z   1
loop_
 _symmetry_equiv_pos_site_id
 _symmetry_equiv_pos_as_xyz
  1  'x, y, z'
loop_
 _atom_site_type_symbol
 _atom_site_label
 _atom_site_symmetry_multiplicity
 _atom_site_fract_x
 _atom_site_fract_y
 _atom_site_fract_z
 _atom_site_occupancy
  Tm  Tm0  1  0.283815  0.084960  0.377873  1
  Tm  Tm1  1  0.290693  0.911678  0.879090  1
  Tm  Tm2  1  0.709307  0.088322  0.879090  1
  Tm  Tm3  1  0.716185  0.915040  0.377873  1
  Tm  Tm4  1  0.588841  0.791550  0.878159  1
  Tm  Tm5  1  0.587318  0.208195  0.376532  1
  Tm  Tm6  1  0.412682  0.791805  0.376532  1
  Tm  Tm7  1  0.411159  0.208450  0.878159  1
  Tm  Tm8  1  0.208195  0.412682  0.623468  1
  Tm  Tm9  1  0.208450  0.588841  0.121841  1
  Tm  Tm10  1  0.791550  0.411159  0.121841  1
  Tm  Tm11  1  0.791805  0.587318  0.623468  1
  Tm  Tm12  1  0.911678  0.709307  0.120910  1
  Tm  Tm13  1  0.915040  0.283815  0.622127  1
  Tm  Tm14  1  0.084960  0.716185  0.622127  1
  Tm  Tm15  1  0.088322  0.290693  0.120910  1
  Tm  Tm16  1  0.000000  0.000000  0.000000  1
  Tm  Tm17  1  0.500000  0.500000  0.000000  1
  Tm  Tm18  1  0.500000  0.500000  0.500000  1
  Mg  Mg19  1  0.000000  0.000000  0.500000  1
  Rh  Rh20  1  0.845863  0.155153  0.246407  1
  Rh  Rh21  1  0.844847  0.845863  0.753593  1
  Rh  Rh22  1  0.155153  0.154137  0.753593  1
  Rh  Rh23  1  0.154137  0.844847  0.246407  1
  Rh  Rh24  1  0.654494  0.345870  0.748461  1
  Rh  Rh25  1  0.654130  0.654494  0.251539  1
  Rh  Rh26  1  0.345870  0.345506  0.251539  1
  Rh  Rh27  1  0.345506  0.654130  0.748461  1
  Rh  Rh28  1  0.500000  0.000000  0.124625  1
  Rh  Rh29  1  0.500000  0.000000  0.621218  1
  Rh  Rh30  1  0.000000  0.500000  0.875375  1
  Rh  Rh31  1  0.000000  0.500000  0.378782  1
