# generated using pymatgen
data_V12Ga5Co(CuN2)2
_symmetry_space_group_name_H-M   'P 1'
_cell_length_a   6.54690633
_cell_length_b   6.54593561
_cell_length_c   6.55139040
_cell_angle_alpha   90.07874841
_cell_angle_beta   90.14104643
_cell_angle_gamma   90.17119792
_symmetry_Int_Tables_number   1
_chemical_formula_structural   V12Ga5Co(CuN2)2
_chemical_formula_sum   'V12 Ga5 Co1 Cu2 N4'
_cell_volume   280.76157275
_cell_formula_units_Z   1
loop_
 _symmetry_equiv_pos_site_id
 _symmetry_equiv_pos_as_xyz
  1  'x, y, z'
loop_
 _atom_site_type_symbol
 _atom_site_label
 _atom_site_symmetry_multiplicity
 _atom_site_fract_x
 _atom_site_fract_y
 _atom_site_fract_z
 _atom_site_occupancy
  V  V0  1  0.792915  0.960166  0.375746  1
  V  V1  1  0.710153  0.038821  0.873102  1
  V  V2  1  0.212228  0.464087  0.126945  1
  V  V3  1  0.287079  0.542890  0.621896  1
  V  V4  1  0.961526  0.375860  0.789101  1
  V  V5  1  0.039252  0.873325  0.706746  1
  V  V6  1  0.457106  0.121545  0.213943  1
  V  V7  1  0.536169  0.627329  0.288729  1
  V  V8  1  0.374415  0.787792  0.965121  1
  V  V9  1  0.877639  0.713392  0.042038  1
  V  V10  1  0.124796  0.207995  0.459244  1
  V  V11  1  0.625582  0.289599  0.539465  1
  Ga  Ga12  1  0.677971  0.677484  0.678422  1
  Ga  Ga13  1  0.570961  0.418159  0.934986  1
  Ga  Ga14  1  0.417472  0.932911  0.569002  1
  Ga  Ga15  1  0.936096  0.572095  0.417833  1
  Ga  Ga16  1  0.074487  0.071903  0.073915  1
  Co  Co17  1  0.177864  0.823451  0.319282  1
  Cu  Cu18  1  0.318989  0.178416  0.821813  1
  Cu  Cu19  1  0.822874  0.318815  0.179101  1
  N  N20  1  0.878154  0.125127  0.624353  1
  N  N21  1  0.625785  0.878774  0.126225  1
  N  N22  1  0.125269  0.624979  0.876719  1
  N  N23  1  0.375216  0.375084  0.376270  1
