# generated using pymatgen
data_Nd3Th(B10Os)2
_symmetry_space_group_name_H-M   'P 1'
_cell_length_a   4.22667700
_cell_length_b   5.77193196
_cell_length_c   11.47823311
_cell_angle_alpha   89.94982566
_cell_angle_beta   90.00000000
_cell_angle_gamma   90.00000000
_symmetry_Int_Tables_number   1
_chemical_formula_structural   Nd3Th(B10Os)2
_chemical_formula_sum   'Nd3 Th1 B20 Os2'
_cell_volume   280.02392403
_cell_formula_units_Z   1
loop_
 _symmetry_equiv_pos_site_id
 _symmetry_equiv_pos_as_xyz
  1  'x, y, z'
loop_
 _atom_site_type_symbol
 _atom_site_label
 _atom_site_symmetry_multiplicity
 _atom_site_fract_x
 _atom_site_fract_y
 _atom_site_fract_z
 _atom_site_occupancy
  Nd  Nd0  1  0.500000  0.718079  0.132677  1
  Nd  Nd1  1  0.500000  0.779793  0.628674  1
  Nd  Nd2  1  0.500000  0.218809  0.370491  1
  Th  Th3  1  0.500000  0.277182  0.870083  1
  B  B4  1  0.000000  0.120181  0.542507  1
  B  B5  1  0.000000  0.880255  0.457310  1
  B  B6  1  0.000000  0.622365  0.958240  1
  B  B7  1  0.000000  0.382246  0.042700  1
  B  B8  1  0.000000  0.133956  0.696959  1
  B  B9  1  0.000000  0.864714  0.302343  1
  B  B10  1  0.299029  0.223704  0.117867  1
  B  B11  1  0.299604  0.778595  0.881002  1
  B  B12  1  0.700929  0.722246  0.381627  1
  B  B13  1  0.700539  0.278405  0.618778  1
  B  B14  1  0.700396  0.778595  0.881002  1
  B  B15  1  0.700971  0.223704  0.117867  1
  B  B16  1  0.299461  0.278405  0.618778  1
  B  B17  1  0.299071  0.722246  0.381627  1
  B  B18  1  0.000000  0.057803  0.191727  1
  B  B19  1  0.000000  0.940151  0.806227  1
  B  B20  1  0.000000  0.557497  0.307897  1
  B  B21  1  0.000000  0.440465  0.693541  1
  B  B22  1  0.000000  0.364716  0.197532  1
  B  B23  1  0.000000  0.632957  0.803517  1
  Os  Os24  1  0.000000  0.500054  0.500213  1
  Os  Os25  1  0.000000  0.002881  0.998814  1
