# generated using pymatgen
data_CeGd3F12
_symmetry_space_group_name_H-M   'P 1'
_cell_length_a   7.12027200
_cell_length_b   4.49069221
_cell_length_c   6.66676400
_cell_angle_alpha   90.75338973
_cell_angle_beta   90.00000000
_cell_angle_gamma   90.00000000
_symmetry_Int_Tables_number   1
_chemical_formula_structural   CeGd3F12
_chemical_formula_sum   'Ce1 Gd3 F12'
_cell_volume   213.15101758
_cell_formula_units_Z   1
loop_
 _symmetry_equiv_pos_site_id
 _symmetry_equiv_pos_as_xyz
  1  'x, y, z'
loop_
 _atom_site_type_symbol
 _atom_site_label
 _atom_site_symmetry_multiplicity
 _atom_site_fract_x
 _atom_site_fract_y
 _atom_site_fract_z
 _atom_site_occupancy
  Ce  Ce0  1  0.000000  0.940306  0.132448  1
  Gd  Gd1  1  0.000000  0.562640  0.632011  1
  Gd  Gd2  1  0.500000  0.064962  0.865625  1
  Gd  Gd3  1  0.500000  0.437141  0.370855  1
  F  F4  1  0.000000  0.081476  0.487207  1
  F  F5  1  0.000000  0.422167  0.972401  1
  F  F6  1  0.500000  0.914490  0.520407  1
  F  F7  1  0.500000  0.586254  0.022902  1
  F  F8  1  0.187045  0.610627  0.339831  1
  F  F9  1  0.810498  0.884120  0.831043  1
  F  F10  1  0.684867  0.381629  0.663808  1
  F  F11  1  0.317845  0.118905  0.163390  1
  F  F12  1  0.315133  0.381629  0.663808  1
  F  F13  1  0.682155  0.118905  0.163390  1
  F  F14  1  0.812955  0.610627  0.339831  1
  F  F15  1  0.189502  0.884120  0.831043  1
