# generated using pymatgen
data_YTm7(Si4W3)4
_symmetry_space_group_name_H-M   'P 1'
_cell_length_a   6.73273326
_cell_length_b   6.91492408
_cell_length_c   12.85858753
_cell_angle_alpha   90.02083925
_cell_angle_beta   89.99744048
_cell_angle_gamma   90.02355078
_symmetry_Int_Tables_number   1
_chemical_formula_structural   YTm7(Si4W3)4
_chemical_formula_sum   'Y1 Tm7 Si16 W12'
_cell_volume   598.64867430
_cell_formula_units_Z   1
loop_
 _symmetry_equiv_pos_site_id
 _symmetry_equiv_pos_as_xyz
  1  'x, y, z'
loop_
 _atom_site_type_symbol
 _atom_site_label
 _atom_site_symmetry_multiplicity
 _atom_site_fract_x
 _atom_site_fract_y
 _atom_site_fract_z
 _atom_site_occupancy
  Y  Y0  1  0.996893  0.167842  0.092936  1
  Tm  Tm1  1  0.496102  0.331996  0.093318  1
  Tm  Tm2  1  0.996155  0.168128  0.406639  1
  Tm  Tm3  1  0.503896  0.668170  0.593345  1
  Tm  Tm4  1  0.003956  0.831727  0.906257  1
  Tm  Tm5  1  0.504073  0.667878  0.906441  1
  Tm  Tm6  1  0.003849  0.831858  0.593322  1
  Tm  Tm7  1  0.496184  0.331949  0.407033  1
  Si  Si8  1  0.662031  0.040759  0.546710  1
  Si  Si9  1  0.162157  0.459793  0.952854  1
  Si  Si10  1  0.339427  0.958294  0.046423  1
  Si  Si11  1  0.837937  0.540732  0.453524  1
  Si  Si12  1  0.337886  0.959297  0.453564  1
  Si  Si13  1  0.837502  0.541934  0.046403  1
  Si  Si14  1  0.661564  0.040656  0.952884  1
  Si  Si15  1  0.162028  0.459172  0.546666  1
  Si  Si16  1  0.534349  0.371710  0.749810  1
  Si  Si17  1  0.034493  0.128436  0.750005  1
  Si  Si18  1  0.465291  0.628140  0.250253  1
  Si  Si19  1  0.965124  0.870784  0.250397  1
  Si  Si20  1  0.801443  0.634998  0.749757  1
  Si  Si21  1  0.301636  0.865161  0.749909  1
  Si  Si22  1  0.199117  0.365920  0.250607  1
  Si  Si23  1  0.697759  0.134738  0.250425  1
  W  W24  1  0.830520  0.336155  0.625062  1
  W  W25  1  0.330852  0.163961  0.874672  1
  W  W26  1  0.169464  0.663863  0.125073  1
  W  W27  1  0.669261  0.835891  0.375178  1
  W  W28  1  0.169557  0.663895  0.375225  1
  W  W29  1  0.668735  0.835596  0.125359  1
  W  W30  1  0.830232  0.336678  0.874507  1
  W  W31  1  0.330446  0.164031  0.625135  1
  W  W32  1  0.665819  0.998384  0.749833  1
  W  W33  1  0.165663  0.501642  0.749840  1
  W  W34  1  0.334428  0.001000  0.250337  1
  W  W35  1  0.834174  0.498837  0.250293  1
