# generated using pymatgen
data_Pu2ZnSi3
_symmetry_space_group_name_H-M   'P 1'
_cell_length_a   8.11337300
_cell_length_b   8.11337264
_cell_length_c   8.04945600
_cell_angle_alpha   90.00000000
_cell_angle_beta   90.00000000
_cell_angle_gamma   119.99999740
_symmetry_Int_Tables_number   1
_chemical_formula_structural   Pu2ZnSi3
_chemical_formula_sum   'Pu8 Zn4 Si12'
_cell_volume   458.88096133
_cell_formula_units_Z   4
loop_
 _symmetry_equiv_pos_site_id
 _symmetry_equiv_pos_as_xyz
  1  'x, y, z'
loop_
 _atom_site_type_symbol
 _atom_site_label
 _atom_site_symmetry_multiplicity
 _atom_site_fract_x
 _atom_site_fract_y
 _atom_site_fract_z
 _atom_site_occupancy
  Pu  Pu0  1  0.000000  0.000000  0.250000  1
  Pu  Pu1  1  0.000000  0.000000  0.750000  1
  Pu  Pu2  1  0.499146  0.500854  0.250000  1
  Pu  Pu3  1  0.499146  0.998291  0.250000  1
  Pu  Pu4  1  0.001709  0.500854  0.250000  1
  Pu  Pu5  1  0.500854  0.499146  0.750000  1
  Pu  Pu6  1  0.500854  0.001709  0.750000  1
  Pu  Pu7  1  0.998291  0.499146  0.750000  1
  Zn  Zn8  1  0.333333  0.666667  0.502956  1
  Zn  Zn9  1  0.666667  0.333333  0.497044  1
  Zn  Zn10  1  0.666667  0.333333  0.002956  1
  Zn  Zn11  1  0.333333  0.666667  0.997044  1
  Si  Si12  1  0.165007  0.834993  0.500331  1
  Si  Si13  1  0.165007  0.330015  0.500331  1
  Si  Si14  1  0.669985  0.834993  0.500331  1
  Si  Si15  1  0.834993  0.165007  0.499669  1
  Si  Si16  1  0.834993  0.669985  0.499669  1
  Si  Si17  1  0.330015  0.165007  0.499669  1
  Si  Si18  1  0.834993  0.165007  0.000331  1
  Si  Si19  1  0.834993  0.669985  0.000331  1
  Si  Si20  1  0.330015  0.165007  0.000331  1
  Si  Si21  1  0.165007  0.834993  0.999669  1
  Si  Si22  1  0.165007  0.330015  0.999669  1
  Si  Si23  1  0.669985  0.834993  0.999669  1
