# generated using pymatgen
data_Li2Ho16In2PdRh3
_symmetry_space_group_name_H-M   'P 1'
_cell_length_a   9.63015627
_cell_length_b   9.61158374
_cell_length_c   9.63905600
_cell_angle_alpha   59.90541180
_cell_angle_beta   59.96943146
_cell_angle_gamma   59.65289219
_symmetry_Int_Tables_number   1
_chemical_formula_structural   Li2Ho16In2PdRh3
_chemical_formula_sum   'Li2 Ho16 In2 Pd1 Rh3'
_cell_volume   628.61681810
_cell_formula_units_Z   1
loop_
 _symmetry_equiv_pos_site_id
 _symmetry_equiv_pos_as_xyz
  1  'x, y, z'
loop_
 _atom_site_type_symbol
 _atom_site_label
 _atom_site_symmetry_multiplicity
 _atom_site_fract_x
 _atom_site_fract_y
 _atom_site_fract_z
 _atom_site_occupancy
  Li  Li0  1  0.823305  0.823689  0.826201  1
  Li  Li1  1  0.823305  0.823689  0.526804  1
  Ho  Ho2  1  0.185798  0.185201  0.814501  1
  Ho  Ho3  1  0.602071  0.596618  0.197747  1
  Ho  Ho4  1  0.439312  0.065141  0.439654  1
  Ho  Ho5  1  0.442500  0.441746  0.057876  1
  Ho  Ho6  1  0.814492  0.184791  0.814206  1
  Ho  Ho7  1  0.186164  0.811819  0.186142  1
  Ho  Ho8  1  0.439312  0.065141  0.055893  1
  Ho  Ho9  1  0.186164  0.811819  0.815874  1
  Ho  Ho10  1  0.061450  0.438379  0.061090  1
  Ho  Ho11  1  0.815481  0.811509  0.186505  1
  Ho  Ho12  1  0.201580  0.595989  0.601216  1
  Ho  Ho13  1  0.061450  0.438379  0.439080  1
  Ho  Ho14  1  0.062236  0.069525  0.434119  1
  Ho  Ho15  1  0.814492  0.184791  0.186510  1
  Ho  Ho16  1  0.597065  0.207723  0.597606  1
  Ho  Ho17  1  0.602071  0.596618  0.603565  1
  In  In18  1  0.505916  0.834646  0.829719  1
  In  In19  1  0.834445  0.504838  0.830359  1
  Pd  Pd20  1  0.394367  0.819464  0.393084  1
  Rh  Rh21  1  0.392970  0.395903  0.390141  1
  Rh  Rh22  1  0.821077  0.396682  0.391120  1
  Rh  Rh23  1  0.392970  0.395903  0.820985  1
