# generated using pymatgen
data_Hf5Zr3Co16As11P
_symmetry_space_group_name_H-M   'P 1'
_cell_length_a   12.49738086
_cell_length_b   12.51421544
_cell_length_c   3.75475900
_cell_angle_alpha   90.00000000
_cell_angle_beta   90.00000000
_cell_angle_gamma   120.04457689
_symmetry_Int_Tables_number   1
_chemical_formula_structural   Hf5Zr3Co16As11P
_chemical_formula_sum   'Hf5 Zr3 Co16 As11 P1'
_cell_volume   508.32336992
_cell_formula_units_Z   1
loop_
 _symmetry_equiv_pos_site_id
 _symmetry_equiv_pos_as_xyz
  1  'x, y, z'
loop_
 _atom_site_type_symbol
 _atom_site_label
 _atom_site_symmetry_multiplicity
 _atom_site_fract_x
 _atom_site_fract_y
 _atom_site_fract_z
 _atom_site_occupancy
  Hf  Hf0  1  0.443269  0.443179  0.000000  1
  Hf  Hf1  1  0.556731  0.999911  0.000000  1
  Hf  Hf2  1  0.333110  0.666133  0.000000  1
  Hf  Hf3  1  0.666890  0.333023  0.000000  1
  Hf  Hf4  1  0.000000  0.558420  0.000000  1
  Zr  Zr5  1  0.831771  0.825568  0.500000  1
  Zr  Zr6  1  0.000000  0.174640  0.500000  1
  Zr  Zr7  1  0.168229  0.993797  0.500000  1
  Co  Co8  1  0.625970  0.821780  0.000000  1
  Co  Co9  1  0.374030  0.195810  0.000000  1
  Co  Co10  1  0.000000  0.725012  0.500000  1
  Co  Co11  1  0.280987  0.281369  0.500000  1
  Co  Co12  1  0.876254  0.357836  0.500000  1
  Co  Co13  1  0.719013  0.000381  0.500000  1
  Co  Co14  1  0.828393  0.633944  0.000000  1
  Co  Co15  1  0.171607  0.805551  0.000000  1
  Co  Co16  1  0.355634  0.875365  0.500000  1
  Co  Co17  1  0.123746  0.481582  0.500000  1
  Co  Co18  1  0.644366  0.519731  0.500000  1
  Co  Co19  1  0.000000  0.991693  0.000000  1
  Co  Co20  1  0.519391  0.642702  0.500000  1
  Co  Co21  1  0.480609  0.123310  0.500000  1
  Co  Co22  1  0.195394  0.373299  0.000000  1
  Co  Co23  1  0.804606  0.177905  0.000000  1
  As  As24  1  0.000000  0.346230  0.000000  1
  As  As25  1  0.825972  0.516160  0.500000  1
  As  As26  1  0.689696  0.174960  0.500000  1
  As  As27  1  0.174458  0.173544  0.000000  1
  As  As28  1  0.655835  0.655703  0.000000  1
  As  As29  1  0.825542  0.999085  0.000000  1
  As  As30  1  0.514739  0.825033  0.500000  1
  As  As31  1  0.174028  0.690186  0.500000  1
  As  As32  1  0.344165  0.999868  0.000000  1
  As  As33  1  0.485261  0.310294  0.500000  1
  As  As34  1  0.310304  0.485263  0.500000  1
  P  P35  1  0.000000  0.821735  0.000000  1
