# generated using pymatgen
data_Dy19CdRh12
_symmetry_space_group_name_H-M   'P 1'
_cell_length_a   10.90099100
_cell_length_b   10.90099100
_cell_length_c   6.30514900
_cell_angle_alpha   90.00000000
_cell_angle_beta   90.00000000
_cell_angle_gamma   90.00000000
_symmetry_Int_Tables_number   1
_chemical_formula_structural   Dy19CdRh12
_chemical_formula_sum   'Dy19 Cd1 Rh12'
_cell_volume   749.25097406
_cell_formula_units_Z   1
loop_
 _symmetry_equiv_pos_site_id
 _symmetry_equiv_pos_as_xyz
  1  'x, y, z'
loop_
 _atom_site_type_symbol
 _atom_site_label
 _atom_site_symmetry_multiplicity
 _atom_site_fract_x
 _atom_site_fract_y
 _atom_site_fract_z
 _atom_site_occupancy
  Dy  Dy0  1  0.281483  0.084263  0.380098  1
  Dy  Dy1  1  0.291287  0.910945  0.879301  1
  Dy  Dy2  1  0.708713  0.089055  0.879301  1
  Dy  Dy3  1  0.718517  0.915737  0.380098  1
  Dy  Dy4  1  0.589217  0.791587  0.882198  1
  Dy  Dy5  1  0.587381  0.208333  0.378101  1
  Dy  Dy6  1  0.412619  0.791667  0.378101  1
  Dy  Dy7  1  0.410783  0.208413  0.882198  1
  Dy  Dy8  1  0.208333  0.412619  0.621899  1
  Dy  Dy9  1  0.208413  0.589217  0.117802  1
  Dy  Dy10  1  0.791587  0.410783  0.117802  1
  Dy  Dy11  1  0.791667  0.587381  0.621899  1
  Dy  Dy12  1  0.910945  0.708713  0.120699  1
  Dy  Dy13  1  0.915737  0.281483  0.619902  1
  Dy  Dy14  1  0.084263  0.718517  0.619902  1
  Dy  Dy15  1  0.089055  0.291287  0.120699  1
  Dy  Dy16  1  0.000000  0.000000  0.000000  1
  Dy  Dy17  1  0.500000  0.500000  0.000000  1
  Dy  Dy18  1  0.500000  0.500000  0.500000  1
  Cd  Cd19  1  0.000000  0.000000  0.500000  1
  Rh  Rh20  1  0.843906  0.158093  0.240958  1
  Rh  Rh21  1  0.841907  0.843906  0.759042  1
  Rh  Rh22  1  0.158093  0.156094  0.759042  1
  Rh  Rh23  1  0.156094  0.841907  0.240958  1
  Rh  Rh24  1  0.655440  0.346145  0.746212  1
  Rh  Rh25  1  0.653855  0.655440  0.253788  1
  Rh  Rh26  1  0.346145  0.344560  0.253788  1
  Rh  Rh27  1  0.344560  0.653855  0.746212  1
  Rh  Rh28  1  0.500000  0.000000  0.125734  1
  Rh  Rh29  1  0.500000  0.000000  0.620344  1
  Rh  Rh30  1  0.000000  0.500000  0.874266  1
  Rh  Rh31  1  0.000000  0.500000  0.379656  1
