# generated using pymatgen
data_TbY7Ti10(NbSi8)2
_symmetry_space_group_name_H-M   'P 1'
_cell_length_a   7.06497899
_cell_length_b   7.06387912
_cell_length_c   13.00415856
_cell_angle_alpha   89.98919297
_cell_angle_beta   90.05806294
_cell_angle_gamma   89.98972737
_symmetry_Int_Tables_number   1
_chemical_formula_structural   TbY7Ti10(NbSi8)2
_chemical_formula_sum   'Tb1 Y7 Ti10 Nb2 Si16'
_cell_volume   648.98723130
_cell_formula_units_Z   1
loop_
 _symmetry_equiv_pos_site_id
 _symmetry_equiv_pos_as_xyz
  1  'x, y, z'
loop_
 _atom_site_type_symbol
 _atom_site_label
 _atom_site_symmetry_multiplicity
 _atom_site_fract_x
 _atom_site_fract_y
 _atom_site_fract_z
 _atom_site_occupancy
  Tb  Tb0  1  0.998356  0.659101  0.033427  1
  Y  Y1  1  0.340555  0.001986  0.466534  1
  Y  Y2  1  0.497648  0.839678  0.716826  1
  Y  Y3  1  0.501372  0.158940  0.216527  1
  Y  Y4  1  0.840374  0.498194  0.283204  1
  Y  Y5  1  0.159473  0.501985  0.783403  1
  Y  Y6  1  0.659725  0.998217  0.966862  1
  Y  Y7  1  0.002367  0.339678  0.533187  1
  Ti  Ti8  1  0.827301  0.173217  0.749793  1
  Ti  Ti9  1  0.672611  0.673259  0.500111  1
  Ti  Ti10  1  0.153582  0.009148  0.876262  1
  Ti  Ti11  1  0.490554  0.652796  0.125605  1
  Ti  Ti12  1  0.507943  0.347927  0.625906  1
  Ti  Ti13  1  0.651857  0.491338  0.874705  1
  Ti  Ti14  1  0.346653  0.509173  0.373752  1
  Ti  Ti15  1  0.848158  0.991543  0.375311  1
  Ti  Ti16  1  0.009568  0.152999  0.124548  1
  Ti  Ti17  1  0.991949  0.847947  0.624084  1
  Nb  Nb18  1  0.326810  0.327029  0.999892  1
  Nb  Nb19  1  0.173199  0.826900  0.250126  1
  Si  Si20  1  0.201809  0.129230  0.684724  1
  Si  Si21  1  0.370977  0.703068  0.934306  1
  Si  Si22  1  0.629502  0.298091  0.435062  1
  Si  Si23  1  0.702823  0.370610  0.065187  1
  Si  Si24  1  0.298190  0.629275  0.565250  1
  Si  Si25  1  0.796785  0.870686  0.184919  1
  Si  Si26  1  0.129345  0.203053  0.315706  1
  Si  Si27  1  0.870578  0.798121  0.814894  1
  Si  Si28  1  0.292185  0.953095  0.063613  1
  Si  Si29  1  0.547457  0.791167  0.314941  1
  Si  Si30  1  0.454341  0.207882  0.813422  1
  Si  Si31  1  0.791304  0.546424  0.685225  1
  Si  Si32  1  0.207949  0.453050  0.186438  1
  Si  Si33  1  0.708582  0.046436  0.564782  1
  Si  Si34  1  0.952432  0.290874  0.934910  1
  Si  Si35  1  0.045689  0.707884  0.436558  1
