# generated using pymatgen
data_ErTm5ReB14Ru
_symmetry_space_group_name_H-M   'P 1'
_cell_length_a   7.95454607
_cell_length_b   7.95454692
_cell_length_c   9.24984500
_cell_angle_alpha   90.00000000
_cell_angle_beta   90.00000000
_cell_angle_gamma   154.61391641
_symmetry_Int_Tables_number   1
_chemical_formula_structural   ErTm5ReB14Ru
_chemical_formula_sum   'Er1 Tm5 Re1 B14 Ru1'
_cell_volume   250.91966829
_cell_formula_units_Z   1
loop_
 _symmetry_equiv_pos_site_id
 _symmetry_equiv_pos_as_xyz
  1  'x, y, z'
loop_
 _atom_site_type_symbol
 _atom_site_label
 _atom_site_symmetry_multiplicity
 _atom_site_fract_x
 _atom_site_fract_y
 _atom_site_fract_z
 _atom_site_occupancy
  Er  Er0  1  0.756043  0.243957  0.750000  1
  Tm  Tm1  1  0.894247  0.105753  0.059511  1
  Tm  Tm2  1  0.105812  0.894188  0.560093  1
  Tm  Tm3  1  0.105812  0.894188  0.939907  1
  Tm  Tm4  1  0.894247  0.105753  0.440489  1
  Tm  Tm5  1  0.243806  0.756194  0.250000  1
  Re  Re6  1  0.947768  0.052232  0.750000  1
  B  B7  1  0.454581  0.545419  0.250000  1
  B  B8  1  0.546469  0.453531  0.750000  1
  B  B9  1  0.727105  0.272895  0.035071  1
  B  B10  1  0.272244  0.727756  0.533071  1
  B  B11  1  0.272244  0.727756  0.966929  1
  B  B12  1  0.727105  0.272895  0.464929  1
  B  B13  1  0.631778  0.368222  0.348871  1
  B  B14  1  0.367550  0.632450  0.849602  1
  B  B15  1  0.367550  0.632450  0.650398  1
  B  B16  1  0.631778  0.368222  0.151129  1
  B  B17  1  0.519859  0.480141  0.404208  1
  B  B18  1  0.480376  0.519624  0.905441  1
  B  B19  1  0.480376  0.519624  0.594559  1
  B  B20  1  0.519859  0.480141  0.095792  1
  Ru  Ru21  1  0.053396  0.946604  0.250000  1
