# generated using pymatgen
data_Ba4Cr3CoN8
_symmetry_space_group_name_H-M   'P 1'
_cell_length_a   6.45970370
_cell_length_b   6.45970278
_cell_length_c   7.83266969
_cell_angle_alpha   91.01900884
_cell_angle_beta   88.98099241
_cell_angle_gamma   125.72422997
_symmetry_Int_Tables_number   1
_chemical_formula_structural   Ba4Cr3CoN8
_chemical_formula_sum   'Ba4 Cr3 Co1 N8'
_cell_volume   265.28755481
_cell_formula_units_Z   1
loop_
 _symmetry_equiv_pos_site_id
 _symmetry_equiv_pos_as_xyz
  1  'x, y, z'
loop_
 _atom_site_type_symbol
 _atom_site_label
 _atom_site_symmetry_multiplicity
 _atom_site_fract_x
 _atom_site_fract_y
 _atom_site_fract_z
 _atom_site_occupancy
  Ba  Ba0  1  0.835579  0.164421  0.565111  1
  Ba  Ba1  1  0.153371  0.846629  0.442139  1
  Ba  Ba2  1  0.660324  0.339676  0.049432  1
  Ba  Ba3  1  0.344591  0.655409  0.934371  1
  Cr  Cr4  1  0.451868  0.548132  0.370922  1
  Cr  Cr5  1  0.949862  0.050138  0.139320  1
  Cr  Cr6  1  0.053022  0.946978  0.863556  1
  Co  Co7  1  0.553671  0.446329  0.635427  1
  N  N8  1  0.891948  0.108052  0.915875  1
  N  N9  1  0.106317  0.893683  0.091131  1
  N  N10  1  0.604348  0.395652  0.397679  1
  N  N11  1  0.385908  0.614092  0.577040  1
  N  N12  1  0.339023  0.145484  0.755398  1
  N  N13  1  0.155882  0.340232  0.253601  1
  N  N14  1  0.659768  0.844118  0.253601  1
  N  N15  1  0.854516  0.660977  0.755398  1
