# generated using pymatgen
data_Dy7Y3Si6O
_symmetry_space_group_name_H-M   'P 1'
_cell_length_a   8.43299500
_cell_length_b   8.43299484
_cell_length_c   6.28878900
_cell_angle_alpha   90.00000000
_cell_angle_beta   90.00000000
_cell_angle_gamma   119.99999672
_symmetry_Int_Tables_number   1
_chemical_formula_structural   Dy7Y3Si6O
_chemical_formula_sum   'Dy7 Y3 Si6 O1'
_cell_volume   387.31235145
_cell_formula_units_Z   1
loop_
 _symmetry_equiv_pos_site_id
 _symmetry_equiv_pos_as_xyz
  1  'x, y, z'
loop_
 _atom_site_type_symbol
 _atom_site_label
 _atom_site_symmetry_multiplicity
 _atom_site_fract_x
 _atom_site_fract_y
 _atom_site_fract_z
 _atom_site_occupancy
  Dy  Dy0  1  0.333333  0.666667  0.499806  1
  Dy  Dy1  1  0.666667  0.333333  0.499806  1
  Dy  Dy2  1  0.666667  0.333333  0.000102  1
  Dy  Dy3  1  0.333333  0.666667  0.000102  1
  Dy  Dy4  1  0.000000  0.764397  0.259479  1
  Dy  Dy5  1  0.235603  0.235603  0.259479  1
  Dy  Dy6  1  0.764397  0.000000  0.259479  1
  Y  Y7  1  0.000000  0.236867  0.741571  1
  Y  Y8  1  0.763133  0.763133  0.741571  1
  Y  Y9  1  0.236867  0.000000  0.741571  1
  Si  Si10  1  0.000000  0.397383  0.249251  1
  Si  Si11  1  0.602617  0.602617  0.249251  1
  Si  Si12  1  0.397383  0.000000  0.249251  1
  Si  Si13  1  0.000000  0.602987  0.750789  1
  Si  Si14  1  0.397013  0.397013  0.750789  1
  Si  Si15  1  0.602987  0.000000  0.750789  1
  O  O16  1  0.000000  0.000000  0.496912  1
