# generated using pymatgen
data_Tm4ReCl4
_symmetry_space_group_name_H-M   'P 1'
_cell_length_a   12.25319400
_cell_length_b   12.25319400
_cell_length_c   6.30119300
_cell_angle_alpha   90.00000000
_cell_angle_beta   90.00000000
_cell_angle_gamma   90.00000000
_symmetry_Int_Tables_number   1
_chemical_formula_structural   Tm4ReCl4
_chemical_formula_sum   'Tm16 Re4 Cl16'
_cell_volume   946.06592610
_cell_formula_units_Z   4
loop_
 _symmetry_equiv_pos_site_id
 _symmetry_equiv_pos_as_xyz
  1  'x, y, z'
loop_
 _atom_site_type_symbol
 _atom_site_label
 _atom_site_symmetry_multiplicity
 _atom_site_fract_x
 _atom_site_fract_y
 _atom_site_fract_z
 _atom_site_occupancy
  Tm  Tm0  1  0.178045  0.076504  0.009024  1
  Tm  Tm1  1  0.576504  0.321955  0.009024  1
  Tm  Tm2  1  0.423496  0.678045  0.009024  1
  Tm  Tm3  1  0.821955  0.923497  0.009024  1
  Tm  Tm4  1  0.076504  0.178045  0.490977  1
  Tm  Tm5  1  0.678045  0.423496  0.490977  1
  Tm  Tm6  1  0.321955  0.576504  0.490977  1
  Tm  Tm7  1  0.923497  0.821955  0.490977  1
  Tm  Tm8  1  0.821955  0.076504  0.509023  1
  Tm  Tm9  1  0.423496  0.321955  0.509023  1
  Tm  Tm10  1  0.576504  0.678045  0.509023  1
  Tm  Tm11  1  0.178045  0.923497  0.509023  1
  Tm  Tm12  1  0.923497  0.178045  0.990976  1
  Tm  Tm13  1  0.321955  0.423496  0.990976  1
  Tm  Tm14  1  0.678045  0.576504  0.990976  1
  Tm  Tm15  1  0.076504  0.821955  0.990976  1
  Re  Re16  1  0.000000  0.000000  0.250000  1
  Re  Re17  1  0.500000  0.500000  0.250000  1
  Re  Re18  1  0.000000  0.000000  0.749999  1
  Re  Re19  1  0.500000  0.500000  0.749999  1
  Cl  Cl20  1  0.113690  0.299349  0.084287  1
  Cl  Cl21  1  0.799349  0.386310  0.084287  1
  Cl  Cl22  1  0.200652  0.613690  0.084287  1
  Cl  Cl23  1  0.886310  0.700652  0.084287  1
  Cl  Cl24  1  0.299349  0.113690  0.415712  1
  Cl  Cl25  1  0.613690  0.200652  0.415712  1
  Cl  Cl26  1  0.386310  0.799349  0.415712  1
  Cl  Cl27  1  0.700652  0.886310  0.415712  1
  Cl  Cl28  1  0.886310  0.299349  0.584288  1
  Cl  Cl29  1  0.200652  0.386310  0.584288  1
  Cl  Cl30  1  0.799349  0.613690  0.584288  1
  Cl  Cl31  1  0.113690  0.700652  0.584288  1
  Cl  Cl32  1  0.700652  0.113690  0.915713  1
  Cl  Cl33  1  0.386310  0.200652  0.915713  1
  Cl  Cl34  1  0.613690  0.799349  0.915713  1
  Cl  Cl35  1  0.299349  0.886310  0.915713  1
