# generated using pymatgen
data_NdDyHo2(Sn5Rh3)2
_symmetry_space_group_name_H-M   'P 1'
_cell_length_a   13.48838081
_cell_length_b   13.48838052
_cell_length_c   7.26852262
_cell_angle_alpha   90.04638259
_cell_angle_beta   89.95361669
_cell_angle_gamma   160.99065647
_symmetry_Int_Tables_number   1
_chemical_formula_structural   NdDyHo2(Sn5Rh3)2
_chemical_formula_sum   'Nd1 Dy1 Ho2 Sn10 Rh6'
_cell_volume   430.73798806
_cell_formula_units_Z   1
loop_
 _symmetry_equiv_pos_site_id
 _symmetry_equiv_pos_as_xyz
  1  'x, y, z'
loop_
 _atom_site_type_symbol
 _atom_site_label
 _atom_site_symmetry_multiplicity
 _atom_site_fract_x
 _atom_site_fract_y
 _atom_site_fract_z
 _atom_site_occupancy
  Nd  Nd0  1  0.172868  0.827132  0.747034  1
  Dy  Dy1  1  0.828533  0.171467  0.245139  1
  Ho  Ho2  1  0.475679  0.524321  0.760583  1
  Ho  Ho3  1  0.523354  0.476646  0.261955  1
  Sn  Sn4  1  0.881268  0.118732  0.770435  1
  Sn  Sn5  1  0.118880  0.881120  0.268210  1
  Sn  Sn6  1  0.704791  0.295209  0.450268  1
  Sn  Sn7  1  0.295650  0.704350  0.952529  1
  Sn  Sn8  1  0.594881  0.405119  0.885406  1
  Sn  Sn9  1  0.403692  0.596308  0.385728  1
  Sn  Sn10  1  0.952623  0.047377  0.100830  1
  Sn  Sn11  1  0.046785  0.953215  0.601048  1
  Sn  Sn12  1  0.291577  0.708423  0.522376  1
  Sn  Sn13  1  0.710007  0.289993  0.026305  1
  Rh  Rh14  1  0.049722  0.950278  0.981829  1
  Rh  Rh15  1  0.949524  0.050476  0.481151  1
  Rh  Rh16  1  0.778340  0.221660  0.736854  1
  Rh  Rh17  1  0.222877  0.777123  0.237264  1
  Rh  Rh18  1  0.394311  0.605689  0.016377  1
  Rh  Rh19  1  0.604638  0.395362  0.512681  1
