# generated using pymatgen
data_Tm3HfAl17GaRh6
_symmetry_space_group_name_H-M   'P 1'
_cell_length_a   7.51050858
_cell_length_b   7.49887346
_cell_length_c   9.39086100
_cell_angle_alpha   90.00000000
_cell_angle_beta   90.00000000
_cell_angle_gamma   119.40895965
_symmetry_Int_Tables_number   1
_chemical_formula_structural   Tm3HfAl17GaRh6
_chemical_formula_sum   'Tm3 Hf1 Al17 Ga1 Rh6'
_cell_volume   460.74142529
_cell_formula_units_Z   1
loop_
 _symmetry_equiv_pos_site_id
 _symmetry_equiv_pos_as_xyz
  1  'x, y, z'
loop_
 _atom_site_type_symbol
 _atom_site_label
 _atom_site_symmetry_multiplicity
 _atom_site_fract_x
 _atom_site_fract_y
 _atom_site_fract_z
 _atom_site_occupancy
  Tm  Tm0  1  0.006949  0.324442  0.750000  1
  Tm  Tm1  1  0.672907  0.996254  0.250000  1
  Tm  Tm2  1  0.325376  0.007043  0.750000  1
  Hf  Hf3  1  0.996266  0.672449  0.250000  1
  Al  Al4  1  0.125714  0.123367  0.250000  1
  Al  Al5  1  0.999967  0.338640  0.079865  1
  Al  Al6  1  0.999628  0.664204  0.927319  1
  Al  Al7  1  0.999628  0.664204  0.572681  1
  Al  Al8  1  0.332999  0.997679  0.419954  1
  Al  Al9  1  0.999967  0.338640  0.420135  1
  Al  Al10  1  0.663730  0.998636  0.575734  1
  Al  Al11  1  0.663730  0.998636  0.924266  1
  Al  Al12  1  0.332999  0.997679  0.080046  1
  Al  Al13  1  0.334105  0.334100  0.549387  1
  Al  Al14  1  0.669731  0.667592  0.440716  1
  Al  Al15  1  0.669731  0.667592  0.059284  1
  Al  Al16  1  0.334105  0.334100  0.950613  1
  Al  Al17  1  0.335875  0.552078  0.250000  1
  Al  Al18  1  0.661703  0.449394  0.750000  1
  Al  Al19  1  0.556926  0.343700  0.250000  1
  Al  Al20  1  0.447731  0.659829  0.750000  1
  Ga  Ga21  1  0.867988  0.866977  0.750000  1
  Rh  Rh22  1  0.673523  0.328778  0.001057  1
  Rh  Rh23  1  0.328051  0.673325  0.001671  1
  Rh  Rh24  1  0.328051  0.673325  0.498329  1
  Rh  Rh25  1  0.673523  0.328778  0.498943  1
  Rh  Rh26  1  0.999553  0.999279  0.003507  1
  Rh  Rh27  1  0.999553  0.999279  0.496493  1
