# generated using pymatgen
data_Ta12IrRu3
_symmetry_space_group_name_H-M   'P 1'
_cell_length_a   5.16985500
_cell_length_b   5.17023900
_cell_length_c   10.34299400
_cell_angle_alpha   90.00000000
_cell_angle_beta   90.00000000
_cell_angle_gamma   90.00000000
_symmetry_Int_Tables_number   1
_chemical_formula_structural   Ta12IrRu3
_chemical_formula_sum   'Ta12 Ir1 Ru3'
_cell_volume   276.46187846
_cell_formula_units_Z   1
loop_
 _symmetry_equiv_pos_site_id
 _symmetry_equiv_pos_as_xyz
  1  'x, y, z'
loop_
 _atom_site_type_symbol
 _atom_site_label
 _atom_site_symmetry_multiplicity
 _atom_site_fract_x
 _atom_site_fract_y
 _atom_site_fract_z
 _atom_site_occupancy
  Ta  Ta0  1  0.500000  0.000000  0.375431  1
  Ta  Ta1  1  0.500000  0.000000  0.874323  1
  Ta  Ta2  1  0.750017  0.500000  0.000000  1
  Ta  Ta3  1  0.749389  0.500000  0.500000  1
  Ta  Ta4  1  0.000000  0.749754  0.249588  1
  Ta  Ta5  1  0.000000  0.749754  0.750412  1
  Ta  Ta6  1  0.500000  0.000000  0.125677  1
  Ta  Ta7  1  0.500000  0.000000  0.624569  1
  Ta  Ta8  1  0.249983  0.500000  0.000000  1
  Ta  Ta9  1  0.250611  0.500000  0.500000  1
  Ta  Ta10  1  0.000000  0.250246  0.249588  1
  Ta  Ta11  1  0.000000  0.250246  0.750412  1
  Ir  Ir12  1  0.000000  0.000000  0.500000  1
  Ru  Ru13  1  0.500000  0.500000  0.250191  1
  Ru  Ru14  1  0.500000  0.500000  0.749809  1
  Ru  Ru15  1  0.000000  0.000000  0.000000  1
