# generated using pymatgen
data_HoTm2Co8P6W
_symmetry_space_group_name_H-M   'P 1'
_cell_length_a   3.69982600
_cell_length_b   10.49899500
_cell_length_c   12.18433200
_cell_angle_alpha   90.00000000
_cell_angle_beta   90.00000000
_cell_angle_gamma   90.00000000
_symmetry_Int_Tables_number   1
_chemical_formula_structural   HoTm2Co8P6W
_chemical_formula_sum   'Ho2 Tm4 Co16 P12 W2'
_cell_volume   473.29373212
_cell_formula_units_Z   2
loop_
 _symmetry_equiv_pos_site_id
 _symmetry_equiv_pos_as_xyz
  1  'x, y, z'
loop_
 _atom_site_type_symbol
 _atom_site_label
 _atom_site_symmetry_multiplicity
 _atom_site_fract_x
 _atom_site_fract_y
 _atom_site_fract_z
 _atom_site_occupancy
  Ho  Ho0  1  0.000000  0.500000  0.524841  1
  Ho  Ho1  1  0.500000  0.000000  0.475159  1
  Tm  Tm2  1  0.500000  0.819751  0.205030  1
  Tm  Tm3  1  0.500000  0.180249  0.205030  1
  Tm  Tm4  1  0.000000  0.680249  0.794970  1
  Tm  Tm5  1  0.000000  0.319751  0.794970  1
  Co  Co6  1  0.000000  0.500000  0.986614  1
  Co  Co7  1  0.500000  0.000000  0.013386  1
  Co  Co8  1  0.500000  0.295907  0.431262  1
  Co  Co9  1  0.500000  0.704093  0.431262  1
  Co  Co10  1  0.000000  0.204093  0.568738  1
  Co  Co11  1  0.000000  0.795907  0.568738  1
  Co  Co12  1  0.500000  0.877480  0.707430  1
  Co  Co13  1  0.500000  0.122520  0.707430  1
  Co  Co14  1  0.000000  0.622520  0.292570  1
  Co  Co15  1  0.000000  0.377480  0.292570  1
  Co  Co16  1  0.500000  0.332644  0.989949  1
  Co  Co17  1  0.500000  0.667356  0.989949  1
  Co  Co18  1  0.000000  0.167356  0.010051  1
  Co  Co19  1  0.000000  0.832644  0.010051  1
  Co  Co20  1  0.500000  0.500000  0.701595  1
  Co  Co21  1  0.000000  0.000000  0.298405  1
  P  P22  1  0.500000  0.312091  0.616712  1
  P  P23  1  0.500000  0.687909  0.616712  1
  P  P24  1  0.000000  0.187909  0.383288  1
  P  P25  1  0.000000  0.812091  0.383288  1
  P  P26  1  0.500000  0.500000  0.879344  1
  P  P27  1  0.000000  0.000000  0.120656  1
  P  P28  1  0.500000  0.843189  0.891875  1
  P  P29  1  0.500000  0.156811  0.891875  1
  P  P30  1  0.000000  0.656811  0.108125  1
  P  P31  1  0.000000  0.343189  0.108125  1
  P  P32  1  0.500000  0.500000  0.351012  1
  P  P33  1  0.000000  0.000000  0.648988  1
  W  W34  1  0.500000  0.500000  0.156692  1
  W  W35  1  0.000000  0.000000  0.843308  1
