# generated using pymatgen
data_Y10Si5Bi
_symmetry_space_group_name_H-M   'P 1'
_cell_length_a   8.55956400
_cell_length_b   8.60568833
_cell_length_c   6.40250700
_cell_angle_alpha   90.00009556
_cell_angle_beta   89.99980115
_cell_angle_gamma   119.82292796
_symmetry_Int_Tables_number   1
_chemical_formula_structural   Y10Si5Bi
_chemical_formula_sum   'Y10 Si5 Bi1'
_cell_volume   409.15710609
_cell_formula_units_Z   1
loop_
 _symmetry_equiv_pos_site_id
 _symmetry_equiv_pos_as_xyz
  1  'x, y, z'
loop_
 _atom_site_type_symbol
 _atom_site_label
 _atom_site_symmetry_multiplicity
 _atom_site_fract_x
 _atom_site_fract_y
 _atom_site_fract_z
 _atom_site_occupancy
  Y  Y0  1  0.669113  0.345583  0.995079  1
  Y  Y1  1  0.323531  0.654414  0.995079  1
  Y  Y2  1  0.759415  0.744355  0.249998  1
  Y  Y3  1  0.232722  0.999999  0.250002  1
  Y  Y4  1  0.015061  0.255649  0.250002  1
  Y  Y5  1  0.669115  0.345585  0.504921  1
  Y  Y6  1  0.323534  0.654416  0.504922  1
  Y  Y7  1  0.245496  0.243950  0.749997  1
  Y  Y8  1  0.759074  0.000002  0.750001  1
  Y  Y9  1  0.001547  0.756049  0.750002  1
  Si  Si10  1  0.001387  0.605947  0.249998  1
  Si  Si11  1  0.395439  0.394052  0.250003  1
  Si  Si12  1  0.392479  0.000000  0.749999  1
  Si  Si13  1  0.997598  0.390502  0.749998  1
  Si  Si14  1  0.607096  0.609499  0.750003  1
  Bi  Bi15  1  0.607396  0.000000  0.249998  1
