# generated using pymatgen
data_Tb7Dy9MgHg3Ir4
_symmetry_space_group_name_H-M   'P 1'
_cell_length_a   9.64731105
_cell_length_b   9.63685819
_cell_length_c   9.63517190
_cell_angle_alpha   59.86700463
_cell_angle_beta   59.87660413
_cell_angle_gamma   59.88131377
_symmetry_Int_Tables_number   1
_chemical_formula_structural   Tb7Dy9MgHg3Ir4
_chemical_formula_sum   'Tb7 Dy9 Mg1 Hg3 Ir4'
_cell_volume   631.61497376
_cell_formula_units_Z   1
loop_
 _symmetry_equiv_pos_site_id
 _symmetry_equiv_pos_as_xyz
  1  'x, y, z'
loop_
 _atom_site_type_symbol
 _atom_site_label
 _atom_site_symmetry_multiplicity
 _atom_site_fract_x
 _atom_site_fract_y
 _atom_site_fract_z
 _atom_site_occupancy
  Tb  Tb0  1  0.439369  0.060484  0.437200  1
  Tb  Tb1  1  0.438923  0.437390  0.060641  1
  Tb  Tb2  1  0.440592  0.061695  0.062097  1
  Tb  Tb3  1  0.061052  0.438875  0.438668  1
  Tb  Tb4  1  0.193096  0.191404  0.810021  1
  Tb  Tb5  1  0.649186  0.650624  0.046226  1
  Tb  Tb6  1  0.649653  0.045904  0.650756  1
  Dy  Dy7  1  0.191711  0.808280  0.808643  1
  Dy  Dy8  1  0.816191  0.187969  0.187997  1
  Dy  Dy9  1  0.061814  0.440764  0.060686  1
  Dy  Dy10  1  0.055988  0.647882  0.647416  1
  Dy  Dy11  1  0.650737  0.651958  0.651859  1
  Dy  Dy12  1  0.062391  0.060912  0.439772  1
  Dy  Dy13  1  0.192956  0.809722  0.191569  1
  Dy  Dy14  1  0.813072  0.810750  0.188173  1
  Dy  Dy15  1  0.812866  0.188242  0.810712  1
  Mg  Mg16  1  0.715185  0.429330  0.429402  1
  Hg  Hg17  1  0.416403  0.413427  0.757224  1
  Hg  Hg18  1  0.416297  0.757179  0.413544  1
  Hg  Hg19  1  0.417366  0.413856  0.413686  1
  Ir  Ir20  1  0.859996  0.855508  0.424271  1
  Ir  Ir21  1  0.859565  0.424705  0.855277  1
  Ir  Ir22  1  0.861454  0.856277  0.856612  1
  Ir  Ir23  1  0.424142  0.856861  0.857547  1
