# generated using pymatgen
data_TbCo2(Sn3Ru)2
_symmetry_space_group_name_H-M   'P 1'
_cell_length_a   6.87782642
_cell_length_b   6.87782671
_cell_length_c   6.74052568
_cell_angle_alpha   119.90729815
_cell_angle_beta   119.90730033
_cell_angle_gamma   91.30132938
_symmetry_Int_Tables_number   1
_chemical_formula_structural   TbCo2(Sn3Ru)2
_chemical_formula_sum   'Tb1 Co2 Sn6 Ru2'
_cell_volume   223.42591042
_cell_formula_units_Z   1
loop_
 _symmetry_equiv_pos_site_id
 _symmetry_equiv_pos_as_xyz
  1  'x, y, z'
loop_
 _atom_site_type_symbol
 _atom_site_label
 _atom_site_symmetry_multiplicity
 _atom_site_fract_x
 _atom_site_fract_y
 _atom_site_fract_z
 _atom_site_occupancy
  Tb  Tb0  1  0.994007  0.994007  0.000000  1
  Co  Co1  1  0.607644  0.244623  0.000000  1
  Co  Co2  1  0.244623  0.607644  0.000000  1
  Sn  Sn3  1  0.890519  0.528006  0.000000  1
  Sn  Sn4  1  0.528006  0.890519  0.000000  1
  Sn  Sn5  1  0.460482  0.460482  0.333139  1
  Sn  Sn6  1  0.498396  0.998395  0.500001  1
  Sn  Sn7  1  0.998395  0.498396  0.500001  1
  Sn  Sn8  1  0.127343  0.127343  0.666862  1
  Ru  Ru9  1  0.740827  0.740827  0.331067  1
  Ru  Ru10  1  0.409762  0.409762  0.668935  1
