# generated using pymatgen
data_TmSi2Tc3Mo
_symmetry_space_group_name_H-M   'P 1'
_cell_length_a   6.97873111
_cell_length_b   7.73799379
_cell_length_c   4.19410700
_cell_angle_alpha   90.00000000
_cell_angle_beta   90.00000000
_cell_angle_gamma   90.03586786
_symmetry_Int_Tables_number   1
_chemical_formula_structural   TmSi2Tc3Mo
_chemical_formula_sum   'Tm2 Si4 Tc6 Mo2'
_cell_volume   226.48751294
_cell_formula_units_Z   2
loop_
 _symmetry_equiv_pos_site_id
 _symmetry_equiv_pos_as_xyz
  1  'x, y, z'
loop_
 _atom_site_type_symbol
 _atom_site_label
 _atom_site_symmetry_multiplicity
 _atom_site_fract_x
 _atom_site_fract_y
 _atom_site_fract_z
 _atom_site_occupancy
  Tm  Tm0  1  0.500000  0.500000  0.500000  1
  Tm  Tm1  1  0.000000  0.000000  0.000000  1
  Si  Si2  1  0.774089  0.190181  0.500000  1
  Si  Si3  1  0.225911  0.809819  0.500000  1
  Si  Si4  1  0.269579  0.314148  0.000000  1
  Si  Si5  1  0.730421  0.685852  0.000000  1
  Tc  Tc6  1  0.153044  0.611609  0.000000  1
  Tc  Tc7  1  0.846956  0.388391  0.000000  1
  Tc  Tc8  1  0.919650  0.657306  0.500000  1
  Tc  Tc9  1  0.080350  0.342694  0.500000  1
  Tc  Tc10  1  0.579241  0.165367  0.000000  1
  Tc  Tc11  1  0.420759  0.834633  0.000000  1
  Mo  Mo12  1  0.650404  0.885819  0.500000  1
  Mo  Mo13  1  0.349596  0.114181  0.500000  1
