# generated using pymatgen
data_La3Pr3Y2(MgIr)2
_symmetry_space_group_name_H-M   'P 1'
_cell_length_a   9.99678875
_cell_length_b   10.06227136
_cell_length_c   10.06227108
_cell_angle_alpha   59.56991554
_cell_angle_beta   60.21503563
_cell_angle_gamma   60.21504058
_symmetry_Int_Tables_number   1
_chemical_formula_structural   La3Pr3Y2(MgIr)2
_chemical_formula_sum   'La6 Pr6 Y4 Mg4 Ir4'
_cell_volume   715.65050035
_cell_formula_units_Z   2
loop_
 _symmetry_equiv_pos_site_id
 _symmetry_equiv_pos_as_xyz
  1  'x, y, z'
loop_
 _atom_site_type_symbol
 _atom_site_label
 _atom_site_symmetry_multiplicity
 _atom_site_fract_x
 _atom_site_fract_y
 _atom_site_fract_z
 _atom_site_occupancy
  La  La0  1  0.343501  0.348420  0.348420  1
  La  La1  1  0.348420  0.343501  0.959659  1
  La  La2  1  0.348420  0.959659  0.343501  1
  La  La3  1  0.959659  0.348420  0.348420  1
  La  La4  1  0.816730  0.183270  0.183270  1
  La  La5  1  0.183270  0.816730  0.816730  1
  Pr  Pr6  1  0.936934  0.563066  0.563066  1
  Pr  Pr7  1  0.563066  0.936934  0.936934  1
  Pr  Pr8  1  0.561871  0.938129  0.561871  1
  Pr  Pr9  1  0.938129  0.561871  0.938129  1
  Pr  Pr10  1  0.561871  0.561871  0.938129  1
  Pr  Pr11  1  0.938129  0.938129  0.561871  1
  Y  Y12  1  0.187918  0.812082  0.187918  1
  Y  Y13  1  0.812082  0.187918  0.812082  1
  Y  Y14  1  0.187918  0.187918  0.812082  1
  Y  Y15  1  0.812082  0.812082  0.187918  1
  Mg  Mg16  1  0.582022  0.577572  0.577572  1
  Mg  Mg17  1  0.577572  0.582022  0.262834  1
  Mg  Mg18  1  0.577572  0.262834  0.582022  1
  Mg  Mg19  1  0.262834  0.577572  0.577572  1
  Ir  Ir20  1  0.138474  0.140802  0.140802  1
  Ir  Ir21  1  0.140802  0.138474  0.579922  1
  Ir  Ir22  1  0.140802  0.579922  0.138474  1
  Ir  Ir23  1  0.579922  0.140802  0.140802  1
