# generated using pymatgen
data_NdPPd2Pt
_symmetry_space_group_name_H-M   'P 1'
_cell_length_a   6.18973955
_cell_length_b   6.18973899
_cell_length_c   4.10949354
_cell_angle_alpha   70.66269777
_cell_angle_beta   70.66269495
_cell_angle_gamma   38.50600680
_symmetry_Int_Tables_number   1
_chemical_formula_structural   NdPPd2Pt
_chemical_formula_sum   'Nd1 P1 Pd2 Pt1'
_cell_volume   91.79818268
_cell_formula_units_Z   1
loop_
 _symmetry_equiv_pos_site_id
 _symmetry_equiv_pos_as_xyz
  1  'x, y, z'
loop_
 _atom_site_type_symbol
 _atom_site_label
 _atom_site_symmetry_multiplicity
 _atom_site_fract_x
 _atom_site_fract_y
 _atom_site_fract_z
 _atom_site_occupancy
  Nd  Nd0  1  0.001643  0.001643  0.994437  1
  P  P1  1  0.378090  0.378090  0.620463  1
  Pd  Pd2  1  0.263353  0.263353  0.234384  1
  Pd  Pd3  1  0.763833  0.763833  0.732213  1
  Pt  Pt4  1  0.588158  0.588158  0.407513  1
