# generated using pymatgen
data_Hf4Ta2VH16
_symmetry_space_group_name_H-M   'P 1'
_cell_length_a   6.38240557
_cell_length_b   6.55827813
_cell_length_c   6.38240580
_cell_angle_alpha   59.08420120
_cell_angle_beta   61.83160314
_cell_angle_gamma   59.08420810
_symmetry_Int_Tables_number   1
_chemical_formula_structural   Hf4Ta2VH16
_chemical_formula_sum   'Hf4 Ta2 V1 H16'
_cell_volume   188.61003353
_cell_formula_units_Z   1
loop_
 _symmetry_equiv_pos_site_id
 _symmetry_equiv_pos_as_xyz
  1  'x, y, z'
loop_
 _atom_site_type_symbol
 _atom_site_label
 _atom_site_symmetry_multiplicity
 _atom_site_fract_x
 _atom_site_fract_y
 _atom_site_fract_z
 _atom_site_occupancy
  Hf  Hf0  1  0.000000  0.000000  0.500000  1
  Hf  Hf1  1  0.000000  0.500000  0.500000  1
  Hf  Hf2  1  0.500000  0.500000  0.000000  1
  Hf  Hf3  1  0.500000  0.000000  0.000000  1
  Ta  Ta4  1  0.500000  0.000000  0.500000  1
  Ta  Ta5  1  0.000000  0.500000  0.000000  1
  V  V6  1  0.000000  0.000000  0.000000  1
  H  H7  1  0.873650  0.884836  0.356677  1
  H  H8  1  0.884836  0.356677  0.884836  1
  H  H9  1  0.356677  0.884836  0.873650  1
  H  H10  1  0.884836  0.873650  0.884836  1
  H  H11  1  0.126350  0.115164  0.643323  1
  H  H12  1  0.115164  0.643323  0.115164  1
  H  H13  1  0.643323  0.115164  0.126350  1
  H  H14  1  0.115164  0.126350  0.115164  1
  H  H15  1  0.631517  0.614260  0.139963  1
  H  H16  1  0.614260  0.139963  0.614260  1
  H  H17  1  0.139963  0.614260  0.631517  1
  H  H18  1  0.614260  0.631517  0.614260  1
  H  H19  1  0.368483  0.385740  0.860037  1
  H  H20  1  0.385740  0.860037  0.385740  1
  H  H21  1  0.860037  0.385740  0.368483  1
  H  H22  1  0.385740  0.368483  0.385740  1
