# generated using pymatgen
data_CsRbLu7BBr18
_symmetry_space_group_name_H-M   'P 1'
_cell_length_a   10.48812464
_cell_length_b   10.48812408
_cell_length_c   11.35959587
_cell_angle_alpha   117.49309412
_cell_angle_beta   62.50690703
_cell_angle_gamma   120.00000327
_symmetry_Int_Tables_number   1
_chemical_formula_structural   CsRbLu7BBr18
_chemical_formula_sum   'Cs1 Rb1 Lu7 B1 Br18'
_cell_volume   915.58770180
_cell_formula_units_Z   1
loop_
 _symmetry_equiv_pos_site_id
 _symmetry_equiv_pos_as_xyz
  1  'x, y, z'
loop_
 _atom_site_type_symbol
 _atom_site_label
 _atom_site_symmetry_multiplicity
 _atom_site_fract_x
 _atom_site_fract_y
 _atom_site_fract_z
 _atom_site_occupancy
  Cs  Cs0  1  0.777883  0.222117  0.666351  1
  Rb  Rb1  1  0.222012  0.777988  0.333966  1
  Lu  Lu2  1  0.779698  0.106538  0.153777  1
  Lu  Lu3  1  0.893461  0.826937  0.153777  1
  Lu  Lu4  1  0.173064  0.220302  0.153777  1
  Lu  Lu5  1  0.500037  0.499963  0.499888  1
  Lu  Lu6  1  0.826870  0.779786  0.846300  1
  Lu  Lu7  1  0.106615  0.173129  0.846300  1
  Lu  Lu8  1  0.220214  0.893383  0.846300  1
  B  B9  1  0.000001  0.999999  0.999998  1
  Br  Br10  1  0.286427  0.424429  0.007620  1
  Br  Br11  1  0.575569  0.869619  0.007620  1
  Br  Br12  1  0.130382  0.713574  0.007620  1
  Br  Br13  1  0.946365  0.348362  0.332868  1
  Br  Br14  1  0.069129  0.053635  0.332868  1
  Br  Br15  1  0.651637  0.930871  0.332868  1
  Br  Br16  1  0.524899  0.214471  0.333837  1
  Br  Br17  1  0.785528  0.644265  0.333837  1
  Br  Br18  1  0.355735  0.475100  0.333837  1
  Br  Br19  1  0.644161  0.525224  0.666206  1
  Br  Br20  1  0.214858  0.355841  0.666206  1
  Br  Br21  1  0.474776  0.785143  0.666206  1
  Br  Br22  1  0.347492  0.068285  0.666483  1
  Br  Br23  1  0.931715  0.945689  0.666483  1
  Br  Br24  1  0.054310  0.652507  0.666483  1
  Br  Br25  1  0.869785  0.286511  0.992840  1
  Br  Br26  1  0.423887  0.130215  0.992840  1
  Br  Br27  1  0.713489  0.576113  0.992840  1
