# generated using pymatgen
data_Nd4Cu3Ni17Sn4
_symmetry_space_group_name_H-M   'P 1'
_cell_length_a   4.96597000
_cell_length_b   4.96596948
_cell_length_c   19.80271700
_cell_angle_alpha   90.00000000
_cell_angle_beta   90.00000000
_cell_angle_gamma   120.00001677
_symmetry_Int_Tables_number   1
_chemical_formula_structural   Nd4Cu3Ni17Sn4
_chemical_formula_sum   'Nd4 Cu3 Ni17 Sn4'
_cell_volume   422.92511623
_cell_formula_units_Z   1
loop_
 _symmetry_equiv_pos_site_id
 _symmetry_equiv_pos_as_xyz
  1  'x, y, z'
loop_
 _atom_site_type_symbol
 _atom_site_label
 _atom_site_symmetry_multiplicity
 _atom_site_fract_x
 _atom_site_fract_y
 _atom_site_fract_z
 _atom_site_occupancy
  Nd  Nd0  1  0.333333  0.666667  0.250000  1
  Nd  Nd1  1  0.666667  0.333333  0.750000  1
  Nd  Nd2  1  0.000000  0.000000  0.500467  1
  Nd  Nd3  1  0.000000  0.000000  0.999533  1
  Cu  Cu4  1  0.000000  0.000000  0.250000  1
  Cu  Cu5  1  0.000000  0.000000  0.750000  1
  Cu  Cu6  1  0.333333  0.666667  0.750000  1
  Ni  Ni7  1  0.666667  0.333333  0.250000  1
  Ni  Ni8  1  0.333333  0.666667  0.957418  1
  Ni  Ni9  1  0.666667  0.333333  0.043196  1
  Ni  Ni10  1  0.666667  0.333333  0.456804  1
  Ni  Ni11  1  0.333333  0.666667  0.542582  1
  Ni  Ni12  1  0.833289  0.166711  0.354365  1
  Ni  Ni13  1  0.833289  0.666578  0.354365  1
  Ni  Ni14  1  0.333422  0.166711  0.354365  1
  Ni  Ni15  1  0.166311  0.833689  0.645046  1
  Ni  Ni16  1  0.166311  0.332622  0.645046  1
  Ni  Ni17  1  0.667378  0.833689  0.645046  1
  Ni  Ni18  1  0.166311  0.833689  0.854954  1
  Ni  Ni19  1  0.166311  0.332622  0.854954  1
  Ni  Ni20  1  0.667378  0.833689  0.854954  1
  Ni  Ni21  1  0.833289  0.166711  0.145635  1
  Ni  Ni22  1  0.833289  0.666578  0.145635  1
  Ni  Ni23  1  0.333422  0.166711  0.145635  1
  Sn  Sn24  1  0.333333  0.666667  0.412384  1
  Sn  Sn25  1  0.666667  0.333333  0.587629  1
  Sn  Sn26  1  0.666667  0.333333  0.912371  1
  Sn  Sn27  1  0.333333  0.666667  0.087616  1
