# generated using pymatgen
data_Zr6Ti4Sn5B2Sb
_symmetry_space_group_name_H-M   'P 1'
_cell_length_a   8.42011546
_cell_length_b   8.42011506
_cell_length_c   5.62642600
_cell_angle_alpha   90.00000000
_cell_angle_beta   90.00000000
_cell_angle_gamma   119.99339020
_symmetry_Int_Tables_number   1
_chemical_formula_structural   Zr6Ti4Sn5B2Sb
_chemical_formula_sum   'Zr6 Ti4 Sn5 B2 Sb1'
_cell_volume   345.48423767
_cell_formula_units_Z   1
loop_
 _symmetry_equiv_pos_site_id
 _symmetry_equiv_pos_as_xyz
  1  'x, y, z'
loop_
 _atom_site_type_symbol
 _atom_site_label
 _atom_site_symmetry_multiplicity
 _atom_site_fract_x
 _atom_site_fract_y
 _atom_site_fract_z
 _atom_site_occupancy
  Zr  Zr0  1  0.766581  0.766581  0.750000  1
  Zr  Zr1  1  0.233179  0.000509  0.750000  1
  Zr  Zr2  1  0.000509  0.233179  0.750000  1
  Zr  Zr3  1  0.234918  0.234918  0.250000  1
  Zr  Zr4  1  0.767092  0.000118  0.250000  1
  Zr  Zr5  1  0.000118  0.767092  0.250000  1
  Ti  Ti6  1  0.665221  0.333373  0.000086  1
  Ti  Ti7  1  0.333373  0.665221  0.000086  1
  Ti  Ti8  1  0.333373  0.665221  0.499914  1
  Ti  Ti9  1  0.665221  0.333373  0.499914  1
  Sn  Sn10  1  0.595595  0.999919  0.750000  1
  Sn  Sn11  1  0.999919  0.595595  0.750000  1
  Sn  Sn12  1  0.596836  0.596836  0.250000  1
  Sn  Sn13  1  0.404233  0.999311  0.250000  1
  Sn  Sn14  1  0.999311  0.404233  0.250000  1
  B  B15  1  0.000030  0.000030  0.000589  1
  B  B16  1  0.000030  0.000030  0.499411  1
  Sb  Sb17  1  0.404461  0.404461  0.750000  1
