# generated using pymatgen
data_PrHo15(ErSn4)4
_symmetry_space_group_name_H-M   'P 1'
_cell_length_a   8.01163908
_cell_length_b   8.14524392
_cell_length_c   15.41321753
_cell_angle_alpha   90.02252124
_cell_angle_beta   89.56772476
_cell_angle_gamma   89.81964692
_symmetry_Int_Tables_number   1
_chemical_formula_structural   PrHo15(ErSn4)4
_chemical_formula_sum   'Pr1 Ho15 Er4 Sn16'
_cell_volume   1005.78285568
_cell_formula_units_Z   1
loop_
 _symmetry_equiv_pos_site_id
 _symmetry_equiv_pos_as_xyz
  1  'x, y, z'
loop_
 _atom_site_type_symbol
 _atom_site_label
 _atom_site_symmetry_multiplicity
 _atom_site_fract_x
 _atom_site_fract_y
 _atom_site_fract_z
 _atom_site_occupancy
  Pr  Pr0  1  0.016128  0.179459  0.904752  1
  Ho  Ho1  1  0.365510  0.837123  0.876439  1
  Ho  Ho2  1  0.868198  0.662713  0.620824  1
  Ho  Ho3  1  0.630985  0.162126  0.377493  1
  Ho  Ho4  1  0.134849  0.338259  0.123191  1
  Ho  Ho5  1  0.634666  0.163225  0.123745  1
  Ho  Ho6  1  0.131243  0.337721  0.377766  1
  Ho  Ho7  1  0.369617  0.837407  0.621763  1
  Ho  Ho8  1  0.866722  0.662108  0.877279  1
  Ho  Ho9  1  0.520791  0.322733  0.902929  1
  Ho  Ho10  1  0.023810  0.179103  0.598112  1
  Ho  Ho11  1  0.477378  0.678381  0.402251  1
  Ho  Ho12  1  0.980580  0.819138  0.097436  1
  Ho  Ho13  1  0.479549  0.679235  0.097711  1
  Ho  Ho14  1  0.977497  0.821395  0.402307  1
  Ho  Ho15  1  0.522213  0.321892  0.596137  1
  Er  Er16  1  0.199114  0.503250  0.748959  1
  Er  Er17  1  0.698621  0.996241  0.748765  1
  Er  Er18  1  0.801362  0.496816  0.250439  1
  Er  Er19  1  0.301667  0.003196  0.250869  1
  Sn  Sn20  1  0.299073  0.034230  0.044109  1
  Sn  Sn21  1  0.791290  0.463056  0.457810  1
  Sn  Sn22  1  0.709431  0.965690  0.541629  1
  Sn  Sn23  1  0.208463  0.540917  0.959494  1
  Sn  Sn24  1  0.698389  0.956860  0.960235  1
  Sn  Sn25  1  0.208701  0.536659  0.541265  1
  Sn  Sn26  1  0.291054  0.036198  0.458256  1
  Sn  Sn27  1  0.792828  0.463306  0.042037  1
  Sn  Sn28  1  0.564774  0.619351  0.749569  1
  Sn  Sn29  1  0.064783  0.878341  0.748796  1
  Sn  Sn30  1  0.435438  0.382213  0.250588  1
  Sn  Sn31  1  0.936016  0.118626  0.250305  1
  Sn  Sn32  1  0.333280  0.149135  0.749190  1
  Sn  Sn33  1  0.827356  0.353655  0.747405  1
  Sn  Sn34  1  0.669461  0.851080  0.250076  1
  Sn  Sn35  1  0.169166  0.649161  0.250073  1
