# generated using pymatgen
data_Sm2Y3Nb3(Ni4As3)4
_symmetry_space_group_name_H-M   'P 1'
_cell_length_a   12.71111400
_cell_length_b   12.71111395
_cell_length_c   3.91512700
_cell_angle_alpha   90.00000000
_cell_angle_beta   90.00000000
_cell_angle_gamma   120.00000533
_symmetry_Int_Tables_number   1
_chemical_formula_structural   Sm2Y3Nb3(Ni4As3)4
_chemical_formula_sum   'Sm2 Y3 Nb3 Ni16 As12'
_cell_volume   547.82732239
_cell_formula_units_Z   1
loop_
 _symmetry_equiv_pos_site_id
 _symmetry_equiv_pos_as_xyz
  1  'x, y, z'
loop_
 _atom_site_type_symbol
 _atom_site_label
 _atom_site_symmetry_multiplicity
 _atom_site_fract_x
 _atom_site_fract_y
 _atom_site_fract_z
 _atom_site_occupancy
  Sm  Sm0  1  0.333333  0.666667  0.000000  1
  Sm  Sm1  1  0.666667  0.333333  0.000000  1
  Y  Y2  1  0.186309  0.186309  0.500000  1
  Y  Y3  1  0.813691  0.000000  0.500000  1
  Y  Y4  1  0.000000  0.813691  0.500000  1
  Nb  Nb5  1  0.563579  0.563579  0.000000  1
  Nb  Nb6  1  0.436421  0.000000  0.000000  1
  Nb  Nb7  1  0.000000  0.436421  0.000000  1
  Ni  Ni8  1  0.722037  0.722037  0.500000  1
  Ni  Ni9  1  0.277963  0.000000  0.500000  1
  Ni  Ni10  1  0.000000  0.277963  0.500000  1
  Ni  Ni11  1  0.182015  0.374203  0.000000  1
  Ni  Ni12  1  0.625797  0.807812  0.000000  1
  Ni  Ni13  1  0.192188  0.817985  0.000000  1
  Ni  Ni14  1  0.807812  0.625797  0.000000  1
  Ni  Ni15  1  0.817985  0.192188  0.000000  1
  Ni  Ni16  1  0.374203  0.182015  0.000000  1
  Ni  Ni17  1  0.361897  0.483000  0.500000  1
  Ni  Ni18  1  0.517000  0.878899  0.500000  1
  Ni  Ni19  1  0.121101  0.638103  0.500000  1
  Ni  Ni20  1  0.878899  0.517000  0.500000  1
  Ni  Ni21  1  0.638103  0.121101  0.500000  1
  Ni  Ni22  1  0.483000  0.361897  0.500000  1
  Ni  Ni23  1  0.000000  0.000000  0.000000  1
  As  As24  1  0.822343  0.822343  0.000000  1
  As  As25  1  0.177657  0.000000  0.000000  1
  As  As26  1  0.000000  0.177657  0.000000  1
  As  As27  1  0.168219  0.478181  0.500000  1
  As  As28  1  0.521819  0.690037  0.500000  1
  As  As29  1  0.309963  0.831781  0.500000  1
  As  As30  1  0.690037  0.521819  0.500000  1
  As  As31  1  0.831781  0.309963  0.500000  1
  As  As32  1  0.478181  0.168219  0.500000  1
  As  As33  1  0.362104  0.362104  0.000000  1
  As  As34  1  0.637896  0.000000  0.000000  1
  As  As35  1  0.000000  0.637896  0.000000  1
