# generated using pymatgen
data_Tm4HgRh
_symmetry_space_group_name_H-M   'P 1'
_cell_length_a   9.45230007
_cell_length_b   9.45230031
_cell_length_c   9.45230000
_cell_angle_alpha   60.00000108
_cell_angle_beta   60.00000023
_cell_angle_gamma   60.00000100
_symmetry_Int_Tables_number   1
_chemical_formula_structural   Tm4HgRh
_chemical_formula_sum   'Tm16 Hg4 Rh4'
_cell_volume   597.16936169
_cell_formula_units_Z   4
loop_
 _symmetry_equiv_pos_site_id
 _symmetry_equiv_pos_as_xyz
  1  'x, y, z'
loop_
 _atom_site_type_symbol
 _atom_site_label
 _atom_site_symmetry_multiplicity
 _atom_site_fract_x
 _atom_site_fract_y
 _atom_site_fract_z
 _atom_site_occupancy
  Tm  Tm0  1  0.062992  0.062992  0.437008  1
  Tm  Tm1  1  0.437008  0.062992  0.437008  1
  Tm  Tm2  1  0.062992  0.437008  0.062992  1
  Tm  Tm3  1  0.054263  0.648579  0.648579  1
  Tm  Tm4  1  0.437008  0.437008  0.062992  1
  Tm  Tm5  1  0.648579  0.054263  0.648579  1
  Tm  Tm6  1  0.189129  0.810871  0.189129  1
  Tm  Tm7  1  0.189129  0.189129  0.810871  1
  Tm  Tm8  1  0.810871  0.810871  0.189129  1
  Tm  Tm9  1  0.437008  0.062992  0.062992  1
  Tm  Tm10  1  0.810871  0.189129  0.189129  1
  Tm  Tm11  1  0.062992  0.437008  0.437008  1
  Tm  Tm12  1  0.810871  0.189129  0.810871  1
  Tm  Tm13  1  0.189129  0.810871  0.810871  1
  Tm  Tm14  1  0.648579  0.648579  0.054263  1
  Tm  Tm15  1  0.648579  0.648579  0.648579  1
  Hg  Hg16  1  0.415460  0.415460  0.415460  1
  Hg  Hg17  1  0.753620  0.415460  0.415460  1
  Hg  Hg18  1  0.415460  0.753620  0.415460  1
  Hg  Hg19  1  0.415460  0.415460  0.753620  1
  Rh  Rh20  1  0.856921  0.856921  0.429237  1
  Rh  Rh21  1  0.856921  0.856921  0.856921  1
  Rh  Rh22  1  0.429237  0.856921  0.856921  1
  Rh  Rh23  1  0.856921  0.429237  0.856921  1
