# generated using pymatgen
data_Ti8V11Si16Ir
_symmetry_space_group_name_H-M   'P 1'
_cell_length_a   6.49187703
_cell_length_b   6.49187711
_cell_length_c   11.95815338
_cell_angle_alpha   90.16705315
_cell_angle_beta   89.83294878
_cell_angle_gamma   89.71703686
_symmetry_Int_Tables_number   1
_chemical_formula_structural   Ti8V11Si16Ir
_chemical_formula_sum   'Ti8 V11 Si16 Ir1'
_cell_volume   503.95956012
_cell_formula_units_Z   1
loop_
 _symmetry_equiv_pos_site_id
 _symmetry_equiv_pos_as_xyz
  1  'x, y, z'
loop_
 _atom_site_type_symbol
 _atom_site_label
 _atom_site_symmetry_multiplicity
 _atom_site_fract_x
 _atom_site_fract_y
 _atom_site_fract_z
 _atom_site_occupancy
  Ti  Ti0  1  0.999713  0.667305  0.029180  1
  Ti  Ti1  1  0.837000  0.501060  0.279293  1
  Ti  Ti2  1  0.161545  0.502048  0.778210  1
  Ti  Ti3  1  0.501060  0.837000  0.720707  1
  Ti  Ti4  1  0.502048  0.161545  0.221790  1
  Ti  Ti5  1  0.998200  0.337850  0.529412  1
  Ti  Ti6  1  0.667305  0.999713  0.970820  1
  Ti  Ti7  1  0.337850  0.998200  0.470588  1
  V  V8  1  0.166630  0.832047  0.249014  1
  V  V9  1  0.832047  0.166630  0.750986  1
  V  V10  1  0.666275  0.666275  0.500000  1
  V  V11  1  0.996639  0.153944  0.130739  1
  V  V12  1  0.345900  0.505014  0.376279  1
  V  V13  1  0.665371  0.494857  0.875347  1
  V  V14  1  0.505014  0.345900  0.623721  1
  V  V15  1  0.494857  0.665371  0.124653  1
  V  V16  1  0.994882  0.845788  0.627065  1
  V  V17  1  0.153944  0.996639  0.869261  1
  V  V18  1  0.845788  0.994882  0.372935  1
  Si  Si19  1  0.291826  0.960531  0.062901  1
  Si  Si20  1  0.539326  0.799393  0.315994  1
  Si  Si21  1  0.459689  0.201516  0.816371  1
  Si  Si22  1  0.799393  0.539326  0.684006  1
  Si  Si23  1  0.201516  0.459689  0.183629  1
  Si  Si24  1  0.700959  0.039649  0.565267  1
  Si  Si25  1  0.960531  0.291826  0.937099  1
  Si  Si26  1  0.039649  0.700959  0.434733  1
  Si  Si27  1  0.705776  0.373714  0.074848  1
  Si  Si28  1  0.134301  0.207411  0.325237  1
  Si  Si29  1  0.865942  0.792582  0.824260  1
  Si  Si30  1  0.207411  0.134301  0.674763  1
  Si  Si31  1  0.792582  0.865942  0.175740  1
  Si  Si32  1  0.292926  0.633569  0.575188  1
  Si  Si33  1  0.373714  0.705776  0.925152  1
  Si  Si34  1  0.633569  0.292926  0.424812  1
  Ir  Ir35  1  0.328829  0.328829  0.000000  1
