# generated using pymatgen
data_SmHo9In8(PdPt)2
_symmetry_space_group_name_H-M   'P 1'
_cell_length_a   3.61449000
_cell_length_b   8.16078715
_cell_length_c   18.27649339
_cell_angle_alpha   90.17712691
_cell_angle_beta   90.00000000
_cell_angle_gamma   90.00000000
_symmetry_Int_Tables_number   1
_chemical_formula_structural   SmHo9In8(PdPt)2
_chemical_formula_sum   'Sm1 Ho9 In8 Pd2 Pt2'
_cell_volume   539.10067653
_cell_formula_units_Z   1
loop_
 _symmetry_equiv_pos_site_id
 _symmetry_equiv_pos_as_xyz
  1  'x, y, z'
loop_
 _atom_site_type_symbol
 _atom_site_label
 _atom_site_symmetry_multiplicity
 _atom_site_fract_x
 _atom_site_fract_y
 _atom_site_fract_z
 _atom_site_occupancy
  Sm  Sm0  1  0.000000  0.500000  0.500000  1
  Ho  Ho1  1  0.000000  0.118529  0.415525  1
  Ho  Ho2  1  0.000000  0.881471  0.584475  1
  Ho  Ho3  1  0.000000  0.382780  0.914967  1
  Ho  Ho4  1  0.000000  0.617220  0.085033  1
  Ho  Ho5  1  0.000000  0.246299  0.219184  1
  Ho  Ho6  1  0.000000  0.753701  0.780816  1
  Ho  Ho7  1  0.000000  0.260838  0.720396  1
  Ho  Ho8  1  0.000000  0.739162  0.279604  1
  Ho  Ho9  1  0.000000  0.000000  0.000000  1
  In  In10  1  0.500000  0.421339  0.350059  1
  In  In11  1  0.500000  0.578661  0.649941  1
  In  In12  1  0.500000  0.075491  0.850234  1
  In  In13  1  0.500000  0.924509  0.149766  1
  In  In14  1  0.500000  0.292350  0.066460  1
  In  In15  1  0.500000  0.707650  0.933540  1
  In  In16  1  0.500000  0.204284  0.567695  1
  In  In17  1  0.500000  0.795716  0.432305  1
  Pd  Pd18  1  0.500000  0.024431  0.303511  1
  Pd  Pd19  1  0.500000  0.975569  0.696489  1
  Pt  Pt20  1  0.500000  0.475083  0.803572  1
  Pt  Pt21  1  0.500000  0.524917  0.196428  1
