# generated using pymatgen
data_PuAsPdN
_symmetry_space_group_name_H-M   'P 1'
_cell_length_a   4.02864980
_cell_length_b   4.02864976
_cell_length_c   8.18093603
_cell_angle_alpha   89.99024076
_cell_angle_beta   89.99024325
_cell_angle_gamma   89.98835899
_symmetry_Int_Tables_number   1
_chemical_formula_structural   PuAsPdN
_chemical_formula_sum   'Pu2 As2 Pd2 N2'
_cell_volume   132.77674124
_cell_formula_units_Z   2
loop_
 _symmetry_equiv_pos_site_id
 _symmetry_equiv_pos_as_xyz
  1  'x, y, z'
loop_
 _atom_site_type_symbol
 _atom_site_label
 _atom_site_symmetry_multiplicity
 _atom_site_fract_x
 _atom_site_fract_y
 _atom_site_fract_z
 _atom_site_occupancy
  Pu  Pu0  1  0.749961  0.749961  0.127568  1
  Pu  Pu1  1  0.249932  0.249932  0.871489  1
  As  As2  1  0.250027  0.250027  0.315864  1
  As  As3  1  0.750031  0.750031  0.685004  1
  Pd  Pd4  1  0.750062  0.250022  0.500463  1
  Pd  Pd5  1  0.250022  0.750062  0.500463  1
  N  N6  1  0.749991  0.249984  0.999576  1
  N  N7  1  0.249984  0.749991  0.999576  1
