# generated using pymatgen
data_Y4Pa(B3Os)2
_symmetry_space_group_name_H-M   'P 1'
_cell_length_a   5.52877414
_cell_length_b   5.52877304
_cell_length_c   8.30941297
_cell_angle_alpha   70.56840343
_cell_angle_beta   70.56839840
_cell_angle_gamma   59.99999603
_symmetry_Int_Tables_number   1
_chemical_formula_structural   Y4Pa(B3Os)2
_chemical_formula_sum   'Y4 Pa1 B6 Os2'
_cell_volume   203.08982240
_cell_formula_units_Z   1
loop_
 _symmetry_equiv_pos_site_id
 _symmetry_equiv_pos_as_xyz
  1  'x, y, z'
loop_
 _atom_site_type_symbol
 _atom_site_label
 _atom_site_symmetry_multiplicity
 _atom_site_fract_x
 _atom_site_fract_y
 _atom_site_fract_z
 _atom_site_occupancy
  Y  Y0  1  0.747363  0.747363  0.757913  1
  Y  Y1  1  0.252637  0.252637  0.242087  1
  Y  Y2  1  0.585746  0.585746  0.242763  1
  Y  Y3  1  0.414254  0.414254  0.757237  1
  Pa  Pa4  1  0.000000  0.000000  0.000000  1
  B  B5  1  0.500000  0.173674  0.500000  1
  B  B6  1  0.826326  0.500000  0.500000  1
  B  B7  1  0.173674  0.826326  0.500000  1
  B  B8  1  0.173674  0.500000  0.500000  1
  B  B9  1  0.826326  0.173674  0.500000  1
  B  B10  1  0.500000  0.826326  0.500000  1
  Os  Os11  1  0.890663  0.890663  0.328011  1
  Os  Os12  1  0.109337  0.109337  0.671989  1
