# generated using pymatgen
data_Li3Ca8Si12Ag
_symmetry_space_group_name_H-M   'P 1'
_cell_length_a   4.37407600
_cell_length_b   10.54634203
_cell_length_c   11.18043903
_cell_angle_alpha   89.99105113
_cell_angle_beta   90.00000000
_cell_angle_gamma   90.00000000
_symmetry_Int_Tables_number   1
_chemical_formula_structural   Li3Ca8Si12Ag
_chemical_formula_sum   'Li3 Ca8 Si12 Ag1'
_cell_volume   515.75925413
_cell_formula_units_Z   1
loop_
 _symmetry_equiv_pos_site_id
 _symmetry_equiv_pos_as_xyz
  1  'x, y, z'
loop_
 _atom_site_type_symbol
 _atom_site_label
 _atom_site_symmetry_multiplicity
 _atom_site_fract_x
 _atom_site_fract_y
 _atom_site_fract_z
 _atom_site_occupancy
  Li  Li0  1  0.500000  0.138732  0.717805  1
  Li  Li1  1  0.000000  0.361523  0.218027  1
  Li  Li2  1  0.000000  0.638580  0.782677  1
  Ca  Ca3  1  0.500000  0.550397  0.348351  1
  Ca  Ca4  1  0.500000  0.449111  0.648798  1
  Ca  Ca5  1  0.000000  0.051820  0.152339  1
  Ca  Ca6  1  0.000000  0.948489  0.850532  1
  Ca  Ca7  1  0.500000  0.822684  0.574576  1
  Ca  Ca8  1  0.500000  0.178369  0.424896  1
  Ca  Ca9  1  0.000000  0.322075  0.925737  1
  Ca  Ca10  1  0.000000  0.678568  0.077855  1
  Si  Si11  1  0.500000  0.892956  0.043151  1
  Si  Si12  1  0.500000  0.107875  0.960594  1
  Si  Si13  1  0.000000  0.391570  0.459393  1
  Si  Si14  1  0.000000  0.610110  0.539337  1
  Si  Si15  1  0.000000  0.967048  0.399684  1
  Si  Si16  1  0.000000  0.033996  0.599322  1
  Si  Si17  1  0.500000  0.464614  0.098606  1
  Si  Si18  1  0.500000  0.534835  0.900285  1
  Si  Si19  1  0.000000  0.255349  0.633328  1
  Si  Si20  1  0.000000  0.744327  0.364346  1
  Si  Si21  1  0.500000  0.755182  0.870997  1
  Si  Si22  1  0.500000  0.245033  0.132584  1
  Ag  Ag23  1  0.500000  0.856755  0.276780  1
