# generated using pymatgen
data_Tm3BeCo9SiB4
_symmetry_space_group_name_H-M   'P 1'
_cell_length_a   5.03639000
_cell_length_b   5.03639027
_cell_length_c   9.35534100
_cell_angle_alpha   90.00000000
_cell_angle_beta   90.00000000
_cell_angle_gamma   119.99999820
_symmetry_Int_Tables_number   1
_chemical_formula_structural   Tm3BeCo9SiB4
_chemical_formula_sum   'Tm3 Be1 Co9 Si1 B4'
_cell_volume   205.50812230
_cell_formula_units_Z   1
loop_
 _symmetry_equiv_pos_site_id
 _symmetry_equiv_pos_as_xyz
  1  'x, y, z'
loop_
 _atom_site_type_symbol
 _atom_site_label
 _atom_site_symmetry_multiplicity
 _atom_site_fract_x
 _atom_site_fract_y
 _atom_site_fract_z
 _atom_site_occupancy
  Tm  Tm0  1  0.000000  0.000000  0.000000  1
  Tm  Tm1  1  0.000000  0.000000  0.661931  1
  Tm  Tm2  1  0.000000  0.000000  0.338069  1
  Be  Be3  1  0.333333  0.666667  0.000000  1
  Co  Co4  1  0.500413  0.499587  0.500000  1
  Co  Co5  1  0.500413  0.000827  0.500000  1
  Co  Co6  1  0.999173  0.499587  0.500000  1
  Co  Co7  1  0.499127  0.500873  0.806164  1
  Co  Co8  1  0.499127  0.998255  0.806164  1
  Co  Co9  1  0.001745  0.500873  0.806164  1
  Co  Co10  1  0.499127  0.500873  0.193836  1
  Co  Co11  1  0.499127  0.998255  0.193836  1
  Co  Co12  1  0.001745  0.500873  0.193836  1
  Si  Si13  1  0.666667  0.333333  0.000000  1
  B  B14  1  0.666667  0.333333  0.656473  1
  B  B15  1  0.333333  0.666667  0.655349  1
  B  B16  1  0.333333  0.666667  0.344651  1
  B  B17  1  0.666667  0.333333  0.343527  1
