# generated using pymatgen
data_Er3Th11Ir6
_symmetry_space_group_name_H-M   'P 1'
_cell_length_a   9.99728025
_cell_length_b   10.00179828
_cell_length_c   6.33916344
_cell_angle_alpha   90.26696104
_cell_angle_beta   89.80087786
_cell_angle_gamma   119.99356101
_symmetry_Int_Tables_number   1
_chemical_formula_structural   Er3Th11Ir6
_chemical_formula_sum   'Er3 Th11 Ir6'
_cell_volume   548.96621732
_cell_formula_units_Z   1
loop_
 _symmetry_equiv_pos_site_id
 _symmetry_equiv_pos_as_xyz
  1  'x, y, z'
loop_
 _atom_site_type_symbol
 _atom_site_label
 _atom_site_symmetry_multiplicity
 _atom_site_fract_x
 _atom_site_fract_y
 _atom_site_fract_z
 _atom_site_occupancy
  Er  Er0  1  0.459450  0.538321  0.296915  1
  Er  Er1  1  0.076165  0.537555  0.306828  1
  Er  Er2  1  0.925508  0.463369  0.807435  1
  Th  Th3  1  0.255717  0.130201  0.500715  1
  Th  Th4  1  0.541577  0.080547  0.791159  1
  Th  Th5  1  0.748365  0.874308  0.002440  1
  Th  Th6  1  0.665032  0.331047  0.296119  1
  Th  Th7  1  0.127428  0.869028  0.000430  1
  Th  Th8  1  0.456836  0.914319  0.289219  1
  Th  Th9  1  0.541420  0.461733  0.795494  1
  Th  Th10  1  0.874175  0.130957  0.503552  1
  Th  Th11  1  0.127680  0.259685  0.003915  1
  Th  Th12  1  0.866901  0.734270  0.499816  1
  Th  Th13  1  0.334423  0.667342  0.780494  1
  Ir  Ir14  1  0.809691  0.624672  0.053117  1
  Ir  Ir15  1  0.813037  0.187172  0.051662  1
  Ir  Ir16  1  0.627456  0.816254  0.550462  1
  Ir  Ir17  1  0.374772  0.190034  0.052718  1
  Ir  Ir18  1  0.186235  0.374402  0.551282  1
  Ir  Ir19  1  0.188131  0.814784  0.550229  1
