# generated using pymatgen
data_Sr5BiP2
_symmetry_space_group_name_H-M   'P 1'
_cell_length_a   9.65708630
_cell_length_b   9.65708591
_cell_length_c   9.65708600
_cell_angle_alpha   128.48695923
_cell_angle_beta   128.48696495
_cell_angle_gamma   75.83748809
_symmetry_Int_Tables_number   1
_chemical_formula_structural   Sr5BiP2
_chemical_formula_sum   'Sr10 Bi2 P4'
_cell_volume   536.64355559
_cell_formula_units_Z   2
loop_
 _symmetry_equiv_pos_site_id
 _symmetry_equiv_pos_as_xyz
  1  'x, y, z'
loop_
 _atom_site_type_symbol
 _atom_site_label
 _atom_site_symmetry_multiplicity
 _atom_site_fract_x
 _atom_site_fract_y
 _atom_site_fract_z
 _atom_site_occupancy
  Sr  Sr0  1  0.782411  0.282411  0.805599  1
  Sr  Sr1  1  0.217589  0.717589  0.194401  1
  Sr  Sr2  1  0.476812  0.976812  0.194401  1
  Sr  Sr3  1  0.282411  0.476812  0.500000  1
  Sr  Sr4  1  0.023188  0.217589  0.500000  1
  Sr  Sr5  1  0.523188  0.023188  0.805599  1
  Sr  Sr6  1  0.717589  0.523188  0.500000  1
  Sr  Sr7  1  0.976812  0.782411  0.500000  1
  Sr  Sr8  1  0.000000  0.000000  0.000000  1
  Sr  Sr9  1  0.500000  0.500000  0.000000  1
  Bi  Bi10  1  0.250000  0.250000  0.000000  1
  Bi  Bi11  1  0.750000  0.750000  0.000000  1
  P  P12  1  0.158136  0.658136  0.816274  1
  P  P13  1  0.841864  0.341864  0.183726  1
  P  P14  1  0.658136  0.841864  0.500000  1
  P  P15  1  0.341864  0.158136  0.500000  1
