# generated using pymatgen
data_Ho7Lu3(Tl3Se)2
_symmetry_space_group_name_H-M   'P 1'
_cell_length_a   9.03840800
_cell_length_b   9.03840892
_cell_length_c   6.63391000
_cell_angle_alpha   90.00000000
_cell_angle_beta   90.00000000
_cell_angle_gamma   119.99999663
_symmetry_Int_Tables_number   1
_chemical_formula_structural   Ho7Lu3(Tl3Se)2
_chemical_formula_sum   'Ho7 Lu3 Tl6 Se2'
_cell_volume   469.33630459
_cell_formula_units_Z   1
loop_
 _symmetry_equiv_pos_site_id
 _symmetry_equiv_pos_as_xyz
  1  'x, y, z'
loop_
 _atom_site_type_symbol
 _atom_site_label
 _atom_site_symmetry_multiplicity
 _atom_site_fract_x
 _atom_site_fract_y
 _atom_site_fract_z
 _atom_site_occupancy
  Ho  Ho0  1  0.666667  0.333333  0.000000  1
  Ho  Ho1  1  0.746884  0.747133  0.749700  1
  Ho  Ho2  1  0.252867  0.999751  0.749700  1
  Ho  Ho3  1  0.000249  0.253116  0.749700  1
  Ho  Ho4  1  0.252867  0.253116  0.250300  1
  Ho  Ho5  1  0.746884  0.999751  0.250300  1
  Ho  Ho6  1  0.000249  0.747133  0.250300  1
  Lu  Lu7  1  0.333333  0.666667  0.000000  1
  Lu  Lu8  1  0.333333  0.666667  0.500000  1
  Lu  Lu9  1  0.666667  0.333333  0.500000  1
  Tl  Tl10  1  0.398897  0.399482  0.749342  1
  Tl  Tl11  1  0.600518  0.999414  0.749342  1
  Tl  Tl12  1  0.000586  0.601103  0.749342  1
  Tl  Tl13  1  0.600518  0.601103  0.250658  1
  Tl  Tl14  1  0.398897  0.999414  0.250658  1
  Tl  Tl15  1  0.000586  0.399482  0.250658  1
  Se  Se16  1  0.000000  0.000000  0.000000  1
  Se  Se17  1  0.000000  0.000000  0.500000  1
