# generated using pymatgen
data_MnCd(FeBr4)4
_symmetry_space_group_name_H-M   'P 1'
_cell_length_a   10.67247442
_cell_length_b   10.67247521
_cell_length_c   12.77675082
_cell_angle_alpha   55.17855780
_cell_angle_beta   55.17855247
_cell_angle_gamma   48.71624955
_symmetry_Int_Tables_number   1
_chemical_formula_structural   MnCd(FeBr4)4
_chemical_formula_sum   'Mn1 Cd1 Fe4 Br16'
_cell_volume   852.08304178
_cell_formula_units_Z   1
loop_
 _symmetry_equiv_pos_site_id
 _symmetry_equiv_pos_as_xyz
  1  'x, y, z'
loop_
 _atom_site_type_symbol
 _atom_site_label
 _atom_site_symmetry_multiplicity
 _atom_site_fract_x
 _atom_site_fract_y
 _atom_site_fract_z
 _atom_site_occupancy
  Mn  Mn0  1  0.004047  0.995953  0.750000  1
  Cd  Cd1  1  0.998282  0.001718  0.250000  1
  Fe  Fe2  1  0.323466  0.842091  0.471556  1
  Fe  Fe3  1  0.157909  0.676534  0.028444  1
  Fe  Fe4  1  0.677070  0.157501  0.530155  1
  Fe  Fe5  1  0.842499  0.322930  0.969845  1
  Br  Br6  1  0.613980  0.696858  0.450040  1
  Br  Br7  1  0.303142  0.386020  0.049960  1
  Br  Br8  1  0.386440  0.302892  0.550724  1
  Br  Br9  1  0.697108  0.613560  0.949276  1
  Br  Br10  1  0.164927  0.128271  0.489980  1
  Br  Br11  1  0.871729  0.835073  0.010020  1
  Br  Br12  1  0.828640  0.868406  0.520161  1
  Br  Br13  1  0.131594  0.171360  0.979839  1
  Br  Br14  1  0.316884  0.852815  0.282599  1
  Br  Br15  1  0.147185  0.683116  0.217401  1
  Br  Br16  1  0.692494  0.142873  0.717604  1
  Br  Br17  1  0.857127  0.307506  0.782396  1
  Br  Br18  1  0.163080  0.710024  0.679986  1
  Br  Br19  1  0.289976  0.836920  0.820014  1
  Br  Br20  1  0.830656  0.298236  0.323575  1
  Br  Br21  1  0.701764  0.169344  0.176425  1
