# generated using pymatgen
data_ReP2NCl12
_symmetry_space_group_name_H-M   'P 1'
_cell_length_a   8.35453785
_cell_length_b   8.35453712
_cell_length_c   16.11407704
_cell_angle_alpha   78.22931501
_cell_angle_beta   78.22931644
_cell_angle_gamma   65.35845602
_symmetry_Int_Tables_number   1
_chemical_formula_structural   ReP2NCl12
_chemical_formula_sum   'Re2 P4 N2 Cl24'
_cell_volume   991.83153499
_cell_formula_units_Z   2
loop_
 _symmetry_equiv_pos_site_id
 _symmetry_equiv_pos_as_xyz
  1  'x, y, z'
loop_
 _atom_site_type_symbol
 _atom_site_label
 _atom_site_symmetry_multiplicity
 _atom_site_fract_x
 _atom_site_fract_y
 _atom_site_fract_z
 _atom_site_occupancy
  Re  Re0  1  0.000000  0.000000  0.500000  1
  Re  Re1  1  0.000000  0.000000  0.000000  1
  P  P2  1  0.455465  0.325510  0.772757  1
  P  P3  1  0.674490  0.544535  0.727243  1
  P  P4  1  0.325510  0.455465  0.272757  1
  P  P5  1  0.544535  0.674490  0.227243  1
  N  N6  1  0.615037  0.384963  0.750000  1
  N  N7  1  0.384963  0.615037  0.250000  1
  Cl  Cl8  1  0.709242  0.213864  0.010687  1
  Cl  Cl9  1  0.795245  0.900171  0.471212  1
  Cl  Cl10  1  0.290758  0.786136  0.989313  1
  Cl  Cl11  1  0.899149  0.481166  0.648785  1
  Cl  Cl12  1  0.235837  0.500442  0.828867  1
  Cl  Cl13  1  0.518834  0.100851  0.851215  1
  Cl  Cl14  1  0.099829  0.204755  0.028788  1
  Cl  Cl15  1  0.481166  0.899149  0.148785  1
  Cl  Cl16  1  0.958238  0.904421  0.145857  1
  Cl  Cl17  1  0.786136  0.290758  0.489313  1
  Cl  Cl18  1  0.904421  0.958238  0.645857  1
  Cl  Cl19  1  0.204755  0.099829  0.528788  1
  Cl  Cl20  1  0.900171  0.795245  0.971212  1
  Cl  Cl21  1  0.280923  0.392064  0.170070  1
  Cl  Cl22  1  0.607936  0.719077  0.329930  1
  Cl  Cl23  1  0.095579  0.041762  0.354143  1
  Cl  Cl24  1  0.719077  0.607936  0.829930  1
  Cl  Cl25  1  0.213864  0.709242  0.510687  1
  Cl  Cl26  1  0.041762  0.095579  0.854143  1
  Cl  Cl27  1  0.100851  0.518834  0.351215  1
  Cl  Cl28  1  0.764163  0.499558  0.171133  1
  Cl  Cl29  1  0.499558  0.764163  0.671133  1
  Cl  Cl30  1  0.392064  0.280923  0.670070  1
  Cl  Cl31  1  0.500442  0.235837  0.328867  1
