# generated using pymatgen
data_Li6Ce2UN6
_symmetry_space_group_name_H-M   'P 1'
_cell_length_a   6.18617900
_cell_length_b   6.18618047
_cell_length_c   5.46532600
_cell_angle_alpha   90.00000000
_cell_angle_beta   90.00000000
_cell_angle_gamma   120.00000817
_symmetry_Int_Tables_number   1
_chemical_formula_structural   Li6Ce2UN6
_chemical_formula_sum   'Li6 Ce2 U1 N6'
_cell_volume   181.13056266
_cell_formula_units_Z   1
loop_
 _symmetry_equiv_pos_site_id
 _symmetry_equiv_pos_as_xyz
  1  'x, y, z'
loop_
 _atom_site_type_symbol
 _atom_site_label
 _atom_site_symmetry_multiplicity
 _atom_site_fract_x
 _atom_site_fract_y
 _atom_site_fract_z
 _atom_site_occupancy
  Li  Li0  1  0.976411  0.647582  0.602841  1
  Li  Li1  1  0.352418  0.328829  0.602841  1
  Li  Li2  1  0.671171  0.023589  0.602841  1
  Li  Li3  1  0.005367  0.337729  0.395216  1
  Li  Li4  1  0.662271  0.667637  0.395216  1
  Li  Li5  1  0.332363  0.994633  0.395216  1
  Ce  Ce6  1  0.000000  0.000000  0.998324  1
  Ce  Ce7  1  0.333333  0.666667  0.992343  1
  U  U8  1  0.666667  0.333333  0.007200  1
  N  N9  1  0.979967  0.646758  0.225981  1
  N  N10  1  0.353242  0.333208  0.225981  1
  N  N11  1  0.666792  0.020033  0.225981  1
  N  N12  1  0.975780  0.333627  0.776673  1
  N  N13  1  0.666373  0.642152  0.776673  1
  N  N14  1  0.357848  0.024220  0.776673  1
