# generated using pymatgen
data_Yb5SnIr2
_symmetry_space_group_name_H-M   'P 1'
_cell_length_a   8.93706443
_cell_length_b   8.93706578
_cell_length_c   8.93706508
_cell_angle_alpha   129.39849229
_cell_angle_beta   129.39850455
_cell_angle_gamma   74.37021188
_symmetry_Int_Tables_number   1
_chemical_formula_structural   Yb5SnIr2
_chemical_formula_sum   'Yb10 Sn2 Ir4'
_cell_volume   415.47030976
_cell_formula_units_Z   2
loop_
 _symmetry_equiv_pos_site_id
 _symmetry_equiv_pos_as_xyz
  1  'x, y, z'
loop_
 _atom_site_type_symbol
 _atom_site_label
 _atom_site_symmetry_multiplicity
 _atom_site_fract_x
 _atom_site_fract_y
 _atom_site_fract_z
 _atom_site_occupancy
  Yb  Yb0  1  0.000000  0.000000  0.000000  1
  Yb  Yb1  1  0.500000  0.500000  0.000000  1
  Yb  Yb2  1  0.800142  0.300142  0.839559  1
  Yb  Yb3  1  0.199858  0.699858  0.160441  1
  Yb  Yb4  1  0.460582  0.960582  0.160441  1
  Yb  Yb5  1  0.300142  0.460582  0.500000  1
  Yb  Yb6  1  0.039418  0.199858  0.500000  1
  Yb  Yb7  1  0.539418  0.039418  0.839559  1
  Yb  Yb8  1  0.699858  0.539418  0.500000  1
  Yb  Yb9  1  0.960582  0.800142  0.500000  1
  Sn  Sn10  1  0.250000  0.250000  0.000000  1
  Sn  Sn11  1  0.750000  0.750000  0.000000  1
  Ir  Ir12  1  0.126313  0.626313  0.752629  1
  Ir  Ir13  1  0.873687  0.373687  0.247371  1
  Ir  Ir14  1  0.626313  0.873687  0.500000  1
  Ir  Ir15  1  0.373687  0.126313  0.500000  1
