# generated using pymatgen
data_Yb6TcO8
_symmetry_space_group_name_H-M   'P 1'
_cell_length_a   6.61959078
_cell_length_b   6.61959142
_cell_length_c   6.61959200
_cell_angle_alpha   60.00000710
_cell_angle_beta   60.00000388
_cell_angle_gamma   60.00000003
_symmetry_Int_Tables_number   1
_chemical_formula_structural   Yb6TcO8
_chemical_formula_sum   'Yb6 Tc1 O8'
_cell_volume   205.10610498
_cell_formula_units_Z   1
loop_
 _symmetry_equiv_pos_site_id
 _symmetry_equiv_pos_as_xyz
  1  'x, y, z'
loop_
 _atom_site_type_symbol
 _atom_site_label
 _atom_site_symmetry_multiplicity
 _atom_site_fract_x
 _atom_site_fract_y
 _atom_site_fract_z
 _atom_site_occupancy
  Yb  Yb0  1  0.500000  0.000000  0.000000  1
  Yb  Yb1  1  0.500000  0.000000  0.500000  1
  Yb  Yb2  1  0.000000  0.000000  0.500000  1
  Yb  Yb3  1  0.500000  0.500000  0.000000  1
  Yb  Yb4  1  0.000000  0.500000  0.000000  1
  Yb  Yb5  1  0.000000  0.500000  0.500000  1
  Tc  Tc6  1  0.000000  0.000000  0.000000  1
  O  O7  1  0.778285  0.221715  0.221715  1
  O  O8  1  0.250000  0.250000  0.250000  1
  O  O9  1  0.221715  0.778285  0.221715  1
  O  O10  1  0.221715  0.221715  0.778285  1
  O  O11  1  0.778285  0.221715  0.778285  1
  O  O12  1  0.778285  0.778285  0.221715  1
  O  O13  1  0.750000  0.750000  0.750000  1
  O  O14  1  0.221715  0.778285  0.778285  1
