# generated using pymatgen
data_Tb4Ho(SiHg)2
_symmetry_space_group_name_H-M   'P 1'
_cell_length_a   8.82275633
_cell_length_b   8.82275752
_cell_length_c   7.58784800
_cell_angle_alpha   90.00000000
_cell_angle_beta   90.00000000
_cell_angle_gamma   129.27262535
_symmetry_Int_Tables_number   1
_chemical_formula_structural   Tb4Ho(SiHg)2
_chemical_formula_sum   'Tb8 Ho2 Si4 Hg4'
_cell_volume   457.24429370
_cell_formula_units_Z   2
loop_
 _symmetry_equiv_pos_site_id
 _symmetry_equiv_pos_as_xyz
  1  'x, y, z'
loop_
 _atom_site_type_symbol
 _atom_site_label
 _atom_site_symmetry_multiplicity
 _atom_site_fract_x
 _atom_site_fract_y
 _atom_site_fract_z
 _atom_site_occupancy
  Tb  Tb0  1  0.053861  0.308666  0.324270  1
  Tb  Tb1  1  0.946139  0.691334  0.675730  1
  Tb  Tb2  1  0.446139  0.191334  0.824270  1
  Tb  Tb3  1  0.808666  0.553861  0.175730  1
  Tb  Tb4  1  0.553861  0.808666  0.175730  1
  Tb  Tb5  1  0.191334  0.446139  0.824270  1
  Tb  Tb6  1  0.691334  0.946139  0.675730  1
  Tb  Tb7  1  0.308666  0.053861  0.324270  1
  Ho  Ho8  1  0.000000  0.000000  0.000000  1
  Ho  Ho9  1  0.500000  0.500000  0.500000  1
  Si  Si10  1  0.380280  0.380280  0.121980  1
  Si  Si11  1  0.619720  0.619720  0.878020  1
  Si  Si12  1  0.119720  0.119720  0.621980  1
  Si  Si13  1  0.880280  0.880280  0.378020  1
  Hg  Hg14  1  0.782644  0.217356  0.000000  1
  Hg  Hg15  1  0.217356  0.782644  0.000000  1
  Hg  Hg16  1  0.717356  0.282644  0.500000  1
  Hg  Hg17  1  0.282644  0.717356  0.500000  1
