# generated using pymatgen
data_Ac7Pr(AgGe)8
_symmetry_space_group_name_H-M   'P 1'
_cell_length_a   9.31383300
_cell_length_b   9.31383326
_cell_length_c   7.88269200
_cell_angle_alpha   90.00000000
_cell_angle_beta   90.00000000
_cell_angle_gamma   120.00000262
_symmetry_Int_Tables_number   1
_chemical_formula_structural   Ac7Pr(AgGe)8
_chemical_formula_sum   'Ac7 Pr1 Ag8 Ge8'
_cell_volume   592.19138279
_cell_formula_units_Z   1
loop_
 _symmetry_equiv_pos_site_id
 _symmetry_equiv_pos_as_xyz
  1  'x, y, z'
loop_
 _atom_site_type_symbol
 _atom_site_label
 _atom_site_symmetry_multiplicity
 _atom_site_fract_x
 _atom_site_fract_y
 _atom_site_fract_z
 _atom_site_occupancy
  Ac  Ac0  1  0.489795  0.510205  0.498386  1
  Ac  Ac1  1  0.489795  0.979589  0.498386  1
  Ac  Ac2  1  0.020411  0.510205  0.498386  1
  Ac  Ac3  1  0.511530  0.488470  0.999759  1
  Ac  Ac4  1  0.511530  0.023059  0.999759  1
  Ac  Ac5  1  0.976941  0.488470  0.999759  1
  Ac  Ac6  1  0.000000  0.000000  0.492536  1
  Pr  Pr7  1  0.000000  0.000000  0.990803  1
  Ag  Ag8  1  0.834900  0.165100  0.727266  1
  Ag  Ag9  1  0.834900  0.669799  0.727266  1
  Ag  Ag10  1  0.330201  0.165100  0.727266  1
  Ag  Ag11  1  0.164975  0.835025  0.211409  1
  Ag  Ag12  1  0.164975  0.329951  0.211409  1
  Ag  Ag13  1  0.670049  0.835025  0.211409  1
  Ag  Ag14  1  0.666667  0.333333  0.282545  1
  Ag  Ag15  1  0.333333  0.666667  0.781070  1
  Ge  Ge16  1  0.834773  0.165227  0.282112  1
  Ge  Ge17  1  0.834773  0.669547  0.282112  1
  Ge  Ge18  1  0.330453  0.165227  0.282112  1
  Ge  Ge19  1  0.164412  0.835588  0.794683  1
  Ge  Ge20  1  0.164412  0.328821  0.794683  1
  Ge  Ge21  1  0.671179  0.835588  0.794683  1
  Ge  Ge22  1  0.666667  0.333333  0.724637  1
  Ge  Ge23  1  0.333333  0.666667  0.245570  1
