# generated using pymatgen
data_Sc4AlTc6Os
_symmetry_space_group_name_H-M   'P 1'
_cell_length_a   5.19222400
_cell_length_b   5.19222237
_cell_length_c   8.75666200
_cell_angle_alpha   90.00000000
_cell_angle_beta   90.00000000
_cell_angle_gamma   120.00001041
_symmetry_Int_Tables_number   1
_chemical_formula_structural   Sc4AlTc6Os
_chemical_formula_sum   'Sc4 Al1 Tc6 Os1'
_cell_volume   204.44470955
_cell_formula_units_Z   1
loop_
 _symmetry_equiv_pos_site_id
 _symmetry_equiv_pos_as_xyz
  1  'x, y, z'
loop_
 _atom_site_type_symbol
 _atom_site_label
 _atom_site_symmetry_multiplicity
 _atom_site_fract_x
 _atom_site_fract_y
 _atom_site_fract_z
 _atom_site_occupancy
  Sc  Sc0  1  0.333333  0.666667  0.436581  1
  Sc  Sc1  1  0.666667  0.333333  0.563419  1
  Sc  Sc2  1  0.666667  0.333333  0.932622  1
  Sc  Sc3  1  0.333333  0.666667  0.067378  1
  Al  Al4  1  0.000000  0.000000  0.000000  1
  Tc  Tc5  1  0.170838  0.341675  0.750075  1
  Tc  Tc6  1  0.170838  0.829162  0.750075  1
  Tc  Tc7  1  0.341675  0.170838  0.249925  1
  Tc  Tc8  1  0.829162  0.658325  0.249925  1
  Tc  Tc9  1  0.658325  0.829162  0.750075  1
  Tc  Tc10  1  0.829162  0.170838  0.249925  1
  Os  Os11  1  0.000000  0.000000  0.500000  1
