# generated using pymatgen
data_ErMnAl8FeCu2
_symmetry_space_group_name_H-M   'P 1'
_cell_length_a   5.09413630
_cell_length_b   6.69751957
_cell_length_c   6.65143546
_cell_angle_alpha   81.50839217
_cell_angle_beta   67.15221142
_cell_angle_gamma   67.64770469
_symmetry_Int_Tables_number   1
_chemical_formula_structural   ErMnAl8FeCu2
_chemical_formula_sum   'Er1 Mn1 Al8 Fe1 Cu2'
_cell_volume   193.41553186
_cell_formula_units_Z   1
loop_
 _symmetry_equiv_pos_site_id
 _symmetry_equiv_pos_as_xyz
  1  'x, y, z'
loop_
 _atom_site_type_symbol
 _atom_site_label
 _atom_site_symmetry_multiplicity
 _atom_site_fract_x
 _atom_site_fract_y
 _atom_site_fract_z
 _atom_site_occupancy
  Er  Er0  1  0.000000  0.000000  0.000000  1
  Mn  Mn1  1  0.500000  0.000000  0.500000  1
  Al  Al2  1  0.011100  0.335825  0.644032  1
  Al  Al3  1  0.988900  0.664175  0.355968  1
  Al  Al4  1  0.653076  0.335825  0.355968  1
  Al  Al5  1  0.346924  0.664175  0.644032  1
  Al  Al6  1  0.495752  0.785083  0.222536  1
  Al  Al7  1  0.504248  0.214917  0.777464  1
  Al  Al8  1  0.719165  0.785083  0.777464  1
  Al  Al9  1  0.280835  0.214917  0.222536  1
  Fe  Fe10  1  0.000000  0.000000  0.500000  1
  Cu  Cu11  1  0.500000  0.500000  0.000000  1
  Cu  Cu12  1  0.000000  0.500000  0.000000  1
