# generated using pymatgen
data_Ta6Al4CuIrC2
_symmetry_space_group_name_H-M   'P 1'
_cell_length_a   8.27799363
_cell_length_b   8.30230216
_cell_length_c   8.30230046
_cell_angle_alpha   60.30565845
_cell_angle_beta   60.09680476
_cell_angle_gamma   60.09680410
_symmetry_Int_Tables_number   1
_chemical_formula_structural   Ta6Al4CuIrC2
_chemical_formula_sum   'Ta12 Al8 Cu2 Ir2 C4'
_cell_volume   404.98330392
_cell_formula_units_Z   2
loop_
 _symmetry_equiv_pos_site_id
 _symmetry_equiv_pos_as_xyz
  1  'x, y, z'
loop_
 _atom_site_type_symbol
 _atom_site_label
 _atom_site_symmetry_multiplicity
 _atom_site_fract_x
 _atom_site_fract_y
 _atom_site_fract_z
 _atom_site_occupancy
  Ta  Ta0  1  0.563229  0.933617  0.568155  1
  Ta  Ta1  1  0.314112  0.685888  0.685888  1
  Ta  Ta2  1  0.682300  0.317700  0.317700  1
  Ta  Ta3  1  0.315000  0.681845  0.316383  1
  Ta  Ta4  1  0.686771  0.681845  0.316383  1
  Ta  Ta5  1  0.315000  0.316383  0.681845  1
  Ta  Ta6  1  0.563229  0.568155  0.933617  1
  Ta  Ta7  1  0.935888  0.564112  0.564112  1
  Ta  Ta8  1  0.567700  0.932300  0.932300  1
  Ta  Ta9  1  0.935000  0.933617  0.568155  1
  Ta  Ta10  1  0.686771  0.316383  0.681845  1
  Ta  Ta11  1  0.935000  0.568155  0.933617  1
  Al  Al12  1  0.914898  0.918315  0.918315  1
  Al  Al13  1  0.001528  0.331685  0.331685  1
  Al  Al14  1  0.335639  0.997468  0.331256  1
  Al  Al15  1  0.335639  0.331256  0.997468  1
  Al  Al16  1  0.914361  0.252532  0.918744  1
  Al  Al17  1  0.914361  0.918744  0.252532  1
  Al  Al18  1  0.248472  0.918315  0.918315  1
  Al  Al19  1  0.335102  0.331685  0.331685  1
  Cu  Cu20  1  0.125000  0.125000  0.125000  1
  Cu  Cu21  1  0.625000  0.125000  0.125000  1
  Ir  Ir22  1  0.125000  0.625000  0.125000  1
  Ir  Ir23  1  0.125000  0.125000  0.625000  1
  C  C24  1  0.625000  0.625000  0.625000  1
  C  C25  1  0.125000  0.625000  0.625000  1
  C  C26  1  0.625000  0.125000  0.625000  1
  C  C27  1  0.625000  0.625000  0.125000  1
