# generated using pymatgen
data_Sr6Sn8BiCl
_symmetry_space_group_name_H-M   'P 1'
_cell_length_a   8.97770661
_cell_length_b   8.97770628
_cell_length_c   8.97770737
_cell_angle_alpha   120.01110335
_cell_angle_beta   120.01110534
_cell_angle_gamma   89.98076816
_symmetry_Int_Tables_number   1
_chemical_formula_structural   Sr6Sn8BiCl
_chemical_formula_sum   'Sr6 Sn8 Bi1 Cl1'
_cell_volume   511.57383295
_cell_formula_units_Z   1
loop_
 _symmetry_equiv_pos_site_id
 _symmetry_equiv_pos_as_xyz
  1  'x, y, z'
loop_
 _atom_site_type_symbol
 _atom_site_label
 _atom_site_symmetry_multiplicity
 _atom_site_fract_x
 _atom_site_fract_y
 _atom_site_fract_z
 _atom_site_occupancy
  Sr  Sr0  1  0.258790  0.258790  0.000000  1
  Sr  Sr1  1  0.741210  0.741210  0.000000  1
  Sr  Sr2  1  0.164769  0.661098  0.825868  1
  Sr  Sr3  1  0.835231  0.338902  0.174132  1
  Sr  Sr4  1  0.661098  0.835231  0.496328  1
  Sr  Sr5  1  0.338902  0.164769  0.503672  1
  Sn  Sn6  1  0.831786  0.330170  0.785064  1
  Sn  Sn7  1  0.168214  0.669830  0.214936  1
  Sn  Sn8  1  0.545106  0.046722  0.214936  1
  Sn  Sn9  1  0.330170  0.545106  0.498384  1
  Sn  Sn10  1  0.953278  0.168214  0.498384  1
  Sn  Sn11  1  0.454894  0.953278  0.785064  1
  Sn  Sn12  1  0.669830  0.454894  0.501616  1
  Sn  Sn13  1  0.046722  0.831786  0.501616  1
  Bi  Bi14  1  0.000000  0.000000  0.000000  1
  Cl  Cl15  1  0.500000  0.500000  0.000000  1
