# generated using pymatgen
data_ErTm(NbS2)8
_symmetry_space_group_name_H-M   'P 1'
_cell_length_a   6.68699400
_cell_length_b   6.68699514
_cell_length_c   13.53037800
_cell_angle_alpha   90.00000000
_cell_angle_beta   90.00000000
_cell_angle_gamma   119.99999434
_symmetry_Int_Tables_number   1
_chemical_formula_structural   ErTm(NbS2)8
_chemical_formula_sum   'Er1 Tm1 Nb8 S16'
_cell_volume   523.96530129
_cell_formula_units_Z   1
loop_
 _symmetry_equiv_pos_site_id
 _symmetry_equiv_pos_as_xyz
  1  'x, y, z'
loop_
 _atom_site_type_symbol
 _atom_site_label
 _atom_site_symmetry_multiplicity
 _atom_site_fract_x
 _atom_site_fract_y
 _atom_site_fract_z
 _atom_site_occupancy
  Er  Er0  1  0.000000  0.000000  0.500000  1
  Tm  Tm1  1  0.000000  0.000000  0.000000  1
  Nb  Nb2  1  0.000058  0.999958  0.250757  1
  Nb  Nb3  1  0.999942  0.000042  0.749243  1
  Nb  Nb4  1  0.504634  0.009627  0.250578  1
  Nb  Nb5  1  0.495366  0.990373  0.749422  1
  Nb  Nb6  1  0.990459  0.495390  0.250575  1
  Nb  Nb7  1  0.009541  0.504610  0.749425  1
  Nb  Nb8  1  0.504862  0.495092  0.250579  1
  Nb  Nb9  1  0.495138  0.504908  0.749421  1
  S  S10  1  0.333367  0.666677  0.630395  1
  S  S11  1  0.666633  0.333323  0.369605  1
  S  S12  1  0.666635  0.333327  0.132015  1
  S  S13  1  0.333365  0.666673  0.867985  1
  S  S14  1  0.168580  0.337211  0.134439  1
  S  S15  1  0.831420  0.662789  0.865561  1
  S  S16  1  0.662779  0.831428  0.134412  1
  S  S17  1  0.830583  0.661112  0.633426  1
  S  S18  1  0.337221  0.168572  0.865588  1
  S  S19  1  0.169417  0.338888  0.366574  1
  S  S20  1  0.168642  0.831399  0.134343  1
  S  S21  1  0.338893  0.169407  0.633395  1
  S  S22  1  0.831358  0.168601  0.865657  1
  S  S23  1  0.661107  0.830593  0.366605  1
  S  S24  1  0.830516  0.169449  0.633333  1
  S  S25  1  0.169484  0.830551  0.366667  1
