# generated using pymatgen
data_ErTm5Fe7Co16
_symmetry_space_group_name_H-M   'P 1'
_cell_length_a   8.32905615
_cell_length_b   8.32838548
_cell_length_c   8.32819405
_cell_angle_alpha   60.00881554
_cell_angle_beta   59.99703868
_cell_angle_gamma   60.00160182
_symmetry_Int_Tables_number   1
_chemical_formula_structural   ErTm5Fe7Co16
_chemical_formula_sum   'Er1 Tm5 Fe7 Co16'
_cell_volume   408.52337228
_cell_formula_units_Z   1
loop_
 _symmetry_equiv_pos_site_id
 _symmetry_equiv_pos_as_xyz
  1  'x, y, z'
loop_
 _atom_site_type_symbol
 _atom_site_label
 _atom_site_symmetry_multiplicity
 _atom_site_fract_x
 _atom_site_fract_y
 _atom_site_fract_z
 _atom_site_occupancy
  Er  Er0  1  0.711372  0.288659  0.288639  1
  Tm  Tm1  1  0.288300  0.711712  0.711716  1
  Tm  Tm2  1  0.287927  0.712083  0.288103  1
  Tm  Tm3  1  0.287933  0.288121  0.712078  1
  Tm  Tm4  1  0.711877  0.288127  0.712069  1
  Tm  Tm5  1  0.711900  0.712076  0.288106  1
  Fe  Fe6  1  0.500026  0.999985  0.999973  1
  Fe  Fe7  1  0.000038  0.499927  0.500003  1
  Fe  Fe8  1  0.000195  0.500216  0.999775  1
  Fe  Fe9  1  0.000214  0.999775  0.500239  1
  Fe  Fe10  1  0.499762  0.999802  0.500211  1
  Fe  Fe11  1  0.499813  0.500175  0.999797  1
  Fe  Fe12  1  0.000106  0.999897  0.999935  1
  Co  Co13  1  0.323393  0.323543  0.323536  1
  Co  Co14  1  0.323568  0.323519  0.029332  1
  Co  Co15  1  0.029490  0.323542  0.323550  1
  Co  Co16  1  0.323572  0.029280  0.323554  1
  Co  Co17  1  0.676473  0.676458  0.676421  1
  Co  Co18  1  0.676473  0.676606  0.970457  1
  Co  Co19  1  0.676478  0.970450  0.676605  1
  Co  Co20  1  0.970644  0.676457  0.676427  1
  Co  Co21  1  0.123024  0.122643  0.122660  1
  Co  Co22  1  0.122769  0.122717  0.631740  1
  Co  Co23  1  0.631649  0.122655  0.122652  1
  Co  Co24  1  0.122759  0.631758  0.122715  1
  Co  Co25  1  0.877297  0.877233  0.877227  1
  Co  Co26  1  0.877364  0.876965  0.368326  1
  Co  Co27  1  0.877343  0.368382  0.876934  1
  Co  Co28  1  0.368239  0.877238  0.877221  1
