# generated using pymatgen
data_Nd4Al4Pt3Rh
_symmetry_space_group_name_H-M   'P 1'
_cell_length_a   4.50199700
_cell_length_b   7.06562789
_cell_length_c   7.94098661
_cell_angle_alpha   90.19382642
_cell_angle_beta   90.00000000
_cell_angle_gamma   90.00000000
_symmetry_Int_Tables_number   1
_chemical_formula_structural   Nd4Al4Pt3Rh
_chemical_formula_sum   'Nd4 Al4 Pt3 Rh1'
_cell_volume   252.59685640
_cell_formula_units_Z   1
loop_
 _symmetry_equiv_pos_site_id
 _symmetry_equiv_pos_as_xyz
  1  'x, y, z'
loop_
 _atom_site_type_symbol
 _atom_site_label
 _atom_site_symmetry_multiplicity
 _atom_site_fract_x
 _atom_site_fract_y
 _atom_site_fract_z
 _atom_site_occupancy
  Nd  Nd0  1  0.250000  0.534931  0.179472  1
  Nd  Nd1  1  0.750000  0.463913  0.817647  1
  Nd  Nd2  1  0.750000  0.969082  0.680052  1
  Nd  Nd3  1  0.250000  0.038182  0.323784  1
  Al  Al4  1  0.250000  0.636704  0.563682  1
  Al  Al5  1  0.750000  0.358821  0.437678  1
  Al  Al6  1  0.750000  0.858198  0.063321  1
  Al  Al7  1  0.250000  0.142222  0.936678  1
  Pt  Pt8  1  0.250000  0.779556  0.882461  1
  Pt  Pt9  1  0.750000  0.220957  0.117958  1
  Pt  Pt10  1  0.750000  0.722449  0.381868  1
  Rh  Rh11  1  0.250000  0.274984  0.615399  1
