# generated using pymatgen
data_Ca8DyTmIr4
_symmetry_space_group_name_H-M   'P 1'
_cell_length_a   6.62337668
_cell_length_b   7.40236341
_cell_length_c   8.67287277
_cell_angle_alpha   97.52042821
_cell_angle_beta   112.44797844
_cell_angle_gamma   89.99999387
_symmetry_Int_Tables_number   1
_chemical_formula_structural   Ca8DyTmIr4
_chemical_formula_sum   'Ca8 Dy1 Tm1 Ir4'
_cell_volume   389.03843901
_cell_formula_units_Z   1
loop_
 _symmetry_equiv_pos_site_id
 _symmetry_equiv_pos_as_xyz
  1  'x, y, z'
loop_
 _atom_site_type_symbol
 _atom_site_label
 _atom_site_symmetry_multiplicity
 _atom_site_fract_x
 _atom_site_fract_y
 _atom_site_fract_z
 _atom_site_occupancy
  Ca  Ca0  1  0.804109  0.081297  0.826820  1
  Ca  Ca1  1  0.977290  0.418703  0.173180  1
  Ca  Ca2  1  0.195961  0.919854  0.173798  1
  Ca  Ca3  1  0.022162  0.580146  0.826202  1
  Ca  Ca4  1  0.204236  0.181825  0.565415  1
  Ca  Ca5  1  0.638820  0.318175  0.434585  1
  Ca  Ca6  1  0.796384  0.818933  0.435441  1
  Ca  Ca7  1  0.360944  0.681067  0.564559  1
  Dy  Dy8  1  0.561203  0.750000  0.000000  1
  Tm  Tm9  1  0.439724  0.250000  0.000000  1
  Ir  Ir10  1  0.597214  0.425402  0.791982  1
  Ir  Ir11  1  0.805231  0.074598  0.208018  1
  Ir  Ir12  1  0.402057  0.571297  0.207394  1
  Ir  Ir13  1  0.194664  0.928703  0.792606  1
