# generated using pymatgen
data_PrY3CdIr
_symmetry_space_group_name_H-M   'P 1'
_cell_length_a   9.76813470
_cell_length_b   9.76251797
_cell_length_c   9.76251762
_cell_angle_alpha   60.03806514
_cell_angle_beta   59.98096713
_cell_angle_gamma   59.98096322
_symmetry_Int_Tables_number   1
_chemical_formula_structural   PrY3CdIr
_chemical_formula_sum   'Pr4 Y12 Cd4 Ir4'
_cell_volume   658.29418150
_cell_formula_units_Z   4
loop_
 _symmetry_equiv_pos_site_id
 _symmetry_equiv_pos_as_xyz
  1  'x, y, z'
loop_
 _atom_site_type_symbol
 _atom_site_label
 _atom_site_symmetry_multiplicity
 _atom_site_fract_x
 _atom_site_fract_y
 _atom_site_fract_z
 _atom_site_occupancy
  Pr  Pr0  1  0.561255  0.938745  0.561255  1
  Pr  Pr1  1  0.938745  0.561255  0.938745  1
  Pr  Pr2  1  0.561255  0.561255  0.938745  1
  Pr  Pr3  1  0.938745  0.938745  0.561255  1
  Y  Y4  1  0.349253  0.347654  0.347654  1
  Y  Y5  1  0.347654  0.349253  0.955437  1
  Y  Y6  1  0.347654  0.955437  0.349253  1
  Y  Y7  1  0.955437  0.347654  0.347654  1
  Y  Y8  1  0.812154  0.187846  0.187846  1
  Y  Y9  1  0.187846  0.812154  0.812154  1
  Y  Y10  1  0.189313  0.810687  0.189313  1
  Y  Y11  1  0.810687  0.189313  0.810687  1
  Y  Y12  1  0.189313  0.189313  0.810687  1
  Y  Y13  1  0.810687  0.810687  0.189313  1
  Y  Y14  1  0.943998  0.556002  0.556002  1
  Y  Y15  1  0.556002  0.943998  0.943998  1
  Cd  Cd16  1  0.582878  0.578595  0.578595  1
  Cd  Cd17  1  0.578595  0.582878  0.259932  1
  Cd  Cd18  1  0.578595  0.259932  0.582878  1
  Cd  Cd19  1  0.259932  0.578595  0.578595  1
  Ir  Ir20  1  0.144334  0.139847  0.139847  1
  Ir  Ir21  1  0.139847  0.144334  0.575973  1
  Ir  Ir22  1  0.139847  0.575973  0.144334  1
  Ir  Ir23  1  0.575973  0.139847  0.139847  1
