# generated using pymatgen
data_Ba6Ca2UInSe12
_symmetry_space_group_name_H-M   'P 1'
_cell_length_a   8.86714434
_cell_length_b   8.86714517
_cell_length_c   8.86714506
_cell_angle_alpha   91.97065245
_cell_angle_beta   91.97065473
_cell_angle_gamma   91.97065688
_symmetry_Int_Tables_number   1
_chemical_formula_structural   Ba6Ca2UInSe12
_chemical_formula_sum   'Ba6 Ca2 U1 In1 Se12'
_cell_volume   695.92426671
_cell_formula_units_Z   1
loop_
 _symmetry_equiv_pos_site_id
 _symmetry_equiv_pos_as_xyz
  1  'x, y, z'
loop_
 _atom_site_type_symbol
 _atom_site_label
 _atom_site_symmetry_multiplicity
 _atom_site_fract_x
 _atom_site_fract_y
 _atom_site_fract_z
 _atom_site_occupancy
  Ba  Ba0  1  0.866799  0.623838  0.258484  1
  Ba  Ba1  1  0.258484  0.866799  0.623838  1
  Ba  Ba2  1  0.623838  0.258484  0.866799  1
  Ba  Ba3  1  0.741516  0.133201  0.376162  1
  Ba  Ba4  1  0.376162  0.741516  0.133201  1
  Ba  Ba5  1  0.133201  0.376162  0.741516  1
  Ca  Ca6  1  0.258649  0.258649  0.258649  1
  Ca  Ca7  1  0.741351  0.741351  0.741351  1
  U  U8  1  0.000000  0.000000  0.000000  1
  In  In9  1  0.500000  0.500000  0.500000  1
  Se  Se10  1  0.198964  0.548509  0.412575  1
  Se  Se11  1  0.412575  0.198964  0.548509  1
  Se  Se12  1  0.548509  0.412575  0.198964  1
  Se  Se13  1  0.918440  0.044931  0.702586  1
  Se  Se14  1  0.702586  0.918440  0.044931  1
  Se  Se15  1  0.044931  0.702586  0.918440  1
  Se  Se16  1  0.801036  0.451491  0.587425  1
  Se  Se17  1  0.587425  0.801036  0.451491  1
  Se  Se18  1  0.451491  0.587425  0.801036  1
  Se  Se19  1  0.081560  0.955069  0.297414  1
  Se  Se20  1  0.297414  0.081560  0.955069  1
  Se  Se21  1  0.955069  0.297414  0.081560  1
