# generated using pymatgen
data_Ba4Sr2Pr2Al4O15
_symmetry_space_group_name_H-M   'P 1'
_cell_length_a   11.62025755
_cell_length_b   11.62025853
_cell_length_c   6.99678500
_cell_angle_alpha   89.77470693
_cell_angle_beta   89.77470222
_cell_angle_gamma   119.86863191
_symmetry_Int_Tables_number   1
_chemical_formula_structural   Ba4Sr2Pr2Al4O15
_chemical_formula_sum   'Ba8 Sr4 Pr4 Al8 O30'
_cell_volume   819.25802762
_cell_formula_units_Z   2
loop_
 _symmetry_equiv_pos_site_id
 _symmetry_equiv_pos_as_xyz
  1  'x, y, z'
loop_
 _atom_site_type_symbol
 _atom_site_label
 _atom_site_symmetry_multiplicity
 _atom_site_fract_x
 _atom_site_fract_y
 _atom_site_fract_z
 _atom_site_occupancy
  Ba  Ba0  1  0.829002  0.171797  0.333294  1
  Ba  Ba1  1  0.832765  0.658526  0.327636  1
  Ba  Ba2  1  0.339751  0.167197  0.334989  1
  Ba  Ba3  1  0.171797  0.829002  0.833294  1
  Ba  Ba4  1  0.167197  0.339751  0.834989  1
  Ba  Ba5  1  0.658526  0.832765  0.827636  1
  Ba  Ba6  1  0.669284  0.332665  0.021455  1
  Ba  Ba7  1  0.332665  0.669284  0.521455  1
  Sr  Sr8  1  0.999734  0.999954  0.524042  1
  Sr  Sr9  1  0.999954  0.999734  0.024042  1
  Sr  Sr10  1  0.519348  0.039869  0.663741  1
  Sr  Sr11  1  0.039869  0.519348  0.163741  1
  Pr  Pr12  1  0.520359  0.479594  0.662771  1
  Pr  Pr13  1  0.957947  0.479122  0.665182  1
  Pr  Pr14  1  0.479594  0.520359  0.162771  1
  Pr  Pr15  1  0.479122  0.957947  0.165182  1
  Al  Al16  1  0.663058  0.330228  0.477706  1
  Al  Al17  1  0.330228  0.663058  0.977706  1
  Al  Al18  1  0.818525  0.178090  0.834439  1
  Al  Al19  1  0.819429  0.642995  0.831156  1
  Al  Al20  1  0.360920  0.180852  0.837168  1
  Al  Al21  1  0.178090  0.818525  0.334439  1
  Al  Al22  1  0.180852  0.360920  0.337168  1
  Al  Al23  1  0.642995  0.819429  0.331156  1
  O  O24  1  0.070809  0.678789  0.477933  1
  O  O25  1  0.327275  0.396842  0.465334  1
  O  O26  1  0.604622  0.927518  0.455636  1
  O  O27  1  0.073479  0.393877  0.477875  1
  O  O28  1  0.322770  0.929818  0.458810  1
  O  O29  1  0.604846  0.673031  0.463257  1
  O  O30  1  0.929818  0.322770  0.958810  1
  O  O31  1  0.673031  0.604846  0.963257  1
  O  O32  1  0.393877  0.073479  0.977875  1
  O  O33  1  0.927518  0.604622  0.955636  1
  O  O34  1  0.678789  0.070809  0.977933  1
  O  O35  1  0.396842  0.327275  0.965334  1
  O  O36  1  0.583615  0.414901  0.342801  1
  O  O37  1  0.585261  0.173753  0.336659  1
  O  O38  1  0.825760  0.413949  0.351405  1
  O  O39  1  0.414901  0.583615  0.842801  1
  O  O40  1  0.413949  0.825760  0.851405  1
  O  O41  1  0.173753  0.585261  0.836659  1
  O  O42  1  0.092751  0.898746  0.245624  1
  O  O43  1  0.098863  0.195934  0.248963  1
  O  O44  1  0.809607  0.900577  0.249449  1
  O  O45  1  0.898746  0.092751  0.745624  1
  O  O46  1  0.900577  0.809607  0.749449  1
  O  O47  1  0.195934  0.098863  0.748963  1
  O  O48  1  0.752533  0.250636  0.664456  1
  O  O49  1  0.749515  0.507475  0.659478  1
  O  O50  1  0.497612  0.253825  0.662939  1
  O  O51  1  0.250636  0.752533  0.164456  1
  O  O52  1  0.253825  0.497612  0.162939  1
  O  O53  1  0.507475  0.749515  0.159478  1
