# generated using pymatgen
data_Tb5Dy3SnHg3Au8
_symmetry_space_group_name_H-M   'P 1'
_cell_length_a   8.03326905
_cell_length_b   8.03322005
_cell_length_c   7.38686001
_cell_angle_alpha   90.00481627
_cell_angle_beta   90.00405837
_cell_angle_gamma   89.94151478
_symmetry_Int_Tables_number   1
_chemical_formula_structural   Tb5Dy3SnHg3Au8
_chemical_formula_sum   'Tb5 Dy3 Sn1 Hg3 Au8'
_cell_volume   476.69611911
_cell_formula_units_Z   1
loop_
 _symmetry_equiv_pos_site_id
 _symmetry_equiv_pos_as_xyz
  1  'x, y, z'
loop_
 _atom_site_type_symbol
 _atom_site_label
 _atom_site_symmetry_multiplicity
 _atom_site_fract_x
 _atom_site_fract_y
 _atom_site_fract_z
 _atom_site_occupancy
  Tb  Tb0  1  0.839914  0.160784  0.500744  1
  Tb  Tb1  1  0.160354  0.839435  0.500736  1
  Tb  Tb2  1  0.339210  0.339759  0.999259  1
  Tb  Tb3  1  0.660648  0.660181  0.999261  1
  Tb  Tb4  1  0.684081  0.684713  0.499969  1
  Dy  Dy5  1  0.316037  0.315322  0.499987  1
  Dy  Dy6  1  0.184627  0.816095  0.999986  1
  Dy  Dy7  1  0.815392  0.183959  0.999976  1
  Sn  Sn8  1  0.000126  0.499918  0.249916  1
  Hg  Hg9  1  0.499937  0.000065  0.249947  1
  Hg  Hg10  1  0.000034  0.499962  0.750119  1
  Hg  Hg11  1  0.499944  0.000054  0.750052  1
  Au  Au12  1  0.625679  0.371995  0.274923  1
  Au  Au13  1  0.373750  0.627484  0.274869  1
  Au  Au14  1  0.127700  0.126154  0.774553  1
  Au  Au15  1  0.872710  0.874214  0.775186  1
  Au  Au16  1  0.373517  0.627520  0.725766  1
  Au  Au17  1  0.625979  0.371973  0.725766  1
  Au  Au18  1  0.872724  0.874511  0.224170  1
  Au  Au19  1  0.127636  0.125901  0.224815  1
