# generated using pymatgen
data_Rb3Nd3(PS4)4
_symmetry_space_group_name_H-M   'P 1'
_cell_length_a   10.10767023
_cell_length_b   10.10766968
_cell_length_c   15.03728200
_cell_angle_alpha   89.31411236
_cell_angle_beta   89.31411240
_cell_angle_gamma   71.81701537
_symmetry_Int_Tables_number   1
_chemical_formula_structural   Rb3Nd3(PS4)4
_chemical_formula_sum   'Rb6 Nd6 P8 S32'
_cell_volume   1459.40968372
_cell_formula_units_Z   2
loop_
 _symmetry_equiv_pos_site_id
 _symmetry_equiv_pos_as_xyz
  1  'x, y, z'
loop_
 _atom_site_type_symbol
 _atom_site_label
 _atom_site_symmetry_multiplicity
 _atom_site_fract_x
 _atom_site_fract_y
 _atom_site_fract_z
 _atom_site_occupancy
  Rb  Rb0  1  0.027648  0.384440  0.664319  1
  Rb  Rb1  1  0.000000  0.000000  0.000000  1
  Rb  Rb2  1  0.384440  0.027648  0.164319  1
  Rb  Rb3  1  0.972352  0.615560  0.335681  1
  Rb  Rb4  1  0.615560  0.972352  0.835681  1
  Rb  Rb5  1  0.000000  0.000000  0.500000  1
  Nd  Nd6  1  0.256038  0.743962  0.750000  1
  Nd  Nd7  1  0.743962  0.256038  0.250000  1
  Nd  Nd8  1  0.487513  0.251621  0.512562  1
  Nd  Nd9  1  0.512487  0.748379  0.487438  1
  Nd  Nd10  1  0.748379  0.512487  0.987438  1
  Nd  Nd11  1  0.251621  0.487513  0.012562  1
  P  P12  1  0.964768  0.666236  0.860335  1
  P  P13  1  0.237993  0.599685  0.525194  1
  P  P14  1  0.666236  0.964768  0.360335  1
  P  P15  1  0.035232  0.333764  0.139665  1
  P  P16  1  0.762007  0.400315  0.474806  1
  P  P17  1  0.400315  0.762007  0.974806  1
  P  P18  1  0.333764  0.035232  0.639665  1
  P  P19  1  0.599685  0.237993  0.025194  1
  S  S20  1  0.543747  0.417836  0.102327  1
  S  S21  1  0.399990  0.192090  0.686521  1
  S  S22  1  0.742916  0.274269  0.579259  1
  S  S23  1  0.787668  0.578292  0.523723  1
  S  S24  1  0.582164  0.456253  0.397673  1
  S  S25  1  0.700156  0.079101  0.108188  1
  S  S26  1  0.842333  0.476724  0.169774  1
  S  S27  1  0.947134  0.680536  0.996543  1
  S  S28  1  0.157667  0.523276  0.830226  1
  S  S29  1  0.523276  0.157667  0.330226  1
  S  S30  1  0.192090  0.399990  0.186521  1
  S  S31  1  0.964246  0.850829  0.803449  1
  S  S32  1  0.035754  0.149171  0.196551  1
  S  S33  1  0.319464  0.052866  0.503457  1
  S  S34  1  0.476724  0.842333  0.669774  1
  S  S35  1  0.212332  0.421708  0.476277  1
  S  S36  1  0.456253  0.582164  0.897673  1
  S  S37  1  0.578292  0.787668  0.023723  1
  S  S38  1  0.920899  0.299844  0.391812  1
  S  S39  1  0.807910  0.600010  0.813479  1
  S  S40  1  0.052866  0.319464  0.003457  1
  S  S41  1  0.299844  0.920899  0.891812  1
  S  S42  1  0.079101  0.700156  0.608188  1
  S  S43  1  0.850829  0.964246  0.303449  1
  S  S44  1  0.257084  0.725731  0.420741  1
  S  S45  1  0.417836  0.543747  0.602327  1
  S  S46  1  0.600010  0.807910  0.313479  1
  S  S47  1  0.725731  0.257084  0.920741  1
  S  S48  1  0.274269  0.742916  0.079259  1
  S  S49  1  0.680536  0.947134  0.496543  1
  S  S50  1  0.149171  0.035754  0.696551  1
  S  S51  1  0.421708  0.212332  0.976277  1
