# generated using pymatgen
data_Ce3Al12(IrRu)2
_symmetry_space_group_name_H-M   'P 1'
_cell_length_a   8.92070076
_cell_length_b   8.90473722
_cell_length_c   9.53306400
_cell_angle_alpha   90.00000000
_cell_angle_beta   90.00000000
_cell_angle_gamma   119.94081587
_symmetry_Int_Tables_number   1
_chemical_formula_structural   Ce3Al12(IrRu)2
_chemical_formula_sum   'Ce6 Al24 Ir4 Ru4'
_cell_volume   656.20859545
_cell_formula_units_Z   2
loop_
 _symmetry_equiv_pos_site_id
 _symmetry_equiv_pos_as_xyz
  1  'x, y, z'
loop_
 _atom_site_type_symbol
 _atom_site_label
 _atom_site_symmetry_multiplicity
 _atom_site_fract_x
 _atom_site_fract_y
 _atom_site_fract_z
 _atom_site_occupancy
  Ce  Ce0  1  0.809283  0.614146  0.750000  1
  Ce  Ce1  1  0.190717  0.804863  0.250000  1
  Ce  Ce2  1  0.615079  0.807540  0.250000  1
  Ce  Ce3  1  0.384921  0.192460  0.750000  1
  Ce  Ce4  1  0.809283  0.195137  0.750000  1
  Ce  Ce5  1  0.190717  0.385854  0.250000  1
  Al  Al6  1  0.331805  0.665903  0.476181  1
  Al  Al7  1  0.668195  0.334097  0.976181  1
  Al  Al8  1  0.668195  0.334097  0.523819  1
  Al  Al9  1  0.331805  0.665903  0.023819  1
  Al  Al10  1  0.162195  0.325921  0.578002  1
  Al  Al11  1  0.674978  0.837489  0.576791  1
  Al  Al12  1  0.162195  0.836275  0.578002  1
  Al  Al13  1  0.837805  0.163725  0.078002  1
  Al  Al14  1  0.837805  0.163725  0.421998  1
  Al  Al15  1  0.837805  0.674079  0.078002  1
  Al  Al16  1  0.325022  0.162511  0.076791  1
  Al  Al17  1  0.674978  0.837489  0.923209  1
  Al  Al18  1  0.162195  0.325921  0.921998  1
  Al  Al19  1  0.837805  0.674079  0.421998  1
  Al  Al20  1  0.998617  0.999309  0.250000  1
  Al  Al21  1  0.001383  0.000691  0.750000  1
  Al  Al22  1  0.562111  0.124824  0.250000  1
  Al  Al23  1  0.437889  0.562713  0.750000  1
  Al  Al24  1  0.125693  0.562846  0.750000  1
  Al  Al25  1  0.874307  0.437154  0.250000  1
  Al  Al26  1  0.562111  0.437287  0.250000  1
  Al  Al27  1  0.437889  0.875176  0.750000  1
  Al  Al28  1  0.162195  0.836275  0.921998  1
  Al  Al29  1  0.325022  0.162511  0.423209  1
  Ir  Ir30  1  0.500000  0.000000  0.500000  1
  Ir  Ir31  1  0.500000  0.500000  0.000000  1
  Ir  Ir32  1  0.500000  0.500000  0.500000  1
  Ir  Ir33  1  0.500000  0.000000  0.000000  1
  Ru  Ru34  1  0.000000  0.000000  0.500000  1
  Ru  Ru35  1  0.000000  0.000000  0.000000  1
  Ru  Ru36  1  0.000000  0.500000  0.000000  1
  Ru  Ru37  1  0.000000  0.500000  0.500000  1
