# generated using pymatgen
data_Y20Co2Ag5Hg
_symmetry_space_group_name_H-M   'P 1'
_cell_length_a   9.58971183
_cell_length_b   9.58278763
_cell_length_c   9.61981800
_cell_angle_alpha   90.00000000
_cell_angle_beta   90.00000000
_cell_angle_gamma   119.97611343
_symmetry_Int_Tables_number   1
_chemical_formula_structural   Y20Co2Ag5Hg
_chemical_formula_sum   'Y20 Co2 Ag5 Hg1'
_cell_volume   765.77183847
_cell_formula_units_Z   1
loop_
 _symmetry_equiv_pos_site_id
 _symmetry_equiv_pos_as_xyz
  1  'x, y, z'
loop_
 _atom_site_type_symbol
 _atom_site_label
 _atom_site_symmetry_multiplicity
 _atom_site_fract_x
 _atom_site_fract_y
 _atom_site_fract_z
 _atom_site_occupancy
  Y  Y0  1  0.002158  0.001079  0.498610  1
  Y  Y1  1  0.002158  0.001079  0.001390  1
  Y  Y2  1  0.542579  0.456512  0.250000  1
  Y  Y3  1  0.542579  0.086067  0.250000  1
  Y  Y4  1  0.913265  0.456633  0.250000  1
  Y  Y5  1  0.454165  0.540148  0.750000  1
  Y  Y6  1  0.454165  0.914016  0.750000  1
  Y  Y7  1  0.084767  0.542383  0.750000  1
  Y  Y8  1  0.210998  0.788866  0.437236  1
  Y  Y9  1  0.210998  0.422134  0.437236  1
  Y  Y10  1  0.577901  0.788951  0.437673  1
  Y  Y11  1  0.789130  0.210463  0.563157  1
  Y  Y12  1  0.789130  0.578665  0.563157  1
  Y  Y13  1  0.422453  0.211226  0.563019  1
  Y  Y14  1  0.789130  0.210463  0.936843  1
  Y  Y15  1  0.789130  0.578665  0.936843  1
  Y  Y16  1  0.422453  0.211226  0.936981  1
  Y  Y17  1  0.210998  0.788866  0.062764  1
  Y  Y18  1  0.210998  0.422134  0.062764  1
  Y  Y19  1  0.577901  0.788951  0.062327  1
  Co  Co20  1  0.332944  0.666473  0.250000  1
  Co  Co21  1  0.668108  0.334053  0.750000  1
  Ag  Ag22  1  0.882549  0.117522  0.250000  1
  Ag  Ag23  1  0.882549  0.765026  0.250000  1
  Ag  Ag24  1  0.235536  0.117768  0.250000  1
  Ag  Ag25  1  0.117931  0.883731  0.750000  1
  Ag  Ag26  1  0.117931  0.234200  0.750000  1
  Hg  Hg27  1  0.765399  0.882700  0.750000  1
