# generated using pymatgen
data_Y3TiMnC6
_symmetry_space_group_name_H-M   'P 1'
_cell_length_a   8.22545300
_cell_length_b   8.22545239
_cell_length_c   5.03480000
_cell_angle_alpha   90.00000000
_cell_angle_beta   90.00000000
_cell_angle_gamma   119.99998929
_symmetry_Int_Tables_number   1
_chemical_formula_structural   Y3TiMnC6
_chemical_formula_sum   'Y6 Ti2 Mn2 C12'
_cell_volume   295.00713537
_cell_formula_units_Z   2
loop_
 _symmetry_equiv_pos_site_id
 _symmetry_equiv_pos_as_xyz
  1  'x, y, z'
loop_
 _atom_site_type_symbol
 _atom_site_label
 _atom_site_symmetry_multiplicity
 _atom_site_fract_x
 _atom_site_fract_y
 _atom_site_fract_z
 _atom_site_occupancy
  Y  Y0  1  0.620044  0.678444  0.750000  1
  Y  Y1  1  0.941601  0.620044  0.250000  1
  Y  Y2  1  0.678444  0.058399  0.250000  1
  Y  Y3  1  0.321556  0.941601  0.750000  1
  Y  Y4  1  0.058399  0.379956  0.750000  1
  Y  Y5  1  0.379956  0.321556  0.250000  1
  Ti  Ti6  1  0.000000  0.000000  0.500000  1
  Ti  Ti7  1  0.000000  0.000000  0.000000  1
  Mn  Mn8  1  0.666667  0.333333  0.750000  1
  Mn  Mn9  1  0.333333  0.666667  0.250000  1
  C  C10  1  0.963874  0.761155  0.750000  1
  C  C11  1  0.202719  0.963874  0.250000  1
  C  C12  1  0.761155  0.797281  0.250000  1
  C  C13  1  0.238845  0.202719  0.750000  1
  C  C14  1  0.797281  0.036126  0.750000  1
  C  C15  1  0.036126  0.238845  0.250000  1
  C  C16  1  0.863226  0.569239  0.750000  1
  C  C17  1  0.293985  0.863226  0.250000  1
  C  C18  1  0.569239  0.706015  0.250000  1
  C  C19  1  0.430761  0.293985  0.750000  1
  C  C20  1  0.136774  0.430761  0.250000  1
  C  C21  1  0.706015  0.136774  0.750000  1
