# generated using pymatgen
data_Na4USbTe6
_symmetry_space_group_name_H-M   'P 1'
_cell_length_a   7.82403419
_cell_length_b   7.82403503
_cell_length_c   7.85123102
_cell_angle_alpha   80.47226728
_cell_angle_beta   80.47226871
_cell_angle_gamma   120.41709017
_symmetry_Int_Tables_number   1
_chemical_formula_structural   Na4USbTe6
_chemical_formula_sum   'Na4 U1 Sb1 Te6'
_cell_volume   390.78909234
_cell_formula_units_Z   1
loop_
 _symmetry_equiv_pos_site_id
 _symmetry_equiv_pos_as_xyz
  1  'x, y, z'
loop_
 _atom_site_type_symbol
 _atom_site_label
 _atom_site_symmetry_multiplicity
 _atom_site_fract_x
 _atom_site_fract_y
 _atom_site_fract_z
 _atom_site_occupancy
  Na  Na0  1  0.000134  0.999866  0.000000  1
  Na  Na1  1  0.503192  0.496808  0.500000  1
  Na  Na2  1  0.838269  0.161731  0.500000  1
  Na  Na3  1  0.158925  0.841075  0.500000  1
  U  U4  1  0.332918  0.667082  0.000000  1
  Sb  Sb5  1  0.668203  0.331797  0.000000  1
  Te  Te6  1  0.271923  0.279344  0.230806  1
  Te  Te7  1  0.427489  0.070366  0.769080  1
  Te  Te8  1  0.083531  0.434875  0.770627  1
  Te  Te9  1  0.720656  0.728077  0.769194  1
  Te  Te10  1  0.565125  0.916469  0.229373  1
  Te  Te11  1  0.929634  0.572511  0.230920  1
