# generated using pymatgen
data_YbDyY5Co6Sn23
_symmetry_space_group_name_H-M   'P 1'
_cell_length_a   9.74476601
_cell_length_b   9.74452818
_cell_length_c   9.96842501
_cell_angle_alpha   89.99999739
_cell_angle_beta   89.99547171
_cell_angle_gamma   119.99918798
_symmetry_Int_Tables_number   1
_chemical_formula_structural   YbDyY5Co6Sn23
_chemical_formula_sum   'Yb1 Dy1 Y5 Co6 Sn23'
_cell_volume   819.77177355
_cell_formula_units_Z   1
loop_
 _symmetry_equiv_pos_site_id
 _symmetry_equiv_pos_as_xyz
  1  'x, y, z'
loop_
 _atom_site_type_symbol
 _atom_site_label
 _atom_site_symmetry_multiplicity
 _atom_site_fract_x
 _atom_site_fract_y
 _atom_site_fract_z
 _atom_site_occupancy
  Yb  Yb0  1  0.999998  0.999999  0.999996  1
  Dy  Dy1  1  0.958322  0.479161  0.694367  1
  Y  Y2  1  0.479099  0.520961  0.305690  1
  Y  Y3  1  0.520894  0.479044  0.694320  1
  Y  Y4  1  0.479099  0.958137  0.305690  1
  Y  Y5  1  0.520894  0.041851  0.694320  1
  Y  Y6  1  0.041899  0.520949  0.305730  1
  Co  Co7  1  0.831862  0.168184  0.198414  1
  Co  Co8  1  0.168036  0.831636  0.801545  1
  Co  Co9  1  0.831862  0.663676  0.198414  1
  Co  Co10  1  0.168036  0.336402  0.801545  1
  Co  Co11  1  0.336376  0.168187  0.198424  1
  Co  Co12  1  0.663623  0.831812  0.801572  1
  Sn  Sn13  1  0.345316  0.000028  0.999981  1
  Sn  Sn14  1  0.654692  0.999962  0.999982  1
  Sn  Sn15  1  0.999971  0.345403  0.999952  1
  Sn  Sn16  1  0.999971  0.654568  0.999952  1
  Sn  Sn17  1  0.654692  0.654730  0.999982  1
  Sn  Sn18  1  0.345316  0.345288  0.999981  1
  Sn  Sn19  1  0.333269  0.666635  0.816438  1
  Sn  Sn20  1  0.666671  0.333335  0.183550  1
  Sn  Sn21  1  0.000011  0.000005  0.500023  1
  Sn  Sn22  1  0.781110  0.219089  0.452016  1
  Sn  Sn23  1  0.218869  0.780902  0.548104  1
  Sn  Sn24  1  0.781110  0.562021  0.452016  1
  Sn  Sn25  1  0.218869  0.437967  0.548104  1
  Sn  Sn26  1  0.437888  0.218944  0.451915  1
  Sn  Sn27  1  0.562134  0.781067  0.548128  1
  Sn  Sn28  1  0.333331  0.666666  0.117794  1
  Sn  Sn29  1  0.666828  0.333413  0.882101  1
  Sn  Sn30  1  0.117037  0.883009  0.274064  1
  Sn  Sn31  1  0.882943  0.117043  0.725913  1
  Sn  Sn32  1  0.117037  0.234028  0.274064  1
  Sn  Sn33  1  0.882943  0.765899  0.725913  1
  Sn  Sn34  1  0.765825  0.882913  0.274125  1
  Sn  Sn35  1  0.234169  0.117084  0.725877  1
