# generated using pymatgen
data_CsMgRhF6
_symmetry_space_group_name_H-M   'P 1'
_cell_length_a   7.46310010
_cell_length_b   7.46310026
_cell_length_c   7.46310032
_cell_angle_alpha   120.19469416
_cell_angle_beta   120.73060034
_cell_angle_gamma   89.20116108
_symmetry_Int_Tables_number   1
_chemical_formula_structural   CsMgRhF6
_chemical_formula_sum   'Cs2 Mg2 Rh2 F12'
_cell_volume   291.83495938
_cell_formula_units_Z   2
loop_
 _symmetry_equiv_pos_site_id
 _symmetry_equiv_pos_as_xyz
  1  'x, y, z'
loop_
 _atom_site_type_symbol
 _atom_site_label
 _atom_site_symmetry_multiplicity
 _atom_site_fract_x
 _atom_site_fract_y
 _atom_site_fract_z
 _atom_site_occupancy
  Cs  Cs0  1  0.362335  0.612335  0.750000  1
  Cs  Cs1  1  0.637665  0.387665  0.250000  1
  Mg  Mg2  1  0.000000  0.000000  0.500000  1
  Mg  Mg3  1  0.000000  0.500000  0.000000  1
  Rh  Rh4  1  0.000000  0.000000  0.000000  1
  Rh  Rh5  1  0.500000  0.000000  0.500000  1
  F  F6  1  0.327234  0.077234  0.250000  1
  F  F7  1  0.939767  0.689767  0.250000  1
  F  F8  1  0.326703  0.678641  0.250247  1
  F  F9  1  0.928394  0.076455  0.249753  1
  F  F10  1  0.326703  0.076455  0.648061  1
  F  F11  1  0.928394  0.678641  0.851939  1
  F  F12  1  0.672766  0.922766  0.750000  1
  F  F13  1  0.060233  0.310233  0.750000  1
  F  F14  1  0.673297  0.321359  0.749753  1
  F  F15  1  0.071606  0.923545  0.750247  1
  F  F16  1  0.673297  0.923545  0.351939  1
  F  F17  1  0.071606  0.321359  0.148061  1
