# generated using pymatgen
data_TbEr(Bi3O7)2
_symmetry_space_group_name_H-M   'P 1'
_cell_length_a   6.64537993
_cell_length_b   6.87065164
_cell_length_c   7.85406893
_cell_angle_alpha   106.70643140
_cell_angle_beta   89.39541381
_cell_angle_gamma   99.19177909
_symmetry_Int_Tables_number   1
_chemical_formula_structural   TbEr(Bi3O7)2
_chemical_formula_sum   'Tb1 Er1 Bi6 O14'
_cell_volume   338.81761814
_cell_formula_units_Z   1
loop_
 _symmetry_equiv_pos_site_id
 _symmetry_equiv_pos_as_xyz
  1  'x, y, z'
loop_
 _atom_site_type_symbol
 _atom_site_label
 _atom_site_symmetry_multiplicity
 _atom_site_fract_x
 _atom_site_fract_y
 _atom_site_fract_z
 _atom_site_occupancy
  Tb  Tb0  1  0.460611  0.003206  0.248659  1
  Er  Er1  1  0.538902  0.996489  0.750633  1
  Bi  Bi2  1  0.999567  0.999902  0.500403  1
  Bi  Bi3  1  0.999840  0.999809  0.998636  1
  Bi  Bi4  1  0.261188  0.515830  0.878672  1
  Bi  Bi5  1  0.740486  0.482495  0.121431  1
  Bi  Bi6  1  0.722657  0.464584  0.610837  1
  Bi  Bi7  1  0.278340  0.537242  0.392277  1
  O  O8  1  0.464418  0.657178  0.183594  1
  O  O9  1  0.534486  0.338213  0.814928  1
  O  O10  1  0.304066  0.945094  0.950629  1
  O  O11  1  0.695558  0.056817  0.043864  1
  O  O12  1  0.297537  0.919327  0.514388  1
  O  O13  1  0.701666  0.080927  0.490364  1
  O  O14  1  0.532443  0.351331  0.352925  1
  O  O15  1  0.470326  0.652531  0.649803  1
  O  O16  1  0.915447  0.675170  0.960189  1
  O  O17  1  0.084505  0.324665  0.039386  1
  O  O18  1  0.097153  0.324610  0.623671  1
  O  O19  1  0.904656  0.675215  0.375558  1
  O  O20  1  0.874996  0.932040  0.732281  1
  O  O21  1  0.121153  0.067326  0.266870  1
