# generated using pymatgen
data_Ho8Er11TmPb16
_symmetry_space_group_name_H-M   'P 1'
_cell_length_a   8.17443524
_cell_length_b   15.54766702
_cell_length_c   8.23652220
_cell_angle_alpha   89.97285170
_cell_angle_beta   89.87411402
_cell_angle_gamma   90.03130547
_symmetry_Int_Tables_number   1
_chemical_formula_structural   Ho8Er11TmPb16
_chemical_formula_sum   'Ho8 Er11 Tm1 Pb16'
_cell_volume   1046.80478624
_cell_formula_units_Z   1
loop_
 _symmetry_equiv_pos_site_id
 _symmetry_equiv_pos_as_xyz
  1  'x, y, z'
loop_
 _atom_site_type_symbol
 _atom_site_label
 _atom_site_symmetry_multiplicity
 _atom_site_fract_x
 _atom_site_fract_y
 _atom_site_fract_z
 _atom_site_occupancy
  Ho  Ho0  1  0.462665  0.599567  0.675549  1
  Ho  Ho1  1  0.962382  0.900315  0.824134  1
  Ho  Ho2  1  0.537417  0.099668  0.324142  1
  Ho  Ho3  1  0.037274  0.400318  0.175576  1
  Ho  Ho4  1  0.537185  0.400517  0.324338  1
  Ho  Ho5  1  0.037347  0.099763  0.175485  1
  Ho  Ho6  1  0.462807  0.900308  0.675661  1
  Ho  Ho7  1  0.962517  0.599631  0.824255  1
  Er  Er8  1  0.622942  0.621515  0.157636  1
  Er  Er9  1  0.122657  0.878469  0.342321  1
  Er  Er10  1  0.377146  0.121542  0.842226  1
  Er  Er11  1  0.877112  0.378703  0.657651  1
  Er  Er12  1  0.376975  0.378678  0.842418  1
  Er  Er13  1  0.877252  0.121397  0.657545  1
  Er  Er14  1  0.622984  0.878359  0.157527  1
  Er  Er15  1  0.122749  0.621565  0.342448  1
  Er  Er16  1  0.291017  0.749948  0.004853  1
  Er  Er17  1  0.209316  0.249959  0.504536  1
  Er  Er18  1  0.709385  0.249933  0.995308  1
  Tm  Tm19  1  0.790810  0.750011  0.495136  1
  Pb  Pb20  1  0.718185  0.457145  0.964897  1
  Pb  Pb21  1  0.218640  0.042729  0.533819  1
  Pb  Pb22  1  0.281488  0.957218  0.034031  1
  Pb  Pb23  1  0.781376  0.542969  0.466506  1
  Pb  Pb24  1  0.281567  0.543026  0.034814  1
  Pb  Pb25  1  0.781462  0.956913  0.466310  1
  Pb  Pb26  1  0.718345  0.042882  0.965281  1
  Pb  Pb27  1  0.218344  0.457001  0.534494  1
  Pb  Pb28  1  0.429228  0.749949  0.374580  1
  Pb  Pb29  1  0.927628  0.749848  0.126688  1
  Pb  Pb30  1  0.571869  0.250049  0.626527  1
  Pb  Pb31  1  0.072581  0.249957  0.873619  1
  Pb  Pb32  1  0.650504  0.750155  0.844614  1
  Pb  Pb33  1  0.150032  0.750027  0.655060  1
  Pb  Pb34  1  0.349569  0.249943  0.155495  1
  Pb  Pb35  1  0.849243  0.250020  0.344520  1
