# generated using pymatgen
data_TiSnPd3
_symmetry_space_group_name_H-M   'P 1'
_cell_length_a   7.63951787
_cell_length_b   7.64461728
_cell_length_c   4.74808600
_cell_angle_alpha   90.00000000
_cell_angle_beta   90.00000000
_cell_angle_gamma   143.50417984
_symmetry_Int_Tables_number   1
_chemical_formula_structural   TiSnPd3
_chemical_formula_sum   'Ti2 Sn2 Pd6'
_cell_volume   164.92445317
_cell_formula_units_Z   2
loop_
 _symmetry_equiv_pos_site_id
 _symmetry_equiv_pos_as_xyz
  1  'x, y, z'
loop_
 _atom_site_type_symbol
 _atom_site_label
 _atom_site_symmetry_multiplicity
 _atom_site_fract_x
 _atom_site_fract_y
 _atom_site_fract_z
 _atom_site_occupancy
  Ti  Ti0  1  0.335655  0.117496  0.250000  1
  Ti  Ti1  1  0.664345  0.882504  0.750000  1
  Sn  Sn2  1  0.108953  0.316924  0.250000  1
  Sn  Sn3  1  0.891047  0.683076  0.750000  1
  Pd  Pd4  1  0.486881  0.089262  0.750000  1
  Pd  Pd5  1  0.513119  0.910738  0.250000  1
  Pd  Pd6  1  0.905496  0.515796  0.250000  1
  Pd  Pd7  1  0.094504  0.484204  0.750000  1
  Pd  Pd8  1  0.710219  0.710256  0.250000  1
  Pd  Pd9  1  0.289781  0.289744  0.750000  1
