# generated using pymatgen
data_Dy4Lu3ThSb20
_symmetry_space_group_name_H-M   'P 1'
_cell_length_a   4.23429900
_cell_length_b   13.17898894
_cell_length_c   14.57789421
_cell_angle_alpha   78.25302594
_cell_angle_beta   90.00000000
_cell_angle_gamma   90.00000000
_symmetry_Int_Tables_number   1
_chemical_formula_structural   Dy4Lu3ThSb20
_chemical_formula_sum   'Dy4 Lu3 Th1 Sb20'
_cell_volume   796.46380322
_cell_formula_units_Z   1
loop_
 _symmetry_equiv_pos_site_id
 _symmetry_equiv_pos_as_xyz
  1  'x, y, z'
loop_
 _atom_site_type_symbol
 _atom_site_label
 _atom_site_symmetry_multiplicity
 _atom_site_fract_x
 _atom_site_fract_y
 _atom_site_fract_z
 _atom_site_occupancy
  Dy  Dy0  1  0.750000  0.337752  0.143348  1
  Dy  Dy1  1  0.750000  0.327758  0.424878  1
  Dy  Dy2  1  0.250000  0.951914  0.356313  1
  Dy  Dy3  1  0.750000  0.049394  0.642528  1
  Lu  Lu4  1  0.250000  0.393816  0.772196  1
  Lu  Lu5  1  0.750000  0.604180  0.226038  1
  Lu  Lu6  1  0.250000  0.662114  0.858207  1
  Th  Th7  1  0.250000  0.671454  0.573359  1
  Sb  Sb8  1  0.250000  0.147345  0.779950  1
  Sb  Sb9  1  0.750000  0.853065  0.219891  1
  Sb  Sb10  1  0.250000  0.140052  0.482949  1
  Sb  Sb11  1  0.750000  0.862147  0.516460  1
  Sb  Sb12  1  0.250000  0.152090  0.169264  1
  Sb  Sb13  1  0.750000  0.846269  0.834794  1
  Sb  Sb14  1  0.250000  0.421378  0.974590  1
  Sb  Sb15  1  0.750000  0.580107  0.022452  1
  Sb  Sb16  1  0.750000  0.032628  0.911928  1
  Sb  Sb17  1  0.250000  0.969105  0.089358  1
  Sb  Sb18  1  0.750000  0.138061  0.319949  1
  Sb  Sb19  1  0.250000  0.862655  0.686390  1
  Sb  Sb20  1  0.750000  0.280373  0.935842  1
  Sb  Sb21  1  0.250000  0.721235  0.060857  1
  Sb  Sb22  1  0.750000  0.285894  0.656687  1
  Sb  Sb23  1  0.250000  0.713219  0.341452  1
  Sb  Sb24  1  0.750000  0.575500  0.738278  1
  Sb  Sb25  1  0.250000  0.425940  0.264627  1
  Sb  Sb26  1  0.750000  0.568000  0.443347  1
  Sb  Sb27  1  0.250000  0.426553  0.554071  1
