# generated using pymatgen
data_Sm2FeCo2P7Ru9
_symmetry_space_group_name_H-M   'P 1'
_cell_length_a   9.35519704
_cell_length_b   9.33410421
_cell_length_c   3.85717600
_cell_angle_alpha   90.00000000
_cell_angle_beta   90.00000000
_cell_angle_gamma   119.77914195
_symmetry_Int_Tables_number   1
_chemical_formula_structural   Sm2FeCo2P7Ru9
_chemical_formula_sum   'Sm2 Fe1 Co2 P7 Ru9'
_cell_volume   292.33977200
_cell_formula_units_Z   1
loop_
 _symmetry_equiv_pos_site_id
 _symmetry_equiv_pos_as_xyz
  1  'x, y, z'
loop_
 _atom_site_type_symbol
 _atom_site_label
 _atom_site_symmetry_multiplicity
 _atom_site_fract_x
 _atom_site_fract_y
 _atom_site_fract_z
 _atom_site_occupancy
  Sm  Sm0  1  0.333254  0.666798  0.500000  1
  Sm  Sm1  1  0.999259  0.998722  0.000000  1
  Fe  Fe2  1  0.822925  0.600291  0.000000  1
  Co  Co3  1  0.399565  0.223305  0.000000  1
  Co  Co4  1  0.776460  0.176356  0.000000  1
  P  P5  1  0.780942  0.730210  0.500000  1
  P  P6  1  0.268740  0.047658  0.500000  1
  P  P7  1  0.951798  0.220498  0.500000  1
  P  P8  1  0.666604  0.334580  0.000000  1
  P  P9  1  0.075820  0.636781  0.000000  1
  P  P10  1  0.364074  0.441859  0.000000  1
  P  P11  1  0.559128  0.923443  0.000000  1
  Ru  Ru12  1  0.088768  0.392895  0.000000  1
  Ru  Ru13  1  0.606674  0.696009  0.000000  1
  Ru  Ru14  1  0.304676  0.910946  0.000000  1
  Ru  Ru15  1  0.050169  0.768434  0.500000  1
  Ru  Ru16  1  0.232709  0.281525  0.500000  1
  Ru  Ru17  1  0.719604  0.951044  0.500000  1
  Ru  Ru18  1  0.870346  0.419659  0.500000  1
  Ru  Ru19  1  0.581805  0.452055  0.500000  1
  Ru  Ru20  1  0.546681  0.126932  0.500000  1
