# generated using pymatgen
data_HoPa3(Ta3Ge4)2
_symmetry_space_group_name_H-M   'P 1'
_cell_length_a   7.05993000
_cell_length_b   7.14231929
_cell_length_c   13.56804725
_cell_angle_alpha   89.94854980
_cell_angle_beta   90.00000000
_cell_angle_gamma   90.00000000
_symmetry_Int_Tables_number   1
_chemical_formula_structural   HoPa3(Ta3Ge4)2
_chemical_formula_sum   'Ho2 Pa6 Ta12 Ge16'
_cell_volume   684.15865972
_cell_formula_units_Z   2
loop_
 _symmetry_equiv_pos_site_id
 _symmetry_equiv_pos_as_xyz
  1  'x, y, z'
loop_
 _atom_site_type_symbol
 _atom_site_label
 _atom_site_symmetry_multiplicity
 _atom_site_fract_x
 _atom_site_fract_y
 _atom_site_fract_z
 _atom_site_occupancy
  Ho  Ho0  1  0.490373  0.328125  0.404798  1
  Ho  Ho1  1  0.990373  0.171875  0.095202  1
  Pa  Pa2  1  0.493546  0.328950  0.093326  1
  Pa  Pa3  1  0.993546  0.171050  0.406674  1
  Pa  Pa4  1  0.507894  0.675375  0.593460  1
  Pa  Pa5  1  0.007894  0.824625  0.906540  1
  Pa  Pa6  1  0.510536  0.670831  0.908841  1
  Pa  Pa7  1  0.010536  0.829169  0.591159  1
  Ta  Ta8  1  0.668623  0.004606  0.750660  1
  Ta  Ta9  1  0.168623  0.495394  0.749340  1
  Ta  Ta10  1  0.333282  0.992321  0.248848  1
  Ta  Ta11  1  0.833282  0.507679  0.251152  1
  Ta  Ta12  1  0.842395  0.335095  0.624665  1
  Ta  Ta13  1  0.342395  0.164905  0.875335  1
  Ta  Ta14  1  0.160711  0.664689  0.125145  1
  Ta  Ta15  1  0.660711  0.835311  0.374855  1
  Ta  Ta16  1  0.152471  0.669360  0.374634  1
  Ta  Ta17  1  0.652471  0.830640  0.125366  1
  Ta  Ta18  1  0.837651  0.338035  0.873733  1
  Ta  Ta19  1  0.337651  0.161965  0.626267  1
  Ge  Ge20  1  0.810628  0.641627  0.748979  1
  Ge  Ge21  1  0.310628  0.858373  0.751021  1
  Ge  Ge22  1  0.191553  0.358792  0.249373  1
  Ge  Ge23  1  0.691553  0.141208  0.250627  1
  Ge  Ge24  1  0.539356  0.375148  0.748745  1
  Ge  Ge25  1  0.039356  0.124852  0.751255  1
  Ge  Ge26  1  0.459251  0.622518  0.252142  1
  Ge  Ge27  1  0.959251  0.877482  0.247858  1
  Ge  Ge28  1  0.674752  0.046430  0.542726  1
  Ge  Ge29  1  0.174752  0.453570  0.957274  1
  Ge  Ge30  1  0.319557  0.958342  0.044267  1
  Ge  Ge31  1  0.819557  0.541658  0.455733  1
  Ge  Ge32  1  0.328512  0.957321  0.455173  1
  Ge  Ge33  1  0.828512  0.542679  0.044827  1
  Ge  Ge34  1  0.678912  0.045221  0.958255  1
  Ge  Ge35  1  0.178912  0.454779  0.541745  1
