# generated using pymatgen
data_ThWF8
_symmetry_space_group_name_H-M   'P 1'
_cell_length_a   8.41715500
_cell_length_b   8.14601663
_cell_length_c   16.21414300
_cell_angle_alpha   78.94017311
_cell_angle_beta   90.00000000
_cell_angle_gamma   90.00000000
_symmetry_Int_Tables_number   1
_chemical_formula_structural   ThWF8
_chemical_formula_sum   'Th8 W8 F64'
_cell_volume   1091.09558617
_cell_formula_units_Z   8
loop_
 _symmetry_equiv_pos_site_id
 _symmetry_equiv_pos_as_xyz
  1  'x, y, z'
loop_
 _atom_site_type_symbol
 _atom_site_label
 _atom_site_symmetry_multiplicity
 _atom_site_fract_x
 _atom_site_fract_y
 _atom_site_fract_z
 _atom_site_occupancy
  Th  Th0  1  0.904263  0.225121  0.321957  1
  Th  Th1  1  0.404263  0.774879  0.178043  1
  Th  Th2  1  0.095737  0.774879  0.678043  1
  Th  Th3  1  0.595737  0.225121  0.821957  1
  Th  Th4  1  0.400589  0.335131  0.391273  1
  Th  Th5  1  0.900589  0.664869  0.108727  1
  Th  Th6  1  0.599411  0.664869  0.608727  1
  Th  Th7  1  0.099411  0.335131  0.891273  1
  W  W8  1  0.778293  0.709220  0.364079  1
  W  W9  1  0.278293  0.290780  0.135921  1
  W  W10  1  0.221707  0.290780  0.635921  1
  W  W11  1  0.721707  0.709220  0.864079  1
  W  W12  1  0.764929  0.172721  0.579338  1
  W  W13  1  0.264929  0.827279  0.920662  1
  W  W14  1  0.235071  0.827279  0.420662  1
  W  W15  1  0.735071  0.172721  0.079338  1
  F  F16  1  0.726679  0.422242  0.569578  1
  F  F17  1  0.226679  0.577758  0.930422  1
  F  F18  1  0.273321  0.577758  0.430422  1
  F  F19  1  0.773321  0.422242  0.069578  1
  F  F20  1  0.782153  0.961473  0.354436  1
  F  F21  1  0.282153  0.038527  0.145564  1
  F  F22  1  0.217847  0.038527  0.645564  1
  F  F23  1  0.717847  0.961473  0.854436  1
  F  F24  1  0.587853  0.553425  0.408329  1
  F  F25  1  0.087853  0.446575  0.091671  1
  F  F26  1  0.412147  0.446575  0.591671  1
  F  F27  1  0.912147  0.553425  0.908329  1
  F  F28  1  0.627619  0.958255  0.588990  1
  F  F29  1  0.127619  0.041745  0.911010  1
  F  F30  1  0.372381  0.041745  0.411010  1
  F  F31  1  0.872381  0.958255  0.088990  1
  F  F32  1  0.873927  0.755150  0.246851  1
  F  F33  1  0.373927  0.244850  0.253149  1
  F  F34  1  0.126073  0.244850  0.753149  1
  F  F35  1  0.626073  0.755150  0.746851  1
  F  F36  1  0.717837  0.156130  0.703560  1
  F  F37  1  0.217837  0.843870  0.796440  1
  F  F38  1  0.282163  0.843870  0.296440  1
  F  F39  1  0.782163  0.156130  0.203560  1
  F  F40  1  0.863408  0.152989  0.466618  1
  F  F41  1  0.363408  0.847011  0.033382  1
  F  F42  1  0.136592  0.847011  0.533382  1
  F  F43  1  0.636592  0.152989  0.966618  1
  F  F44  1  0.860535  0.467754  0.381072  1
  F  F45  1  0.360535  0.532246  0.118928  1
  F  F46  1  0.139465  0.532246  0.618928  1
  F  F47  1  0.639465  0.467754  0.881072  1
  F  F48  1  0.084703  0.204885  0.209530  1
  F  F49  1  0.584703  0.795115  0.290470  1
  F  F50  1  0.915297  0.795115  0.790470  1
  F  F51  1  0.415297  0.204885  0.709530  1
  F  F52  1  0.757020  0.734508  0.488316  1
  F  F53  1  0.257020  0.265492  0.011684  1
  F  F54  1  0.242980  0.265492  0.511684  1
  F  F55  1  0.742980  0.734508  0.988316  1
  F  F56  1  0.089811  0.020848  0.375295  1
  F  F57  1  0.589811  0.979152  0.124705  1
  F  F58  1  0.910189  0.979152  0.624705  1
  F  F59  1  0.410189  0.020848  0.875295  1
  F  F60  1  0.016135  0.721278  0.398856  1
  F  F61  1  0.516135  0.278722  0.101144  1
  F  F62  1  0.983865  0.278722  0.601144  1
  F  F63  1  0.483865  0.721278  0.898856  1
  F  F64  1  0.383964  0.542206  0.277841  1
  F  F65  1  0.883964  0.457794  0.222159  1
  F  F66  1  0.616036  0.457794  0.722159  1
  F  F67  1  0.116036  0.542206  0.777841  1
  F  F68  1  0.140779  0.348091  0.347895  1
  F  F69  1  0.640779  0.651909  0.152105  1
  F  F70  1  0.859221  0.651909  0.652105  1
  F  F71  1  0.359221  0.348091  0.847895  1
  F  F72  1  0.566188  0.228141  0.505636  1
  F  F73  1  0.066188  0.771859  0.994364  1
  F  F74  1  0.433812  0.771859  0.494364  1
  F  F75  1  0.933812  0.228141  0.005636  1
  F  F76  1  0.635609  0.273274  0.333699  1
  F  F77  1  0.135609  0.726726  0.166301  1
  F  F78  1  0.364391  0.726726  0.666301  1
  F  F79  1  0.864391  0.273274  0.833699  1
