# generated using pymatgen
data_SmCu3PdAu
_symmetry_space_group_name_H-M   'P 1'
_cell_length_a   5.10557331
_cell_length_b   5.10557376
_cell_length_c   5.21935211
_cell_angle_alpha   60.71854601
_cell_angle_beta   60.71853842
_cell_angle_gamma   59.99999146
_symmetry_Int_Tables_number   1
_chemical_formula_structural   SmCu3PdAu
_chemical_formula_sum   'Sm1 Cu3 Pd1 Au1'
_cell_volume   97.23508577
_cell_formula_units_Z   1
loop_
 _symmetry_equiv_pos_site_id
 _symmetry_equiv_pos_as_xyz
  1  'x, y, z'
loop_
 _atom_site_type_symbol
 _atom_site_label
 _atom_site_symmetry_multiplicity
 _atom_site_fract_x
 _atom_site_fract_y
 _atom_site_fract_z
 _atom_site_occupancy
  Sm  Sm0  1  0.999231  0.999231  0.002307  1
  Cu  Cu1  1  0.626576  0.129400  0.617448  1
  Cu  Cu2  1  0.129400  0.626576  0.617448  1
  Cu  Cu3  1  0.626576  0.626576  0.617448  1
  Pd  Pd4  1  0.626819  0.626819  0.119543  1
  Au  Au5  1  0.241398  0.241398  0.275807  1
