# generated using pymatgen
data_Zr20Si9As7
_symmetry_space_group_name_H-M   'P 1'
_cell_length_a   7.09508033
_cell_length_b   7.10274550
_cell_length_c   13.69789722
_cell_angle_alpha   89.88686693
_cell_angle_beta   86.28296549
_cell_angle_gamma   90.00462712
_symmetry_Int_Tables_number   1
_chemical_formula_structural   Zr20Si9As7
_chemical_formula_sum   'Zr20 Si9 As7'
_cell_volume   688.84588526
_cell_formula_units_Z   1
loop_
 _symmetry_equiv_pos_site_id
 _symmetry_equiv_pos_as_xyz
  1  'x, y, z'
loop_
 _atom_site_type_symbol
 _atom_site_label
 _atom_site_symmetry_multiplicity
 _atom_site_fract_x
 _atom_site_fract_y
 _atom_site_fract_z
 _atom_site_occupancy
  Zr  Zr0  1  0.216447  0.998561  0.751999  1
  Zr  Zr1  1  0.783816  0.001409  0.247724  1
  Zr  Zr2  1  0.284084  0.500063  0.246918  1
  Zr  Zr3  1  0.716623  0.499782  0.752272  1
  Zr  Zr4  1  0.066966  0.666354  0.615473  1
  Zr  Zr5  1  0.933036  0.333513  0.384268  1
  Zr  Zr6  1  0.432027  0.166787  0.384511  1
  Zr  Zr7  1  0.971255  0.327727  0.101350  1
  Zr  Zr8  1  0.567904  0.833793  0.615612  1
  Zr  Zr9  1  0.035865  0.672191  0.898307  1
  Zr  Zr10  1  0.530815  0.820432  0.898306  1
  Zr  Zr11  1  0.465829  0.180125  0.102251  1
  Zr  Zr12  1  0.401695  0.336118  0.615111  1
  Zr  Zr13  1  0.598455  0.663834  0.384799  1
  Zr  Zr14  1  0.098529  0.837158  0.384382  1
  Zr  Zr15  1  0.626204  0.670362  0.123491  1
  Zr  Zr16  1  0.901219  0.162456  0.615680  1
  Zr  Zr17  1  0.370762  0.330162  0.877462  1
  Zr  Zr18  1  0.872494  0.169058  0.877793  1
  Zr  Zr19  1  0.129252  0.829716  0.121858  1
  Si  Si20  1  0.092385  0.380943  0.749732  1
  Si  Si21  1  0.907658  0.618615  0.249681  1
  Si  Si22  1  0.406763  0.882913  0.250052  1
  Si  Si23  1  0.592881  0.117389  0.750678  1
  Si  Si24  1  0.341940  0.628757  0.752284  1
  Si  Si25  1  0.658874  0.371180  0.247413  1
  Si  Si26  1  0.158200  0.130177  0.246688  1
  Si  Si27  1  0.842122  0.869292  0.753625  1
  Si  Si28  1  0.296669  0.528536  0.041268  1
  As  As29  1  0.244992  0.001645  0.547251  1
  As  As30  1  0.754685  0.998341  0.452530  1
  As  As31  1  0.254604  0.502035  0.452412  1
  As  As32  1  0.790257  0.975153  0.042331  1
  As  As33  1  0.745116  0.497593  0.547311  1
  As  As34  1  0.208688  0.025230  0.957867  1
  As  As35  1  0.700884  0.472601  0.959305  1
