# generated using pymatgen
data_Li2YbErSi4
_symmetry_space_group_name_H-M   'P 1'
_cell_length_a   3.77252300
_cell_length_b   7.73924921
_cell_length_c   10.34499630
_cell_angle_alpha   89.38536129
_cell_angle_beta   90.00000000
_cell_angle_gamma   90.00000000
_symmetry_Int_Tables_number   1
_chemical_formula_structural   Li2YbErSi4
_chemical_formula_sum   'Li4 Yb2 Er2 Si8'
_cell_volume   302.02026049
_cell_formula_units_Z   2
loop_
 _symmetry_equiv_pos_site_id
 _symmetry_equiv_pos_as_xyz
  1  'x, y, z'
loop_
 _atom_site_type_symbol
 _atom_site_label
 _atom_site_symmetry_multiplicity
 _atom_site_fract_x
 _atom_site_fract_y
 _atom_site_fract_z
 _atom_site_occupancy
  Li  Li0  1  0.250000  0.999086  0.389902  1
  Li  Li1  1  0.750000  0.000914  0.610098  1
  Li  Li2  1  0.250000  0.490610  0.109584  1
  Li  Li3  1  0.750000  0.509390  0.890416  1
  Yb  Yb4  1  0.250000  0.636872  0.634665  1
  Yb  Yb5  1  0.750000  0.363128  0.365335  1
  Er  Er6  1  0.250000  0.129528  0.865003  1
  Er  Er7  1  0.750000  0.870472  0.134997  1
  Si  Si8  1  0.750000  0.261337  0.061181  1
  Si  Si9  1  0.250000  0.738663  0.938819  1
  Si  Si10  1  0.750000  0.772359  0.427020  1
  Si  Si11  1  0.250000  0.227641  0.572980  1
  Si  Si12  1  0.750000  0.844003  0.826046  1
  Si  Si13  1  0.250000  0.155997  0.173954  1
  Si  Si14  1  0.750000  0.333406  0.683977  1
  Si  Si15  1  0.250000  0.666594  0.316023  1
