# generated using pymatgen
data_Zr2NiAs2Ru
_symmetry_space_group_name_H-M   'P 1'
_cell_length_a   3.94190200
_cell_length_b   6.61532051
_cell_length_c   7.47608312
_cell_angle_alpha   89.59313246
_cell_angle_beta   90.00000000
_cell_angle_gamma   90.00000000
_symmetry_Int_Tables_number   1
_chemical_formula_structural   Zr2NiAs2Ru
_chemical_formula_sum   'Zr4 Ni2 As4 Ru2'
_cell_volume   194.94849406
_cell_formula_units_Z   2
loop_
 _symmetry_equiv_pos_site_id
 _symmetry_equiv_pos_as_xyz
  1  'x, y, z'
loop_
 _atom_site_type_symbol
 _atom_site_label
 _atom_site_symmetry_multiplicity
 _atom_site_fract_x
 _atom_site_fract_y
 _atom_site_fract_z
 _atom_site_occupancy
  Zr  Zr0  1  0.250000  0.473875  0.179743  1
  Zr  Zr1  1  0.750000  0.526125  0.820257  1
  Zr  Zr2  1  0.750000  0.014275  0.687334  1
  Zr  Zr3  1  0.250000  0.985725  0.312666  1
  Ni  Ni4  1  0.750000  0.641349  0.439445  1
  Ni  Ni5  1  0.250000  0.358651  0.560555  1
  As  As6  1  0.250000  0.728456  0.612344  1
  As  As7  1  0.750000  0.271544  0.387656  1
  As  As8  1  0.750000  0.763250  0.126067  1
  As  As9  1  0.250000  0.236750  0.873933  1
  Ru  Ru10  1  0.250000  0.855214  0.936549  1
  Ru  Ru11  1  0.750000  0.144786  0.063451  1
