# generated using pymatgen
data_Gd3P6IN12
_symmetry_space_group_name_H-M   'P 1'
_cell_length_a   7.44734522
_cell_length_b   7.44734376
_cell_length_c   7.44734500
_cell_angle_alpha   109.40027624
_cell_angle_beta   109.40027228
_cell_angle_gamma   109.40025437
_symmetry_Int_Tables_number   1
_chemical_formula_structural   Gd3P6IN12
_chemical_formula_sum   'Gd3 P6 I1 N12'
_cell_volume   318.79986082
_cell_formula_units_Z   1
loop_
 _symmetry_equiv_pos_site_id
 _symmetry_equiv_pos_as_xyz
  1  'x, y, z'
loop_
 _atom_site_type_symbol
 _atom_site_label
 _atom_site_symmetry_multiplicity
 _atom_site_fract_x
 _atom_site_fract_y
 _atom_site_fract_z
 _atom_site_occupancy
  Gd  Gd0  1  0.028156  0.357367  0.028156  1
  Gd  Gd1  1  0.028156  0.028156  0.357367  1
  Gd  Gd2  1  0.357367  0.028156  0.028156  1
  P  P3  1  0.509854  0.262158  0.754778  1
  P  P4  1  0.262158  0.754778  0.509854  1
  P  P5  1  0.754778  0.509854  0.262158  1
  P  P6  1  0.754778  0.262158  0.509854  1
  P  P7  1  0.509854  0.754778  0.262158  1
  P  P8  1  0.262158  0.509854  0.754778  1
  I  I9  1  0.854259  0.854259  0.854259  1
  N  N10  1  0.392562  0.685221  0.392562  1
  N  N11  1  0.685221  0.392562  0.392562  1
  N  N12  1  0.392562  0.392562  0.685221  1
  N  N13  1  0.720732  0.300193  0.720732  1
  N  N14  1  0.006491  0.600102  0.306648  1
  N  N15  1  0.306648  0.600102  0.006491  1
  N  N16  1  0.306648  0.006491  0.600102  1
  N  N17  1  0.006491  0.306648  0.600102  1
  N  N18  1  0.720732  0.720732  0.300193  1
  N  N19  1  0.600102  0.006491  0.306648  1
  N  N20  1  0.300193  0.720732  0.720732  1
  N  N21  1  0.600102  0.306648  0.006491  1
