# generated using pymatgen
data_Rb4Th6BCl18
_symmetry_space_group_name_H-M   'P 1'
_cell_length_a   10.83588212
_cell_length_b   10.83588233
_cell_length_c   10.58201100
_cell_angle_alpha   77.36835913
_cell_angle_beta   77.36835887
_cell_angle_gamma   117.59792389
_symmetry_Int_Tables_number   1
_chemical_formula_structural   Rb4Th6BCl18
_chemical_formula_sum   'Rb4 Th6 B1 Cl18'
_cell_volume   998.21211823
_cell_formula_units_Z   1
loop_
 _symmetry_equiv_pos_site_id
 _symmetry_equiv_pos_as_xyz
  1  'x, y, z'
loop_
 _atom_site_type_symbol
 _atom_site_label
 _atom_site_symmetry_multiplicity
 _atom_site_fract_x
 _atom_site_fract_y
 _atom_site_fract_z
 _atom_site_occupancy
  Rb  Rb0  1  0.770743  0.445975  0.678801  1
  Rb  Rb1  1  0.554025  0.229257  0.321199  1
  Rb  Rb2  1  0.229257  0.554025  0.321199  1
  Rb  Rb3  1  0.445975  0.770743  0.678801  1
  Th  Th4  1  0.137260  0.137260  0.152734  1
  Th  Th5  1  0.862740  0.862740  0.847266  1
  Th  Th6  1  0.945348  0.742011  0.159483  1
  Th  Th7  1  0.257989  0.054652  0.840517  1
  Th  Th8  1  0.054652  0.257989  0.840517  1
  Th  Th9  1  0.742011  0.945348  0.159483  1
  B  B10  1  0.000000  0.000000  0.000000  1
  Cl  Cl11  1  0.795029  0.579146  0.010812  1
  Cl  Cl12  1  0.420855  0.204971  0.989188  1
  Cl  Cl13  1  0.204971  0.420855  0.989188  1
  Cl  Cl14  1  0.579145  0.795029  0.010812  1
  Cl  Cl15  1  0.216543  0.783457  0.000000  1
  Cl  Cl16  1  0.783457  0.216543  0.000000  1
  Cl  Cl17  1  0.333615  0.333615  0.662499  1
  Cl  Cl18  1  0.666385  0.666385  0.337501  1
  Cl  Cl19  1  0.882933  0.472173  0.346020  1
  Cl  Cl20  1  0.527827  0.117067  0.653980  1
  Cl  Cl21  1  0.117067  0.527827  0.653980  1
  Cl  Cl22  1  0.472173  0.882933  0.346020  1
  Cl  Cl23  1  0.286688  0.286688  0.305872  1
  Cl  Cl24  1  0.713312  0.713312  0.694128  1
  Cl  Cl25  1  0.085178  0.870188  0.330058  1
  Cl  Cl26  1  0.129812  0.914822  0.669942  1
  Cl  Cl27  1  0.914822  0.129812  0.669942  1
  Cl  Cl28  1  0.870188  0.085178  0.330058  1
