# generated using pymatgen
data_Ba2CuP3
_symmetry_space_group_name_H-M   'P 1'
_cell_length_a   7.04990100
_cell_length_b   6.60335220
_cell_length_c   13.22709590
_cell_angle_alpha   89.11285777
_cell_angle_beta   90.00000000
_cell_angle_gamma   90.00000000
_symmetry_Int_Tables_number   1
_chemical_formula_structural   Ba2CuP3
_chemical_formula_sum   'Ba8 Cu4 P12'
_cell_volume   615.68691129
_cell_formula_units_Z   4
loop_
 _symmetry_equiv_pos_site_id
 _symmetry_equiv_pos_as_xyz
  1  'x, y, z'
loop_
 _atom_site_type_symbol
 _atom_site_label
 _atom_site_symmetry_multiplicity
 _atom_site_fract_x
 _atom_site_fract_y
 _atom_site_fract_z
 _atom_site_occupancy
  Ba  Ba0  1  0.260351  0.615099  0.328934  1
  Ba  Ba1  1  0.239649  0.615099  0.828934  1
  Ba  Ba2  1  0.739649  0.384901  0.671066  1
  Ba  Ba3  1  0.760351  0.384901  0.171066  1
  Ba  Ba4  1  0.755208  0.840560  0.441659  1
  Ba  Ba5  1  0.255208  0.159440  0.058341  1
  Ba  Ba6  1  0.244792  0.159440  0.558341  1
  Ba  Ba7  1  0.744792  0.840560  0.941659  1
  Cu  Cu8  1  0.909981  0.886973  0.193956  1
  Cu  Cu9  1  0.090019  0.113027  0.806044  1
  Cu  Cu10  1  0.409981  0.113027  0.306044  1
  Cu  Cu11  1  0.590019  0.886973  0.693956  1
  P  P12  1  0.083215  0.686327  0.596298  1
  P  P13  1  0.583215  0.313673  0.903702  1
  P  P14  1  0.916785  0.313673  0.403702  1
  P  P15  1  0.416785  0.686327  0.096298  1
  P  P16  1  0.398212  0.693642  0.591904  1
  P  P17  1  0.898212  0.306358  0.908096  1
  P  P18  1  0.601788  0.306358  0.408096  1
  P  P19  1  0.581403  0.898135  0.201793  1
  P  P20  1  0.918597  0.898135  0.701793  1
  P  P21  1  0.418597  0.101865  0.798207  1
  P  P22  1  0.081403  0.101865  0.298207  1
  P  P23  1  0.101788  0.693642  0.091904  1
