# generated using pymatgen
data_CdRh2PbO7
_symmetry_space_group_name_H-M   'P 1'
_cell_length_a   7.26163221
_cell_length_b   7.22515842
_cell_length_c   7.26163125
_cell_angle_alpha   60.16600251
_cell_angle_beta   60.40879163
_cell_angle_gamma   60.16600608
_symmetry_Int_Tables_number   1
_chemical_formula_structural   CdRh2PbO7
_chemical_formula_sum   'Cd2 Rh4 Pb2 O14'
_cell_volume   270.90468379
_cell_formula_units_Z   2
loop_
 _symmetry_equiv_pos_site_id
 _symmetry_equiv_pos_as_xyz
  1  'x, y, z'
loop_
 _atom_site_type_symbol
 _atom_site_label
 _atom_site_symmetry_multiplicity
 _atom_site_fract_x
 _atom_site_fract_y
 _atom_site_fract_z
 _atom_site_occupancy
  Cd  Cd0  1  0.125000  0.125000  0.125000  1
  Cd  Cd1  1  0.125000  0.625000  0.125000  1
  Rh  Rh2  1  0.625000  0.625000  0.125000  1
  Rh  Rh3  1  0.625000  0.625000  0.625000  1
  Rh  Rh4  1  0.625000  0.125000  0.625000  1
  Rh  Rh5  1  0.125000  0.625000  0.625000  1
  Pb  Pb6  1  0.625000  0.125000  0.125000  1
  Pb  Pb7  1  0.125000  0.125000  0.625000  1
  O  O8  1  0.694490  0.294632  0.298369  1
  O  O9  1  0.708379  0.291621  0.708379  1
  O  O10  1  0.006860  0.993140  0.006860  1
  O  O11  1  0.301736  0.698264  0.301736  1
  O  O12  1  0.694490  0.712509  0.298369  1
  O  O13  1  0.951631  0.537491  0.555510  1
  O  O14  1  0.298369  0.712509  0.694490  1
  O  O15  1  0.243140  0.256860  0.243140  1
  O  O16  1  0.948264  0.551736  0.948264  1
  O  O17  1  0.541621  0.958379  0.541621  1
  O  O18  1  0.555510  0.537491  0.951631  1
  O  O19  1  0.951631  0.955368  0.555510  1
  O  O20  1  0.555510  0.955368  0.951631  1
  O  O21  1  0.298369  0.294632  0.694490  1
