# generated using pymatgen
data_Lu12GaCo4Pt
_symmetry_space_group_name_H-M   'P 1'
_cell_length_a   8.07021087
_cell_length_b   8.07021143
_cell_length_c   8.07021157
_cell_angle_alpha   106.61511234
_cell_angle_beta   110.79341767
_cell_angle_gamma   111.04243936
_symmetry_Int_Tables_number   1
_chemical_formula_structural   Lu12GaCo4Pt
_chemical_formula_sum   'Lu12 Ga1 Co4 Pt1'
_cell_volume   403.85515743
_cell_formula_units_Z   1
loop_
 _symmetry_equiv_pos_site_id
 _symmetry_equiv_pos_as_xyz
  1  'x, y, z'
loop_
 _atom_site_type_symbol
 _atom_site_label
 _atom_site_symmetry_multiplicity
 _atom_site_fract_x
 _atom_site_fract_y
 _atom_site_fract_z
 _atom_site_occupancy
  Lu  Lu0  1  0.698270  0.277870  0.976140  1
  Lu  Lu1  1  0.301730  0.722130  0.023860  1
  Lu  Lu2  1  0.698270  0.722130  0.420400  1
  Lu  Lu3  1  0.301730  0.277870  0.579600  1
  Lu  Lu4  1  0.801183  0.117708  0.316525  1
  Lu  Lu5  1  0.801183  0.484658  0.683475  1
  Lu  Lu6  1  0.198817  0.882292  0.683475  1
  Lu  Lu7  1  0.198817  0.515342  0.316525  1
  Lu  Lu8  1  0.601930  0.788893  0.813037  1
  Lu  Lu9  1  0.975856  0.788893  0.186963  1
  Lu  Lu10  1  0.024144  0.211107  0.813037  1
  Lu  Lu11  1  0.398070  0.211107  0.186963  1
  Ga  Ga12  1  0.500000  0.000000  0.500000  1
  Co  Co13  1  0.875067  0.500000  0.375067  1
  Co  Co14  1  0.124933  0.500000  0.624933  1
  Co  Co15  1  0.000000  0.114973  0.114973  1
  Co  Co16  1  0.000000  0.885027  0.885027  1
  Pt  Pt17  1  0.500000  0.500000  0.000000  1
