# generated using pymatgen
data_HfZr19Si13P3
_symmetry_space_group_name_H-M   'P 1'
_cell_length_a   7.12804975
_cell_length_b   7.12964736
_cell_length_c   13.00652024
_cell_angle_alpha   90.18568670
_cell_angle_beta   90.06011231
_cell_angle_gamma   89.92532927
_symmetry_Int_Tables_number   1
_chemical_formula_structural   HfZr19Si13P3
_chemical_formula_sum   'Hf1 Zr19 Si13 P3'
_cell_volume   660.99322299
_cell_formula_units_Z   1
loop_
 _symmetry_equiv_pos_site_id
 _symmetry_equiv_pos_as_xyz
  1  'x, y, z'
loop_
 _atom_site_type_symbol
 _atom_site_label
 _atom_site_symmetry_multiplicity
 _atom_site_fract_x
 _atom_site_fract_y
 _atom_site_fract_z
 _atom_site_occupancy
  Hf  Hf0  1  0.347411  0.504447  0.379233  1
  Zr  Zr1  1  0.854773  0.998393  0.376851  1
  Zr  Zr2  1  0.999871  0.146751  0.124261  1
  Zr  Zr3  1  0.998458  0.854502  0.623621  1
  Zr  Zr4  1  0.650796  0.496886  0.878397  1
  Zr  Zr5  1  0.504551  0.348332  0.620668  1
  Zr  Zr6  1  0.498039  0.647024  0.122989  1
  Zr  Zr7  1  0.144313  0.004163  0.873803  1
  Zr  Zr8  1  0.997448  0.646745  0.034183  1
  Zr  Zr9  1  0.003295  0.353606  0.532929  1
  Zr  Zr10  1  0.649731  0.998275  0.965449  1
  Zr  Zr11  1  0.153413  0.501275  0.782904  1
  Zr  Zr12  1  0.848423  0.499774  0.283157  1
  Zr  Zr13  1  0.499425  0.151318  0.217722  1
  Zr  Zr14  1  0.500636  0.848871  0.716176  1
  Zr  Zr15  1  0.352880  0.003661  0.467000  1
  Zr  Zr16  1  0.675665  0.675942  0.499908  1
  Zr  Zr17  1  0.825904  0.174945  0.749390  1
  Zr  Zr18  1  0.173314  0.824237  0.251893  1
  Zr  Zr19  1  0.323441  0.324666  0.999307  1
  Si  Si20  1  0.200630  0.448051  0.188649  1
  Si  Si21  1  0.800463  0.551297  0.688095  1
  Si  Si22  1  0.448550  0.200393  0.811544  1
  Si  Si23  1  0.550605  0.799259  0.312401  1
  Si  Si24  1  0.299612  0.948510  0.062684  1
  Si  Si25  1  0.855362  0.795009  0.821410  1
  Si  Si26  1  0.145588  0.204415  0.322094  1
  Si  Si27  1  0.795635  0.855184  0.178204  1
  Si  Si28  1  0.298238  0.644033  0.577463  1
  Si  Si29  1  0.700536  0.352816  0.076614  1
  Si  Si30  1  0.643756  0.299216  0.422018  1
  Si  Si31  1  0.354925  0.706072  0.925933  1
  Si  Si32  1  0.204902  0.145709  0.677115  1
  P  P33  1  0.047837  0.698411  0.436089  1
  P  P34  1  0.952087  0.301196  0.935668  1
  P  P35  1  0.699490  0.046615  0.564177  1
