# generated using pymatgen
data_V5Si2GeH
_symmetry_space_group_name_H-M   'P 1'
_cell_length_a   4.87385704
_cell_length_b   7.15135520
_cell_length_c   7.16570700
_cell_angle_alpha   60.06149621
_cell_angle_beta   90.00146808
_cell_angle_gamma   90.00047821
_symmetry_Int_Tables_number   1
_chemical_formula_structural   V5Si2GeH
_chemical_formula_sum   'V10 Si4 Ge2 H2'
_cell_volume   216.43106813
_cell_formula_units_Z   2
loop_
 _symmetry_equiv_pos_site_id
 _symmetry_equiv_pos_as_xyz
  1  'x, y, z'
loop_
 _atom_site_type_symbol
 _atom_site_label
 _atom_site_symmetry_multiplicity
 _atom_site_fract_x
 _atom_site_fract_y
 _atom_site_fract_z
 _atom_site_occupancy
  V  V0  1  0.249979  0.238932  0.003936  1
  V  V1  1  0.750023  0.757122  0.003922  1
  V  V2  1  0.750022  0.001244  0.235935  1
  V  V3  1  0.249982  0.762819  0.235902  1
  V  V4  1  0.500023  0.336334  0.327348  1
  V  V5  1  0.999979  0.336339  0.327338  1
  V  V6  1  0.999982  0.666188  0.667707  1
  V  V7  1  0.500024  0.666189  0.667707  1
  V  V8  1  0.249981  0.994676  0.765776  1
  V  V9  1  0.750026  0.239511  0.765793  1
  Si  Si10  1  0.750161  0.399965  0.999472  1
  Si  Si11  1  0.249845  0.600714  0.999408  1
  Si  Si12  1  0.249862  0.999270  0.398355  1
  Si  Si13  1  0.750147  0.602534  0.398176  1
  Ge  Ge14  1  0.249878  0.396292  0.602200  1
  Ge  Ge15  1  0.750132  0.001444  0.602273  1
  H  H16  1  0.999957  0.000300  0.999376  1
  H  H17  1  0.500018  0.000299  0.999376  1
