# generated using pymatgen
data_Y2Ho17ErPb16
_symmetry_space_group_name_H-M   'P 1'
_cell_length_a   8.19170000
_cell_length_b   8.25391506
_cell_length_c   15.58806604
_cell_angle_alpha   90.00834733
_cell_angle_beta   90.00199639
_cell_angle_gamma   90.00437677
_symmetry_Int_Tables_number   1
_chemical_formula_structural   Y2Ho17ErPb16
_chemical_formula_sum   'Y2 Ho17 Er1 Pb16'
_cell_volume   1053.96518584
_cell_formula_units_Z   1
loop_
 _symmetry_equiv_pos_site_id
 _symmetry_equiv_pos_as_xyz
  1  'x, y, z'
loop_
 _atom_site_type_symbol
 _atom_site_label
 _atom_site_symmetry_multiplicity
 _atom_site_fract_x
 _atom_site_fract_y
 _atom_site_fract_z
 _atom_site_occupancy
  Y  Y0  1  0.536074  0.324625  0.600034  1
  Y  Y1  1  0.036133  0.175402  0.900100  1
  Ho  Ho2  1  0.377237  0.841758  0.879205  1
  Ho  Ho3  1  0.877248  0.658350  0.621004  1
  Ho  Ho4  1  0.622555  0.157952  0.378701  1
  Ho  Ho5  1  0.123018  0.341699  0.121257  1
  Ho  Ho6  1  0.622544  0.157989  0.121233  1
  Ho  Ho7  1  0.123008  0.341664  0.378813  1
  Ho  Ho8  1  0.377237  0.841750  0.620783  1
  Ho  Ho9  1  0.877249  0.658358  0.878999  1
  Ho  Ho10  1  0.536083  0.324610  0.899915  1
  Ho  Ho11  1  0.036137  0.175410  0.599936  1
  Ho  Ho12  1  0.463738  0.675730  0.399850  1
  Ho  Ho13  1  0.964175  0.824825  0.100136  1
  Ho  Ho14  1  0.463714  0.675733  0.100149  1
  Ho  Ho15  1  0.964153  0.824819  0.399868  1
  Ho  Ho16  1  0.209558  0.503996  0.749991  1
  Ho  Ho17  1  0.709532  0.996054  0.749997  1
  Ho  Ho18  1  0.790412  0.496143  0.250008  1
  Er  Er19  1  0.290264  0.004179  0.250025  1
  Pb  Pb20  1  0.281249  0.033112  0.043380  1
  Pb  Pb21  1  0.781172  0.466298  0.457021  1
  Pb  Pb22  1  0.719061  0.966260  0.542667  1
  Pb  Pb23  1  0.218943  0.533654  0.957317  1
  Pb  Pb24  1  0.718638  0.966158  0.957337  1
  Pb  Pb25  1  0.218506  0.533764  0.542678  1
  Pb  Pb26  1  0.281257  0.033252  0.456777  1
  Pb  Pb27  1  0.781158  0.466153  0.042822  1
  Pb  Pb28  1  0.572314  0.626179  0.749987  1
  Pb  Pb29  1  0.072466  0.874002  0.750000  1
  Pb  Pb30  1  0.427470  0.373820  0.249980  1
  Pb  Pb31  1  0.928002  0.125503  0.250023  1
  Pb  Pb32  1  0.348753  0.153661  0.750112  1
  Pb  Pb33  1  0.848846  0.346141  0.749885  1
  Pb  Pb34  1  0.650591  0.846081  0.249988  1
  Pb  Pb35  1  0.151506  0.654916  0.250019  1
