# generated using pymatgen
data_Tm15Lu5Ir5Au7
_symmetry_space_group_name_H-M   'P 1'
_cell_length_a   11.10326410
_cell_length_b   11.09952507
_cell_length_c   6.27862841
_cell_angle_alpha   89.75538465
_cell_angle_beta   89.74118182
_cell_angle_gamma   90.42683684
_symmetry_Int_Tables_number   1
_chemical_formula_structural   Tm15Lu5Ir5Au7
_chemical_formula_sum   'Tm15 Lu5 Ir5 Au7'
_cell_volume   773.74765154
_cell_formula_units_Z   1
loop_
 _symmetry_equiv_pos_site_id
 _symmetry_equiv_pos_as_xyz
  1  'x, y, z'
loop_
 _atom_site_type_symbol
 _atom_site_label
 _atom_site_symmetry_multiplicity
 _atom_site_fract_x
 _atom_site_fract_y
 _atom_site_fract_z
 _atom_site_occupancy
  Tm  Tm0  1  0.298454  0.907014  0.861312  1
  Tm  Tm1  1  0.700192  0.082123  0.859533  1
  Tm  Tm2  1  0.699524  0.916281  0.358352  1
  Tm  Tm3  1  0.574793  0.792558  0.859026  1
  Tm  Tm4  1  0.582277  0.203131  0.361668  1
  Tm  Tm5  1  0.411661  0.791891  0.372342  1
  Tm  Tm6  1  0.415611  0.199100  0.860555  1
  Tm  Tm7  1  0.207437  0.425221  0.641179  1
  Tm  Tm8  1  0.208473  0.588353  0.127916  1
  Tm  Tm9  1  0.796798  0.417051  0.138253  1
  Tm  Tm10  1  0.800843  0.583820  0.639472  1
  Tm  Tm11  1  0.920474  0.700961  0.139452  1
  Tm  Tm12  1  0.917715  0.299524  0.640878  1
  Tm  Tm13  1  0.093455  0.701341  0.638299  1
  Tm  Tm14  1  0.084103  0.300285  0.142185  1
  Lu  Lu15  1  0.299933  0.079338  0.360930  1
  Lu  Lu16  1  0.998866  0.000183  0.500537  1
  Lu  Lu17  1  0.000059  0.001896  0.998829  1
  Lu  Lu18  1  0.493554  0.502699  0.998349  1
  Lu  Lu19  1  0.496977  0.506398  0.501867  1
  Ir  Ir20  1  0.348663  0.651352  0.750152  1
  Ir  Ir21  1  0.498890  0.999362  0.109334  1
  Ir  Ir22  1  0.499027  0.999540  0.606908  1
  Ir  Ir23  1  0.000596  0.500433  0.893194  1
  Ir  Ir24  1  0.000734  0.500597  0.390719  1
  Au  Au25  1  0.844503  0.155100  0.250007  1
  Au  Au26  1  0.843104  0.845341  0.751824  1
  Au  Au27  1  0.155059  0.157113  0.746335  1
  Au  Au28  1  0.153882  0.847532  0.250051  1
  Au  Au29  1  0.652591  0.347097  0.749830  1
  Au  Au30  1  0.656868  0.655101  0.246617  1
  Au  Au31  1  0.344885  0.342267  0.254093  1
