# generated using pymatgen
data_Ac4NdSn4
_symmetry_space_group_name_H-M   'P 1'
_cell_length_a   8.72658800
_cell_length_b   8.85325800
_cell_length_c   16.87369500
_cell_angle_alpha   90.00000000
_cell_angle_beta   90.00000000
_cell_angle_gamma   90.00000000
_symmetry_Int_Tables_number   1
_chemical_formula_structural   Ac4NdSn4
_chemical_formula_sum   'Ac16 Nd4 Sn16'
_cell_volume   1303.64033088
_cell_formula_units_Z   4
loop_
 _symmetry_equiv_pos_site_id
 _symmetry_equiv_pos_as_xyz
  1  'x, y, z'
loop_
 _atom_site_type_symbol
 _atom_site_label
 _atom_site_symmetry_multiplicity
 _atom_site_fract_x
 _atom_site_fract_y
 _atom_site_fract_z
 _atom_site_occupancy
  Ac  Ac0  1  0.019259  0.181323  0.400704  1
  Ac  Ac1  1  0.369294  0.840763  0.119427  1
  Ac  Ac2  1  0.130706  0.340763  0.619427  1
  Ac  Ac3  1  0.480741  0.681323  0.900704  1
  Ac  Ac4  1  0.869294  0.659237  0.119427  1
  Ac  Ac5  1  0.130706  0.340763  0.880573  1
  Ac  Ac6  1  0.480741  0.681323  0.599296  1
  Ac  Ac7  1  0.630706  0.159237  0.619427  1
  Ac  Ac8  1  0.869294  0.659237  0.380573  1
  Ac  Ac9  1  0.019259  0.181323  0.099296  1
  Ac  Ac10  1  0.980741  0.818677  0.900704  1
  Ac  Ac11  1  0.630706  0.159237  0.880573  1
  Ac  Ac12  1  0.519259  0.318677  0.099296  1
  Ac  Ac13  1  0.369294  0.840763  0.380573  1
  Ac  Ac14  1  0.980741  0.818677  0.599296  1
  Ac  Ac15  1  0.519259  0.318677  0.400704  1
  Nd  Nd16  1  0.203092  0.498172  0.250000  1
  Nd  Nd17  1  0.703092  0.001828  0.250000  1
  Nd  Nd18  1  0.296908  0.998172  0.750000  1
  Nd  Nd19  1  0.796908  0.501828  0.750000  1
  Sn  Sn20  1  0.789593  0.466752  0.545578  1
  Sn  Sn21  1  0.710407  0.966752  0.454422  1
  Sn  Sn22  1  0.677800  0.853311  0.750000  1
  Sn  Sn23  1  0.210407  0.533248  0.454422  1
  Sn  Sn24  1  0.289593  0.033248  0.954422  1
  Sn  Sn25  1  0.822200  0.353311  0.250000  1
  Sn  Sn26  1  0.789593  0.466752  0.954422  1
  Sn  Sn27  1  0.565741  0.613510  0.250000  1
  Sn  Sn28  1  0.210407  0.533248  0.045578  1
  Sn  Sn29  1  0.434259  0.386490  0.750000  1
  Sn  Sn30  1  0.177800  0.646689  0.750000  1
  Sn  Sn31  1  0.934259  0.113510  0.750000  1
  Sn  Sn32  1  0.289593  0.033248  0.545578  1
  Sn  Sn33  1  0.710407  0.966752  0.045578  1
  Sn  Sn34  1  0.322200  0.146689  0.250000  1
  Sn  Sn35  1  0.065741  0.886490  0.250000  1
