# generated using pymatgen
data_Eu2BeCuP3
_symmetry_space_group_name_H-M   'P 1'
_cell_length_a   7.78419279
_cell_length_b   7.78419237
_cell_length_c   11.12293866
_cell_angle_alpha   55.17644255
_cell_angle_beta   55.17644381
_cell_angle_gamma   29.31993998
_symmetry_Int_Tables_number   1
_chemical_formula_structural   Eu2BeCuP3
_chemical_formula_sum   'Eu4 Be2 Cu2 P6'
_cell_volume   266.40945803
_cell_formula_units_Z   2
loop_
 _symmetry_equiv_pos_site_id
 _symmetry_equiv_pos_as_xyz
  1  'x, y, z'
loop_
 _atom_site_type_symbol
 _atom_site_label
 _atom_site_symmetry_multiplicity
 _atom_site_fract_x
 _atom_site_fract_y
 _atom_site_fract_z
 _atom_site_occupancy
  Eu  Eu0  1  0.267326  0.267326  0.340411  1
  Eu  Eu1  1  0.732674  0.732674  0.659589  1
  Eu  Eu2  1  0.391507  0.391507  0.944367  1
  Eu  Eu3  1  0.608493  0.608493  0.055633  1
  Be  Be4  1  0.418483  0.418483  0.643378  1
  Be  Be5  1  0.581517  0.581517  0.356622  1
  Cu  Cu6  1  0.043620  0.043620  0.680033  1
  Cu  Cu7  1  0.956380  0.956380  0.319967  1
  P  P8  1  0.069659  0.069659  0.878326  1
  P  P9  1  0.930341  0.930341  0.121674  1
  P  P10  1  0.148981  0.148981  0.214912  1
  P  P11  1  0.851019  0.851019  0.785088  1
  P  P12  1  0.397068  0.397068  0.461605  1
  P  P13  1  0.602932  0.602932  0.538395  1
