# generated using pymatgen
data_Hf6Al16Pd5Rh2
_symmetry_space_group_name_H-M   'P 1'
_cell_length_a   8.73289724
_cell_length_b   8.72000596
_cell_length_c   8.73289768
_cell_angle_alpha   60.04881549
_cell_angle_beta   60.11452468
_cell_angle_gamma   60.04881295
_symmetry_Int_Tables_number   1
_chemical_formula_structural   Hf6Al16Pd5Rh2
_chemical_formula_sum   'Hf6 Al16 Pd5 Rh2'
_cell_volume   470.99205590
_cell_formula_units_Z   1
loop_
 _symmetry_equiv_pos_site_id
 _symmetry_equiv_pos_as_xyz
  1  'x, y, z'
loop_
 _atom_site_type_symbol
 _atom_site_label
 _atom_site_symmetry_multiplicity
 _atom_site_fract_x
 _atom_site_fract_y
 _atom_site_fract_z
 _atom_site_occupancy
  Hf  Hf0  1  0.682980  0.318401  0.317019  1
  Hf  Hf1  1  0.317019  0.681598  0.682980  1
  Hf  Hf2  1  0.316633  0.683366  0.316633  1
  Hf  Hf3  1  0.317019  0.318401  0.682980  1
  Hf  Hf4  1  0.683366  0.316633  0.683366  1
  Hf  Hf5  1  0.682980  0.681598  0.317019  1
  Al  Al6  1  0.335261  0.335509  0.335261  1
  Al  Al7  1  0.332734  0.336724  0.993817  1
  Al  Al8  1  0.993817  0.336724  0.332734  1
  Al  Al9  1  0.335261  0.993968  0.335261  1
  Al  Al10  1  0.664739  0.664491  0.664739  1
  Al  Al11  1  0.667266  0.663276  0.006183  1
  Al  Al12  1  0.664739  0.006032  0.664739  1
  Al  Al13  1  0.006183  0.663276  0.667266  1
  Al  Al14  1  0.116601  0.124594  0.116601  1
  Al  Al15  1  0.118499  0.118933  0.643636  1
  Al  Al16  1  0.643636  0.118933  0.118499  1
  Al  Al17  1  0.116601  0.642203  0.116601  1
  Al  Al18  1  0.883398  0.875405  0.883398  1
  Al  Al19  1  0.881500  0.881066  0.356367  1
  Al  Al20  1  0.883398  0.357800  0.883398  1
  Al  Al21  1  0.356367  0.881066  0.881500  1
  Pd  Pd22  1  0.500000  0.000000  0.000000  1
  Pd  Pd23  1  0.000000  0.500000  0.500000  1
  Pd  Pd24  1  0.000000  0.000000  0.500000  1
  Pd  Pd25  1  0.500000  0.000000  0.500000  1
  Pd  Pd26  1  0.500000  0.500000  0.000000  1
  Rh  Rh27  1  0.000000  0.000000  0.000000  1
  Rh  Rh28  1  0.000000  0.500000  0.000000  1
