# generated using pymatgen
data_YbTlPt4
_symmetry_space_group_name_H-M   'P 1'
_cell_length_a   5.43022068
_cell_length_b   5.43021925
_cell_length_c   5.43022009
_cell_angle_alpha   120.00268365
_cell_angle_beta   119.93396720
_cell_angle_gamma   90.05487941
_symmetry_Int_Tables_number   1
_chemical_formula_structural   YbTlPt4
_chemical_formula_sum   'Yb1 Tl1 Pt4'
_cell_volume   113.27778481
_cell_formula_units_Z   1
loop_
 _symmetry_equiv_pos_site_id
 _symmetry_equiv_pos_as_xyz
  1  'x, y, z'
loop_
 _atom_site_type_symbol
 _atom_site_label
 _atom_site_symmetry_multiplicity
 _atom_site_fract_x
 _atom_site_fract_y
 _atom_site_fract_z
 _atom_site_occupancy
  Yb  Yb0  1  0.874969  0.624970  0.249999  1
  Tl  Tl1  1  0.125038  0.375038  0.749999  1
  Pt  Pt2  1  0.000449  0.000152  0.000297  1
  Pt  Pt3  1  0.499843  0.000128  0.000284  1
  Pt  Pt4  1  0.499855  0.000152  0.499703  1
  Pt  Pt5  1  0.499843  0.499560  0.499716  1
