# generated using pymatgen
data_Tb8GaHgPd23
_symmetry_space_group_name_H-M   'P 1'
_cell_length_a   8.43354200
_cell_length_b   8.41617000
_cell_length_c   8.33505100
_cell_angle_alpha   90.00000000
_cell_angle_beta   90.00000000
_cell_angle_gamma   90.00000000
_symmetry_Int_Tables_number   1
_chemical_formula_structural   Tb8GaHgPd23
_chemical_formula_sum   'Tb8 Ga1 Hg1 Pd23'
_cell_volume   591.60627654
_cell_formula_units_Z   1
loop_
 _symmetry_equiv_pos_site_id
 _symmetry_equiv_pos_as_xyz
  1  'x, y, z'
loop_
 _atom_site_type_symbol
 _atom_site_label
 _atom_site_symmetry_multiplicity
 _atom_site_fract_x
 _atom_site_fract_y
 _atom_site_fract_z
 _atom_site_occupancy
  Tb  Tb0  1  0.262046  0.244257  0.748588  1
  Tb  Tb1  1  0.252849  0.747073  0.252237  1
  Tb  Tb2  1  0.747151  0.252927  0.252237  1
  Tb  Tb3  1  0.737954  0.755743  0.748588  1
  Tb  Tb4  1  0.747151  0.747073  0.252237  1
  Tb  Tb5  1  0.737954  0.244257  0.748588  1
  Tb  Tb6  1  0.262046  0.755743  0.748588  1
  Tb  Tb7  1  0.252849  0.252927  0.252237  1
  Ga  Ga8  1  0.000000  0.000000  0.000048  1
  Hg  Hg9  1  0.000000  0.500000  0.736099  1
  Pd  Pd10  1  0.500000  0.500000  0.747298  1
  Pd  Pd11  1  0.500000  0.253310  0.498527  1
  Pd  Pd12  1  0.256937  0.500000  0.501139  1
  Pd  Pd13  1  0.500000  0.500000  0.252477  1
  Pd  Pd14  1  0.500000  0.746690  0.498527  1
  Pd  Pd15  1  0.743063  0.500000  0.501139  1
  Pd  Pd16  1  0.000000  0.000000  0.707971  1
  Pd  Pd17  1  0.000000  0.289190  0.998011  1
  Pd  Pd18  1  0.290192  0.000000  0.002252  1
  Pd  Pd19  1  0.000000  0.000000  0.292627  1
  Pd  Pd20  1  0.000000  0.710810  0.998011  1
  Pd  Pd21  1  0.709808  0.000000  0.002252  1
  Pd  Pd22  1  0.500000  0.259514  0.001347  1
  Pd  Pd23  1  0.261248  0.000000  0.498662  1
  Pd  Pd24  1  0.000000  0.258947  0.501404  1
  Pd  Pd25  1  0.500000  0.000000  0.740511  1
  Pd  Pd26  1  0.261261  0.500000  0.998815  1
  Pd  Pd27  1  0.000000  0.500000  0.259455  1
  Pd  Pd28  1  0.500000  0.740486  0.001347  1
  Pd  Pd29  1  0.000000  0.741053  0.501404  1
  Pd  Pd30  1  0.500000  0.000000  0.259901  1
  Pd  Pd31  1  0.738752  0.000000  0.498662  1
  Pd  Pd32  1  0.738739  0.500000  0.998815  1
