# generated using pymatgen
data_Dy4Mg4RuRh3
_symmetry_space_group_name_H-M   'P 1'
_cell_length_a   4.08586600
_cell_length_b   7.13234576
_cell_length_c   8.56291491
_cell_angle_alpha   90.35443185
_cell_angle_beta   90.00000000
_cell_angle_gamma   90.00000000
_symmetry_Int_Tables_number   1
_chemical_formula_structural   Dy4Mg4RuRh3
_chemical_formula_sum   'Dy4 Mg4 Ru1 Rh3'
_cell_volume   249.53405673
_cell_formula_units_Z   1
loop_
 _symmetry_equiv_pos_site_id
 _symmetry_equiv_pos_as_xyz
  1  'x, y, z'
loop_
 _atom_site_type_symbol
 _atom_site_label
 _atom_site_symmetry_multiplicity
 _atom_site_fract_x
 _atom_site_fract_y
 _atom_site_fract_z
 _atom_site_occupancy
  Dy  Dy0  1  0.250000  0.541269  0.177712  1
  Dy  Dy1  1  0.750000  0.463035  0.826283  1
  Dy  Dy2  1  0.250000  0.031381  0.326365  1
  Dy  Dy3  1  0.750000  0.961104  0.671787  1
  Mg  Mg4  1  0.250000  0.136435  0.940757  1
  Mg  Mg5  1  0.750000  0.864939  0.058829  1
  Mg  Mg6  1  0.250000  0.635518  0.557830  1
  Mg  Mg7  1  0.750000  0.363170  0.441338  1
  Ru  Ru8  1  0.750000  0.749592  0.367330  1
  Rh  Rh9  1  0.250000  0.251754  0.633450  1
  Rh  Rh10  1  0.750000  0.250652  0.129150  1
  Rh  Rh11  1  0.250000  0.751154  0.869169  1
