# generated using pymatgen
data_KRbSn(AuSe2)2
_symmetry_space_group_name_H-M   'P 1'
_cell_length_a   7.79837086
_cell_length_b   8.97079339
_cell_length_c   9.92547398
_cell_angle_alpha   71.48227374
_cell_angle_beta   82.06668230
_cell_angle_gamma   67.15538594
_symmetry_Int_Tables_number   1
_chemical_formula_structural   KRbSn(AuSe2)2
_chemical_formula_sum   'K2 Rb2 Sn2 Au4 Se8'
_cell_volume   606.68063692
_cell_formula_units_Z   2
loop_
 _symmetry_equiv_pos_site_id
 _symmetry_equiv_pos_as_xyz
  1  'x, y, z'
loop_
 _atom_site_type_symbol
 _atom_site_label
 _atom_site_symmetry_multiplicity
 _atom_site_fract_x
 _atom_site_fract_y
 _atom_site_fract_z
 _atom_site_occupancy
  K  K0  1  0.023376  0.253895  0.077174  1
  K  K1  1  0.976624  0.746105  0.922826  1
  Rb  Rb2  1  0.778439  0.816084  0.422258  1
  Rb  Rb3  1  0.221561  0.183916  0.577742  1
  Sn  Sn4  1  0.622481  0.285405  0.803910  1
  Sn  Sn5  1  0.377519  0.714595  0.196090  1
  Au  Au6  1  0.535247  0.711778  0.835659  1
  Au  Au7  1  0.256418  0.667445  0.576087  1
  Au  Au8  1  0.464753  0.288222  0.164341  1
  Au  Au9  1  0.743582  0.332555  0.423913  1
  Se  Se10  1  0.734168  0.576798  0.220405  1
  Se  Se11  1  0.762942  0.094022  0.636008  1
  Se  Se12  1  0.291327  0.914653  0.941175  1
  Se  Se13  1  0.210952  0.500717  0.253072  1
  Se  Se14  1  0.265832  0.423202  0.779595  1
  Se  Se15  1  0.708673  0.085347  0.058825  1
  Se  Se16  1  0.237058  0.905978  0.363992  1
  Se  Se17  1  0.789048  0.499283  0.746928  1
