# generated using pymatgen
data_DyTa2Fe9
_symmetry_space_group_name_H-M   'P 1'
_cell_length_a   4.90206646
_cell_length_b   4.90206778
_cell_length_c   8.33801696
_cell_angle_alpha   72.90488853
_cell_angle_beta   107.09512011
_cell_angle_gamma   120.00000217
_symmetry_Int_Tables_number   1
_chemical_formula_structural   DyTa2Fe9
_chemical_formula_sum   'Dy1 Ta2 Fe9'
_cell_volume   163.21895696
_cell_formula_units_Z   1
loop_
 _symmetry_equiv_pos_site_id
 _symmetry_equiv_pos_as_xyz
  1  'x, y, z'
loop_
 _atom_site_type_symbol
 _atom_site_label
 _atom_site_symmetry_multiplicity
 _atom_site_fract_x
 _atom_site_fract_y
 _atom_site_fract_z
 _atom_site_occupancy
  Dy  Dy0  1  0.000000  0.000000  0.000000  1
  Ta  Ta1  1  0.143950  0.856050  0.431851  1
  Ta  Ta2  1  0.856050  0.143950  0.568150  1
  Fe  Fe3  1  0.666591  0.333410  0.999772  1
  Fe  Fe4  1  0.588670  0.917528  0.259811  1
  Fe  Fe5  1  0.082471  0.411330  0.259811  1
  Fe  Fe6  1  0.588670  0.411330  0.259811  1
  Fe  Fe7  1  0.500000  0.500000  0.500000  1
  Fe  Fe8  1  0.411329  0.588669  0.740188  1
  Fe  Fe9  1  0.917528  0.588669  0.740188  1
  Fe  Fe10  1  0.411330  0.082473  0.740188  1
  Fe  Fe11  1  0.333409  0.666591  0.000227  1
