# generated using pymatgen
data_Tb4Sn6Ir2Rh5
_symmetry_space_group_name_H-M   'P 1'
_cell_length_a   7.62534206
_cell_length_b   7.62656074
_cell_length_c   7.62534306
_cell_angle_alpha   109.47522544
_cell_angle_beta   109.45672754
_cell_angle_gamma   109.47522701
_symmetry_Int_Tables_number   1
_chemical_formula_structural   Tb4Sn6Ir2Rh5
_chemical_formula_sum   'Tb4 Sn6 Ir2 Rh5'
_cell_volume   341.39746008
_cell_formula_units_Z   1
loop_
 _symmetry_equiv_pos_site_id
 _symmetry_equiv_pos_as_xyz
  1  'x, y, z'
loop_
 _atom_site_type_symbol
 _atom_site_label
 _atom_site_symmetry_multiplicity
 _atom_site_fract_x
 _atom_site_fract_y
 _atom_site_fract_z
 _atom_site_occupancy
  Tb  Tb0  1  0.999308  0.998616  0.499308  1
  Tb  Tb1  1  0.001859  0.501262  0.001859  1
  Tb  Tb2  1  0.499308  0.998616  0.999308  1
  Tb  Tb3  1  0.499403  0.501262  0.499403  1
  Sn  Sn4  1  0.684048  0.683501  0.999453  1
  Sn  Sn5  1  0.315505  0.001004  0.315505  1
  Sn  Sn6  1  0.999588  0.315510  0.315923  1
  Sn  Sn7  1  0.315923  0.315510  0.999588  1
  Sn  Sn8  1  0.685500  0.001004  0.685500  1
  Sn  Sn9  1  0.999453  0.683501  0.684048  1
  Ir  Ir10  1  0.250111  0.750029  0.499918  1
  Ir  Ir11  1  0.499918  0.750029  0.250111  1
  Rh  Rh12  1  0.749841  0.249693  0.499852  1
  Rh  Rh13  1  0.750221  0.500441  0.250221  1
  Rh  Rh14  1  0.499852  0.249693  0.749841  1
  Rh  Rh15  1  0.250221  0.500441  0.750221  1
  Rh  Rh16  1  0.999942  0.999884  0.999942  1
