# generated using pymatgen
data_Tm2Co12SiGeP5
_symmetry_space_group_name_H-M   'P 1'
_cell_length_a   9.10430511
_cell_length_b   9.11126179
_cell_length_c   3.57497400
_cell_angle_alpha   90.00000000
_cell_angle_beta   90.00000000
_cell_angle_gamma   120.18968001
_symmetry_Int_Tables_number   1
_chemical_formula_structural   Tm2Co12SiGeP5
_chemical_formula_sum   'Tm2 Co12 Si1 Ge1 P5'
_cell_volume   256.32772678
_cell_formula_units_Z   1
loop_
 _symmetry_equiv_pos_site_id
 _symmetry_equiv_pos_as_xyz
  1  'x, y, z'
loop_
 _atom_site_type_symbol
 _atom_site_label
 _atom_site_symmetry_multiplicity
 _atom_site_fract_x
 _atom_site_fract_y
 _atom_site_fract_z
 _atom_site_occupancy
  Tm  Tm0  1  0.667646  0.332402  0.000000  1
  Tm  Tm1  1  0.002102  0.000377  0.500000  1
  Co  Co2  1  0.771442  0.721418  0.000000  1
  Co  Co3  1  0.271290  0.045238  0.000000  1
  Co  Co4  1  0.960251  0.233066  0.000000  1
  Co  Co5  1  0.716808  0.108855  0.500000  1
  Co  Co6  1  0.894718  0.611623  0.500000  1
  Co  Co7  1  0.387088  0.281417  0.500000  1
  Co  Co8  1  0.487587  0.953776  0.000000  1
  Co  Co9  1  0.047784  0.542135  0.000000  1
  Co  Co10  1  0.460589  0.504504  0.000000  1
  Co  Co11  1  0.581178  0.773825  0.500000  1
  Co  Co12  1  0.219938  0.808394  0.500000  1
  Co  Co13  1  0.196155  0.417012  0.500000  1
  Si  Si14  1  0.736411  0.956303  0.000000  1
  Ge  Ge15  1  0.335608  0.666794  0.000000  1
  P  P16  1  0.445180  0.071328  0.500000  1
  P  P17  1  0.931391  0.375156  0.500000  1
  P  P18  1  0.625622  0.554239  0.500000  1
  P  P19  1  0.041543  0.780604  0.000000  1
  P  P20  1  0.219670  0.261528  0.000000  1
