# generated using pymatgen
data_NdP12IrRu3
_symmetry_space_group_name_H-M   'P 1'
_cell_length_a   7.02102210
_cell_length_b   7.02102106
_cell_length_c   7.03413600
_cell_angle_alpha   109.50906442
_cell_angle_beta   109.50906141
_cell_angle_gamma   109.43334820
_symmetry_Int_Tables_number   1
_chemical_formula_structural   NdP12IrRu3
_chemical_formula_sum   'Nd1 P12 Ir1 Ru3'
_cell_volume   266.80039338
_cell_formula_units_Z   1
loop_
 _symmetry_equiv_pos_site_id
 _symmetry_equiv_pos_as_xyz
  1  'x, y, z'
loop_
 _atom_site_type_symbol
 _atom_site_label
 _atom_site_symmetry_multiplicity
 _atom_site_fract_x
 _atom_site_fract_y
 _atom_site_fract_z
 _atom_site_occupancy
  Nd  Nd0  1  0.000000  0.000000  0.000000  1
  P  P1  1  0.358841  0.214154  0.860045  1
  P  P2  1  0.641159  0.785846  0.139955  1
  P  P3  1  0.644216  0.501043  0.856364  1
  P  P4  1  0.355784  0.498957  0.143636  1
  P  P5  1  0.214154  0.855313  0.354108  1
  P  P6  1  0.785846  0.144687  0.645892  1
  P  P7  1  0.501043  0.856827  0.644679  1
  P  P8  1  0.498957  0.143173  0.355321  1
  P  P9  1  0.856827  0.355784  0.212148  1
  P  P10  1  0.143173  0.644216  0.787852  1
  P  P11  1  0.855313  0.641159  0.501204  1
  P  P12  1  0.144687  0.358841  0.498796  1
  Ir  Ir13  1  0.000000  0.000000  0.500000  1
  Ru  Ru14  1  0.500000  0.000000  0.000000  1
  Ru  Ru15  1  0.000000  0.500000  0.000000  1
  Ru  Ru16  1  0.500000  0.500000  0.500000  1
