# generated using pymatgen
data_Dy2Ho5Er9(CdNi)4
_symmetry_space_group_name_H-M   'P 1'
_cell_length_a   9.48824821
_cell_length_b   9.49678207
_cell_length_c   9.49070905
_cell_angle_alpha   60.10683868
_cell_angle_beta   60.05092099
_cell_angle_gamma   59.98739087
_symmetry_Int_Tables_number   1
_chemical_formula_structural   Dy2Ho5Er9(CdNi)4
_chemical_formula_sum   'Dy2 Ho5 Er9 Cd4 Ni4'
_cell_volume   605.37046866
_cell_formula_units_Z   1
loop_
 _symmetry_equiv_pos_site_id
 _symmetry_equiv_pos_as_xyz
  1  'x, y, z'
loop_
 _atom_site_type_symbol
 _atom_site_label
 _atom_site_symmetry_multiplicity
 _atom_site_fract_x
 _atom_site_fract_y
 _atom_site_fract_z
 _atom_site_occupancy
  Dy  Dy0  1  0.814344  0.815169  0.185713  1
  Dy  Dy1  1  0.184774  0.185713  0.815169  1
  Ho  Ho2  1  0.596825  0.597731  0.598786  1
  Ho  Ho3  1  0.599931  0.602294  0.198811  1
  Ho  Ho4  1  0.598963  0.198811  0.602294  1
  Ho  Ho5  1  0.206658  0.598786  0.597731  1
  Ho  Ho6  1  0.060726  0.439274  0.439274  1
  Er  Er7  1  0.436802  0.063198  0.063198  1
  Er  Er8  1  0.438693  0.062472  0.438615  1
  Er  Er9  1  0.060220  0.438615  0.062472  1
  Er  Er10  1  0.438406  0.438441  0.062160  1
  Er  Er11  1  0.060992  0.062160  0.438441  1
  Er  Er12  1  0.185263  0.814737  0.814737  1
  Er  Er13  1  0.811577  0.188423  0.188423  1
  Er  Er14  1  0.813402  0.186316  0.813582  1
  Er  Er15  1  0.186700  0.813582  0.186316  1
  Cd  Cd16  1  0.832965  0.830458  0.829549  1
  Cd  Cd17  1  0.832668  0.830056  0.505487  1
  Cd  Cd18  1  0.831789  0.505487  0.830056  1
  Cd  Cd19  1  0.507028  0.829549  0.830458  1
  Ni  Ni20  1  0.396703  0.392825  0.390428  1
  Ni  Ni21  1  0.391895  0.390871  0.824603  1
  Ni  Ni22  1  0.392631  0.824603  0.390871  1
  Ni  Ni23  1  0.820043  0.390428  0.392825  1
