# generated using pymatgen
data_La4Zn3Ge2Rh9
_symmetry_space_group_name_H-M   'P 1'
_cell_length_a   12.28918366
_cell_length_b   12.28918413
_cell_length_c   12.28918421
_cell_angle_alpha   26.63890938
_cell_angle_beta   26.63890513
_cell_angle_gamma   26.63891114
_symmetry_Int_Tables_number   1
_chemical_formula_structural   La4Zn3Ge2Rh9
_chemical_formula_sum   'La4 Zn3 Ge2 Rh9'
_cell_volume   328.93667085
_cell_formula_units_Z   1
loop_
 _symmetry_equiv_pos_site_id
 _symmetry_equiv_pos_as_xyz
  1  'x, y, z'
loop_
 _atom_site_type_symbol
 _atom_site_label
 _atom_site_symmetry_multiplicity
 _atom_site_fract_x
 _atom_site_fract_y
 _atom_site_fract_z
 _atom_site_occupancy
  La  La0  1  0.949957  0.949957  0.949957  1
  La  La1  1  0.852702  0.852702  0.852702  1
  La  La2  1  0.146173  0.146173  0.146173  1
  La  La3  1  0.049692  0.049692  0.049692  1
  Zn  Zn4  1  0.278994  0.278994  0.278994  1
  Zn  Zn5  1  0.500555  0.500555  0.500555  1
  Zn  Zn6  1  0.387824  0.387824  0.387824  1
  Ge  Ge7  1  0.721933  0.721933  0.721933  1
  Ge  Ge8  1  0.611534  0.611534  0.611534  1
  Rh  Rh9  1  0.608896  0.608896  0.108935  1
  Rh  Rh10  1  0.895413  0.389183  0.389183  1
  Rh  Rh11  1  0.500982  0.998167  0.500982  1
  Rh  Rh12  1  0.389183  0.895413  0.389183  1
  Rh  Rh13  1  0.500982  0.500982  0.998167  1
  Rh  Rh14  1  0.108935  0.608896  0.608896  1
  Rh  Rh15  1  0.998167  0.500982  0.500982  1
  Rh  Rh16  1  0.389183  0.389183  0.895413  1
  Rh  Rh17  1  0.608896  0.108935  0.608896  1
