# generated using pymatgen
data_Pr6Al24Ir3Os2Ru3
_symmetry_space_group_name_H-M   'P 1'
_cell_length_a   8.91586400
_cell_length_b   8.93080286
_cell_length_c   9.70094697
_cell_angle_alpha   90.23307024
_cell_angle_beta   90.00000000
_cell_angle_gamma   119.94467440
_symmetry_Int_Tables_number   1
_chemical_formula_structural   Pr6Al24Ir3Os2Ru3
_chemical_formula_sum   'Pr6 Al24 Ir3 Os2 Ru3'
_cell_volume   669.32302100
_cell_formula_units_Z   1
loop_
 _symmetry_equiv_pos_site_id
 _symmetry_equiv_pos_as_xyz
  1  'x, y, z'
loop_
 _atom_site_type_symbol
 _atom_site_label
 _atom_site_symmetry_multiplicity
 _atom_site_fract_x
 _atom_site_fract_y
 _atom_site_fract_z
 _atom_site_occupancy
  Pr  Pr0  1  0.191471  0.382940  0.247674  1
  Pr  Pr1  1  0.808529  0.617060  0.752326  1
  Pr  Pr2  1  0.618297  0.808892  0.249563  1
  Pr  Pr3  1  0.381703  0.191108  0.750437  1
  Pr  Pr4  1  0.190596  0.808892  0.249563  1
  Pr  Pr5  1  0.809404  0.191108  0.750437  1
  Al  Al6  1  0.333077  0.666154  0.014419  1
  Al  Al7  1  0.666923  0.333846  0.985581  1
  Al  Al8  1  0.665476  0.330949  0.515537  1
  Al  Al9  1  0.334524  0.669051  0.484463  1
  Al  Al10  1  0.163328  0.326655  0.574273  1
  Al  Al11  1  0.836672  0.673345  0.425727  1
  Al  Al12  1  0.674056  0.838543  0.575567  1
  Al  Al13  1  0.836474  0.672950  0.076033  1
  Al  Al14  1  0.325944  0.161457  0.424433  1
  Al  Al15  1  0.163526  0.327050  0.923967  1
  Al  Al16  1  0.164488  0.838543  0.575567  1
  Al  Al17  1  0.327109  0.165131  0.074978  1
  Al  Al18  1  0.835512  0.161457  0.424433  1
  Al  Al19  1  0.672891  0.834869  0.925022  1
  Al  Al20  1  0.838021  0.165131  0.074978  1
  Al  Al21  1  0.161979  0.834869  0.925022  1
  Al  Al22  1  0.562056  0.124111  0.252065  1
  Al  Al23  1  0.437944  0.875889  0.747935  1
  Al  Al24  1  0.874174  0.437425  0.249730  1
  Al  Al25  1  0.125826  0.562575  0.750270  1
  Al  Al26  1  0.563252  0.437425  0.249730  1
  Al  Al27  1  0.436748  0.562575  0.750270  1
  Al  Al28  1  0.000508  0.001015  0.249955  1
  Al  Al29  1  0.999492  0.998985  0.750045  1
  Ir  Ir30  1  0.500000  0.000000  0.000000  1
  Ir  Ir31  1  0.000000  0.500000  0.500000  1
  Ir  Ir32  1  0.500000  0.500000  0.500000  1
  Os  Os33  1  0.000000  0.500000  0.000000  1
  Os  Os34  1  0.500000  0.500000  0.000000  1
  Ru  Ru35  1  0.500000  0.000000  0.500000  1
  Ru  Ru36  1  0.000000  0.000000  0.000000  1
  Ru  Ru37  1  0.000000  0.000000  0.500000  1
