# generated using pymatgen
data_CrFeCu(P2O7)2
_symmetry_space_group_name_H-M   'P 1'
_cell_length_a   5.25237500
_cell_length_b   6.69778202
_cell_length_c   16.92278737
_cell_angle_alpha   68.95682774
_cell_angle_beta   90.00000000
_cell_angle_gamma   90.00000000
_symmetry_Int_Tables_number   1
_chemical_formula_structural   CrFeCu(P2O7)2
_chemical_formula_sum   'Cr2 Fe2 Cu2 P8 O28'
_cell_volume   555.62862662
_cell_formula_units_Z   2
loop_
 _symmetry_equiv_pos_site_id
 _symmetry_equiv_pos_as_xyz
  1  'x, y, z'
loop_
 _atom_site_type_symbol
 _atom_site_label
 _atom_site_symmetry_multiplicity
 _atom_site_fract_x
 _atom_site_fract_y
 _atom_site_fract_z
 _atom_site_occupancy
  Cr  Cr0  1  0.754928  0.786022  0.882618  1
  Cr  Cr1  1  0.254928  0.213978  0.617382  1
  Fe  Fe2  1  0.247814  0.216873  0.118929  1
  Fe  Fe3  1  0.747814  0.783127  0.381071  1
  Cu  Cu4  1  0.000756  0.001246  0.999508  1
  Cu  Cu5  1  0.500756  0.998754  0.500492  1
  P  P6  1  0.747323  0.885773  0.168048  1
  P  P7  1  0.247323  0.114227  0.331952  1
  P  P8  1  0.253252  0.114543  0.830482  1
  P  P9  1  0.753252  0.885457  0.669518  1
  P  P10  1  0.729288  0.550020  0.094095  1
  P  P11  1  0.229288  0.449980  0.405905  1
  P  P12  1  0.270704  0.450974  0.905038  1
  P  P13  1  0.770704  0.549026  0.594962  1
  O  O14  1  0.461177  0.472200  0.088549  1
  O  O15  1  0.961177  0.527800  0.411451  1
  O  O16  1  0.538866  0.528763  0.910948  1
  O  O17  1  0.038866  0.471237  0.589052  1
  O  O18  1  0.932505  0.380021  0.117336  1
  O  O19  1  0.432505  0.619979  0.382664  1
  O  O20  1  0.067552  0.620376  0.882099  1
  O  O21  1  0.567552  0.379624  0.617901  1
  O  O22  1  0.776871  0.869359  0.258396  1
  O  O23  1  0.276871  0.130641  0.241604  1
  O  O24  1  0.221573  0.130294  0.740565  1
  O  O25  1  0.721573  0.869706  0.759435  1
  O  O26  1  0.523593  0.013978  0.119298  1
  O  O27  1  0.023593  0.986022  0.380702  1
  O  O28  1  0.704979  0.743191  0.511983  1
  O  O29  1  0.204979  0.256809  0.988017  1
  O  O30  1  0.295839  0.256547  0.489006  1
  O  O31  1  0.795839  0.743453  0.010994  1
  O  O32  1  0.776540  0.645620  0.669795  1
  O  O33  1  0.276540  0.354380  0.830205  1
  O  O34  1  0.222861  0.355013  0.330837  1
  O  O35  1  0.722861  0.644987  0.169163  1
  O  O36  1  0.497120  0.967325  0.619283  1
  O  O37  1  0.997120  0.032675  0.880717  1
  O  O38  1  0.502015  0.033250  0.381753  1
  O  O39  1  0.002015  0.966750  0.118247  1
  O  O40  1  0.974445  0.014178  0.618942  1
  O  O41  1  0.474445  0.985822  0.881058  1
