# generated using pymatgen
data_Nd7Th(Si3Au)4
_symmetry_space_group_name_H-M   'P 1'
_cell_length_a   8.29978517
_cell_length_b   8.29978664
_cell_length_c   8.67134500
_cell_angle_alpha   90.00000000
_cell_angle_beta   90.00000000
_cell_angle_gamma   120.16264241
_symmetry_Int_Tables_number   1
_chemical_formula_structural   Nd7Th(Si3Au)4
_chemical_formula_sum   'Nd7 Th1 Si12 Au4'
_cell_volume   516.46010441
_cell_formula_units_Z   1
loop_
 _symmetry_equiv_pos_site_id
 _symmetry_equiv_pos_as_xyz
  1  'x, y, z'
loop_
 _atom_site_type_symbol
 _atom_site_label
 _atom_site_symmetry_multiplicity
 _atom_site_fract_x
 _atom_site_fract_y
 _atom_site_fract_z
 _atom_site_occupancy
  Nd  Nd0  1  0.500156  0.499844  0.250000  1
  Nd  Nd1  1  0.000446  0.500175  0.750000  1
  Nd  Nd2  1  0.999604  0.499825  0.250000  1
  Nd  Nd3  1  0.499825  0.999554  0.750000  1
  Nd  Nd4  1  0.500175  0.000396  0.250000  1
  Nd  Nd5  1  0.000017  0.999983  0.750000  1
  Nd  Nd6  1  0.999945  0.000055  0.250000  1
  Th  Th7  1  0.499816  0.500184  0.750000  1
  Si  Si8  1  0.836038  0.163962  0.000280  1
  Si  Si9  1  0.163949  0.836051  0.000802  1
  Si  Si10  1  0.328318  0.164846  0.998680  1
  Si  Si11  1  0.163949  0.836051  0.499198  1
  Si  Si12  1  0.671716  0.835175  0.999175  1
  Si  Si13  1  0.836038  0.163962  0.499720  1
  Si  Si14  1  0.835154  0.671682  0.998680  1
  Si  Si15  1  0.671716  0.835175  0.500825  1
  Si  Si16  1  0.164825  0.328284  0.999175  1
  Si  Si17  1  0.328318  0.164846  0.501320  1
  Si  Si18  1  0.164825  0.328284  0.500825  1
  Si  Si19  1  0.835154  0.671682  0.501320  1
  Au  Au20  1  0.667327  0.332673  0.000097  1
  Au  Au21  1  0.332681  0.667319  0.001001  1
  Au  Au22  1  0.332681  0.667319  0.498999  1
  Au  Au23  1  0.667327  0.332673  0.499903  1
