# generated using pymatgen
data_LuAlGaPd5
_symmetry_space_group_name_H-M   'P 1'
_cell_length_a   8.06216352
_cell_length_b   8.06216351
_cell_length_c   8.06216286
_cell_angle_alpha   150.41494373
_cell_angle_beta   150.41494335
_cell_angle_gamma   42.33265062
_symmetry_Int_Tables_number   1
_chemical_formula_structural   LuAlGaPd5
_chemical_formula_sum   'Lu1 Al1 Ga1 Pd5'
_cell_volume   127.42335025
_cell_formula_units_Z   1
loop_
 _symmetry_equiv_pos_site_id
 _symmetry_equiv_pos_as_xyz
  1  'x, y, z'
loop_
 _atom_site_type_symbol
 _atom_site_label
 _atom_site_symmetry_multiplicity
 _atom_site_fract_x
 _atom_site_fract_y
 _atom_site_fract_z
 _atom_site_occupancy
  Lu  Lu0  1  0.000071  0.000071  0.000000  1
  Al  Al1  1  0.746458  0.746458  0.000000  1
  Ga  Ga2  1  0.253480  0.253480  0.000000  1
  Pd  Pd3  1  0.642281  0.142281  0.500000  1
  Pd  Pd4  1  0.357762  0.857762  0.500000  1
  Pd  Pd5  1  0.142281  0.642281  0.500000  1
  Pd  Pd6  1  0.857762  0.357762  0.500000  1
  Pd  Pd7  1  0.499905  0.499905  0.000000  1
