# generated using pymatgen
data_Dy6Er(TmSn2)3
_symmetry_space_group_name_H-M   'P 1'
_cell_length_a   6.49610703
_cell_length_b   8.93051571
_cell_length_c   8.93319509
_cell_angle_alpha   120.00087662
_cell_angle_beta   90.01120644
_cell_angle_gamma   89.99326652
_symmetry_Int_Tables_number   1
_chemical_formula_structural   Dy6Er(TmSn2)3
_chemical_formula_sum   'Dy6 Er1 Tm3 Sn6'
_cell_volume   448.81081757
_cell_formula_units_Z   1
loop_
 _symmetry_equiv_pos_site_id
 _symmetry_equiv_pos_as_xyz
  1  'x, y, z'
loop_
 _atom_site_type_symbol
 _atom_site_label
 _atom_site_symmetry_multiplicity
 _atom_site_fract_x
 _atom_site_fract_y
 _atom_site_fract_z
 _atom_site_occupancy
  Dy  Dy0  1  0.750057  0.239518  0.000084  1
  Dy  Dy1  1  0.750055  0.760439  0.760458  1
  Dy  Dy2  1  0.750064  0.999896  0.239493  1
  Dy  Dy3  1  0.249972  0.760567  0.000092  1
  Dy  Dy4  1  0.249975  0.239597  0.239518  1
  Dy  Dy5  1  0.249960  0.999982  0.760456  1
  Er  Er6  1  0.499720  0.333389  0.666646  1
  Tm  Tm7  1  0.499978  0.666575  0.333247  1
  Tm  Tm8  1  0.000071  0.666620  0.333262  1
  Tm  Tm9  1  0.000064  0.333399  0.666730  1
  Sn  Sn10  1  0.750141  0.604434  0.000231  1
  Sn  Sn11  1  0.750160  0.395718  0.395506  1
  Sn  Sn12  1  0.750167  0.999788  0.604321  1
  Sn  Sn13  1  0.249873  0.395846  0.000248  1
  Sn  Sn14  1  0.249879  0.604464  0.604282  1
  Sn  Sn15  1  0.249862  0.999767  0.395425  1
