# generated using pymatgen
data_PrNd3Al4IrPt3
_symmetry_space_group_name_H-M   'P 1'
_cell_length_a   4.50983700
_cell_length_b   7.09447312
_cell_length_c   7.91554100
_cell_angle_alpha   90.00867709
_cell_angle_beta   90.00000000
_cell_angle_gamma   90.00000000
_symmetry_Int_Tables_number   1
_chemical_formula_structural   PrNd3Al4IrPt3
_chemical_formula_sum   'Pr1 Nd3 Al4 Ir1 Pt3'
_cell_volume   253.25707740
_cell_formula_units_Z   1
loop_
 _symmetry_equiv_pos_site_id
 _symmetry_equiv_pos_as_xyz
  1  'x, y, z'
loop_
 _atom_site_type_symbol
 _atom_site_label
 _atom_site_symmetry_multiplicity
 _atom_site_fract_x
 _atom_site_fract_y
 _atom_site_fract_z
 _atom_site_occupancy
  Pr  Pr0  1  0.750000  0.468158  0.181250  1
  Nd  Nd1  1  0.250000  0.026490  0.681331  1
  Nd  Nd2  1  0.750000  0.964568  0.320486  1
  Nd  Nd3  1  0.250000  0.534195  0.815486  1
  Al  Al4  1  0.750000  0.853153  0.932346  1
  Al  Al5  1  0.250000  0.646595  0.437317  1
  Al  Al6  1  0.750000  0.359680  0.565915  1
  Al  Al7  1  0.250000  0.145036  0.064232  1
  Ir  Ir8  1  0.750000  0.721793  0.614400  1
  Pt  Pt9  1  0.750000  0.217202  0.886048  1
  Pt  Pt10  1  0.250000  0.280521  0.386307  1
  Pt  Pt11  1  0.250000  0.782608  0.114879  1
