# generated using pymatgen
data_Ho15Tm(C2Cl3)4
_symmetry_space_group_name_H-M   'P 1'
_cell_length_a   3.63711700
_cell_length_b   10.44223641
_cell_length_c   19.64705500
_cell_angle_alpha   90.01608767
_cell_angle_beta   90.00000000
_cell_angle_gamma   90.00000000
_symmetry_Int_Tables_number   1
_chemical_formula_structural   Ho15Tm(C2Cl3)4
_chemical_formula_sum   'Ho15 Tm1 C8 Cl12'
_cell_volume   746.18795952
_cell_formula_units_Z   1
loop_
 _symmetry_equiv_pos_site_id
 _symmetry_equiv_pos_as_xyz
  1  'x, y, z'
loop_
 _atom_site_type_symbol
 _atom_site_label
 _atom_site_symmetry_multiplicity
 _atom_site_fract_x
 _atom_site_fract_y
 _atom_site_fract_z
 _atom_site_occupancy
  Ho  Ho0  1  0.750000  0.136063  0.425531  1
  Ho  Ho1  1  0.750000  0.635876  0.074521  1
  Ho  Ho2  1  0.250000  0.364029  0.925424  1
  Ho  Ho3  1  0.250000  0.866658  0.743918  1
  Ho  Ho4  1  0.750000  0.133449  0.255875  1
  Ho  Ho5  1  0.750000  0.633399  0.244180  1
  Ho  Ho6  1  0.250000  0.366566  0.755858  1
  Ho  Ho7  1  0.250000  0.871473  0.165607  1
  Ho  Ho8  1  0.750000  0.128612  0.834307  1
  Ho  Ho9  1  0.750000  0.628441  0.665625  1
  Ho  Ho10  1  0.250000  0.371557  0.334459  1
  Ho  Ho11  1  0.250000  0.895968  0.332116  1
  Ho  Ho12  1  0.750000  0.104046  0.667741  1
  Ho  Ho13  1  0.750000  0.603864  0.832155  1
  Ho  Ho14  1  0.250000  0.395998  0.167930  1
  Tm  Tm15  1  0.250000  0.863743  0.575274  1
  C  C16  1  0.250000  0.616122  0.750556  1
  C  C17  1  0.750000  0.384219  0.249399  1
  C  C18  1  0.750000  0.884072  0.250637  1
  C  C19  1  0.250000  0.115615  0.749206  1
  C  C20  1  0.250000  0.632668  0.152783  1
  C  C21  1  0.750000  0.367258  0.847162  1
  C  C22  1  0.750000  0.867303  0.651854  1
  C  C23  1  0.250000  0.132714  0.347287  1
  Cl  Cl24  1  0.250000  0.616568  0.556424  1
  Cl  Cl25  1  0.750000  0.384974  0.443892  1
  Cl  Cl26  1  0.750000  0.884558  0.056301  1
  Cl  Cl27  1  0.250000  0.115186  0.943570  1
  Cl  Cl28  1  0.250000  0.623682  0.953078  1
  Cl  Cl29  1  0.750000  0.376463  0.046639  1
  Cl  Cl30  1  0.750000  0.876106  0.453769  1
  Cl  Cl31  1  0.250000  0.122786  0.547025  1
  Cl  Cl32  1  0.250000  0.635351  0.354348  1
  Cl  Cl33  1  0.750000  0.364612  0.645634  1
  Cl  Cl34  1  0.750000  0.864550  0.854169  1
  Cl  Cl35  1  0.250000  0.135452  0.145749  1
