# generated using pymatgen
data_Er9Tm(SiB4)4
_symmetry_space_group_name_H-M   'P 1'
_cell_length_a   7.17842700
_cell_length_b   7.17842700
_cell_length_c   7.99225200
_cell_angle_alpha   90.00000000
_cell_angle_beta   90.00000000
_cell_angle_gamma   90.00000000
_symmetry_Int_Tables_number   1
_chemical_formula_structural   Er9Tm(SiB4)4
_chemical_formula_sum   'Er9 Tm1 Si4 B16'
_cell_volume   411.83926055
_cell_formula_units_Z   1
loop_
 _symmetry_equiv_pos_site_id
 _symmetry_equiv_pos_as_xyz
  1  'x, y, z'
loop_
 _atom_site_type_symbol
 _atom_site_label
 _atom_site_symmetry_multiplicity
 _atom_site_fract_x
 _atom_site_fract_y
 _atom_site_fract_z
 _atom_site_occupancy
  Er  Er0  1  0.680128  0.180265  0.224071  1
  Er  Er1  1  0.319872  0.819735  0.775929  1
  Er  Er2  1  0.319872  0.819735  0.224071  1
  Er  Er3  1  0.819735  0.680128  0.224071  1
  Er  Er4  1  0.819735  0.680128  0.775929  1
  Er  Er5  1  0.680128  0.180265  0.775929  1
  Er  Er6  1  0.180265  0.319872  0.775929  1
  Er  Er7  1  0.180265  0.319872  0.224071  1
  Er  Er8  1  0.000000  0.000000  0.500000  1
  Tm  Tm9  1  0.500000  0.500000  0.500000  1
  Si  Si10  1  0.116146  0.615701  0.500000  1
  Si  Si11  1  0.883854  0.384299  0.500000  1
  Si  Si12  1  0.384299  0.116146  0.500000  1
  Si  Si13  1  0.615701  0.883854  0.500000  1
  B  B14  1  0.172355  0.039091  0.000000  1
  B  B15  1  0.827645  0.960909  0.000000  1
  B  B16  1  0.960909  0.172355  0.000000  1
  B  B17  1  0.327654  0.539064  0.000000  1
  B  B18  1  0.039091  0.827645  0.000000  1
  B  B19  1  0.672346  0.460936  0.000000  1
  B  B20  1  0.539064  0.672346  0.000000  1
  B  B21  1  0.460936  0.327654  0.000000  1
  B  B22  1  0.089517  0.589550  0.000000  1
  B  B23  1  0.910483  0.410450  0.000000  1
  B  B24  1  0.410450  0.089517  0.000000  1
  B  B25  1  0.589550  0.910483  0.000000  1
  B  B26  1  0.000000  0.000000  0.164742  1
  B  B27  1  0.000000  0.000000  0.835258  1
  B  B28  1  0.500000  0.500000  0.835030  1
  B  B29  1  0.500000  0.500000  0.164970  1
