# generated using pymatgen
data_Dy9HoOs4
_symmetry_space_group_name_H-M   'P 1'
_cell_length_a   6.36940944
_cell_length_b   7.34304916
_cell_length_c   8.43704164
_cell_angle_alpha   96.82519414
_cell_angle_beta   112.17686402
_cell_angle_gamma   90.00000024
_symmetry_Int_Tables_number   1
_chemical_formula_structural   Dy9HoOs4
_chemical_formula_sum   'Dy9 Ho1 Os4'
_cell_volume   362.39439902
_cell_formula_units_Z   1
loop_
 _symmetry_equiv_pos_site_id
 _symmetry_equiv_pos_as_xyz
  1  'x, y, z'
loop_
 _atom_site_type_symbol
 _atom_site_label
 _atom_site_symmetry_multiplicity
 _atom_site_fract_x
 _atom_site_fract_y
 _atom_site_fract_z
 _atom_site_occupancy
  Dy  Dy0  1  0.976708  0.916289  0.183710  1
  Dy  Dy1  1  0.792998  0.583711  0.816290  1
  Dy  Dy2  1  0.023245  0.083972  0.816355  1
  Dy  Dy3  1  0.206890  0.416028  0.183645  1
  Dy  Dy4  1  0.639434  0.816387  0.435306  1
  Dy  Dy5  1  0.204128  0.683613  0.564694  1
  Dy  Dy6  1  0.360660  0.183692  0.564824  1
  Dy  Dy7  1  0.795836  0.316308  0.435176  1
  Dy  Dy8  1  0.421695  0.750000  0.000000  1
  Ho  Ho9  1  0.577995  0.250000  0.000000  1
  Os  Os10  1  0.822569  0.576897  0.219265  1
  Os  Os11  1  0.603304  0.923103  0.780735  1
  Os  Os12  1  0.177626  0.422606  0.780712  1
  Os  Os13  1  0.396913  0.077394  0.219288  1
