# generated using pymatgen
data_Tb18DyHoPb16
_symmetry_space_group_name_H-M   'P 1'
_cell_length_a   8.24088300
_cell_length_b   8.32404065
_cell_length_c   15.72252400
_cell_angle_alpha   90.00000000
_cell_angle_beta   90.00000000
_cell_angle_gamma   90.02262498
_symmetry_Int_Tables_number   1
_chemical_formula_structural   Tb18DyHoPb16
_chemical_formula_sum   'Tb18 Dy1 Ho1 Pb16'
_cell_volume   1078.52489245
_cell_formula_units_Z   1
loop_
 _symmetry_equiv_pos_site_id
 _symmetry_equiv_pos_as_xyz
  1  'x, y, z'
loop_
 _atom_site_type_symbol
 _atom_site_label
 _atom_site_symmetry_multiplicity
 _atom_site_fract_x
 _atom_site_fract_y
 _atom_site_fract_z
 _atom_site_occupancy
  Tb  Tb0  1  0.377530  0.840845  0.879577  1
  Tb  Tb1  1  0.877420  0.659242  0.620531  1
  Tb  Tb2  1  0.622296  0.159078  0.379478  1
  Tb  Tb3  1  0.122681  0.340695  0.120530  1
  Tb  Tb4  1  0.622296  0.159078  0.120522  1
  Tb  Tb5  1  0.122681  0.340695  0.379470  1
  Tb  Tb6  1  0.377530  0.840845  0.620423  1
  Tb  Tb7  1  0.877420  0.659242  0.879469  1
  Tb  Tb8  1  0.534789  0.323406  0.899834  1
  Tb  Tb9  1  0.034703  0.176524  0.600087  1
  Tb  Tb10  1  0.465146  0.676764  0.399873  1
  Tb  Tb11  1  0.965398  0.823550  0.100122  1
  Tb  Tb12  1  0.465146  0.676764  0.100127  1
  Tb  Tb13  1  0.965398  0.823550  0.399878  1
  Tb  Tb14  1  0.534789  0.323406  0.600166  1
  Tb  Tb15  1  0.034703  0.176524  0.899913  1
  Tb  Tb16  1  0.209065  0.503744  0.750000  1
  Tb  Tb17  1  0.790980  0.496282  0.250000  1
  Dy  Dy18  1  0.709067  0.996252  0.750000  1
  Ho  Ho19  1  0.290870  0.003919  0.250000  1
  Pb  Pb20  1  0.280924  0.032998  0.042969  1
  Pb  Pb21  1  0.780901  0.466891  0.457412  1
  Pb  Pb22  1  0.719113  0.966828  0.542816  1
  Pb  Pb23  1  0.219081  0.533103  0.957299  1
  Pb  Pb24  1  0.719113  0.966828  0.957184  1
  Pb  Pb25  1  0.219081  0.533103  0.542701  1
  Pb  Pb26  1  0.280924  0.032998  0.457031  1
  Pb  Pb27  1  0.780901  0.466891  0.042588  1
  Pb  Pb28  1  0.573156  0.626096  0.750000  1
  Pb  Pb29  1  0.072926  0.874214  0.750000  1
  Pb  Pb30  1  0.426642  0.373829  0.250000  1
  Pb  Pb31  1  0.927547  0.125265  0.250000  1
  Pb  Pb32  1  0.346414  0.152144  0.750000  1
  Pb  Pb33  1  0.846277  0.347250  0.750000  1
  Pb  Pb34  1  0.653306  0.847833  0.250000  1
  Pb  Pb35  1  0.153788  0.653324  0.250000  1
