# generated using pymatgen
data_TbDyEr(SnRh)3
_symmetry_space_group_name_H-M   'P 1'
_cell_length_a   7.68736303
_cell_length_b   7.67654894
_cell_length_c   3.73665100
_cell_angle_alpha   90.00000000
_cell_angle_beta   90.00000000
_cell_angle_gamma   120.05672016
_symmetry_Int_Tables_number   1
_chemical_formula_structural   TbDyEr(SnRh)3
_chemical_formula_sum   'Tb1 Dy1 Er1 Sn3 Rh3'
_cell_volume   190.85699316
_cell_formula_units_Z   1
loop_
 _symmetry_equiv_pos_site_id
 _symmetry_equiv_pos_as_xyz
  1  'x, y, z'
loop_
 _atom_site_type_symbol
 _atom_site_label
 _atom_site_symmetry_multiplicity
 _atom_site_fract_x
 _atom_site_fract_y
 _atom_site_fract_z
 _atom_site_occupancy
  Tb  Tb0  1  0.403359  0.403482  0.000000  1
  Dy  Dy1  1  0.999874  0.596590  0.000000  1
  Er  Er2  1  0.597059  0.999995  0.000000  1
  Sn  Sn3  1  0.734230  0.735482  0.500000  1
  Sn  Sn4  1  0.998574  0.264604  0.500000  1
  Sn  Sn5  1  0.266418  0.999825  0.500000  1
  Rh  Rh6  1  0.999825  0.999952  0.000000  1
  Rh  Rh7  1  0.666574  0.332300  0.500000  1
  Rh  Rh8  1  0.334087  0.667771  0.500000  1
