# generated using pymatgen
data_Tb2Dy2LuSn3
_symmetry_space_group_name_H-M   'P 1'
_cell_length_a   8.97033415
_cell_length_b   8.96746619
_cell_length_c   6.52436900
_cell_angle_alpha   90.00011631
_cell_angle_beta   89.99994173
_cell_angle_gamma   119.98942941
_symmetry_Int_Tables_number   1
_chemical_formula_structural   Tb2Dy2LuSn3
_chemical_formula_sum   'Tb4 Dy4 Lu2 Sn6'
_cell_volume   454.56266831
_cell_formula_units_Z   2
loop_
 _symmetry_equiv_pos_site_id
 _symmetry_equiv_pos_as_xyz
  1  'x, y, z'
loop_
 _atom_site_type_symbol
 _atom_site_label
 _atom_site_symmetry_multiplicity
 _atom_site_fract_x
 _atom_site_fract_y
 _atom_site_fract_z
 _atom_site_occupancy
  Tb  Tb0  1  0.000000  0.239756  0.749142  1
  Tb  Tb1  1  0.239913  0.239858  0.250859  1
  Tb  Tb2  1  0.760087  0.999945  0.250859  1
  Tb  Tb3  1  0.000000  0.760219  0.250839  1
  Dy  Dy4  1  0.666627  0.333333  0.999948  1
  Dy  Dy5  1  0.333373  0.666707  0.999948  1
  Dy  Dy6  1  0.760184  0.760121  0.749124  1
  Dy  Dy7  1  0.239816  0.999937  0.749124  1
  Lu  Lu8  1  0.333335  0.666690  0.500045  1
  Lu  Lu9  1  0.666665  0.333354  0.500045  1
  Sn  Sn10  1  0.395830  0.395671  0.746445  1
  Sn  Sn11  1  0.604170  0.999841  0.746445  1
  Sn  Sn12  1  0.000000  0.604600  0.746455  1
  Sn  Sn13  1  0.604226  0.604214  0.253578  1
  Sn  Sn14  1  0.395774  0.999988  0.253578  1
  Sn  Sn15  1  0.000000  0.395765  0.253563  1
