# generated using pymatgen
data_PrY15(ErPb4)4
_symmetry_space_group_name_H-M   'P 1'
_cell_length_a   8.22637878
_cell_length_b   8.30670378
_cell_length_c   15.70826900
_cell_angle_alpha   90.02184449
_cell_angle_beta   89.69210883
_cell_angle_gamma   89.91494093
_symmetry_Int_Tables_number   1
_chemical_formula_structural   PrY15(ErPb4)4
_chemical_formula_sum   'Pr1 Y15 Er4 Pb16'
_cell_volume   1073.39353176
_cell_formula_units_Z   1
loop_
 _symmetry_equiv_pos_site_id
 _symmetry_equiv_pos_as_xyz
  1  'x, y, z'
loop_
 _atom_site_type_symbol
 _atom_site_label
 _atom_site_symmetry_multiplicity
 _atom_site_fract_x
 _atom_site_fract_y
 _atom_site_fract_z
 _atom_site_occupancy
  Pr  Pr0  1  0.969839  0.822365  0.597712  1
  Y  Y1  1  0.624878  0.157912  0.621679  1
  Y  Y2  1  0.122389  0.341444  0.880578  1
  Y  Y3  1  0.378031  0.842559  0.121201  1
  Y  Y4  1  0.874274  0.657645  0.377958  1
  Y  Y5  1  0.375381  0.842394  0.377902  1
  Y  Y6  1  0.877923  0.657637  0.120638  1
  Y  Y7  1  0.621201  0.157580  0.879445  1
  Y  Y8  1  0.123658  0.342271  0.621381  1
  Y  Y9  1  0.464155  0.674090  0.599649  1
  Y  Y10  1  0.959901  0.825315  0.898814  1
  Y  Y11  1  0.538830  0.325344  0.101107  1
  Y  Y12  1  0.035645  0.177114  0.399403  1
  Y  Y13  1  0.534357  0.324412  0.400146  1
  Y  Y14  1  0.039037  0.174596  0.101270  1
  Y  Y15  1  0.461806  0.674358  0.900581  1
  Er  Er16  1  0.790225  0.495608  0.750709  1
  Er  Er17  1  0.290467  0.004543  0.750764  1
  Er  Er18  1  0.209288  0.504133  0.249963  1
  Er  Er19  1  0.709375  0.996022  0.249190  1
  Pb  Pb20  1  0.715244  0.969393  0.454262  1
  Pb  Pb21  1  0.220208  0.531490  0.044453  1
  Pb  Pb22  1  0.279026  0.029808  0.956568  1
  Pb  Pb23  1  0.780543  0.463393  0.542583  1
  Pb  Pb24  1  0.288277  0.039663  0.541891  1
  Pb  Pb25  1  0.779772  0.467793  0.956636  1
  Pb  Pb26  1  0.719796  0.968443  0.043663  1
  Pb  Pb27  1  0.216801  0.535098  0.456716  1
  Pb  Pb28  1  0.427751  0.373587  0.750271  1
  Pb  Pb29  1  0.927979  0.127558  0.750787  1
  Pb  Pb30  1  0.571884  0.625625  0.249623  1
  Pb  Pb31  1  0.071256  0.873469  0.249654  1
  Pb  Pb32  1  0.649116  0.844940  0.750244  1
  Pb  Pb33  1  0.154366  0.651945  0.752420  1
  Pb  Pb34  1  0.348557  0.154942  0.250184  1
  Pb  Pb35  1  0.848757  0.345515  0.249956  1
