# generated using pymatgen
data_YHo3(Al3Rh)6
_symmetry_space_group_name_H-M   'P 1'
_cell_length_a   7.54853097
_cell_length_b   7.54559582
_cell_length_c   9.44861800
_cell_angle_alpha   90.00000000
_cell_angle_beta   90.00000000
_cell_angle_gamma   119.28206288
_symmetry_Int_Tables_number   1
_chemical_formula_structural   YHo3(Al3Rh)6
_chemical_formula_sum   'Y1 Ho3 Al18 Rh6'
_cell_volume   469.40912210
_cell_formula_units_Z   1
loop_
 _symmetry_equiv_pos_site_id
 _symmetry_equiv_pos_as_xyz
  1  'x, y, z'
loop_
 _atom_site_type_symbol
 _atom_site_label
 _atom_site_symmetry_multiplicity
 _atom_site_fract_x
 _atom_site_fract_y
 _atom_site_fract_z
 _atom_site_occupancy
  Y  Y0  1  0.328565  0.005663  0.750000  1
  Ho  Ho1  1  0.994495  0.671447  0.250000  1
  Ho  Ho2  1  0.005516  0.328552  0.750000  1
  Ho  Ho3  1  0.671542  0.994617  0.250000  1
  Al  Al4  1  0.127329  0.127475  0.250000  1
  Al  Al5  1  0.871608  0.872196  0.750000  1
  Al  Al6  1  0.000358  0.335476  0.075412  1
  Al  Al7  1  0.999013  0.664111  0.925499  1
  Al  Al8  1  0.999013  0.664111  0.574501  1
  Al  Al9  1  0.335515  0.000386  0.424009  1
  Al  Al10  1  0.000358  0.335476  0.424588  1
  Al  Al11  1  0.665023  0.999454  0.574425  1
  Al  Al12  1  0.665023  0.999454  0.925575  1
  Al  Al13  1  0.335515  0.000386  0.075991  1
  Al  Al14  1  0.332675  0.333063  0.549559  1
  Al  Al15  1  0.667319  0.667326  0.449338  1
  Al  Al16  1  0.667319  0.667326  0.050662  1
  Al  Al17  1  0.332675  0.333063  0.950441  1
  Al  Al18  1  0.339620  0.550775  0.250000  1
  Al  Al19  1  0.661320  0.450195  0.750000  1
  Al  Al20  1  0.550852  0.339787  0.250000  1
  Al  Al21  1  0.449534  0.659884  0.750000  1
  Rh  Rh22  1  0.672002  0.328069  0.000188  1
  Rh  Rh23  1  0.328036  0.671896  0.000165  1
  Rh  Rh24  1  0.328036  0.671896  0.499835  1
  Rh  Rh25  1  0.672002  0.328069  0.499812  1
  Rh  Rh26  1  0.999869  0.999924  0.000195  1
  Rh  Rh27  1  0.999869  0.999924  0.499805  1
