# generated using pymatgen
data_Pr2Nd2As7Ir8
_symmetry_space_group_name_H-M   'P 1'
_cell_length_a   4.14195600
_cell_length_b   13.24515752
_cell_length_c   13.66631311
_cell_angle_alpha   81.75279914
_cell_angle_beta   90.00000000
_cell_angle_gamma   90.00000000
_symmetry_Int_Tables_number   1
_chemical_formula_structural   Pr2Nd2As7Ir8
_chemical_formula_sum   'Pr4 Nd4 As14 Ir16'
_cell_volume   741.99211254
_cell_formula_units_Z   2
loop_
 _symmetry_equiv_pos_site_id
 _symmetry_equiv_pos_as_xyz
  1  'x, y, z'
loop_
 _atom_site_type_symbol
 _atom_site_label
 _atom_site_symmetry_multiplicity
 _atom_site_fract_x
 _atom_site_fract_y
 _atom_site_fract_z
 _atom_site_occupancy
  Pr  Pr0  1  0.250000  0.098641  0.794033  1
  Pr  Pr1  1  0.750000  0.901359  0.205967  1
  Pr  Pr2  1  0.250000  0.287310  0.102679  1
  Pr  Pr3  1  0.750000  0.712690  0.897321  1
  Nd  Nd4  1  0.250000  0.519643  0.293749  1
  Nd  Nd5  1  0.750000  0.480357  0.706251  1
  Nd  Nd6  1  0.250000  0.208216  0.437977  1
  Nd  Nd7  1  0.750000  0.791784  0.562023  1
  As  As8  1  0.250000  0.057544  0.099502  1
  As  As9  1  0.750000  0.942456  0.900498  1
  As  As10  1  0.250000  0.310949  0.688223  1
  As  As11  1  0.750000  0.689051  0.311777  1
  As  As12  1  0.250000  0.607276  0.566769  1
  As  As13  1  0.750000  0.392724  0.433231  1
  As  As14  1  0.250000  0.847907  0.719321  1
  As  As15  1  0.750000  0.152093  0.280679  1
  As  As16  1  0.750000  0.256788  0.917695  1
  As  As17  1  0.250000  0.743212  0.082305  1
  As  As18  1  0.750000  0.096071  0.586589  1
  As  As19  1  0.250000  0.903929  0.413411  1
  As  As20  1  0.750000  0.471780  0.129108  1
  As  As21  1  0.250000  0.528220  0.870892  1
  Ir  Ir22  1  0.250000  0.989820  0.574136  1
  Ir  Ir23  1  0.750000  0.010180  0.425864  1
  Ir  Ir24  1  0.250000  0.665417  0.732854  1
  Ir  Ir25  1  0.750000  0.334583  0.267146  1
  Ir  Ir26  1  0.250000  0.555674  0.045132  1
  Ir  Ir27  1  0.750000  0.444326  0.954868  1
  Ir  Ir28  1  0.250000  0.053629  0.278117  1
  Ir  Ir29  1  0.750000  0.946371  0.721883  1
  Ir  Ir30  1  0.250000  0.424902  0.526042  1
  Ir  Ir31  1  0.750000  0.575098  0.473958  1
  Ir  Ir32  1  0.250000  0.918305  0.997813  1
  Ir  Ir33  1  0.750000  0.081695  0.002187  1
  Ir  Ir34  1  0.250000  0.721647  0.400481  1
  Ir  Ir35  1  0.750000  0.278353  0.599519  1
  Ir  Ir36  1  0.250000  0.343818  0.859935  1
  Ir  Ir37  1  0.750000  0.656182  0.140065  1
