# generated using pymatgen
data_YMg2ScIr8
_symmetry_space_group_name_H-M   'P 1'
_cell_length_a   5.25932800
_cell_length_b   5.25932743
_cell_length_c   8.55603200
_cell_angle_alpha   90.00000000
_cell_angle_beta   90.00000000
_cell_angle_gamma   120.00000357
_symmetry_Int_Tables_number   1
_chemical_formula_structural   YMg2ScIr8
_chemical_formula_sum   'Y1 Mg2 Sc1 Ir8'
_cell_volume   204.95734312
_cell_formula_units_Z   1
loop_
 _symmetry_equiv_pos_site_id
 _symmetry_equiv_pos_as_xyz
  1  'x, y, z'
loop_
 _atom_site_type_symbol
 _atom_site_label
 _atom_site_symmetry_multiplicity
 _atom_site_fract_x
 _atom_site_fract_y
 _atom_site_fract_z
 _atom_site_occupancy
  Y  Y0  1  0.333333  0.666667  0.069060  1
  Mg  Mg1  1  0.666667  0.333333  0.932704  1
  Mg  Mg2  1  0.333333  0.666667  0.438777  1
  Sc  Sc3  1  0.666667  0.333333  0.572370  1
  Ir  Ir4  1  0.000000  0.000000  0.995746  1
  Ir  Ir5  1  0.000000  0.000000  0.496251  1
  Ir  Ir6  1  0.828783  0.657565  0.252012  1
  Ir  Ir7  1  0.170781  0.829219  0.746353  1
  Ir  Ir8  1  0.658438  0.829219  0.746353  1
  Ir  Ir9  1  0.342435  0.171217  0.252012  1
  Ir  Ir10  1  0.828783  0.171217  0.252012  1
  Ir  Ir11  1  0.170781  0.341562  0.746353  1
