# generated using pymatgen
data_Sc6Co3Ir2Ru
_symmetry_space_group_name_H-M   'P 1'
_cell_length_a   4.51398300
_cell_length_b   6.34088100
_cell_length_c   13.50918800
_cell_angle_alpha   90.00003928
_cell_angle_beta   89.99992799
_cell_angle_gamma   90.00006153
_symmetry_Int_Tables_number   1
_chemical_formula_structural   Sc6Co3Ir2Ru
_chemical_formula_sum   'Sc12 Co6 Ir4 Ru2'
_cell_volume   386.66847674
_cell_formula_units_Z   2
loop_
 _symmetry_equiv_pos_site_id
 _symmetry_equiv_pos_as_xyz
  1  'x, y, z'
loop_
 _atom_site_type_symbol
 _atom_site_label
 _atom_site_symmetry_multiplicity
 _atom_site_fract_x
 _atom_site_fract_y
 _atom_site_fract_z
 _atom_site_occupancy
  Sc  Sc0  1  0.499997  0.249012  0.999222  1
  Sc  Sc1  1  0.500000  0.750992  0.999220  1
  Sc  Sc2  1  0.999758  0.249952  0.166756  1
  Sc  Sc3  1  0.999759  0.750047  0.166758  1
  Sc  Sc4  1  0.499762  0.250049  0.333275  1
  Sc  Sc5  1  0.499759  0.749946  0.333274  1
  Sc  Sc6  1  0.999999  0.250993  0.500778  1
  Sc  Sc7  1  0.999995  0.749006  0.500777  1
  Sc  Sc8  1  0.500238  0.250585  0.667465  1
  Sc  Sc9  1  0.500236  0.749415  0.667466  1
  Sc  Sc10  1  0.000242  0.249411  0.832508  1
  Sc  Sc11  1  0.000240  0.750591  0.832507  1
  Co  Co12  1  0.000006  0.000001  0.000290  1
  Co  Co13  1  0.499717  0.499999  0.166759  1
  Co  Co14  1  0.999720  0.000000  0.333284  1
  Co  Co15  1  0.500005  0.499999  0.499710  1
  Co  Co16  1  0.000272  0.000000  0.666411  1
  Co  Co17  1  0.500275  0.500000  0.833550  1
  Ir  Ir18  1  0.999999  0.500001  0.000483  1
  Ir  Ir19  1  0.499732  0.000000  0.166884  1
  Ir  Ir20  1  0.999734  0.499998  0.333143  1
  Ir  Ir21  1  0.499996  0.999998  0.499519  1
  Ru  Ru22  1  0.000275  0.500000  0.666368  1
  Ru  Ru23  1  0.500280  0.000001  0.833592  1
