# generated using pymatgen
data_TmMnCdPt3
_symmetry_space_group_name_H-M   'P 1'
_cell_length_a   5.20958914
_cell_length_b   5.47765456
_cell_length_c   5.47765600
_cell_angle_alpha   60.00000339
_cell_angle_beta   58.28273362
_cell_angle_gamma   58.28274972
_symmetry_Int_Tables_number   1
_chemical_formula_structural   TmMnCdPt3
_chemical_formula_sum   'Tm1 Mn1 Cd1 Pt3'
_cell_volume   107.57302702
_cell_formula_units_Z   1
loop_
 _symmetry_equiv_pos_site_id
 _symmetry_equiv_pos_as_xyz
  1  'x, y, z'
loop_
 _atom_site_type_symbol
 _atom_site_label
 _atom_site_symmetry_multiplicity
 _atom_site_fract_x
 _atom_site_fract_y
 _atom_site_fract_z
 _atom_site_occupancy
  Tm  Tm0  1  0.994355  0.001881  0.001881  1
  Mn  Mn1  1  0.127988  0.624004  0.624004  1
  Cd  Cd2  1  0.243604  0.252132  0.252132  1
  Pt  Pt3  1  0.628018  0.623420  0.623420  1
  Pt  Pt4  1  0.628018  0.623420  0.125142  1
  Pt  Pt5  1  0.628018  0.125142  0.623420  1
