# generated using pymatgen
data_Ti4MnAl2Co9B4
_symmetry_space_group_name_H-M   'P 1'
_cell_length_a   8.53317556
_cell_length_b   8.53317556
_cell_length_c   2.94884700
_cell_angle_alpha   90.00000000
_cell_angle_beta   90.00000000
_cell_angle_gamma   89.26285318
_symmetry_Int_Tables_number   1
_chemical_formula_structural   Ti4MnAl2Co9B4
_chemical_formula_sum   'Ti4 Mn1 Al2 Co9 B4'
_cell_volume   214.70277462
_cell_formula_units_Z   1
loop_
 _symmetry_equiv_pos_site_id
 _symmetry_equiv_pos_as_xyz
  1  'x, y, z'
loop_
 _atom_site_type_symbol
 _atom_site_label
 _atom_site_symmetry_multiplicity
 _atom_site_fract_x
 _atom_site_fract_y
 _atom_site_fract_z
 _atom_site_occupancy
  Ti  Ti0  1  0.823512  0.323512  0.000000  1
  Ti  Ti1  1  0.328553  0.171447  0.000000  1
  Ti  Ti2  1  0.671447  0.828553  0.000000  1
  Ti  Ti3  1  0.176488  0.676488  0.000000  1
  Mn  Mn4  1  0.500000  0.000000  0.500000  1
  Al  Al5  1  0.000000  0.000000  0.000000  1
  Al  Al6  1  0.500000  0.500000  0.000000  1
  Co  Co7  1  0.000000  0.500000  0.500000  1
  Co  Co8  1  0.071142  0.220930  0.500000  1
  Co  Co9  1  0.216723  0.925779  0.500000  1
  Co  Co10  1  0.783277  0.074221  0.500000  1
  Co  Co11  1  0.928858  0.779070  0.500000  1
  Co  Co12  1  0.425779  0.716723  0.500000  1
  Co  Co13  1  0.574221  0.283277  0.500000  1
  Co  Co14  1  0.720930  0.571142  0.500000  1
  Co  Co15  1  0.279070  0.428858  0.500000  1
  B  B16  1  0.622624  0.122624  0.000000  1
  B  B17  1  0.122460  0.377540  0.000000  1
  B  B18  1  0.877540  0.622460  0.000000  1
  B  B19  1  0.377376  0.877376  0.000000  1
