# generated using pymatgen
data_Dy13Er3(CdRu)4
_symmetry_space_group_name_H-M   'P 1'
_cell_length_a   9.61984595
_cell_length_b   9.59642894
_cell_length_c   9.59642900
_cell_angle_alpha   60.00000325
_cell_angle_beta   60.08049460
_cell_angle_gamma   60.08049159
_symmetry_Int_Tables_number   1
_chemical_formula_structural   Dy13Er3(CdRu)4
_chemical_formula_sum   'Dy13 Er3 Cd4 Ru4'
_cell_volume   627.19090516
_cell_formula_units_Z   1
loop_
 _symmetry_equiv_pos_site_id
 _symmetry_equiv_pos_as_xyz
  1  'x, y, z'
loop_
 _atom_site_type_symbol
 _atom_site_label
 _atom_site_symmetry_multiplicity
 _atom_site_fract_x
 _atom_site_fract_y
 _atom_site_fract_z
 _atom_site_occupancy
  Dy  Dy0  1  0.214608  0.595131  0.595131  1
  Dy  Dy1  1  0.060020  0.439610  0.439610  1
  Dy  Dy2  1  0.439445  0.060213  0.060213  1
  Dy  Dy3  1  0.439445  0.060213  0.440129  1
  Dy  Dy4  1  0.060020  0.439610  0.060760  1
  Dy  Dy5  1  0.439445  0.440129  0.060213  1
  Dy  Dy6  1  0.060020  0.060760  0.439610  1
  Dy  Dy7  1  0.187574  0.812528  0.812528  1
  Dy  Dy8  1  0.811611  0.188215  0.188215  1
  Dy  Dy9  1  0.811611  0.188215  0.811959  1
  Dy  Dy10  1  0.187574  0.812528  0.187369  1
  Dy  Dy11  1  0.811611  0.811959  0.188215  1
  Dy  Dy12  1  0.187574  0.187369  0.812528  1
  Er  Er13  1  0.594971  0.595144  0.595144  1
  Er  Er14  1  0.594971  0.595144  0.214741  1
  Er  Er15  1  0.594971  0.214741  0.595144  1
  Cd  Cd16  1  0.830547  0.829656  0.829656  1
  Cd  Cd17  1  0.830547  0.829656  0.510142  1
  Cd  Cd18  1  0.830547  0.510142  0.829656  1
  Cd  Cd19  1  0.510939  0.829687  0.829687  1
  Ru  Ru20  1  0.389999  0.388551  0.388551  1
  Ru  Ru21  1  0.389999  0.388551  0.832899  1
  Ru  Ru22  1  0.389999  0.832899  0.388551  1
  Ru  Ru23  1  0.831959  0.389347  0.389347  1
