# generated using pymatgen
data_Tb4Th(FeB3)2
_symmetry_space_group_name_H-M   'P 1'
_cell_length_a   5.43836684
_cell_length_b   5.43836693
_cell_length_c   8.17653679
_cell_angle_alpha   70.57582049
_cell_angle_beta   70.57581611
_cell_angle_gamma   59.99998274
_symmetry_Int_Tables_number   1
_chemical_formula_structural   Tb4Th(FeB3)2
_chemical_formula_sum   'Tb4 Th1 Fe2 B6'
_cell_volume   193.37224379
_cell_formula_units_Z   1
loop_
 _symmetry_equiv_pos_site_id
 _symmetry_equiv_pos_as_xyz
  1  'x, y, z'
loop_
 _atom_site_type_symbol
 _atom_site_label
 _atom_site_symmetry_multiplicity
 _atom_site_fract_x
 _atom_site_fract_y
 _atom_site_fract_z
 _atom_site_occupancy
  Tb  Tb0  1  0.251799  0.251799  0.244604  1
  Tb  Tb1  1  0.748201  0.748201  0.755396  1
  Tb  Tb2  1  0.415263  0.415263  0.754211  1
  Tb  Tb3  1  0.584737  0.584737  0.245789  1
  Th  Th4  1  0.000000  0.000000  0.000000  1
  Fe  Fe5  1  0.112859  0.112859  0.661422  1
  Fe  Fe6  1  0.887141  0.887141  0.338578  1
  B  B7  1  0.167219  0.832781  0.500000  1
  B  B8  1  0.832781  0.500000  0.500000  1
  B  B9  1  0.500000  0.167219  0.500000  1
  B  B10  1  0.167219  0.500000  0.500000  1
  B  B11  1  0.500000  0.832781  0.500000  1
  B  B12  1  0.832781  0.167219  0.500000  1
