# generated using pymatgen
data_Tm4AlOs6W
_symmetry_space_group_name_H-M   'P 1'
_cell_length_a   5.45625216
_cell_length_b   5.24982796
_cell_length_c   8.85472200
_cell_angle_alpha   90.00000000
_cell_angle_beta   90.00000000
_cell_angle_gamma   121.27463222
_symmetry_Int_Tables_number   1
_chemical_formula_structural   Tm4AlOs6W
_chemical_formula_sum   'Tm4 Al1 Os6 W1'
_cell_volume   216.78160638
_cell_formula_units_Z   1
loop_
 _symmetry_equiv_pos_site_id
 _symmetry_equiv_pos_as_xyz
  1  'x, y, z'
loop_
 _atom_site_type_symbol
 _atom_site_label
 _atom_site_symmetry_multiplicity
 _atom_site_fract_x
 _atom_site_fract_y
 _atom_site_fract_z
 _atom_site_occupancy
  Tm  Tm0  1  0.670879  0.341995  0.564300  1
  Tm  Tm1  1  0.333049  0.666322  0.437804  1
  Tm  Tm2  1  0.333049  0.666322  0.062196  1
  Tm  Tm3  1  0.670879  0.341995  0.935700  1
  Al  Al4  1  0.831506  0.662502  0.250000  1
  Os  Os5  1  0.008757  0.017706  0.495483  1
  Os  Os6  1  0.008757  0.017706  0.004517  1
  Os  Os7  1  0.172551  0.820138  0.750000  1
  Os  Os8  1  0.646227  0.819883  0.750000  1
  Os  Os9  1  0.820414  0.164792  0.250000  1
  Os  Os10  1  0.345707  0.163799  0.250000  1
  W  W11  1  0.158224  0.316841  0.750000  1
