# generated using pymatgen
data_Nd3Zn3Cu2Rh
_symmetry_space_group_name_H-M   'P 1'
_cell_length_a   7.27166300
_cell_length_b   7.27166285
_cell_length_c   4.06765300
_cell_angle_alpha   90.00000000
_cell_angle_beta   90.00000000
_cell_angle_gamma   119.99999614
_symmetry_Int_Tables_number   1
_chemical_formula_structural   Nd3Zn3Cu2Rh
_chemical_formula_sum   'Nd3 Zn3 Cu2 Rh1'
_cell_volume   186.26961812
_cell_formula_units_Z   1
loop_
 _symmetry_equiv_pos_site_id
 _symmetry_equiv_pos_as_xyz
  1  'x, y, z'
loop_
 _atom_site_type_symbol
 _atom_site_label
 _atom_site_symmetry_multiplicity
 _atom_site_fract_x
 _atom_site_fract_y
 _atom_site_fract_z
 _atom_site_occupancy
  Nd  Nd0  1  0.583033  0.991507  0.500000  1
  Nd  Nd1  1  0.408474  0.416967  0.500000  1
  Nd  Nd2  1  0.008493  0.591526  0.500000  1
  Zn  Zn3  1  0.765517  0.767193  0.000000  1
  Zn  Zn4  1  0.001674  0.234483  0.000000  1
  Zn  Zn5  1  0.232807  0.998326  0.000000  1
  Cu  Cu6  1  0.000000  0.000000  0.500000  1
  Cu  Cu7  1  0.666667  0.333333  0.000000  1
  Rh  Rh8  1  0.333333  0.666667  0.000000  1
