# generated using pymatgen
data_CaSmGaRh3
_symmetry_space_group_name_H-M   'P 1'
_cell_length_a   5.19004227
_cell_length_b   5.61894018
_cell_length_c   5.61894000
_cell_angle_alpha   60.00000104
_cell_angle_beta   57.22650609
_cell_angle_gamma   57.22652193
_symmetry_Int_Tables_number   1
_chemical_formula_structural   CaSmGaRh3
_chemical_formula_sum   'Ca1 Sm1 Ga1 Rh3'
_cell_volume   110.77078503
_cell_formula_units_Z   1
loop_
 _symmetry_equiv_pos_site_id
 _symmetry_equiv_pos_as_xyz
  1  'x, y, z'
loop_
 _atom_site_type_symbol
 _atom_site_label
 _atom_site_symmetry_multiplicity
 _atom_site_fract_x
 _atom_site_fract_y
 _atom_site_fract_z
 _atom_site_occupancy
  Ca  Ca0  1  0.740851  0.753049  0.753049  1
  Sm  Sm1  1  0.510959  0.496347  0.496347  1
  Ga  Ga2  1  0.625897  0.124701  0.124701  1
  Rh  Rh3  1  0.124098  0.125235  0.625431  1
  Rh  Rh4  1  0.124098  0.625431  0.125235  1
  Rh  Rh5  1  0.124098  0.125235  0.125235  1
