# generated using pymatgen
data_Tm4Al24Ni7Au2
_symmetry_space_group_name_H-M   'P 1'
_cell_length_a   7.38056239
_cell_length_b   7.40585592
_cell_length_c   12.84901821
_cell_angle_alpha   84.45737196
_cell_angle_beta   79.03177446
_cell_angle_gamma   59.87388659
_symmetry_Int_Tables_number   1
_chemical_formula_structural   Tm4Al24Ni7Au2
_chemical_formula_sum   'Tm4 Al24 Ni7 Au2'
_cell_volume   596.35511500
_cell_formula_units_Z   1
loop_
 _symmetry_equiv_pos_site_id
 _symmetry_equiv_pos_as_xyz
  1  'x, y, z'
loop_
 _atom_site_type_symbol
 _atom_site_label
 _atom_site_symmetry_multiplicity
 _atom_site_fract_x
 _atom_site_fract_y
 _atom_site_fract_z
 _atom_site_occupancy
  Tm  Tm0  1  0.389856  0.171028  0.807939  1
  Tm  Tm1  1  0.610144  0.828972  0.192061  1
  Tm  Tm2  1  0.735683  0.497943  0.809307  1
  Tm  Tm3  1  0.264317  0.502057  0.190693  1
  Al  Al4  1  0.676990  0.835195  0.948080  1
  Al  Al5  1  0.323010  0.164805  0.051920  1
  Al  Al6  1  0.145834  0.839743  0.558241  1
  Al  Al7  1  0.854166  0.160257  0.441759  1
  Al  Al8  1  0.491703  0.156269  0.557096  1
  Al  Al9  1  0.508297  0.843731  0.442904  1
  Al  Al10  1  0.232210  0.152827  0.328354  1
  Al  Al11  1  0.767790  0.847173  0.671646  1
  Al  Al12  1  0.445468  0.507088  0.673524  1
  Al  Al13  1  0.554532  0.492912  0.326476  1
  Al  Al14  1  0.108329  0.145581  0.669202  1
  Al  Al15  1  0.891671  0.854419  0.330798  1
  Al  Al16  1  0.357138  0.495165  0.947660  1
  Al  Al17  1  0.642862  0.504835  0.052340  1
  Al  Al18  1  0.013361  0.169466  0.960532  1
  Al  Al19  1  0.986639  0.830534  0.039468  1
  Al  Al20  1  0.203575  0.499203  0.434352  1
  Al  Al21  1  0.796425  0.500797  0.565648  1
  Al  Al22  1  0.725737  0.163094  0.182906  1
  Al  Al23  1  0.274263  0.836906  0.817094  1
  Al  Al24  1  0.058164  0.634492  0.823267  1
  Al  Al25  1  0.941836  0.365508  0.176733  1
  Al  Al26  1  0.845880  0.050384  0.817018  1
  Al  Al27  1  0.154120  0.949616  0.182982  1
  Ni  Ni28  1  0.659967  0.170836  0.999608  1
  Ni  Ni29  1  0.340033  0.829164  0.000392  1
  Ni  Ni30  1  0.540517  0.166733  0.362153  1
  Ni  Ni31  1  0.459483  0.833267  0.637847  1
  Ni  Ni32  1  0.777242  0.173372  0.638617  1
  Ni  Ni33  1  0.222758  0.826628  0.361383  1
  Ni  Ni34  1  0.000000  0.500000  0.000000  1
  Au  Au35  1  0.118457  0.491025  0.638551  1
  Au  Au36  1  0.881543  0.508975  0.361449  1
