# generated using pymatgen
data_Tb8Ti12Si15Pt
_symmetry_space_group_name_H-M   'P 1'
_cell_length_a   7.07530315
_cell_length_b   7.06912793
_cell_length_c   13.00430200
_cell_angle_alpha   89.98152854
_cell_angle_beta   89.81685540
_cell_angle_gamma   89.93480893
_symmetry_Int_Tables_number   1
_chemical_formula_structural   Tb8Ti12Si15Pt
_chemical_formula_sum   'Tb8 Ti12 Si15 Pt1'
_cell_volume   650.42229339
_cell_formula_units_Z   1
loop_
 _symmetry_equiv_pos_site_id
 _symmetry_equiv_pos_as_xyz
  1  'x, y, z'
loop_
 _atom_site_type_symbol
 _atom_site_label
 _atom_site_symmetry_multiplicity
 _atom_site_fract_x
 _atom_site_fract_y
 _atom_site_fract_z
 _atom_site_occupancy
  Tb  Tb0  1  0.339062  0.002263  0.465890  1
  Tb  Tb1  1  0.500131  0.838567  0.717786  1
  Tb  Tb2  1  0.501562  0.159997  0.216704  1
  Tb  Tb3  1  0.840647  0.497132  0.283320  1
  Tb  Tb4  1  0.158171  0.502445  0.783188  1
  Tb  Tb5  1  0.660930  0.997173  0.967622  1
  Tb  Tb6  1  0.001629  0.339642  0.533873  1
  Tb  Tb7  1  0.998458  0.659653  0.033413  1
  Ti  Ti8  1  0.326367  0.326003  0.001073  1
  Ti  Ti9  1  0.173770  0.826524  0.249841  1
  Ti  Ti10  1  0.824192  0.172094  0.749432  1
  Ti  Ti11  1  0.672970  0.672647  0.499386  1
  Ti  Ti12  1  0.155739  0.010971  0.876912  1
  Ti  Ti13  1  0.491002  0.653292  0.126690  1
  Ti  Ti14  1  0.504340  0.344452  0.626779  1
  Ti  Ti15  1  0.655513  0.494489  0.874659  1
  Ti  Ti16  1  0.347308  0.507721  0.372903  1
  Ti  Ti17  1  0.846148  0.991564  0.375673  1
  Ti  Ti18  1  0.008557  0.153194  0.124947  1
  Ti  Ti19  1  0.988041  0.847813  0.619099  1
  Si  Si20  1  0.370926  0.702491  0.935463  1
  Si  Si21  1  0.629321  0.297466  0.434584  1
  Si  Si22  1  0.702322  0.370343  0.065635  1
  Si  Si23  1  0.301169  0.630271  0.563573  1
  Si  Si24  1  0.797415  0.870187  0.184195  1
  Si  Si25  1  0.129108  0.202449  0.315043  1
  Si  Si26  1  0.870346  0.798501  0.815238  1
  Si  Si27  1  0.290894  0.953072  0.065614  1
  Si  Si28  1  0.546553  0.790243  0.314933  1
  Si  Si29  1  0.457742  0.213760  0.818347  1
  Si  Si30  1  0.789220  0.548548  0.685427  1
  Si  Si31  1  0.208996  0.453403  0.184912  1
  Si  Si32  1  0.707485  0.046902  0.563428  1
  Si  Si33  1  0.952331  0.290334  0.936592  1
  Si  Si34  1  0.047776  0.709406  0.433213  1
  Pt  Pt35  1  0.203861  0.124992  0.684607  1
