# generated using pymatgen
data_Tm4Zn2(OsRu)3
_symmetry_space_group_name_H-M   'P 1'
_cell_length_a   5.30469859
_cell_length_b   5.25712263
_cell_length_c   8.81050600
_cell_angle_alpha   90.00000000
_cell_angle_beta   90.00000000
_cell_angle_gamma   119.70100060
_symmetry_Int_Tables_number   1
_chemical_formula_structural   Tm4Zn2(OsRu)3
_chemical_formula_sum   'Tm4 Zn2 Os3 Ru3'
_cell_volume   213.42285589
_cell_formula_units_Z   1
loop_
 _symmetry_equiv_pos_site_id
 _symmetry_equiv_pos_as_xyz
  1  'x, y, z'
loop_
 _atom_site_type_symbol
 _atom_site_label
 _atom_site_symmetry_multiplicity
 _atom_site_fract_x
 _atom_site_fract_y
 _atom_site_fract_z
 _atom_site_occupancy
  Tm  Tm0  1  0.670188  0.335453  0.568128  1
  Tm  Tm1  1  0.340787  0.670850  0.442500  1
  Tm  Tm2  1  0.340787  0.670850  0.057500  1
  Tm  Tm3  1  0.670188  0.335453  0.931872  1
  Zn  Zn4  1  0.817604  0.655512  0.250000  1
  Zn  Zn5  1  0.817362  0.161946  0.250000  1
  Os  Os6  1  0.166902  0.334647  0.750000  1
  Os  Os7  1  0.169052  0.830187  0.750000  1
  Os  Os8  1  0.650840  0.825776  0.750000  1
  Ru  Ru9  1  0.016767  0.008923  0.498358  1
  Ru  Ru10  1  0.016767  0.008923  0.001642  1
  Ru  Ru11  1  0.322756  0.161479  0.250000  1
