# generated using pymatgen
data_Zr5Co16(ReSi4)3
_symmetry_space_group_name_H-M   'P 1'
_cell_length_a   12.05921800
_cell_length_b   12.05921825
_cell_length_c   3.68618500
_cell_angle_alpha   90.00000000
_cell_angle_beta   90.00000000
_cell_angle_gamma   119.99999384
_symmetry_Int_Tables_number   1
_chemical_formula_structural   Zr5Co16(ReSi4)3
_chemical_formula_sum   'Zr5 Co16 Re3 Si12'
_cell_volume   464.24377328
_cell_formula_units_Z   1
loop_
 _symmetry_equiv_pos_site_id
 _symmetry_equiv_pos_as_xyz
  1  'x, y, z'
loop_
 _atom_site_type_symbol
 _atom_site_label
 _atom_site_symmetry_multiplicity
 _atom_site_fract_x
 _atom_site_fract_y
 _atom_site_fract_z
 _atom_site_occupancy
  Zr  Zr0  1  0.666667  0.333333  0.000000  1
  Zr  Zr1  1  0.333333  0.666667  0.000000  1
  Zr  Zr2  1  0.813781  0.813781  0.500000  1
  Zr  Zr3  1  0.186219  0.000000  0.500000  1
  Zr  Zr4  1  0.000000  0.186219  0.500000  1
  Co  Co5  1  0.196718  0.374960  0.000000  1
  Co  Co6  1  0.178242  0.803282  0.000000  1
  Co  Co7  1  0.821758  0.625040  0.000000  1
  Co  Co8  1  0.803282  0.178242  0.000000  1
  Co  Co9  1  0.374960  0.196718  0.000000  1
  Co  Co10  1  0.124612  0.479445  0.500000  1
  Co  Co11  1  0.354833  0.875388  0.500000  1
  Co  Co12  1  0.520555  0.645167  0.500000  1
  Co  Co13  1  0.645167  0.520555  0.500000  1
  Co  Co14  1  0.875388  0.354833  0.500000  1
  Co  Co15  1  0.479445  0.124612  0.500000  1
  Co  Co16  1  0.000000  0.000000  0.000000  1
  Co  Co17  1  0.720895  0.000000  0.500000  1
  Co  Co18  1  0.000000  0.720895  0.500000  1
  Co  Co19  1  0.625040  0.821758  0.000000  1
  Co  Co20  1  0.279105  0.279105  0.500000  1
  Re  Re21  1  0.440028  0.440028  0.000000  1
  Re  Re22  1  0.559972  0.000000  0.000000  1
  Re  Re23  1  0.000000  0.559972  0.000000  1
  Si  Si24  1  0.639055  0.639055  0.000000  1
  Si  Si25  1  0.360945  0.000000  0.000000  1
  Si  Si26  1  0.000000  0.360945  0.000000  1
  Si  Si27  1  0.482310  0.315330  0.500000  1
  Si  Si28  1  0.684670  0.166979  0.500000  1
  Si  Si29  1  0.833021  0.517690  0.500000  1
  Si  Si30  1  0.517690  0.833021  0.500000  1
  Si  Si31  1  0.166979  0.684670  0.500000  1
  Si  Si32  1  0.820869  0.000000  0.000000  1
  Si  Si33  1  0.000000  0.820869  0.000000  1
  Si  Si34  1  0.315330  0.482310  0.500000  1
  Si  Si35  1  0.179131  0.179131  0.000000  1
