# generated using pymatgen
data_DyLu(AlRh)2
_symmetry_space_group_name_H-M   'P 1'
_cell_length_a   4.17423600
_cell_length_b   6.85967467
_cell_length_c   7.93155494
_cell_angle_alpha   90.91931392
_cell_angle_beta   90.00000000
_cell_angle_gamma   90.00000000
_symmetry_Int_Tables_number   1
_chemical_formula_structural   DyLu(AlRh)2
_chemical_formula_sum   'Dy2 Lu2 Al4 Rh4'
_cell_volume   227.08212492
_cell_formula_units_Z   2
loop_
 _symmetry_equiv_pos_site_id
 _symmetry_equiv_pos_as_xyz
  1  'x, y, z'
loop_
 _atom_site_type_symbol
 _atom_site_label
 _atom_site_symmetry_multiplicity
 _atom_site_fract_x
 _atom_site_fract_y
 _atom_site_fract_z
 _atom_site_occupancy
  Dy  Dy0  1  0.250000  0.534984  0.820610  1
  Dy  Dy1  1  0.750000  0.465016  0.179390  1
  Lu  Lu2  1  0.750000  0.964828  0.322254  1
  Lu  Lu3  1  0.250000  0.035172  0.677746  1
  Al  Al4  1  0.750000  0.865695  0.940333  1
  Al  Al5  1  0.250000  0.134305  0.059667  1
  Al  Al6  1  0.250000  0.638167  0.439276  1
  Al  Al7  1  0.750000  0.361833  0.560724  1
  Rh  Rh8  1  0.750000  0.740041  0.619048  1
  Rh  Rh9  1  0.250000  0.259959  0.380952  1
  Rh  Rh10  1  0.250000  0.767479  0.125115  1
  Rh  Rh11  1  0.750000  0.232521  0.874885  1
