# generated using pymatgen
data_Nd3Th5(CdTc)2
_symmetry_space_group_name_H-M   'P 1'
_cell_length_a   9.93064762
_cell_length_b   9.93064756
_cell_length_c   9.93064700
_cell_angle_alpha   59.99999852
_cell_angle_beta   59.99999872
_cell_angle_gamma   60.00000472
_symmetry_Int_Tables_number   1
_chemical_formula_structural   Nd3Th5(CdTc)2
_chemical_formula_sum   'Nd6 Th10 Cd4 Tc4'
_cell_volume   692.49667631
_cell_formula_units_Z   2
loop_
 _symmetry_equiv_pos_site_id
 _symmetry_equiv_pos_as_xyz
  1  'x, y, z'
loop_
 _atom_site_type_symbol
 _atom_site_label
 _atom_site_symmetry_multiplicity
 _atom_site_fract_x
 _atom_site_fract_y
 _atom_site_fract_z
 _atom_site_occupancy
  Nd  Nd0  1  0.188606  0.811394  0.811394  1
  Nd  Nd1  1  0.811394  0.188606  0.188606  1
  Nd  Nd2  1  0.811394  0.188606  0.811394  1
  Nd  Nd3  1  0.188606  0.811394  0.188606  1
  Nd  Nd4  1  0.811394  0.811394  0.188606  1
  Nd  Nd5  1  0.188606  0.188606  0.811394  1
  Th  Th6  1  0.596125  0.596125  0.596125  1
  Th  Th7  1  0.596125  0.596125  0.211625  1
  Th  Th8  1  0.596125  0.211625  0.596125  1
  Th  Th9  1  0.211625  0.596125  0.596125  1
  Th  Th10  1  0.060288  0.439712  0.439712  1
  Th  Th11  1  0.439712  0.060288  0.060288  1
  Th  Th12  1  0.439712  0.060288  0.439712  1
  Th  Th13  1  0.060288  0.439712  0.060288  1
  Th  Th14  1  0.439712  0.439712  0.060288  1
  Th  Th15  1  0.060288  0.060288  0.439712  1
  Cd  Cd16  1  0.830265  0.830265  0.830265  1
  Cd  Cd17  1  0.830265  0.830265  0.509205  1
  Cd  Cd18  1  0.830265  0.509205  0.830265  1
  Cd  Cd19  1  0.509205  0.830265  0.830265  1
  Tc  Tc20  1  0.387228  0.387228  0.387228  1
  Tc  Tc21  1  0.387228  0.387228  0.838317  1
  Tc  Tc22  1  0.387228  0.838317  0.387228  1
  Tc  Tc23  1  0.838317  0.387228  0.387228  1
