# generated using pymatgen
data_Tm4TiOs6W
_symmetry_space_group_name_H-M   'P 1'
_cell_length_a   5.49105800
_cell_length_b   5.23391641
_cell_length_c   8.90975000
_cell_angle_alpha   90.00000000
_cell_angle_beta   90.00000000
_cell_angle_gamma   121.63594831
_symmetry_Int_Tables_number   1
_chemical_formula_structural   Tm4TiOs6W
_chemical_formula_sum   'Tm4 Ti1 Os6 W1'
_cell_volume   218.01228258
_cell_formula_units_Z   1
loop_
 _symmetry_equiv_pos_site_id
 _symmetry_equiv_pos_as_xyz
  1  'x, y, z'
loop_
 _atom_site_type_symbol
 _atom_site_label
 _atom_site_symmetry_multiplicity
 _atom_site_fract_x
 _atom_site_fract_y
 _atom_site_fract_z
 _atom_site_occupancy
  Tm  Tm0  1  0.670419  0.341385  0.565986  1
  Tm  Tm1  1  0.331754  0.663769  0.438574  1
  Tm  Tm2  1  0.331754  0.663769  0.061426  1
  Tm  Tm3  1  0.670419  0.341385  0.934014  1
  Ti  Ti4  1  0.837187  0.672845  0.250000  1
  Os  Os5  1  0.004036  0.008758  0.498248  1
  Os  Os6  1  0.004036  0.008758  0.001752  1
  Os  Os7  1  0.173325  0.820043  0.750000  1
  Os  Os8  1  0.645941  0.820236  0.750000  1
  Os  Os9  1  0.824822  0.172746  0.250000  1
  Os  Os10  1  0.349690  0.172350  0.250000  1
  W  W11  1  0.156617  0.313956  0.750000  1
