# generated using pymatgen
data_Tb6NdSn23Ru6
_symmetry_space_group_name_H-M   'P 1'
_cell_length_a   9.88431900
_cell_length_b   9.88431808
_cell_length_c   10.11325200
_cell_angle_alpha   90.00000000
_cell_angle_beta   90.00000000
_cell_angle_gamma   120.00000643
_symmetry_Int_Tables_number   1
_chemical_formula_structural   Tb6NdSn23Ru6
_chemical_formula_sum   'Tb6 Nd1 Sn23 Ru6'
_cell_volume   855.68692953
_cell_formula_units_Z   1
loop_
 _symmetry_equiv_pos_site_id
 _symmetry_equiv_pos_as_xyz
  1  'x, y, z'
loop_
 _atom_site_type_symbol
 _atom_site_label
 _atom_site_symmetry_multiplicity
 _atom_site_fract_x
 _atom_site_fract_y
 _atom_site_fract_z
 _atom_site_occupancy
  Tb  Tb0  1  0.484017  0.515983  0.302720  1
  Tb  Tb1  1  0.515983  0.484017  0.697280  1
  Tb  Tb2  1  0.484017  0.968033  0.302720  1
  Tb  Tb3  1  0.515983  0.031967  0.697280  1
  Tb  Tb4  1  0.031967  0.515983  0.302720  1
  Tb  Tb5  1  0.968033  0.484017  0.697280  1
  Nd  Nd6  1  0.000000  0.000000  0.000000  1
  Sn  Sn7  1  0.349231  0.000000  0.000000  1
  Sn  Sn8  1  0.650769  0.000000  0.000000  1
  Sn  Sn9  1  0.000000  0.349231  0.000000  1
  Sn  Sn10  1  0.000000  0.650769  0.000000  1
  Sn  Sn11  1  0.650769  0.650769  0.000000  1
  Sn  Sn12  1  0.349231  0.349231  0.000000  1
  Sn  Sn13  1  0.333333  0.666667  0.821436  1
  Sn  Sn14  1  0.666667  0.333333  0.178564  1
  Sn  Sn15  1  0.000000  0.000000  0.500000  1
  Sn  Sn16  1  0.780514  0.219486  0.461875  1
  Sn  Sn17  1  0.219486  0.780514  0.538125  1
  Sn  Sn18  1  0.780514  0.561027  0.461875  1
  Sn  Sn19  1  0.219486  0.438973  0.538125  1
  Sn  Sn20  1  0.438973  0.219486  0.461875  1
  Sn  Sn21  1  0.561027  0.780514  0.538125  1
  Sn  Sn22  1  0.333333  0.666667  0.125529  1
  Sn  Sn23  1  0.666667  0.333333  0.874471  1
  Sn  Sn24  1  0.118139  0.881861  0.273968  1
  Sn  Sn25  1  0.881861  0.118139  0.726032  1
  Sn  Sn26  1  0.118139  0.236280  0.273968  1
  Sn  Sn27  1  0.881861  0.763720  0.726032  1
  Sn  Sn28  1  0.763720  0.881861  0.273968  1
  Sn  Sn29  1  0.236280  0.118139  0.726032  1
  Ru  Ru30  1  0.829964  0.170036  0.202327  1
  Ru  Ru31  1  0.170036  0.829964  0.797673  1
  Ru  Ru32  1  0.829964  0.659928  0.202327  1
  Ru  Ru33  1  0.170036  0.340072  0.797673  1
  Ru  Ru34  1  0.340072  0.170036  0.202327  1
  Ru  Ru35  1  0.659928  0.829964  0.797673  1
