# generated using pymatgen
data_LiAc3Zn2Pb3
_symmetry_space_group_name_H-M   'P 1'
_cell_length_a   4.88867200
_cell_length_b   4.88867238
_cell_length_c   12.52293600
_cell_angle_alpha   90.00000000
_cell_angle_beta   90.00000000
_cell_angle_gamma   120.00001099
_symmetry_Int_Tables_number   1
_chemical_formula_structural   LiAc3Zn2Pb3
_chemical_formula_sum   'Li1 Ac3 Zn2 Pb3'
_cell_volume   259.19020047
_cell_formula_units_Z   1
loop_
 _symmetry_equiv_pos_site_id
 _symmetry_equiv_pos_as_xyz
  1  'x, y, z'
loop_
 _atom_site_type_symbol
 _atom_site_label
 _atom_site_symmetry_multiplicity
 _atom_site_fract_x
 _atom_site_fract_y
 _atom_site_fract_z
 _atom_site_occupancy
  Li  Li0  1  0.666666  0.333333  0.500000  1
  Ac  Ac1  1  0.333334  0.666668  0.000000  1
  Ac  Ac2  1  0.333334  0.666668  0.334107  1
  Ac  Ac3  1  0.333334  0.666668  0.665893  1
  Zn  Zn4  1  0.000000  0.000000  0.120063  1
  Zn  Zn5  1  0.000000  0.000000  0.879937  1
  Pb  Pb6  1  0.666666  0.333333  0.184844  1
  Pb  Pb7  1  0.000000  0.000000  0.500000  1
  Pb  Pb8  1  0.666666  0.333333  0.815156  1
