# generated using pymatgen
data_Ce2Ho7Tm(Al2Ru3)2
_symmetry_space_group_name_H-M   'P 1'
_cell_length_a   8.43223900
_cell_length_b   8.34336872
_cell_length_c   8.31765775
_cell_angle_alpha   109.89942879
_cell_angle_beta   109.41012326
_cell_angle_gamma   110.22358552
_symmetry_Int_Tables_number   1
_chemical_formula_structural   Ce2Ho7Tm(Al2Ru3)2
_chemical_formula_sum   'Ce2 Ho7 Tm1 Al4 Ru6'
_cell_volume   444.11806300
_cell_formula_units_Z   1
loop_
 _symmetry_equiv_pos_site_id
 _symmetry_equiv_pos_as_xyz
  1  'x, y, z'
loop_
 _atom_site_type_symbol
 _atom_site_label
 _atom_site_symmetry_multiplicity
 _atom_site_fract_x
 _atom_site_fract_y
 _atom_site_fract_z
 _atom_site_occupancy
  Ce  Ce0  1  0.944254  0.251705  0.195437  1
  Ce  Ce1  1  0.196810  0.941939  0.251100  1
  Ho  Ho2  1  0.782103  0.786709  0.779392  1
  Ho  Ho3  1  0.317692  0.566470  0.754137  1
  Ho  Ho4  1  0.750952  0.317464  0.568815  1
  Ho  Ho5  1  0.567422  0.747783  0.313093  1
  Ho  Ho6  1  0.719681  0.502296  0.998641  1
  Ho  Ho7  1  0.999034  0.719742  0.506027  1
  Ho  Ho8  1  0.500996  0.993181  0.716791  1
  Tm  Tm9  1  0.253709  0.186673  0.931926  1
  Al  Al10  1  0.415432  0.410731  0.408050  1
  Al  Al11  1  0.092446  0.491716  0.996188  1
  Al  Al12  1  0.998341  0.091778  0.503603  1
  Al  Al13  1  0.502627  0.009787  0.094167  1
  Ru  Ru14  1  0.869127  0.117254  0.741782  1
  Ru  Ru15  1  0.753969  0.901530  0.122582  1
  Ru  Ru16  1  0.127224  0.763049  0.906828  1
  Ru  Ru17  1  0.224674  0.593008  0.363875  1
  Ru  Ru18  1  0.358335  0.223288  0.596726  1
  Ru  Ru19  1  0.625170  0.383899  0.250841  1
