# generated using pymatgen
data_Li4La3TbSi8
_symmetry_space_group_name_H-M   'P 1'
_cell_length_a   3.89478200
_cell_length_b   7.78893274
_cell_length_c   10.59820202
_cell_angle_alpha   89.87451972
_cell_angle_beta   90.00000000
_cell_angle_gamma   90.00000000
_symmetry_Int_Tables_number   1
_chemical_formula_structural   Li4La3TbSi8
_chemical_formula_sum   'Li4 La3 Tb1 Si8'
_cell_volume   321.50835267
_cell_formula_units_Z   1
loop_
 _symmetry_equiv_pos_site_id
 _symmetry_equiv_pos_as_xyz
  1  'x, y, z'
loop_
 _atom_site_type_symbol
 _atom_site_label
 _atom_site_symmetry_multiplicity
 _atom_site_fract_x
 _atom_site_fract_y
 _atom_site_fract_z
 _atom_site_occupancy
  Li  Li0  1  0.250000  0.995046  0.389606  1
  Li  Li1  1  0.750000  0.002866  0.610846  1
  Li  Li2  1  0.250000  0.496187  0.106942  1
  Li  Li3  1  0.750000  0.508609  0.890501  1
  La  La4  1  0.750000  0.863523  0.135222  1
  La  La5  1  0.250000  0.637103  0.637426  1
  La  La6  1  0.750000  0.360089  0.364890  1
  Tb  Tb7  1  0.250000  0.132506  0.865032  1
  Si  Si8  1  0.750000  0.272774  0.064310  1
  Si  Si9  1  0.250000  0.735910  0.928945  1
  Si  Si10  1  0.750000  0.772458  0.428781  1
  Si  Si11  1  0.250000  0.220860  0.577519  1
  Si  Si12  1  0.750000  0.841447  0.821984  1
  Si  Si13  1  0.250000  0.166209  0.171437  1
  Si  Si14  1  0.750000  0.329164  0.683686  1
  Si  Si15  1  0.250000  0.665250  0.322872  1
