# generated using pymatgen
data_Ho2Er2Ga5Tc3
_symmetry_space_group_name_H-M   'P 1'
_cell_length_a   5.45746702
_cell_length_b   5.51685632
_cell_length_c   8.68417600
_cell_angle_alpha   90.00000177
_cell_angle_beta   90.00140939
_cell_angle_gamma   120.36064344
_symmetry_Int_Tables_number   1
_chemical_formula_structural   Ho2Er2Ga5Tc3
_chemical_formula_sum   'Ho2 Er2 Ga5 Tc3'
_cell_volume   225.60684924
_cell_formula_units_Z   1
loop_
 _symmetry_equiv_pos_site_id
 _symmetry_equiv_pos_as_xyz
  1  'x, y, z'
loop_
 _atom_site_type_symbol
 _atom_site_label
 _atom_site_symmetry_multiplicity
 _atom_site_fract_x
 _atom_site_fract_y
 _atom_site_fract_z
 _atom_site_occupancy
  Ho  Ho0  1  0.334451  0.667226  0.443452  1
  Ho  Ho1  1  0.662598  0.331299  0.552238  1
  Er  Er2  1  0.662594  0.331297  0.947778  1
  Er  Er3  1  0.334524  0.667263  0.056501  1
  Ga  Ga4  1  0.835472  0.164858  0.249969  1
  Ga  Ga5  1  0.835472  0.670615  0.249969  1
  Ga  Ga6  1  0.326528  0.163265  0.249971  1
  Ga  Ga7  1  0.189242  0.841223  0.750039  1
  Ga  Ga8  1  0.189242  0.348018  0.750039  1
  Tc  Tc9  1  0.975702  0.987851  0.510052  1
  Tc  Tc10  1  0.975645  0.987823  0.989942  1
  Tc  Tc11  1  0.678529  0.839264  0.750050  1
