# generated using pymatgen
data_Tm20Ga3GeBi8
_symmetry_space_group_name_H-M   'P 1'
_cell_length_a   8.01841758
_cell_length_b   9.19631000
_cell_length_c   11.86955887
_cell_angle_alpha   90.00000000
_cell_angle_beta   90.13037313
_cell_angle_gamma   90.00000000
_symmetry_Int_Tables_number   1
_chemical_formula_structural   Tm20Ga3GeBi8
_chemical_formula_sum   'Tm20 Ga3 Ge1 Bi8'
_cell_volume   875.25726945
_cell_formula_units_Z   1
loop_
 _symmetry_equiv_pos_site_id
 _symmetry_equiv_pos_as_xyz
  1  'x, y, z'
loop_
 _atom_site_type_symbol
 _atom_site_label
 _atom_site_symmetry_multiplicity
 _atom_site_fract_x
 _atom_site_fract_y
 _atom_site_fract_z
 _atom_site_occupancy
  Tm  Tm0  1  0.680357  0.944259  0.438041  1
  Tm  Tm1  1  0.819498  0.555859  0.938116  1
  Tm  Tm2  1  0.320370  0.444096  0.562549  1
  Tm  Tm3  1  0.178799  0.056152  0.060967  1
  Tm  Tm4  1  0.320370  0.055904  0.562549  1
  Tm  Tm5  1  0.178799  0.443848  0.060967  1
  Tm  Tm6  1  0.680357  0.555741  0.438041  1
  Tm  Tm7  1  0.819498  0.944141  0.938116  1
  Tm  Tm8  1  0.328309  0.750000  0.284300  1
  Tm  Tm9  1  0.173707  0.750000  0.784203  1
  Tm  Tm10  1  0.676358  0.250000  0.718019  1
  Tm  Tm11  1  0.828973  0.250000  0.213731  1
  Tm  Tm12  1  0.038190  0.750000  0.496288  1
  Tm  Tm13  1  0.462671  0.750000  0.997791  1
  Tm  Tm14  1  0.963789  0.250000  0.502698  1
  Tm  Tm15  1  0.535544  0.250000  0.003650  1
  Tm  Tm16  1  0.855820  0.750000  0.206165  1
  Tm  Tm17  1  0.642826  0.750000  0.706998  1
  Tm  Tm18  1  0.143211  0.250000  0.792388  1
  Tm  Tm19  1  0.355923  0.250000  0.294767  1
  Ga  Ga20  1  0.094765  0.750000  0.024840  1
  Ga  Ga21  1  0.406801  0.750000  0.525225  1
  Ga  Ga22  1  0.903304  0.250000  0.972377  1
  Ge  Ge23  1  0.593360  0.250000  0.477955  1
  Bi  Bi24  1  0.563043  0.990551  0.175871  1
  Bi  Bi25  1  0.936240  0.511577  0.674141  1
  Bi  Bi26  1  0.436664  0.488634  0.824775  1
  Bi  Bi27  1  0.063253  0.010672  0.324843  1
  Bi  Bi28  1  0.436664  0.011366  0.824775  1
  Bi  Bi29  1  0.063253  0.489328  0.324843  1
  Bi  Bi30  1  0.563043  0.509449  0.175871  1
  Bi  Bi31  1  0.936240  0.988423  0.674141  1
