# generated using pymatgen
data_Rb(SnSe2)4
_symmetry_space_group_name_H-M   'P 1'
_cell_length_a   10.16683109
_cell_length_b   10.16683094
_cell_length_c   10.16683086
_cell_angle_alpha   45.44268992
_cell_angle_beta   45.44269010
_cell_angle_gamma   45.44269502
_symmetry_Int_Tables_number   1
_chemical_formula_structural   Rb(SnSe2)4
_chemical_formula_sum   'Rb1 Sn4 Se8'
_cell_volume   486.09609531
_cell_formula_units_Z   1
loop_
 _symmetry_equiv_pos_site_id
 _symmetry_equiv_pos_as_xyz
  1  'x, y, z'
loop_
 _atom_site_type_symbol
 _atom_site_label
 _atom_site_symmetry_multiplicity
 _atom_site_fract_x
 _atom_site_fract_y
 _atom_site_fract_z
 _atom_site_occupancy
  Rb  Rb0  1  0.500000  0.500000  0.500000  1
  Sn  Sn1  1  0.000000  0.500000  0.500000  1
  Sn  Sn2  1  0.500000  0.000000  0.500000  1
  Sn  Sn3  1  0.500000  0.500000  0.000000  1
  Sn  Sn4  1  0.000000  0.000000  0.000000  1
  Se  Se5  1  0.279138  0.773021  0.773021  1
  Se  Se6  1  0.226979  0.226979  0.720862  1
  Se  Se7  1  0.720862  0.226979  0.226979  1
  Se  Se8  1  0.226979  0.720862  0.226979  1
  Se  Se9  1  0.275615  0.275615  0.275615  1
  Se  Se10  1  0.724385  0.724385  0.724385  1
  Se  Se11  1  0.773021  0.279138  0.773021  1
  Se  Se12  1  0.773021  0.773021  0.279138  1
