# generated using pymatgen
data_BaAl3Ga
_symmetry_space_group_name_H-M   'P 1'
_cell_length_a   6.50045469
_cell_length_b   6.50045486
_cell_length_c   6.50045498
_cell_angle_alpha   138.95599200
_cell_angle_beta   138.95599203
_cell_angle_gamma   59.44196047
_symmetry_Int_Tables_number   1
_chemical_formula_structural   BaAl3Ga
_chemical_formula_sum   'Ba1 Al3 Ga1'
_cell_volume   117.26767624
_cell_formula_units_Z   1
loop_
 _symmetry_equiv_pos_site_id
 _symmetry_equiv_pos_as_xyz
  1  'x, y, z'
loop_
 _atom_site_type_symbol
 _atom_site_label
 _atom_site_symmetry_multiplicity
 _atom_site_fract_x
 _atom_site_fract_y
 _atom_site_fract_z
 _atom_site_occupancy
  Ba  Ba0  1  0.999098  0.999098  0.000000  1
  Al  Al1  1  0.619930  0.619930  0.000000  1
  Al  Al2  1  0.250741  0.750741  0.500000  1
  Al  Al3  1  0.750741  0.250741  0.500000  1
  Ga  Ga4  1  0.379489  0.379489  0.000000  1
