# generated using pymatgen
data_NdLu3(MoO6)2
_symmetry_space_group_name_H-M   'P 1'
_cell_length_a   5.35191700
_cell_length_b   7.67543944
_cell_length_c   11.39443614
_cell_angle_alpha   75.43278516
_cell_angle_beta   90.00000000
_cell_angle_gamma   90.00000000
_symmetry_Int_Tables_number   1
_chemical_formula_structural   NdLu3(MoO6)2
_chemical_formula_sum   'Nd2 Lu6 Mo4 O24'
_cell_volume   453.01749048
_cell_formula_units_Z   2
loop_
 _symmetry_equiv_pos_site_id
 _symmetry_equiv_pos_as_xyz
  1  'x, y, z'
loop_
 _atom_site_type_symbol
 _atom_site_label
 _atom_site_symmetry_multiplicity
 _atom_site_fract_x
 _atom_site_fract_y
 _atom_site_fract_z
 _atom_site_occupancy
  Nd  Nd0  1  0.315683  0.500000  0.750000  1
  Nd  Nd1  1  0.684317  0.500000  0.250000  1
  Lu  Lu2  1  0.257102  0.000000  0.750000  1
  Lu  Lu3  1  0.183860  0.800776  0.077976  1
  Lu  Lu4  1  0.183860  0.199224  0.422024  1
  Lu  Lu5  1  0.742898  0.000000  0.250000  1
  Lu  Lu6  1  0.816140  0.199224  0.922024  1
  Lu  Lu7  1  0.816140  0.800776  0.577976  1
  Mo  Mo8  1  0.745959  0.727538  0.885424  1
  Mo  Mo9  1  0.254041  0.727538  0.385424  1
  Mo  Mo10  1  0.745959  0.272462  0.614576  1
  Mo  Mo11  1  0.254041  0.272462  0.114576  1
  O  O12  1  0.538293  0.155289  0.070202  1
  O  O13  1  0.035945  0.056751  0.102800  1
  O  O14  1  0.013221  0.724438  0.766201  1
  O  O15  1  0.461707  0.155289  0.570202  1
  O  O16  1  0.341064  0.491851  0.387498  1
  O  O17  1  0.964055  0.056751  0.602800  1
  O  O18  1  0.538571  0.797768  0.722541  1
  O  O19  1  0.461429  0.797768  0.222541  1
  O  O20  1  0.144470  0.641848  0.546787  1
  O  O21  1  0.035945  0.943249  0.397200  1
  O  O22  1  0.461707  0.844711  0.929798  1
  O  O23  1  0.461429  0.202232  0.277459  1
  O  O24  1  0.855530  0.358152  0.453213  1
  O  O25  1  0.658936  0.491851  0.887498  1
  O  O26  1  0.341064  0.508149  0.112502  1
  O  O27  1  0.964055  0.943249  0.897200  1
  O  O28  1  0.538293  0.844711  0.429798  1
  O  O29  1  0.986779  0.275562  0.233799  1
  O  O30  1  0.538571  0.202232  0.777459  1
  O  O31  1  0.855530  0.641848  0.046787  1
  O  O32  1  0.013221  0.275562  0.733799  1
  O  O33  1  0.144470  0.358152  0.953213  1
  O  O34  1  0.986779  0.724438  0.266201  1
  O  O35  1  0.658936  0.508149  0.612502  1
