# generated using pymatgen
data_Eu3Dy2Mo3(P3Ir4)4
_symmetry_space_group_name_H-M   'P 1'
_cell_length_a   12.74795500
_cell_length_b   12.74795399
_cell_length_c   4.01023000
_cell_angle_alpha   90.00000000
_cell_angle_beta   90.00000000
_cell_angle_gamma   120.00000002
_symmetry_Int_Tables_number   1
_chemical_formula_structural   Eu3Dy2Mo3(P3Ir4)4
_chemical_formula_sum   'Eu3 Dy2 Mo3 P12 Ir16'
_cell_volume   564.39209500
_cell_formula_units_Z   1
loop_
 _symmetry_equiv_pos_site_id
 _symmetry_equiv_pos_as_xyz
  1  'x, y, z'
loop_
 _atom_site_type_symbol
 _atom_site_label
 _atom_site_symmetry_multiplicity
 _atom_site_fract_x
 _atom_site_fract_y
 _atom_site_fract_z
 _atom_site_occupancy
  Eu  Eu0  1  0.000000  0.814446  0.000000  1
  Eu  Eu1  1  0.185554  0.185554  0.000000  1
  Eu  Eu2  1  0.814446  0.000000  0.000000  1
  Dy  Dy3  1  0.333333  0.666667  0.500000  1
  Dy  Dy4  1  0.666667  0.333333  0.500000  1
  Mo  Mo5  1  0.000000  0.454204  0.500000  1
  Mo  Mo6  1  0.545796  0.545796  0.500000  1
  Mo  Mo7  1  0.454204  0.000000  0.500000  1
  P  P8  1  0.000000  0.637819  0.500000  1
  P  P9  1  0.362181  0.362181  0.500000  1
  P  P10  1  0.637819  0.000000  0.500000  1
  P  P11  1  0.517025  0.685555  0.000000  1
  P  P12  1  0.314445  0.831470  0.000000  1
  P  P13  1  0.168530  0.482975  0.000000  1
  P  P14  1  0.482975  0.168530  0.000000  1
  P  P15  1  0.685555  0.517025  0.000000  1
  P  P16  1  0.831470  0.314445  0.000000  1
  P  P17  1  0.000000  0.179794  0.500000  1
  P  P18  1  0.820206  0.820206  0.500000  1
  P  P19  1  0.179794  0.000000  0.500000  1
  Ir  Ir20  1  0.507168  0.866214  0.000000  1
  Ir  Ir21  1  0.133786  0.640955  0.000000  1
  Ir  Ir22  1  0.359045  0.492832  0.000000  1
  Ir  Ir23  1  0.492832  0.359045  0.000000  1
  Ir  Ir24  1  0.866214  0.507168  0.000000  1
  Ir  Ir25  1  0.640955  0.133786  0.000000  1
  Ir  Ir26  1  0.000000  0.287329  0.000000  1
  Ir  Ir27  1  0.712671  0.712671  0.000000  1
  Ir  Ir28  1  0.287329  0.000000  0.000000  1
  Ir  Ir29  1  0.620875  0.800142  0.500000  1
  Ir  Ir30  1  0.199858  0.820733  0.500000  1
  Ir  Ir31  1  0.179267  0.379125  0.500000  1
  Ir  Ir32  1  0.379125  0.179267  0.500000  1
  Ir  Ir33  1  0.800142  0.620875  0.500000  1
  Ir  Ir34  1  0.820733  0.199858  0.500000  1
  Ir  Ir35  1  0.000000  0.000000  0.500000  1
