# generated using pymatgen
data_LiHo8Lu2In7
_symmetry_space_group_name_H-M   'P 1'
_cell_length_a   9.21057300
_cell_length_b   9.21057394
_cell_length_c   6.59359800
_cell_angle_alpha   90.00000000
_cell_angle_beta   90.00000000
_cell_angle_gamma   120.00000021
_symmetry_Int_Tables_number   1
_chemical_formula_structural   LiHo8Lu2In7
_chemical_formula_sum   'Li1 Ho8 Lu2 In7'
_cell_volume   484.42487803
_cell_formula_units_Z   1
loop_
 _symmetry_equiv_pos_site_id
 _symmetry_equiv_pos_as_xyz
  1  'x, y, z'
loop_
 _atom_site_type_symbol
 _atom_site_label
 _atom_site_symmetry_multiplicity
 _atom_site_fract_x
 _atom_site_fract_y
 _atom_site_fract_z
 _atom_site_occupancy
  Li  Li0  1  0.000000  0.000000  0.500000  1
  Ho  Ho1  1  0.333333  0.666667  0.500000  1
  Ho  Ho2  1  0.666667  0.333333  0.500000  1
  Ho  Ho3  1  0.297070  0.000000  0.752409  1
  Ho  Ho4  1  0.702930  0.000000  0.247591  1
  Ho  Ho5  1  0.000000  0.297070  0.752409  1
  Ho  Ho6  1  0.000000  0.702930  0.247591  1
  Ho  Ho7  1  0.702930  0.702930  0.752409  1
  Ho  Ho8  1  0.297070  0.297070  0.247591  1
  Lu  Lu9  1  0.666667  0.333333  0.000000  1
  Lu  Lu10  1  0.333333  0.666667  0.000000  1
  In  In11  1  0.000000  0.000000  0.000000  1
  In  In12  1  0.636146  0.000000  0.747453  1
  In  In13  1  0.363854  0.000000  0.252547  1
  In  In14  1  0.000000  0.636146  0.747453  1
  In  In15  1  0.000000  0.363854  0.252547  1
  In  In16  1  0.363854  0.363854  0.747453  1
  In  In17  1  0.636146  0.636146  0.252547  1
