# generated using pymatgen
data_La11In9(CuRu)2
_symmetry_space_group_name_H-M   'P 1'
_cell_length_a   13.73078182
_cell_length_b   13.65629007
_cell_length_c   3.86155800
_cell_angle_alpha   90.00000000
_cell_angle_beta   90.00000000
_cell_angle_gamma   111.58104105
_symmetry_Int_Tables_number   1
_chemical_formula_structural   La11In9(CuRu)2
_chemical_formula_sum   'La11 In9 Cu2 Ru2'
_cell_volume   673.32693849
_cell_formula_units_Z   1
loop_
 _symmetry_equiv_pos_site_id
 _symmetry_equiv_pos_as_xyz
  1  'x, y, z'
loop_
 _atom_site_type_symbol
 _atom_site_label
 _atom_site_symmetry_multiplicity
 _atom_site_fract_x
 _atom_site_fract_y
 _atom_site_fract_z
 _atom_site_occupancy
  La  La0  1  0.077279  0.419571  0.000000  1
  La  La1  1  0.922721  0.580429  0.000000  1
  La  La2  1  0.420207  0.073322  0.000000  1
  La  La3  1  0.579793  0.926678  0.000000  1
  La  La4  1  0.635677  0.383147  0.000000  1
  La  La5  1  0.364323  0.616853  0.000000  1
  La  La6  1  0.840377  0.157059  0.000000  1
  La  La7  1  0.159623  0.842941  0.000000  1
  La  La8  1  0.000000  0.000000  0.000000  1
  La  La9  1  0.305047  0.318257  0.000000  1
  La  La10  1  0.694953  0.681743  0.000000  1
  In  In11  1  0.833556  0.362712  0.500000  1
  In  In12  1  0.166444  0.637288  0.500000  1
  In  In13  1  0.366964  0.836999  0.500000  1
  In  In14  1  0.633036  0.163001  0.500000  1
  In  In15  1  0.079411  0.220369  0.500000  1
  In  In16  1  0.920589  0.779631  0.500000  1
  In  In17  1  0.220545  0.078986  0.500000  1
  In  In18  1  0.779455  0.921014  0.500000  1
  In  In19  1  0.500000  0.500000  0.500000  1
  Cu  Cu20  1  0.451423  0.251717  0.500000  1
  Cu  Cu21  1  0.548577  0.748283  0.500000  1
  Ru  Ru22  1  0.232430  0.445940  0.500000  1
  Ru  Ru23  1  0.767570  0.554060  0.500000  1
