# generated using pymatgen
data_Er2CoSn2Ru
_symmetry_space_group_name_H-M   'P 1'
_cell_length_a   4.67080500
_cell_length_b   7.25713252
_cell_length_c   7.34993454
_cell_angle_alpha   90.40240067
_cell_angle_beta   90.00000000
_cell_angle_gamma   90.00000000
_symmetry_Int_Tables_number   1
_chemical_formula_structural   Er2CoSn2Ru
_chemical_formula_sum   'Er4 Co2 Sn4 Ru2'
_cell_volume   249.13202074
_cell_formula_units_Z   2
loop_
 _symmetry_equiv_pos_site_id
 _symmetry_equiv_pos_as_xyz
  1  'x, y, z'
loop_
 _atom_site_type_symbol
 _atom_site_label
 _atom_site_symmetry_multiplicity
 _atom_site_fract_x
 _atom_site_fract_y
 _atom_site_fract_z
 _atom_site_occupancy
  Er  Er0  1  0.250000  0.482031  0.698519  1
  Er  Er1  1  0.250000  0.972106  0.798699  1
  Er  Er2  1  0.750000  0.027894  0.201301  1
  Er  Er3  1  0.750000  0.517969  0.301481  1
  Co  Co4  1  0.750000  0.343847  0.947560  1
  Co  Co5  1  0.250000  0.656153  0.052440  1
  Sn  Sn6  1  0.750000  0.699530  0.897444  1
  Sn  Sn7  1  0.250000  0.789087  0.383335  1
  Sn  Sn8  1  0.250000  0.300470  0.102556  1
  Sn  Sn9  1  0.750000  0.210913  0.616665  1
  Ru  Ru10  1  0.750000  0.842514  0.558093  1
  Ru  Ru11  1  0.250000  0.157486  0.441907  1
