# generated using pymatgen
data_Dy4Sb6RuRh6
_symmetry_space_group_name_H-M   'P 1'
_cell_length_a   7.59594546
_cell_length_b   7.59594639
_cell_length_c   7.59594600
_cell_angle_alpha   109.47121960
_cell_angle_beta   109.47122206
_cell_angle_gamma   109.47122429
_symmetry_Int_Tables_number   1
_chemical_formula_structural   Dy4Sb6RuRh6
_chemical_formula_sum   'Dy4 Sb6 Ru1 Rh6'
_cell_volume   337.38338023
_cell_formula_units_Z   1
loop_
 _symmetry_equiv_pos_site_id
 _symmetry_equiv_pos_as_xyz
  1  'x, y, z'
loop_
 _atom_site_type_symbol
 _atom_site_label
 _atom_site_symmetry_multiplicity
 _atom_site_fract_x
 _atom_site_fract_y
 _atom_site_fract_z
 _atom_site_occupancy
  Dy  Dy0  1  0.500000  0.000000  0.000000  1
  Dy  Dy1  1  0.000000  0.500000  0.000000  1
  Dy  Dy2  1  0.000000  0.000000  0.500000  1
  Dy  Dy3  1  0.500000  0.500000  0.500000  1
  Sb  Sb4  1  0.000000  0.315137  0.315137  1
  Sb  Sb5  1  0.684863  0.000000  0.684863  1
  Sb  Sb6  1  0.684863  0.684863  0.000000  1
  Sb  Sb7  1  0.000000  0.684863  0.684863  1
  Sb  Sb8  1  0.315137  0.000000  0.315137  1
  Sb  Sb9  1  0.315137  0.315137  0.000000  1
  Ru  Ru10  1  0.000000  0.000000  0.000000  1
  Rh  Rh11  1  0.500000  0.750000  0.250000  1
  Rh  Rh12  1  0.750000  0.500000  0.250000  1
  Rh  Rh13  1  0.250000  0.750000  0.500000  1
  Rh  Rh14  1  0.250000  0.500000  0.750000  1
  Rh  Rh15  1  0.500000  0.250000  0.750000  1
  Rh  Rh16  1  0.750000  0.250000  0.500000  1
