# generated using pymatgen
data_Dy(Zn5Ga)2
_symmetry_space_group_name_H-M   'P 1'
_cell_length_a   6.81737982
_cell_length_b   6.81737989
_cell_length_c   6.81738054
_cell_angle_alpha   100.27754566
_cell_angle_beta   97.62317419
_cell_angle_gamma   133.54516762
_symmetry_Int_Tables_number   1
_chemical_formula_structural   Dy(Zn5Ga)2
_chemical_formula_sum   'Dy1 Zn10 Ga2'
_cell_volume   210.96986915
_cell_formula_units_Z   1
loop_
 _symmetry_equiv_pos_site_id
 _symmetry_equiv_pos_as_xyz
  1  'x, y, z'
loop_
 _atom_site_type_symbol
 _atom_site_label
 _atom_site_symmetry_multiplicity
 _atom_site_fract_x
 _atom_site_fract_y
 _atom_site_fract_z
 _atom_site_occupancy
  Dy  Dy0  1  0.000000  0.000000  0.000000  1
  Zn  Zn1  1  0.000000  0.000000  0.500000  1
  Zn  Zn2  1  0.500000  0.500000  0.500000  1
  Zn  Zn3  1  0.500000  0.000000  0.000000  1
  Zn  Zn4  1  0.000000  0.500000  0.000000  1
  Zn  Zn5  1  0.648605  0.000000  0.648605  1
  Zn  Zn6  1  0.351395  0.000000  0.351395  1
  Zn  Zn7  1  0.500000  0.273106  0.773106  1
  Zn  Zn8  1  0.500000  0.726894  0.226894  1
  Zn  Zn9  1  0.699320  0.500000  0.199320  1
  Zn  Zn10  1  0.300680  0.500000  0.800680  1
  Ga  Ga11  1  0.000000  0.354659  0.354659  1
  Ga  Ga12  1  0.000000  0.645341  0.645341  1
