# generated using pymatgen
data_ZrZn3Rh4
_symmetry_space_group_name_H-M   'P 1'
_cell_length_a   7.53708741
_cell_length_b   7.53708780
_cell_length_c   7.53708720
_cell_angle_alpha   33.94430118
_cell_angle_beta   33.94431144
_cell_angle_gamma   33.94430458
_symmetry_Int_Tables_number   1
_chemical_formula_structural   ZrZn3Rh4
_chemical_formula_sum   'Zr1 Zn3 Rh4'
_cell_volume   118.98759574
_cell_formula_units_Z   1
loop_
 _symmetry_equiv_pos_site_id
 _symmetry_equiv_pos_as_xyz
  1  'x, y, z'
loop_
 _atom_site_type_symbol
 _atom_site_label
 _atom_site_symmetry_multiplicity
 _atom_site_fract_x
 _atom_site_fract_y
 _atom_site_fract_z
 _atom_site_occupancy
  Zr  Zr0  1  0.000000  0.000000  0.000000  1
  Zn  Zn1  1  0.249575  0.249575  0.249575  1
  Zn  Zn2  1  0.750425  0.750425  0.750425  1
  Zn  Zn3  1  0.500000  0.500000  0.500000  1
  Rh  Rh4  1  0.621812  0.621812  0.621812  1
  Rh  Rh5  1  0.126894  0.126894  0.126894  1
  Rh  Rh6  1  0.873106  0.873106  0.873106  1
  Rh  Rh7  1  0.378188  0.378188  0.378188  1
