# generated using pymatgen
data_Tb3Ce3Tm2(AlRh)8
_symmetry_space_group_name_H-M   'P 1'
_cell_length_a   4.20124300
_cell_length_b   6.99648469
_cell_length_c   15.83035707
_cell_angle_alpha   90.86291883
_cell_angle_beta   90.00000000
_cell_angle_gamma   90.00000000
_symmetry_Int_Tables_number   1
_chemical_formula_structural   Tb3Ce3Tm2(AlRh)8
_chemical_formula_sum   'Tb3 Ce3 Tm2 Al8 Rh8'
_cell_volume   465.26367195
_cell_formula_units_Z   1
loop_
 _symmetry_equiv_pos_site_id
 _symmetry_equiv_pos_as_xyz
  1  'x, y, z'
loop_
 _atom_site_type_symbol
 _atom_site_label
 _atom_site_symmetry_multiplicity
 _atom_site_fract_x
 _atom_site_fract_y
 _atom_site_fract_z
 _atom_site_occupancy
  Tb  Tb0  1  0.750000  0.843983  0.441438  1
  Tb  Tb1  1  0.750000  0.340515  0.058162  1
  Tb  Tb2  1  0.250000  0.033635  0.779843  1
  Ce  Ce3  1  0.750000  0.962795  0.220194  1
  Ce  Ce4  1  0.250000  0.535643  0.720715  1
  Ce  Ce5  1  0.750000  0.463839  0.279355  1
  Tm  Tm6  1  0.250000  0.163129  0.560873  1
  Tm  Tm7  1  0.250000  0.655730  0.939224  1
  Al  Al8  1  0.250000  0.136086  0.354615  1
  Al  Al9  1  0.750000  0.872770  0.649539  1
  Al  Al10  1  0.250000  0.635625  0.145265  1
  Al  Al11  1  0.750000  0.357373  0.853004  1
  Al  Al12  1  0.250000  0.001787  0.059979  1
  Al  Al13  1  0.750000  0.990955  0.935683  1
  Al  Al14  1  0.250000  0.507676  0.440480  1
  Al  Al15  1  0.750000  0.501910  0.561218  1
  Rh  Rh16  1  0.750000  0.272461  0.431176  1
  Rh  Rh17  1  0.250000  0.738626  0.573641  1
  Rh  Rh18  1  0.750000  0.768860  0.067437  1
  Rh  Rh19  1  0.250000  0.229897  0.931639  1
  Rh  Rh20  1  0.750000  0.729034  0.814238  1
  Rh  Rh21  1  0.250000  0.252233  0.188126  1
  Rh  Rh22  1  0.750000  0.256176  0.682120  1
  Rh  Rh23  1  0.250000  0.749261  0.312037  1
