# generated using pymatgen
data_Pr2Si2(Tc5C)3
_symmetry_space_group_name_H-M   'P 1'
_cell_length_a   6.95435095
_cell_length_b   6.95435186
_cell_length_c   6.98030143
_cell_angle_alpha   82.45044569
_cell_angle_beta   82.45045226
_cell_angle_gamma   83.18661189
_symmetry_Int_Tables_number   1
_chemical_formula_structural   Pr2Si2(Tc5C)3
_chemical_formula_sum   'Pr2 Si2 Tc15 C3'
_cell_volume   329.99116656
_cell_formula_units_Z   1
loop_
 _symmetry_equiv_pos_site_id
 _symmetry_equiv_pos_as_xyz
  1  'x, y, z'
loop_
 _atom_site_type_symbol
 _atom_site_label
 _atom_site_symmetry_multiplicity
 _atom_site_fract_x
 _atom_site_fract_y
 _atom_site_fract_z
 _atom_site_occupancy
  Pr  Pr0  1  0.652446  0.652446  0.652263  1
  Pr  Pr1  1  0.347554  0.347554  0.347737  1
  Si  Si2  1  0.500000  0.000000  0.000000  1
  Si  Si3  1  0.000000  0.500000  0.000000  1
  Tc  Tc4  1  0.000000  0.000000  0.500000  1
  Tc  Tc5  1  0.723805  0.276195  0.000000  1
  Tc  Tc6  1  0.003308  0.722747  0.275092  1
  Tc  Tc7  1  0.277253  0.996692  0.724908  1
  Tc  Tc8  1  0.996692  0.277253  0.724908  1
  Tc  Tc9  1  0.722747  0.003308  0.275092  1
  Tc  Tc10  1  0.276195  0.723805  0.000000  1
  Tc  Tc11  1  0.342452  0.342452  0.865688  1
  Tc  Tc12  1  0.857205  0.353504  0.347927  1
  Tc  Tc13  1  0.353504  0.857205  0.347927  1
  Tc  Tc14  1  0.657548  0.657548  0.134312  1
  Tc  Tc15  1  0.142795  0.646496  0.652073  1
  Tc  Tc16  1  0.646496  0.142795  0.652073  1
  Tc  Tc17  1  0.901435  0.901435  0.901823  1
  Tc  Tc18  1  0.098565  0.098565  0.098177  1
  C  C19  1  0.500000  0.500000  0.000000  1
  C  C20  1  0.000000  0.500000  0.500000  1
  C  C21  1  0.500000  0.000000  0.500000  1
