# generated using pymatgen
data_La15PrCd4(CoIr)2
_symmetry_space_group_name_H-M   'P 1'
_cell_length_a   10.08902757
_cell_length_b   10.08909831
_cell_length_c   10.05818648
_cell_angle_alpha   60.05426032
_cell_angle_beta   60.05509133
_cell_angle_gamma   60.22397104
_symmetry_Int_Tables_number   1
_chemical_formula_structural   La15PrCd4(CoIr)2
_chemical_formula_sum   'La15 Pr1 Cd4 Co2 Ir2'
_cell_volume   725.76447860
_cell_formula_units_Z   1
loop_
 _symmetry_equiv_pos_site_id
 _symmetry_equiv_pos_as_xyz
  1  'x, y, z'
loop_
 _atom_site_type_symbol
 _atom_site_label
 _atom_site_symmetry_multiplicity
 _atom_site_fract_x
 _atom_site_fract_y
 _atom_site_fract_z
 _atom_site_occupancy
  La  La0  1  0.343209  0.343217  0.351661  1
  La  La1  1  0.343776  0.343763  0.960197  1
  La  La2  1  0.340671  0.961765  0.348634  1
  La  La3  1  0.961752  0.340668  0.348654  1
  La  La4  1  0.816294  0.190166  0.189089  1
  La  La5  1  0.190142  0.815777  0.803921  1
  La  La6  1  0.190166  0.816286  0.189094  1
  La  La7  1  0.815772  0.190160  0.803908  1
  La  La8  1  0.188823  0.188857  0.811157  1
  La  La9  1  0.809585  0.809574  0.189778  1
  La  La10  1  0.940599  0.562203  0.558987  1
  La  La11  1  0.561267  0.940628  0.939282  1
  La  La12  1  0.562204  0.940589  0.558985  1
  La  La13  1  0.940652  0.561260  0.939270  1
  La  La14  1  0.558639  0.558623  0.942165  1
  Pr  Pr15  1  0.937551  0.937551  0.562142  1
  Cd  Cd16  1  0.579048  0.579050  0.578619  1
  Cd  Cd17  1  0.579301  0.579305  0.262586  1
  Cd  Cd18  1  0.580572  0.260718  0.579558  1
  Cd  Cd19  1  0.260718  0.580573  0.579558  1
  Co  Co20  1  0.140005  0.140012  0.140853  1
  Co  Co21  1  0.140414  0.140413  0.579537  1
  Ir  Ir22  1  0.140936  0.577897  0.141182  1
  Ir  Ir23  1  0.577902  0.140941  0.141181  1
