# generated using pymatgen
data_Er3Lu2Bi2Sb
_symmetry_space_group_name_H-M   'P 1'
_cell_length_a   8.10144700
_cell_length_b   9.33721300
_cell_length_c   11.83890500
_cell_angle_alpha   90.00000000
_cell_angle_beta   90.00000000
_cell_angle_gamma   90.00000000
_symmetry_Int_Tables_number   1
_chemical_formula_structural   Er3Lu2Bi2Sb
_chemical_formula_sum   'Er12 Lu8 Bi8 Sb4'
_cell_volume   895.55321396
_cell_formula_units_Z   4
loop_
 _symmetry_equiv_pos_site_id
 _symmetry_equiv_pos_as_xyz
  1  'x, y, z'
loop_
 _atom_site_type_symbol
 _atom_site_label
 _atom_site_symmetry_multiplicity
 _atom_site_fract_x
 _atom_site_fract_y
 _atom_site_fract_z
 _atom_site_occupancy
  Er  Er0  1  0.027002  0.750000  0.988817  1
  Er  Er1  1  0.527002  0.750000  0.511183  1
  Er  Er2  1  0.972998  0.250000  0.011183  1
  Er  Er3  1  0.472998  0.250000  0.488817  1
  Er  Er4  1  0.183703  0.750000  0.716387  1
  Er  Er5  1  0.683703  0.750000  0.783613  1
  Er  Er6  1  0.816297  0.250000  0.283613  1
  Er  Er7  1  0.316297  0.250000  0.216387  1
  Er  Er8  1  0.854240  0.750000  0.284796  1
  Er  Er9  1  0.354240  0.750000  0.215204  1
  Er  Er10  1  0.145760  0.250000  0.715204  1
  Er  Er11  1  0.645760  0.250000  0.784796  1
  Lu  Lu12  1  0.188700  0.565617  0.442115  1
  Lu  Lu13  1  0.688700  0.934383  0.057885  1
  Lu  Lu14  1  0.811300  0.065617  0.557885  1
  Lu  Lu15  1  0.311300  0.434383  0.942115  1
  Lu  Lu16  1  0.811300  0.434383  0.557885  1
  Lu  Lu17  1  0.311300  0.065617  0.942115  1
  Lu  Lu18  1  0.188700  0.934383  0.442115  1
  Lu  Lu19  1  0.688700  0.565617  0.057885  1
  Bi  Bi20  1  0.933431  0.496583  0.824969  1
  Bi  Bi21  1  0.433431  0.003417  0.675031  1
  Bi  Bi22  1  0.066569  0.996583  0.175031  1
  Bi  Bi23  1  0.566569  0.503417  0.324969  1
  Bi  Bi24  1  0.066569  0.503417  0.175031  1
  Bi  Bi25  1  0.566569  0.996583  0.324969  1
  Bi  Bi26  1  0.933431  0.003417  0.824969  1
  Bi  Bi27  1  0.433431  0.496583  0.675031  1
  Sb  Sb28  1  0.904369  0.750000  0.542011  1
  Sb  Sb29  1  0.404369  0.750000  0.957989  1
  Sb  Sb30  1  0.095631  0.250000  0.457989  1
  Sb  Sb31  1  0.595631  0.250000  0.042011  1
