# generated using pymatgen
data_HoErCoIr3
_symmetry_space_group_name_H-M   'P 1'
_cell_length_a   5.18193663
_cell_length_b   5.18193717
_cell_length_c   5.18193706
_cell_angle_alpha   62.19848834
_cell_angle_beta   62.19848054
_cell_angle_gamma   62.19849557
_symmetry_Int_Tables_number   1
_chemical_formula_structural   HoErCoIr3
_chemical_formula_sum   'Ho1 Er1 Co1 Ir3'
_cell_volume   103.22378320
_cell_formula_units_Z   1
loop_
 _symmetry_equiv_pos_site_id
 _symmetry_equiv_pos_as_xyz
  1  'x, y, z'
loop_
 _atom_site_type_symbol
 _atom_site_label
 _atom_site_symmetry_multiplicity
 _atom_site_fract_x
 _atom_site_fract_y
 _atom_site_fract_z
 _atom_site_occupancy
  Ho  Ho0  1  0.251242  0.251242  0.251242  1
  Er  Er1  1  0.998864  0.998864  0.998864  1
  Co  Co2  1  0.625032  0.625032  0.625032  1
  Ir  Ir3  1  0.624886  0.624886  0.125090  1
  Ir  Ir4  1  0.624886  0.125090  0.624886  1
  Ir  Ir5  1  0.125090  0.624886  0.624886  1
