# generated using pymatgen
data_YHo15In4Ru3Rh
_symmetry_space_group_name_H-M   'P 1'
_cell_length_a   9.62696173
_cell_length_b   9.62696204
_cell_length_c   9.60243269
_cell_angle_alpha   59.85838073
_cell_angle_beta   59.85837878
_cell_angle_gamma   59.94529388
_symmetry_Int_Tables_number   1
_chemical_formula_structural   YHo15In4Ru3Rh
_chemical_formula_sum   'Y1 Ho15 In4 Ru3 Rh1'
_cell_volume   627.67192482
_cell_formula_units_Z   1
loop_
 _symmetry_equiv_pos_site_id
 _symmetry_equiv_pos_as_xyz
  1  'x, y, z'
loop_
 _atom_site_type_symbol
 _atom_site_label
 _atom_site_symmetry_multiplicity
 _atom_site_fract_x
 _atom_site_fract_y
 _atom_site_fract_z
 _atom_site_occupancy
  Y  Y0  1  0.189552  0.189552  0.808428  1
  Ho  Ho1  1  0.597730  0.597730  0.207077  1
  Ho  Ho2  1  0.442863  0.058283  0.440188  1
  Ho  Ho3  1  0.441971  0.441971  0.059396  1
  Ho  Ho4  1  0.811578  0.189845  0.807764  1
  Ho  Ho5  1  0.193103  0.807022  0.191920  1
  Ho  Ho6  1  0.442033  0.055981  0.059665  1
  Ho  Ho7  1  0.189845  0.811578  0.807764  1
  Ho  Ho8  1  0.055981  0.442033  0.059665  1
  Ho  Ho9  1  0.808405  0.808405  0.190635  1
  Ho  Ho10  1  0.205703  0.598644  0.597650  1
  Ho  Ho11  1  0.058283  0.442863  0.440188  1
  Ho  Ho12  1  0.058424  0.058424  0.439805  1
  Ho  Ho13  1  0.807022  0.193103  0.191920  1
  Ho  Ho14  1  0.598644  0.205703  0.597650  1
  Ho  Ho15  1  0.598683  0.598683  0.597693  1
  In  In16  1  0.832791  0.832791  0.831813  1
  In  In17  1  0.833012  0.833012  0.501089  1
  In  In18  1  0.502480  0.832472  0.831963  1
  In  In19  1  0.832472  0.502480  0.831963  1
  Ru  Ru20  1  0.389267  0.830993  0.392187  1
  Ru  Ru21  1  0.388760  0.388760  0.390807  1
  Ru  Ru22  1  0.830993  0.389267  0.392187  1
  Rh  Rh23  1  0.390406  0.390406  0.830580  1
