# generated using pymatgen
data_Ho3Al9Si3Ru4
_symmetry_space_group_name_H-M   'P 1'
_cell_length_a   8.67009400
_cell_length_b   8.64195993
_cell_length_c   9.53494500
_cell_angle_alpha   90.00000000
_cell_angle_beta   90.00000000
_cell_angle_gamma   120.10775796
_symmetry_Int_Tables_number   1
_chemical_formula_structural   Ho3Al9Si3Ru4
_chemical_formula_sum   'Ho6 Al18 Si6 Ru8'
_cell_volume   618.03387327
_cell_formula_units_Z   2
loop_
 _symmetry_equiv_pos_site_id
 _symmetry_equiv_pos_as_xyz
  1  'x, y, z'
loop_
 _atom_site_type_symbol
 _atom_site_label
 _atom_site_symmetry_multiplicity
 _atom_site_fract_x
 _atom_site_fract_y
 _atom_site_fract_z
 _atom_site_occupancy
  Ho  Ho0  1  0.193471  0.386942  0.250000  1
  Ho  Ho1  1  0.806529  0.613058  0.750000  1
  Ho  Ho2  1  0.610302  0.808087  0.250000  1
  Ho  Ho3  1  0.389698  0.191913  0.750000  1
  Ho  Ho4  1  0.197784  0.808087  0.250000  1
  Ho  Ho5  1  0.802216  0.191913  0.750000  1
  Al  Al6  1  0.164687  0.329374  0.580075  1
  Al  Al7  1  0.835313  0.670626  0.419925  1
  Al  Al8  1  0.670451  0.834789  0.578574  1
  Al  Al9  1  0.835313  0.670626  0.080075  1
  Al  Al10  1  0.329549  0.165211  0.421426  1
  Al  Al11  1  0.164687  0.329374  0.919925  1
  Al  Al12  1  0.164337  0.834789  0.578574  1
  Al  Al13  1  0.329549  0.165211  0.078574  1
  Al  Al14  1  0.835663  0.165211  0.421426  1
  Al  Al15  1  0.670451  0.834789  0.921426  1
  Al  Al16  1  0.835663  0.165211  0.078574  1
  Al  Al17  1  0.164337  0.834789  0.921426  1
  Al  Al18  1  0.873960  0.433979  0.250000  1
  Al  Al19  1  0.126040  0.566021  0.750000  1
  Al  Al20  1  0.560019  0.433979  0.250000  1
  Al  Al21  1  0.439981  0.566021  0.750000  1
  Al  Al22  1  0.999472  0.998944  0.250000  1
  Al  Al23  1  0.000528  0.001056  0.750000  1
  Si  Si24  1  0.332032  0.664064  0.039272  1
  Si  Si25  1  0.667968  0.335936  0.960728  1
  Si  Si26  1  0.667968  0.335936  0.539272  1
  Si  Si27  1  0.332032  0.664064  0.460728  1
  Si  Si28  1  0.562872  0.125745  0.250000  1
  Si  Si29  1  0.437128  0.874255  0.750000  1
  Ru  Ru30  1  0.500000  0.000000  0.000000  1
  Ru  Ru31  1  0.000000  0.500000  0.000000  1
  Ru  Ru32  1  0.500000  0.000000  0.500000  1
  Ru  Ru33  1  0.500000  0.500000  0.000000  1
  Ru  Ru34  1  0.000000  0.500000  0.500000  1
  Ru  Ru35  1  0.500000  0.500000  0.500000  1
  Ru  Ru36  1  0.000000  0.000000  0.000000  1
  Ru  Ru37  1  0.000000  0.000000  0.500000  1
