# generated using pymatgen
data_TbEr2Fe8CoP6
_symmetry_space_group_name_H-M   'P 1'
_cell_length_a   3.70079900
_cell_length_b   10.47137400
_cell_length_c   12.16415100
_cell_angle_alpha   90.00000000
_cell_angle_beta   90.00000000
_cell_angle_gamma   90.00000000
_symmetry_Int_Tables_number   1
_chemical_formula_structural   TbEr2Fe8CoP6
_chemical_formula_sum   'Tb2 Er4 Fe16 Co2 P12'
_cell_volume   471.39065862
_cell_formula_units_Z   2
loop_
 _symmetry_equiv_pos_site_id
 _symmetry_equiv_pos_as_xyz
  1  'x, y, z'
loop_
 _atom_site_type_symbol
 _atom_site_label
 _atom_site_symmetry_multiplicity
 _atom_site_fract_x
 _atom_site_fract_y
 _atom_site_fract_z
 _atom_site_occupancy
  Tb  Tb0  1  0.750000  0.250000  0.474203  1
  Tb  Tb1  1  0.250000  0.750000  0.525797  1
  Er  Er2  1  0.250000  0.929828  0.793628  1
  Er  Er3  1  0.250000  0.570172  0.793628  1
  Er  Er4  1  0.750000  0.070172  0.206372  1
  Er  Er5  1  0.750000  0.429828  0.206372  1
  Fe  Fe6  1  0.250000  0.250000  0.848288  1
  Fe  Fe7  1  0.750000  0.750000  0.151712  1
  Fe  Fe8  1  0.750000  0.250000  0.011349  1
  Fe  Fe9  1  0.250000  0.750000  0.988651  1
  Fe  Fe10  1  0.250000  0.422414  0.003085  1
  Fe  Fe11  1  0.250000  0.077586  0.003085  1
  Fe  Fe12  1  0.750000  0.577586  0.996915  1
  Fe  Fe13  1  0.750000  0.922414  0.996915  1
  Fe  Fe14  1  0.250000  0.451115  0.570637  1
  Fe  Fe15  1  0.250000  0.048885  0.570637  1
  Fe  Fe16  1  0.750000  0.548885  0.429363  1
  Fe  Fe17  1  0.750000  0.951115  0.429363  1
  Fe  Fe18  1  0.250000  0.867823  0.289942  1
  Fe  Fe19  1  0.250000  0.632177  0.289942  1
  Fe  Fe20  1  0.750000  0.132177  0.710058  1
  Fe  Fe21  1  0.750000  0.367823  0.710058  1
  Co  Co22  1  0.250000  0.250000  0.298417  1
  Co  Co23  1  0.750000  0.750000  0.701583  1
  P  P24  1  0.250000  0.250000  0.115523  1
  P  P25  1  0.750000  0.750000  0.884477  1
  P  P26  1  0.250000  0.250000  0.660194  1
  P  P27  1  0.750000  0.750000  0.339806  1
  P  P28  1  0.250000  0.444077  0.384999  1
  P  P29  1  0.250000  0.055923  0.384999  1
  P  P30  1  0.750000  0.555923  0.615001  1
  P  P31  1  0.750000  0.944077  0.615001  1
  P  P32  1  0.250000  0.899622  0.111087  1
  P  P33  1  0.250000  0.600378  0.111087  1
  P  P34  1  0.750000  0.100378  0.888913  1
  P  P35  1  0.750000  0.399622  0.888913  1
