# generated using pymatgen
data_Sm6CoP12Rh17
_symmetry_space_group_name_H-M   'P 1'
_cell_length_a   3.93415200
_cell_length_b   11.23828300
_cell_length_c   12.88562000
_cell_angle_alpha   90.00000000
_cell_angle_beta   90.00000000
_cell_angle_gamma   90.00000000
_symmetry_Int_Tables_number   1
_chemical_formula_structural   Sm6CoP12Rh17
_chemical_formula_sum   'Sm6 Co1 P12 Rh17'
_cell_volume   569.71338011
_cell_formula_units_Z   1
loop_
 _symmetry_equiv_pos_site_id
 _symmetry_equiv_pos_as_xyz
  1  'x, y, z'
loop_
 _atom_site_type_symbol
 _atom_site_label
 _atom_site_symmetry_multiplicity
 _atom_site_fract_x
 _atom_site_fract_y
 _atom_site_fract_z
 _atom_site_occupancy
  Sm  Sm0  1  0.000000  0.500000  0.520160  1
  Sm  Sm1  1  0.500000  0.000000  0.478773  1
  Sm  Sm2  1  0.500000  0.817667  0.203328  1
  Sm  Sm3  1  0.500000  0.182333  0.203328  1
  Sm  Sm4  1  0.000000  0.688175  0.797121  1
  Sm  Sm5  1  0.000000  0.311825  0.797121  1
  Co  Co6  1  0.500000  0.000000  0.020446  1
  P  P7  1  0.500000  0.500000  0.880611  1
  P  P8  1  0.000000  0.000000  0.118265  1
  P  P9  1  0.500000  0.500000  0.348181  1
  P  P10  1  0.000000  0.000000  0.649969  1
  P  P11  1  0.500000  0.314020  0.618072  1
  P  P12  1  0.500000  0.685980  0.618072  1
  P  P13  1  0.000000  0.185720  0.381968  1
  P  P14  1  0.000000  0.814280  0.381968  1
  P  P15  1  0.500000  0.856121  0.896693  1
  P  P16  1  0.500000  0.143879  0.896693  1
  P  P17  1  0.000000  0.654843  0.106040  1
  P  P18  1  0.000000  0.345157  0.106040  1
  Rh  Rh19  1  0.500000  0.500000  0.167983  1
  Rh  Rh20  1  0.000000  0.000000  0.830061  1
  Rh  Rh21  1  0.500000  0.500000  0.702530  1
  Rh  Rh22  1  0.000000  0.000000  0.297480  1
  Rh  Rh23  1  0.000000  0.500000  0.981496  1
  Rh  Rh24  1  0.500000  0.331562  0.994985  1
  Rh  Rh25  1  0.500000  0.668438  0.994985  1
  Rh  Rh26  1  0.000000  0.160269  0.004829  1
  Rh  Rh27  1  0.000000  0.839731  0.004829  1
  Rh  Rh28  1  0.500000  0.293026  0.429968  1
  Rh  Rh29  1  0.500000  0.706974  0.429968  1
  Rh  Rh30  1  0.000000  0.206596  0.569748  1
  Rh  Rh31  1  0.000000  0.793404  0.569748  1
  Rh  Rh32  1  0.500000  0.875018  0.711337  1
  Rh  Rh33  1  0.500000  0.124982  0.711337  1
  Rh  Rh34  1  0.000000  0.626274  0.287933  1
  Rh  Rh35  1  0.000000  0.373726  0.287933  1
