# generated using pymatgen
data_Ho2Al9Ir2Pd
_symmetry_space_group_name_H-M   'P 1'
_cell_length_a   7.57684349
_cell_length_b   7.57777916
_cell_length_c   9.45445654
_cell_angle_alpha   89.94158346
_cell_angle_beta   89.93420872
_cell_angle_gamma   119.62832404
_symmetry_Int_Tables_number   1
_chemical_formula_structural   Ho2Al9Ir2Pd
_chemical_formula_sum   'Ho4 Al18 Ir4 Pd2'
_cell_volume   471.85747673
_cell_formula_units_Z   2
loop_
 _symmetry_equiv_pos_site_id
 _symmetry_equiv_pos_as_xyz
  1  'x, y, z'
loop_
 _atom_site_type_symbol
 _atom_site_label
 _atom_site_symmetry_multiplicity
 _atom_site_fract_x
 _atom_site_fract_y
 _atom_site_fract_z
 _atom_site_occupancy
  Ho  Ho0  1  0.995504  0.670715  0.251602  1
  Ho  Ho1  1  0.004496  0.329285  0.748398  1
  Ho  Ho2  1  0.670673  0.995482  0.251613  1
  Ho  Ho3  1  0.329327  0.004518  0.748387  1
  Al  Al4  1  0.127445  0.127463  0.250595  1
  Al  Al5  1  0.872555  0.872537  0.749405  1
  Al  Al6  1  0.000832  0.331495  0.077685  1
  Al  Al7  1  0.999168  0.668505  0.922315  1
  Al  Al8  1  0.000216  0.664992  0.574489  1
  Al  Al9  1  0.335004  0.999764  0.425514  1
  Al  Al10  1  0.999784  0.335008  0.425511  1
  Al  Al11  1  0.664996  0.000236  0.574486  1
  Al  Al12  1  0.668469  0.999201  0.922315  1
  Al  Al13  1  0.331531  0.000799  0.077685  1
  Al  Al14  1  0.332413  0.332408  0.550623  1
  Al  Al15  1  0.667587  0.667592  0.449377  1
  Al  Al16  1  0.668870  0.668838  0.058738  1
  Al  Al17  1  0.331130  0.331162  0.941262  1
  Al  Al18  1  0.340174  0.547470  0.252965  1
  Al  Al19  1  0.659826  0.452530  0.747035  1
  Al  Al20  1  0.547493  0.340202  0.252953  1
  Al  Al21  1  0.452507  0.659798  0.747047  1
  Ir  Ir22  1  0.327994  0.672008  0.500011  1
  Ir  Ir23  1  0.672006  0.327992  0.499989  1
  Ir  Ir24  1  0.000000  0.000000  0.000000  1
  Ir  Ir25  1  0.000000  0.000000  0.500000  1
  Pd  Pd26  1  0.672384  0.327594  0.999998  1
  Pd  Pd27  1  0.327616  0.672406  0.000002  1
