# generated using pymatgen
data_Tb12Ce4Cd3HgRu4
_symmetry_space_group_name_H-M   'P 1'
_cell_length_a   9.66037325
_cell_length_b   9.66037247
_cell_length_c   9.64638108
_cell_angle_alpha   59.95201012
_cell_angle_beta   59.95201204
_cell_angle_gamma   59.99999822
_symmetry_Int_Tables_number   1
_chemical_formula_structural   Tb12Ce4Cd3HgRu4
_chemical_formula_sum   'Tb12 Ce4 Cd3 Hg1 Ru4'
_cell_volume   636.09472126
_cell_formula_units_Z   1
loop_
 _symmetry_equiv_pos_site_id
 _symmetry_equiv_pos_as_xyz
  1  'x, y, z'
loop_
 _atom_site_type_symbol
 _atom_site_label
 _atom_site_symmetry_multiplicity
 _atom_site_fract_x
 _atom_site_fract_y
 _atom_site_fract_z
 _atom_site_occupancy
  Tb  Tb0  1  0.562162  0.562162  0.938812  1
  Tb  Tb1  1  0.936864  0.562162  0.938812  1
  Tb  Tb2  1  0.562162  0.936864  0.938812  1
  Tb  Tb3  1  0.937723  0.937723  0.562282  1
  Tb  Tb4  1  0.562271  0.937723  0.562282  1
  Tb  Tb5  1  0.937723  0.562271  0.562282  1
  Tb  Tb6  1  0.189016  0.189016  0.811122  1
  Tb  Tb7  1  0.810845  0.189016  0.811122  1
  Tb  Tb8  1  0.189015  0.810846  0.811122  1
  Tb  Tb9  1  0.810450  0.810451  0.189733  1
  Tb  Tb10  1  0.189366  0.810450  0.189732  1
  Tb  Tb11  1  0.810450  0.189367  0.189733  1
  Ce  Ce12  1  0.345436  0.345436  0.963694  1
  Ce  Ce13  1  0.345877  0.962721  0.345527  1
  Ce  Ce14  1  0.962721  0.345877  0.345527  1
  Ce  Ce15  1  0.345877  0.345877  0.345527  1
  Cd  Cd16  1  0.580169  0.259263  0.580398  1
  Cd  Cd17  1  0.259263  0.580169  0.580398  1
  Cd  Cd18  1  0.580169  0.580169  0.580398  1
  Hg  Hg19  1  0.583315  0.583315  0.250056  1
  Ru  Ru20  1  0.144596  0.144596  0.566212  1
  Ru  Ru21  1  0.144600  0.565327  0.145472  1
  Ru  Ru22  1  0.565327  0.144600  0.145472  1
  Ru  Ru23  1  0.144600  0.144600  0.145472  1
