# generated using pymatgen
data_Dy5HfBiO12
_symmetry_space_group_name_H-M   'P 1'
_cell_length_a   6.46594041
_cell_length_b   6.47971835
_cell_length_c   6.44181500
_cell_angle_alpha   98.89056916
_cell_angle_beta   99.58828312
_cell_angle_gamma   99.07527649
_symmetry_Int_Tables_number   1
_chemical_formula_structural   Dy5HfBiO12
_chemical_formula_sum   'Dy5 Hf1 Bi1 O12'
_cell_volume   258.22271863
_cell_formula_units_Z   1
loop_
 _symmetry_equiv_pos_site_id
 _symmetry_equiv_pos_as_xyz
  1  'x, y, z'
loop_
 _atom_site_type_symbol
 _atom_site_label
 _atom_site_symmetry_multiplicity
 _atom_site_fract_x
 _atom_site_fract_y
 _atom_site_fract_z
 _atom_site_occupancy
  Dy  Dy0  1  0.143354  0.607080  0.310272  1
  Dy  Dy1  1  0.689713  0.859382  0.389286  1
  Dy  Dy2  1  0.312920  0.141676  0.611717  1
  Dy  Dy3  1  0.859507  0.391498  0.685332  1
  Dy  Dy4  1  0.393618  0.682731  0.854718  1
  Hf  Hf5  1  0.608895  0.320571  0.145716  1
  Bi  Bi6  1  0.000110  0.003091  0.004334  1
  O  O7  1  0.679527  0.929849  0.048013  1
  O  O8  1  0.927833  0.315024  0.077547  1
  O  O9  1  0.433119  0.560698  0.177079  1
  O  O10  1  0.069479  0.947999  0.320163  1
  O  O11  1  0.813770  0.558919  0.397212  1
  O  O12  1  0.581422  0.185302  0.411788  1
  O  O13  1  0.419850  0.824085  0.568306  1
  O  O14  1  0.179911  0.431096  0.585043  1
  O  O15  1  0.931333  0.051637  0.684003  1
  O  O16  1  0.575873  0.406457  0.835359  1
  O  O17  1  0.055667  0.687518  0.925324  1
  O  O18  1  0.324101  0.095389  0.968790  1
