# generated using pymatgen
data_TmLu2Al3Ga2Ag
_symmetry_space_group_name_H-M   'P 1'
_cell_length_a   6.89043500
_cell_length_b   6.90525103
_cell_length_c   4.32913800
_cell_angle_alpha   90.00000000
_cell_angle_beta   90.00000000
_cell_angle_gamma   119.92904411
_symmetry_Int_Tables_number   1
_chemical_formula_structural   TmLu2Al3Ga2Ag
_chemical_formula_sum   'Tm1 Lu2 Al3 Ga2 Ag1'
_cell_volume   178.51234255
_cell_formula_units_Z   1
loop_
 _symmetry_equiv_pos_site_id
 _symmetry_equiv_pos_as_xyz
  1  'x, y, z'
loop_
 _atom_site_type_symbol
 _atom_site_label
 _atom_site_symmetry_multiplicity
 _atom_site_fract_x
 _atom_site_fract_y
 _atom_site_fract_z
 _atom_site_occupancy
  Tm  Tm0  1  0.575012  0.000000  0.000000  1
  Lu  Lu1  1  0.999576  0.574833  0.000000  1
  Lu  Lu2  1  0.424743  0.425167  0.000000  1
  Al  Al3  1  0.999385  0.243619  0.500000  1
  Al  Al4  1  0.755766  0.756381  0.500000  1
  Al  Al5  1  0.244166  0.000000  0.500000  1
  Ga  Ga6  1  0.667129  0.335144  0.500000  1
  Ga  Ga7  1  0.331983  0.664856  0.500000  1
  Ag  Ag8  1  0.002238  0.000000  0.000000  1
