# generated using pymatgen
data_MgNpBr6
_symmetry_space_group_name_H-M   'P 1'
_cell_length_a   7.95930893
_cell_length_b   7.95930975
_cell_length_c   7.95930911
_cell_angle_alpha   52.00532803
_cell_angle_beta   52.00532501
_cell_angle_gamma   52.00532342
_symmetry_Int_Tables_number   1
_chemical_formula_structural   MgNpBr6
_chemical_formula_sum   'Mg1 Np1 Br6'
_cell_volume   289.52747057
_cell_formula_units_Z   1
loop_
 _symmetry_equiv_pos_site_id
 _symmetry_equiv_pos_as_xyz
  1  'x, y, z'
loop_
 _atom_site_type_symbol
 _atom_site_label
 _atom_site_symmetry_multiplicity
 _atom_site_fract_x
 _atom_site_fract_y
 _atom_site_fract_z
 _atom_site_occupancy
  Mg  Mg0  1  0.666586  0.666586  0.666586  1
  Np  Np1  1  0.333450  0.333450  0.333450  1
  Br  Br2  1  0.433737  0.726405  0.068362  1
  Br  Br3  1  0.726405  0.068362  0.433737  1
  Br  Br4  1  0.068362  0.433737  0.726405  1
  Br  Br5  1  0.573516  0.281346  0.916597  1
  Br  Br6  1  0.281346  0.916597  0.573516  1
  Br  Br7  1  0.916597  0.573516  0.281346  1
