# generated using pymatgen
data_HoTm3Co4(SnH)4
_symmetry_space_group_name_H-M   'P 1'
_cell_length_a   4.23294600
_cell_length_b   7.03139425
_cell_length_c   8.08411129
_cell_angle_alpha   89.96920135
_cell_angle_beta   90.00000000
_cell_angle_gamma   90.00000000
_symmetry_Int_Tables_number   1
_chemical_formula_structural   HoTm3Co4(SnH)4
_chemical_formula_sum   'Ho1 Tm3 Co4 Sn4 H4'
_cell_volume   240.61151016
_cell_formula_units_Z   1
loop_
 _symmetry_equiv_pos_site_id
 _symmetry_equiv_pos_as_xyz
  1  'x, y, z'
loop_
 _atom_site_type_symbol
 _atom_site_label
 _atom_site_symmetry_multiplicity
 _atom_site_fract_x
 _atom_site_fract_y
 _atom_site_fract_z
 _atom_site_occupancy
  Ho  Ho0  1  0.750000  0.512874  0.813613  1
  Tm  Tm1  1  0.750000  0.013332  0.685278  1
  Tm  Tm2  1  0.250000  0.986882  0.314600  1
  Tm  Tm3  1  0.250000  0.486816  0.185424  1
  Co  Co4  1  0.750000  0.773003  0.104054  1
  Co  Co5  1  0.250000  0.226316  0.896912  1
  Co  Co6  1  0.250000  0.728049  0.602478  1
  Co  Co7  1  0.750000  0.272697  0.396525  1
  Sn  Sn8  1  0.750000  0.655059  0.424976  1
  Sn  Sn9  1  0.250000  0.344477  0.573353  1
  Sn  Sn10  1  0.250000  0.844995  0.926118  1
  Sn  Sn11  1  0.750000  0.154944  0.074736  1
  H  H12  1  0.250000  0.448750  0.920004  1
  H  H13  1  0.750000  0.550702  0.082018  1
  H  H14  1  0.750000  0.050536  0.419244  1
  H  H15  1  0.250000  0.950568  0.580666  1
