# generated using pymatgen
data_Tb4In2Hg3Rh
_symmetry_space_group_name_H-M   'P 1'
_cell_length_a   8.17421467
_cell_length_b   8.17421591
_cell_length_c   3.76704600
_cell_angle_alpha   90.00000000
_cell_angle_beta   90.00000000
_cell_angle_gamma   89.45238658
_symmetry_Int_Tables_number   1
_chemical_formula_structural   Tb4In2Hg3Rh
_chemical_formula_sum   'Tb4 In2 Hg3 Rh1'
_cell_volume   251.69421325
_cell_formula_units_Z   1
loop_
 _symmetry_equiv_pos_site_id
 _symmetry_equiv_pos_as_xyz
  1  'x, y, z'
loop_
 _atom_site_type_symbol
 _atom_site_label
 _atom_site_symmetry_multiplicity
 _atom_site_fract_x
 _atom_site_fract_y
 _atom_site_fract_z
 _atom_site_occupancy
  Tb  Tb0  1  0.139057  0.318346  0.500000  1
  Tb  Tb1  1  0.695028  0.195028  0.500000  1
  Tb  Tb2  1  0.818346  0.639057  0.500000  1
  Tb  Tb3  1  0.330808  0.830808  0.500000  1
  In  In4  1  0.996896  0.004081  0.000000  1
  In  In5  1  0.504081  0.496896  0.000000  1
  Hg  Hg6  1  0.125187  0.625187  0.000000  1
  Hg  Hg7  1  0.637110  0.879715  0.000000  1
  Hg  Hg8  1  0.379715  0.137110  0.000000  1
  Rh  Rh9  1  0.873772  0.373772  0.000000  1
