# generated using pymatgen
data_Ce8Be3Si12B
_symmetry_space_group_name_H-M   'P 1'
_cell_length_a   7.79968800
_cell_length_b   7.79968841
_cell_length_c   8.50497600
_cell_angle_alpha   90.00000000
_cell_angle_beta   90.00000000
_cell_angle_gamma   119.99998978
_symmetry_Int_Tables_number   1
_chemical_formula_structural   Ce8Be3Si12B
_chemical_formula_sum   'Ce8 Be3 Si12 B1'
_cell_volume   448.08277862
_cell_formula_units_Z   1
loop_
 _symmetry_equiv_pos_site_id
 _symmetry_equiv_pos_as_xyz
  1  'x, y, z'
loop_
 _atom_site_type_symbol
 _atom_site_label
 _atom_site_symmetry_multiplicity
 _atom_site_fract_x
 _atom_site_fract_y
 _atom_site_fract_z
 _atom_site_occupancy
  Ce  Ce0  1  0.000000  0.000000  0.248298  1
  Ce  Ce1  1  0.000000  0.000000  0.751608  1
  Ce  Ce2  1  0.498459  0.501541  0.247525  1
  Ce  Ce3  1  0.498459  0.996918  0.247525  1
  Ce  Ce4  1  0.003082  0.501541  0.247525  1
  Ce  Ce5  1  0.498448  0.501552  0.752405  1
  Ce  Ce6  1  0.498448  0.996896  0.752405  1
  Ce  Ce7  1  0.003104  0.501552  0.752405  1
  Be  Be8  1  0.333333  0.666667  0.499795  1
  Be  Be9  1  0.666667  0.333333  0.500468  1
  Be  Be10  1  0.666667  0.333333  0.999906  1
  Si  Si11  1  0.173009  0.826991  0.500040  1
  Si  Si12  1  0.173009  0.346018  0.500040  1
  Si  Si13  1  0.653982  0.826991  0.500040  1
  Si  Si14  1  0.826922  0.173078  0.500001  1
  Si  Si15  1  0.826922  0.653842  0.500001  1
  Si  Si16  1  0.346158  0.173078  0.500001  1
  Si  Si17  1  0.828440  0.171560  0.999904  1
  Si  Si18  1  0.828440  0.656879  0.999904  1
  Si  Si19  1  0.343121  0.171560  0.999904  1
  Si  Si20  1  0.179851  0.820149  0.999913  1
  Si  Si21  1  0.179851  0.359704  0.999913  1
  Si  Si22  1  0.640296  0.820149  0.999913  1
  B  B23  1  0.333333  0.666667  0.000564  1
