# generated using pymatgen
data_Cs2LuSn11O24
_symmetry_space_group_name_H-M   'P 1'
_cell_length_a   7.82155053
_cell_length_b   7.89496058
_cell_length_c   9.64902800
_cell_angle_alpha   101.90097221
_cell_angle_beta   101.99703590
_cell_angle_gamma   87.57434722
_symmetry_Int_Tables_number   1
_chemical_formula_structural   Cs2LuSn11O24
_chemical_formula_sum   'Cs2 Lu1 Sn11 O24'
_cell_volume   570.29393368
_cell_formula_units_Z   1
loop_
 _symmetry_equiv_pos_site_id
 _symmetry_equiv_pos_as_xyz
  1  'x, y, z'
loop_
 _atom_site_type_symbol
 _atom_site_label
 _atom_site_symmetry_multiplicity
 _atom_site_fract_x
 _atom_site_fract_y
 _atom_site_fract_z
 _atom_site_occupancy
  Cs  Cs0  1  0.000725  0.999814  0.209566  1
  Cs  Cs1  1  0.004875  0.003378  0.794290  1
  Lu  Lu2  1  0.491936  0.189917  0.947104  1
  Sn  Sn3  1  0.484247  0.183053  0.611242  1
  Sn  Sn4  1  0.485989  0.182310  0.277880  1
  Sn  Sn5  1  0.182680  0.513304  0.114991  1
  Sn  Sn6  1  0.186830  0.515977  0.450822  1
  Sn  Sn7  1  0.182858  0.514798  0.783536  1
  Sn  Sn8  1  0.814654  0.486141  0.217925  1
  Sn  Sn9  1  0.814776  0.482806  0.548993  1
  Sn  Sn10  1  0.811681  0.491366  0.882315  1
  Sn  Sn11  1  0.513609  0.818303  0.721943  1
  Sn  Sn12  1  0.509254  0.817031  0.054123  1
  Sn  Sn13  1  0.518799  0.815972  0.389367  1
  O  O14  1  0.359784  0.046956  0.074209  1
  O  O15  1  0.365185  0.050307  0.402047  1
  O  O16  1  0.364229  0.047163  0.728849  1
  O  O17  1  0.292307  0.374387  0.277083  1
  O  O18  1  0.286471  0.379946  0.943868  1
  O  O19  1  0.296448  0.378936  0.613347  1
  O  O20  1  0.051475  0.635565  0.280520  1
  O  O21  1  0.051548  0.635984  0.614747  1
  O  O22  1  0.046851  0.642243  0.949152  1
  O  O23  1  0.619759  0.295884  0.485812  1
  O  O24  1  0.629146  0.298107  0.812016  1
  O  O25  1  0.631519  0.294105  0.164342  1
  O  O26  1  0.376518  0.703260  0.181450  1
  O  O27  1  0.381957  0.701964  0.512739  1
  O  O28  1  0.371797  0.706850  0.845438  1
  O  O29  1  0.944889  0.364285  0.050105  1
  O  O30  1  0.951639  0.365278  0.386294  1
  O  O31  1  0.948326  0.366604  0.719351  1
  O  O32  1  0.705096  0.625551  0.718625  1
  O  O33  1  0.697476  0.618772  0.054511  1
  O  O34  1  0.706619  0.622747  0.388882  1
  O  O35  1  0.639695  0.936648  0.930990  1
  O  O36  1  0.638469  0.945732  0.264046  1
  O  O37  1  0.639885  0.948554  0.597482  1
