# generated using pymatgen
data_CeGd2Se3
_symmetry_space_group_name_H-M   'P 1'
_cell_length_a   4.16684800
_cell_length_b   4.16684731
_cell_length_c   10.34435500
_cell_angle_alpha   90.00000000
_cell_angle_beta   90.00000000
_cell_angle_gamma   119.99998962
_symmetry_Int_Tables_number   1
_chemical_formula_structural   CeGd2Se3
_chemical_formula_sum   'Ce1 Gd2 Se3'
_cell_volume   155.54259423
_cell_formula_units_Z   1
loop_
 _symmetry_equiv_pos_site_id
 _symmetry_equiv_pos_as_xyz
  1  'x, y, z'
loop_
 _atom_site_type_symbol
 _atom_site_label
 _atom_site_symmetry_multiplicity
 _atom_site_fract_x
 _atom_site_fract_y
 _atom_site_fract_z
 _atom_site_occupancy
  Ce  Ce0  1  0.000000  0.000000  0.000000  1
  Gd  Gd1  1  0.333333  0.666667  0.666117  1
  Gd  Gd2  1  0.666667  0.333333  0.333883  1
  Se  Se3  1  0.333333  0.666667  0.173617  1
  Se  Se4  1  0.666667  0.333333  0.826383  1
  Se  Se5  1  0.000000  0.000000  0.500000  1
