# generated using pymatgen
data_HfPa3(AlCo2)2
_symmetry_space_group_name_H-M   'P 1'
_cell_length_a   7.08687973
_cell_length_b   7.08688013
_cell_length_c   3.45939400
_cell_angle_alpha   90.00000000
_cell_angle_beta   90.00000000
_cell_angle_gamma   87.99525459
_symmetry_Int_Tables_number   1
_chemical_formula_structural   HfPa3(AlCo2)2
_chemical_formula_sum   'Hf1 Pa3 Al2 Co4'
_cell_volume   173.63780161
_cell_formula_units_Z   1
loop_
 _symmetry_equiv_pos_site_id
 _symmetry_equiv_pos_as_xyz
  1  'x, y, z'
loop_
 _atom_site_type_symbol
 _atom_site_label
 _atom_site_symmetry_multiplicity
 _atom_site_fract_x
 _atom_site_fract_y
 _atom_site_fract_z
 _atom_site_occupancy
  Hf  Hf0  1  0.322208  0.822208  0.500000  1
  Pa  Pa1  1  0.672543  0.172543  0.500000  1
  Pa  Pa2  1  0.178228  0.326552  0.500000  1
  Pa  Pa3  1  0.826552  0.678228  0.500000  1
  Al  Al4  1  0.014410  0.995327  0.000000  1
  Al  Al5  1  0.495327  0.514410  0.000000  1
  Co  Co6  1  0.859591  0.359591  0.000000  1
  Co  Co7  1  0.369198  0.139792  0.000000  1
  Co  Co8  1  0.639792  0.869198  0.000000  1
  Co  Co9  1  0.122151  0.622151  0.000000  1
