# generated using pymatgen
data_TbLu19Sn16
_symmetry_space_group_name_H-M   'P 1'
_cell_length_a   7.92108639
_cell_length_b   8.00714639
_cell_length_c   15.17237803
_cell_angle_alpha   90.00737199
_cell_angle_beta   89.64257379
_cell_angle_gamma   89.94783472
_symmetry_Int_Tables_number   1
_chemical_formula_structural   TbLu19Sn16
_chemical_formula_sum   'Tb1 Lu19 Sn16'
_cell_volume   962.29346964
_cell_formula_units_Z   1
loop_
 _symmetry_equiv_pos_site_id
 _symmetry_equiv_pos_as_xyz
  1  'x, y, z'
loop_
 _atom_site_type_symbol
 _atom_site_label
 _atom_site_symmetry_multiplicity
 _atom_site_fract_x
 _atom_site_fract_y
 _atom_site_fract_z
 _atom_site_occupancy
  Tb  Tb0  1  0.020933  0.178761  0.904944  1
  Lu  Lu1  1  0.368436  0.838182  0.876346  1
  Lu  Lu2  1  0.871366  0.661549  0.622332  1
  Lu  Lu3  1  0.628537  0.160609  0.376708  1
  Lu  Lu4  1  0.131267  0.338926  0.124093  1
  Lu  Lu5  1  0.631800  0.161649  0.123918  1
  Lu  Lu6  1  0.128566  0.338937  0.376905  1
  Lu  Lu7  1  0.372166  0.838903  0.622778  1
  Lu  Lu8  1  0.870089  0.661549  0.876459  1
  Lu  Lu9  1  0.524157  0.321858  0.904464  1
  Lu  Lu10  1  0.027491  0.178956  0.597226  1
  Lu  Lu11  1  0.473851  0.678363  0.402808  1
  Lu  Lu12  1  0.976767  0.820596  0.095977  1
  Lu  Lu13  1  0.475961  0.678311  0.096069  1
  Lu  Lu14  1  0.973286  0.821718  0.402942  1
  Lu  Lu15  1  0.525941  0.321688  0.596049  1
  Lu  Lu16  1  0.200607  0.505335  0.749293  1
  Lu  Lu17  1  0.700111  0.994670  0.749428  1
  Lu  Lu18  1  0.799706  0.494728  0.250336  1
  Lu  Lu19  1  0.300110  0.004961  0.250347  1
  Sn  Sn20  1  0.294305  0.037473  0.042354  1
  Sn  Sn21  1  0.789241  0.463118  0.458288  1
  Sn  Sn22  1  0.711259  0.964289  0.541554  1
  Sn  Sn23  1  0.208473  0.539138  0.959382  1
  Sn  Sn24  1  0.703691  0.958610  0.959879  1
  Sn  Sn25  1  0.210566  0.537463  0.541004  1
  Sn  Sn26  1  0.289410  0.036513  0.458647  1
  Sn  Sn27  1  0.792583  0.461981  0.041210  1
  Sn  Sn28  1  0.566117  0.618437  0.749791  1
  Sn  Sn29  1  0.066267  0.881090  0.749469  1
  Sn  Sn30  1  0.433981  0.381500  0.250251  1
  Sn  Sn31  1  0.934132  0.118433  0.250369  1
  Sn  Sn32  1  0.337476  0.152293  0.750200  1
  Sn  Sn33  1  0.834577  0.349475  0.749088  1
  Sn  Sn34  1  0.663490  0.847494  0.249382  1
  Sn  Sn35  1  0.163283  0.652441  0.249710  1
