# generated using pymatgen
data_Y3Al4GePd
_symmetry_space_group_name_H-M   'P 1'
_cell_length_a   7.00524700
_cell_length_b   7.00524700
_cell_length_c   4.31555300
_cell_angle_alpha   90.00000000
_cell_angle_beta   90.00000000
_cell_angle_gamma   120.00001415
_symmetry_Int_Tables_number   1
_chemical_formula_structural   Y3Al4GePd
_chemical_formula_sum   'Y3 Al4 Ge1 Pd1'
_cell_volume   183.40616513
_cell_formula_units_Z   1
loop_
 _symmetry_equiv_pos_site_id
 _symmetry_equiv_pos_as_xyz
  1  'x, y, z'
loop_
 _atom_site_type_symbol
 _atom_site_label
 _atom_site_symmetry_multiplicity
 _atom_site_fract_x
 _atom_site_fract_y
 _atom_site_fract_z
 _atom_site_occupancy
  Y  Y0  1  0.417212  0.415423  0.500000  1
  Y  Y1  1  0.584577  0.001789  0.500000  1
  Y  Y2  1  0.998211  0.582788  0.500000  1
  Al  Al3  1  0.005131  0.237372  0.000000  1
  Al  Al4  1  0.762628  0.767759  0.000000  1
  Al  Al5  1  0.232241  0.994869  0.000000  1
  Al  Al6  1  0.333333  0.666667  0.000000  1
  Ge  Ge7  1  0.666667  0.333333  0.000000  1
  Pd  Pd8  1  0.000000  0.000000  0.500000  1
