# generated using pymatgen
data_HoTh3(AlRu)4
_symmetry_space_group_name_H-M   'P 1'
_cell_length_a   4.07563900
_cell_length_b   7.06319607
_cell_length_c   8.35255849
_cell_angle_alpha   89.60368430
_cell_angle_beta   90.00000000
_cell_angle_gamma   90.00000000
_symmetry_Int_Tables_number   1
_chemical_formula_structural   HoTh3(AlRu)4
_chemical_formula_sum   'Ho1 Th3 Al4 Ru4'
_cell_volume   240.43966111
_cell_formula_units_Z   1
loop_
 _symmetry_equiv_pos_site_id
 _symmetry_equiv_pos_as_xyz
  1  'x, y, z'
loop_
 _atom_site_type_symbol
 _atom_site_label
 _atom_site_symmetry_multiplicity
 _atom_site_fract_x
 _atom_site_fract_y
 _atom_site_fract_z
 _atom_site_occupancy
  Ho  Ho0  1  0.750000  0.459658  0.815877  1
  Th  Th1  1  0.250000  0.034828  0.315366  1
  Th  Th2  1  0.250000  0.535364  0.178904  1
  Th  Th3  1  0.750000  0.962651  0.686652  1
  Al  Al4  1  0.250000  0.140020  0.940439  1
  Al  Al5  1  0.250000  0.624094  0.562656  1
  Al  Al6  1  0.750000  0.869489  0.054571  1
  Al  Al7  1  0.750000  0.371066  0.447089  1
  Ru  Ru8  1  0.250000  0.253324  0.621303  1
  Ru  Ru9  1  0.250000  0.765585  0.875431  1
  Ru  Ru10  1  0.750000  0.741430  0.373510  1
  Ru  Ru11  1  0.750000  0.242494  0.128202  1
