# generated using pymatgen
data_Gd2Zn5Ge3O
_symmetry_space_group_name_H-M   'P 1'
_cell_length_a   14.49758667
_cell_length_b   13.00310437
_cell_length_c   8.98988700
_cell_angle_alpha   90.00000000
_cell_angle_beta   90.00000000
_cell_angle_gamma   118.70409175
_symmetry_Int_Tables_number   1
_chemical_formula_structural   Gd2Zn5Ge3O
_chemical_formula_sum   'Gd2 Zn5 Ge3 O1'
_cell_volume   1486.45573838
_cell_formula_units_Z   1
loop_
 _symmetry_equiv_pos_site_id
 _symmetry_equiv_pos_as_xyz
  1  'x, y, z'
loop_
 _atom_site_type_symbol
 _atom_site_label
 _atom_site_symmetry_multiplicity
 _atom_site_fract_x
 _atom_site_fract_y
 _atom_site_fract_z
 _atom_site_occupancy
  Gd  Gd0  1  0.635037  0.293977  0.000000  1
  Gd  Gd1  1  0.325355  0.699021  0.000000  1
  Zn  Zn2  1  0.277752  0.251052  0.500000  1
  Zn  Zn3  1  0.725231  0.997492  0.500000  1
  Zn  Zn4  1  0.013025  0.163559  0.000000  1
  Zn  Zn5  1  0.844912  0.838059  0.000000  1
  Zn  Zn6  1  0.030035  0.750649  0.500000  1
  Ge  Ge7  1  0.311271  0.990645  0.500000  1
  Ge  Ge8  1  0.633661  0.638726  0.500000  1
  Ge  Ge9  1  0.025687  0.377902  0.500000  1
  O  O10  1  0.178032  0.998918  0.000000  1
