# generated using pymatgen
data_Sc9(FeGe)10
_symmetry_space_group_name_H-M   'P 1'
_cell_length_a   9.66729321
_cell_length_b   9.66729355
_cell_length_c   9.66729248
_cell_angle_alpha   148.66967134
_cell_angle_beta   96.02122020
_cell_angle_gamma   92.34517222
_symmetry_Int_Tables_number   1
_chemical_formula_structural   Sc9(FeGe)10
_chemical_formula_sum   'Sc9 Fe10 Ge10'
_cell_volume   452.06069790
_cell_formula_units_Z   1
loop_
 _symmetry_equiv_pos_site_id
 _symmetry_equiv_pos_as_xyz
  1  'x, y, z'
loop_
 _atom_site_type_symbol
 _atom_site_label
 _atom_site_symmetry_multiplicity
 _atom_site_fract_x
 _atom_site_fract_y
 _atom_site_fract_z
 _atom_site_occupancy
  Sc  Sc0  1  0.500000  0.000000  0.500000  1
  Sc  Sc1  1  0.783058  0.000000  0.783058  1
  Sc  Sc2  1  0.216942  0.000000  0.216942  1
  Sc  Sc3  1  0.194566  0.194566  0.000000  1
  Sc  Sc4  1  0.805434  0.805434  0.000000  1
  Sc  Sc5  1  0.988999  0.634000  0.355000  1
  Sc  Sc6  1  0.011001  0.366000  0.645000  1
  Sc  Sc7  1  0.721001  0.366000  0.355000  1
  Sc  Sc8  1  0.278999  0.634000  0.645000  1
  Fe  Fe9  1  0.406188  0.406188  0.000000  1
  Fe  Fe10  1  0.593812  0.593812  0.000000  1
  Fe  Fe11  1  0.202151  0.097771  0.606282  1
  Fe  Fe12  1  0.797849  0.404130  0.895619  1
  Fe  Fe13  1  0.508511  0.902229  0.104381  1
  Fe  Fe14  1  0.491489  0.595870  0.393718  1
  Fe  Fe15  1  0.797849  0.902229  0.393718  1
  Fe  Fe16  1  0.202151  0.595870  0.104381  1
  Fe  Fe17  1  0.491489  0.097771  0.895619  1
  Fe  Fe18  1  0.508511  0.404130  0.606282  1
  Ge  Ge19  1  0.000000  0.752371  0.752371  1
  Ge  Ge20  1  0.000000  0.247629  0.247629  1
  Ge  Ge21  1  0.679384  0.500000  0.179384  1
  Ge  Ge22  1  0.320616  0.500000  0.820616  1
  Ge  Ge23  1  0.288008  0.788008  0.500000  1
  Ge  Ge24  1  0.711992  0.211992  0.500000  1
  Ge  Ge25  1  0.995992  0.203914  0.792078  1
  Ge  Ge26  1  0.004008  0.796086  0.207922  1
  Ge  Ge27  1  0.588165  0.796086  0.792078  1
  Ge  Ge28  1  0.411835  0.203914  0.207922  1
