# generated using pymatgen
data_MgGa13Pt6
_symmetry_space_group_name_H-M   'P 1'
_cell_length_a   7.72777342
_cell_length_b   7.72777434
_cell_length_c   7.72777257
_cell_angle_alpha   109.87081686
_cell_angle_beta   109.87081826
_cell_angle_gamma   108.67495365
_symmetry_Int_Tables_number   1
_chemical_formula_structural   MgGa13Pt6
_chemical_formula_sum   'Mg1 Ga13 Pt6'
_cell_volume   355.20446751
_cell_formula_units_Z   1
loop_
 _symmetry_equiv_pos_site_id
 _symmetry_equiv_pos_as_xyz
  1  'x, y, z'
loop_
 _atom_site_type_symbol
 _atom_site_label
 _atom_site_symmetry_multiplicity
 _atom_site_fract_x
 _atom_site_fract_y
 _atom_site_fract_z
 _atom_site_occupancy
  Mg  Mg0  1  0.750000  0.250000  0.500000  1
  Ga  Ga1  1  0.751323  0.500058  0.251264  1
  Ga  Ga2  1  0.499942  0.248677  0.748736  1
  Ga  Ga3  1  0.248794  0.500058  0.748736  1
  Ga  Ga4  1  0.250000  0.750000  0.500000  1
  Ga  Ga5  1  0.499942  0.751206  0.251264  1
  Ga  Ga6  1  0.996965  0.002594  0.328353  1
  Ga  Ga7  1  0.997406  0.325759  0.994371  1
  Ga  Ga8  1  0.331388  0.003035  0.005629  1
  Ga  Ga9  1  0.674241  0.668612  0.671647  1
  Ga  Ga10  1  0.997406  0.003035  0.671647  1
  Ga  Ga11  1  0.996965  0.668612  0.994371  1
  Ga  Ga12  1  0.674241  0.002594  0.005629  1
  Ga  Ga13  1  0.331388  0.325759  0.328353  1
  Pt  Pt14  1  0.657760  0.657760  0.000000  1
  Pt  Pt15  1  0.330896  0.992415  0.338481  1
  Pt  Pt16  1  0.007585  0.346066  0.338481  1
  Pt  Pt17  1  0.342240  0.342240  0.000000  1
  Pt  Pt18  1  0.653934  0.992415  0.661519  1
  Pt  Pt19  1  0.007585  0.669104  0.661519  1
