# generated using pymatgen
data_SmY5V2(Co4P3)4
_symmetry_space_group_name_H-M   'P 1'
_cell_length_a   3.69367900
_cell_length_b   10.56544700
_cell_length_c   12.25131600
_cell_angle_alpha   90.00000000
_cell_angle_beta   90.00000000
_cell_angle_gamma   90.00000000
_symmetry_Int_Tables_number   1
_chemical_formula_structural   SmY5V2(Co4P3)4
_chemical_formula_sum   'Sm1 Y5 V2 Co16 P12'
_cell_volume   478.11213633
_cell_formula_units_Z   1
loop_
 _symmetry_equiv_pos_site_id
 _symmetry_equiv_pos_as_xyz
  1  'x, y, z'
loop_
 _atom_site_type_symbol
 _atom_site_label
 _atom_site_symmetry_multiplicity
 _atom_site_fract_x
 _atom_site_fract_y
 _atom_site_fract_z
 _atom_site_occupancy
  Sm  Sm0  1  0.000000  0.500000  0.523544  1
  Y  Y1  1  0.500000  0.000000  0.476976  1
  Y  Y2  1  0.500000  0.818535  0.204315  1
  Y  Y3  1  0.500000  0.181465  0.204315  1
  Y  Y4  1  0.000000  0.681848  0.796042  1
  Y  Y5  1  0.000000  0.318152  0.796042  1
  V  V6  1  0.500000  0.500000  0.153231  1
  V  V7  1  0.000000  0.000000  0.845991  1
  Co  Co8  1  0.500000  0.500000  0.703300  1
  Co  Co9  1  0.000000  0.000000  0.297846  1
  Co  Co10  1  0.000000  0.500000  0.986718  1
  Co  Co11  1  0.500000  0.000000  0.013223  1
  Co  Co12  1  0.500000  0.332233  0.992959  1
  Co  Co13  1  0.500000  0.667767  0.992959  1
  Co  Co14  1  0.000000  0.167530  0.006998  1
  Co  Co15  1  0.000000  0.832470  0.006998  1
  Co  Co16  1  0.500000  0.294714  0.430769  1
  Co  Co17  1  0.500000  0.705286  0.430769  1
  Co  Co18  1  0.000000  0.203124  0.569016  1
  Co  Co19  1  0.000000  0.796876  0.569016  1
  Co  Co20  1  0.500000  0.879422  0.708178  1
  Co  Co21  1  0.500000  0.120578  0.708178  1
  Co  Co22  1  0.000000  0.621248  0.291545  1
  Co  Co23  1  0.000000  0.378752  0.291545  1
  P  P24  1  0.500000  0.500000  0.882705  1
  P  P25  1  0.000000  0.000000  0.117733  1
  P  P26  1  0.500000  0.500000  0.344766  1
  P  P27  1  0.000000  0.000000  0.653553  1
  P  P28  1  0.500000  0.309133  0.616460  1
  P  P29  1  0.500000  0.690867  0.616460  1
  P  P30  1  0.000000  0.188975  0.384071  1
  P  P31  1  0.000000  0.811025  0.384071  1
  P  P32  1  0.500000  0.846325  0.892261  1
  P  P33  1  0.500000  0.153675  0.892261  1
  P  P34  1  0.000000  0.654017  0.107593  1
  P  P35  1  0.000000  0.345983  0.107593  1
