# generated using pymatgen
data_Er20Cd3Ni2Ag3
_symmetry_space_group_name_H-M   'P 1'
_cell_length_a   9.53455662
_cell_length_b   9.53327576
_cell_length_c   9.43275600
_cell_angle_alpha   90.00000000
_cell_angle_beta   90.00000000
_cell_angle_gamma   120.10432559
_symmetry_Int_Tables_number   1
_chemical_formula_structural   Er20Cd3Ni2Ag3
_chemical_formula_sum   'Er20 Cd3 Ni2 Ag3'
_cell_volume   741.74457010
_cell_formula_units_Z   1
loop_
 _symmetry_equiv_pos_site_id
 _symmetry_equiv_pos_as_xyz
  1  'x, y, z'
loop_
 _atom_site_type_symbol
 _atom_site_label
 _atom_site_symmetry_multiplicity
 _atom_site_fract_x
 _atom_site_fract_y
 _atom_site_fract_z
 _atom_site_occupancy
  Er  Er0  1  0.999933  0.000047  0.471310  1
  Er  Er1  1  0.999933  0.000047  0.028690  1
  Er  Er2  1  0.542773  0.457250  0.250000  1
  Er  Er3  1  0.542863  0.085376  0.250000  1
  Er  Er4  1  0.914631  0.457194  0.250000  1
  Er  Er5  1  0.456753  0.543309  0.750000  1
  Er  Er6  1  0.456718  0.913005  0.750000  1
  Er  Er7  1  0.087037  0.543377  0.750000  1
  Er  Er8  1  0.210978  0.789038  0.438138  1
  Er  Er9  1  0.211033  0.421884  0.438111  1
  Er  Er10  1  0.578196  0.789015  0.438141  1
  Er  Er11  1  0.789791  0.210207  0.559971  1
  Er  Er12  1  0.789732  0.579355  0.559970  1
  Er  Er13  1  0.420694  0.210299  0.559951  1
  Er  Er14  1  0.789791  0.210207  0.940029  1
  Er  Er15  1  0.789732  0.579355  0.940030  1
  Er  Er16  1  0.420694  0.210299  0.940049  1
  Er  Er17  1  0.210978  0.789038  0.061862  1
  Er  Er18  1  0.211033  0.421884  0.061889  1
  Er  Er19  1  0.578196  0.789015  0.061859  1
  Cd  Cd20  1  0.111089  0.888942  0.750000  1
  Cd  Cd21  1  0.111273  0.222008  0.750000  1
  Cd  Cd22  1  0.777745  0.888622  0.750000  1
  Ni  Ni23  1  0.332280  0.667377  0.250000  1
  Ni  Ni24  1  0.666478  0.333168  0.750000  1
  Ag  Ag25  1  0.874997  0.125155  0.250000  1
  Ag  Ag26  1  0.875040  0.750446  0.250000  1
  Ag  Ag27  1  0.249615  0.125075  0.250000  1
