# generated using pymatgen
data_Lu3Zn2Ge3Rh
_symmetry_space_group_name_H-M   'P 1'
_cell_length_a   6.88247290
_cell_length_b   6.88247338
_cell_length_c   4.14924200
_cell_angle_alpha   90.00000000
_cell_angle_beta   90.00000000
_cell_angle_gamma   121.39078570
_symmetry_Int_Tables_number   1
_chemical_formula_structural   Lu3Zn2Ge3Rh
_chemical_formula_sum   'Lu3 Zn2 Ge3 Rh1'
_cell_volume   167.77599118
_cell_formula_units_Z   1
loop_
 _symmetry_equiv_pos_site_id
 _symmetry_equiv_pos_as_xyz
  1  'x, y, z'
loop_
 _atom_site_type_symbol
 _atom_site_label
 _atom_site_symmetry_multiplicity
 _atom_site_fract_x
 _atom_site_fract_y
 _atom_site_fract_z
 _atom_site_occupancy
  Lu  Lu0  1  0.583116  0.998105  0.500000  1
  Lu  Lu1  1  0.435432  0.435432  0.500000  1
  Lu  Lu2  1  0.998105  0.583115  0.500000  1
  Zn  Zn3  1  0.234320  0.987704  0.000000  1
  Zn  Zn4  1  0.987704  0.234319  0.000000  1
  Ge  Ge5  1  0.667871  0.340297  0.000000  1
  Ge  Ge6  1  0.340297  0.667871  0.000000  1
  Ge  Ge7  1  0.998691  0.998691  0.500000  1
  Rh  Rh8  1  0.754466  0.754467  0.000000  1
