# generated using pymatgen
data_DyEr5TcSb2
_symmetry_space_group_name_H-M   'P 1'
_cell_length_a   8.12813900
_cell_length_b   8.12866369
_cell_length_c   4.24474700
_cell_angle_alpha   90.00000000
_cell_angle_beta   90.00000000
_cell_angle_gamma   119.99786072
_symmetry_Int_Tables_number   1
_chemical_formula_structural   DyEr5TcSb2
_chemical_formula_sum   'Dy1 Er5 Tc1 Sb2'
_cell_volume   242.88577528
_cell_formula_units_Z   1
loop_
 _symmetry_equiv_pos_site_id
 _symmetry_equiv_pos_as_xyz
  1  'x, y, z'
loop_
 _atom_site_type_symbol
 _atom_site_label
 _atom_site_symmetry_multiplicity
 _atom_site_fract_x
 _atom_site_fract_y
 _atom_site_fract_z
 _atom_site_occupancy
  Dy  Dy0  1  0.602411  0.000000  0.000000  1
  Er  Er1  1  0.235530  0.000000  0.500000  1
  Er  Er2  1  0.000359  0.235552  0.500000  1
  Er  Er3  1  0.764807  0.764448  0.500000  1
  Er  Er4  1  0.999725  0.603068  0.000000  1
  Er  Er5  1  0.396659  0.396932  0.000000  1
  Tc  Tc6  1  0.001360  0.000000  0.000000  1
  Sb  Sb7  1  0.332470  0.665793  0.500000  1
  Sb  Sb8  1  0.666678  0.334207  0.500000  1
