# generated using pymatgen
data_Hf6Ti4(InSn)3
_symmetry_space_group_name_H-M   'P 1'
_cell_length_a   8.29896600
_cell_length_b   8.29896654
_cell_length_c   5.57850800
_cell_angle_alpha   90.00000000
_cell_angle_beta   90.00000000
_cell_angle_gamma   119.99999786
_symmetry_Int_Tables_number   1
_chemical_formula_structural   Hf6Ti4(InSn)3
_chemical_formula_sum   'Hf6 Ti4 In3 Sn3'
_cell_volume   332.73363150
_cell_formula_units_Z   1
loop_
 _symmetry_equiv_pos_site_id
 _symmetry_equiv_pos_as_xyz
  1  'x, y, z'
loop_
 _atom_site_type_symbol
 _atom_site_label
 _atom_site_symmetry_multiplicity
 _atom_site_fract_x
 _atom_site_fract_y
 _atom_site_fract_z
 _atom_site_occupancy
  Hf  Hf0  1  0.765962  0.765962  0.750000  1
  Hf  Hf1  1  0.234038  0.000000  0.750000  1
  Hf  Hf2  1  0.000000  0.234038  0.750000  1
  Hf  Hf3  1  0.234065  0.234065  0.250000  1
  Hf  Hf4  1  0.765935  0.000000  0.250000  1
  Hf  Hf5  1  0.000000  0.765935  0.250000  1
  Ti  Ti6  1  0.666667  0.333333  0.999655  1
  Ti  Ti7  1  0.333333  0.666667  0.999655  1
  Ti  Ti8  1  0.333333  0.666667  0.500345  1
  Ti  Ti9  1  0.666667  0.333333  0.500345  1
  In  In10  1  0.401396  0.401396  0.750000  1
  In  In11  1  0.598604  0.000000  0.750000  1
  In  In12  1  0.000000  0.598604  0.750000  1
  Sn  Sn13  1  0.599021  0.599021  0.250000  1
  Sn  Sn14  1  0.400979  0.000000  0.250000  1
  Sn  Sn15  1  0.000000  0.400979  0.250000  1
