# generated using pymatgen
data_Dy3Tm2Bi2Ir
_symmetry_space_group_name_H-M   'P 1'
_cell_length_a   7.93511400
_cell_length_b   9.00996600
_cell_length_c   12.52542700
_cell_angle_alpha   90.00000000
_cell_angle_beta   90.00000000
_cell_angle_gamma   90.00000000
_symmetry_Int_Tables_number   1
_chemical_formula_structural   Dy3Tm2Bi2Ir
_chemical_formula_sum   'Dy12 Tm8 Bi8 Ir4'
_cell_volume   895.50674792
_cell_formula_units_Z   4
loop_
 _symmetry_equiv_pos_site_id
 _symmetry_equiv_pos_as_xyz
  1  'x, y, z'
loop_
 _atom_site_type_symbol
 _atom_site_label
 _atom_site_symmetry_multiplicity
 _atom_site_fract_x
 _atom_site_fract_y
 _atom_site_fract_z
 _atom_site_occupancy
  Dy  Dy0  1  0.843297  0.750000  0.794230  1
  Dy  Dy1  1  0.156703  0.250000  0.205770  1
  Dy  Dy2  1  0.343297  0.250000  0.705770  1
  Dy  Dy3  1  0.656703  0.750000  0.294230  1
  Dy  Dy4  1  0.374060  0.750000  0.692190  1
  Dy  Dy5  1  0.625940  0.250000  0.307810  1
  Dy  Dy6  1  0.874060  0.250000  0.807810  1
  Dy  Dy7  1  0.125940  0.750000  0.192190  1
  Dy  Dy8  1  0.946649  0.750000  0.501937  1
  Dy  Dy9  1  0.053351  0.250000  0.498063  1
  Dy  Dy10  1  0.446649  0.250000  0.998063  1
  Dy  Dy11  1  0.553351  0.750000  0.001937  1
  Tm  Tm12  1  0.674275  0.040327  0.565606  1
  Tm  Tm13  1  0.325725  0.959673  0.434394  1
  Tm  Tm14  1  0.174275  0.959673  0.934394  1
  Tm  Tm15  1  0.325725  0.540327  0.434394  1
  Tm  Tm16  1  0.825725  0.040327  0.065606  1
  Tm  Tm17  1  0.674275  0.459673  0.565606  1
  Tm  Tm18  1  0.825725  0.459673  0.065606  1
  Tm  Tm19  1  0.174275  0.540327  0.934394  1
  Bi  Bi20  1  0.566181  0.492425  0.827014  1
  Bi  Bi21  1  0.433819  0.507575  0.172986  1
  Bi  Bi22  1  0.066181  0.507575  0.672986  1
  Bi  Bi23  1  0.433819  0.992425  0.172986  1
  Bi  Bi24  1  0.933819  0.492425  0.327014  1
  Bi  Bi25  1  0.566181  0.007575  0.827014  1
  Bi  Bi26  1  0.933819  0.007575  0.327014  1
  Bi  Bi27  1  0.066181  0.992425  0.672986  1
  Ir  Ir28  1  0.566754  0.750000  0.508182  1
  Ir  Ir29  1  0.433246  0.250000  0.491818  1
  Ir  Ir30  1  0.066754  0.250000  0.991818  1
  Ir  Ir31  1  0.933246  0.750000  0.008182  1
