# generated using pymatgen
data_Mg(PaI4)3
_symmetry_space_group_name_H-M   'P 1'
_cell_length_a   7.27446860
_cell_length_b   8.13705881
_cell_length_c   14.28137700
_cell_angle_alpha   90.00000000
_cell_angle_beta   90.00000000
_cell_angle_gamma   90.00965772
_symmetry_Int_Tables_number   1
_chemical_formula_structural   Mg(PaI4)3
_chemical_formula_sum   'Mg1 Pa3 I12'
_cell_volume   845.35437737
_cell_formula_units_Z   1
loop_
 _symmetry_equiv_pos_site_id
 _symmetry_equiv_pos_as_xyz
  1  'x, y, z'
loop_
 _atom_site_type_symbol
 _atom_site_label
 _atom_site_symmetry_multiplicity
 _atom_site_fract_x
 _atom_site_fract_y
 _atom_site_fract_z
 _atom_site_occupancy
  Mg  Mg0  1  0.749964  0.247864  0.000000  1
  Pa  Pa1  1  0.249760  0.751972  0.500000  1
  Pa  Pa2  1  0.750309  0.752088  0.500000  1
  Pa  Pa3  1  0.249947  0.247982  0.000000  1
  I  I4  1  0.000107  0.597759  0.653569  1
  I  I5  1  0.999988  0.062608  0.500000  1
  I  I6  1  0.990244  0.101889  0.854582  1
  I  I7  1  0.990244  0.101889  0.145418  1
  I  I8  1  0.499947  0.905713  0.347160  1
  I  I9  1  0.509721  0.394051  0.145443  1
  I  I10  1  0.500156  0.442830  0.500000  1
  I  I11  1  0.499947  0.905713  0.652840  1
  I  I12  1  0.509721  0.394051  0.854557  1
  I  I13  1  0.509805  0.954014  0.000000  1
  I  I14  1  0.990037  0.541820  0.000000  1
  I  I15  1  0.000107  0.597759  0.346431  1
