# generated using pymatgen
data_Dy3InIr8
_symmetry_space_group_name_H-M   'P 1'
_cell_length_a   5.35016700
_cell_length_b   5.35016579
_cell_length_c   8.67400400
_cell_angle_alpha   90.00000000
_cell_angle_beta   90.00000000
_cell_angle_gamma   119.99998896
_symmetry_Int_Tables_number   1
_chemical_formula_structural   Dy3InIr8
_chemical_formula_sum   'Dy3 In1 Ir8'
_cell_volume   215.02297982
_cell_formula_units_Z   1
loop_
 _symmetry_equiv_pos_site_id
 _symmetry_equiv_pos_as_xyz
  1  'x, y, z'
loop_
 _atom_site_type_symbol
 _atom_site_label
 _atom_site_symmetry_multiplicity
 _atom_site_fract_x
 _atom_site_fract_y
 _atom_site_fract_z
 _atom_site_occupancy
  Dy  Dy0  1  0.333333  0.666667  0.080037  1
  Dy  Dy1  1  0.666667  0.333333  0.559228  1
  Dy  Dy2  1  0.666667  0.333333  0.931144  1
  In  In3  1  0.333333  0.666667  0.439386  1
  Ir  Ir4  1  0.000000  0.000000  0.996558  1
  Ir  Ir5  1  0.000000  0.000000  0.498448  1
  Ir  Ir6  1  0.830504  0.661008  0.248875  1
  Ir  Ir7  1  0.170489  0.829511  0.749525  1
  Ir  Ir8  1  0.659022  0.829511  0.749525  1
  Ir  Ir9  1  0.338992  0.169496  0.248875  1
  Ir  Ir10  1  0.830504  0.169496  0.248875  1
  Ir  Ir11  1  0.170489  0.340978  0.749525  1
