# generated using pymatgen
data_Er10AlSn3Bi2
_symmetry_space_group_name_H-M   'P 1'
_cell_length_a   8.90709241
_cell_length_b   8.88694670
_cell_length_c   6.47901800
_cell_angle_alpha   90.00000000
_cell_angle_beta   90.00000000
_cell_angle_gamma   119.62875131
_symmetry_Int_Tables_number   1
_chemical_formula_structural   Er10AlSn3Bi2
_chemical_formula_sum   'Er10 Al1 Sn3 Bi2'
_cell_volume   445.80085769
_cell_formula_units_Z   1
loop_
 _symmetry_equiv_pos_site_id
 _symmetry_equiv_pos_as_xyz
  1  'x, y, z'
loop_
 _atom_site_type_symbol
 _atom_site_label
 _atom_site_symmetry_multiplicity
 _atom_site_fract_x
 _atom_site_fract_y
 _atom_site_fract_z
 _atom_site_occupancy
  Er  Er0  1  0.994523  0.755701  0.750000  1
  Er  Er1  1  0.994203  0.235402  0.250000  1
  Er  Er2  1  0.764662  0.763987  0.250000  1
  Er  Er3  1  0.770692  0.007960  0.750000  1
  Er  Er4  1  0.229542  0.245242  0.750000  1
  Er  Er5  1  0.234418  0.993429  0.250000  1
  Er  Er6  1  0.325389  0.661230  0.502448  1
  Er  Er7  1  0.681185  0.337270  0.997792  1
  Er  Er8  1  0.681185  0.337270  0.502208  1
  Er  Er9  1  0.325389  0.661230  0.997552  1
  Al  Al10  1  0.001344  0.400332  0.750000  1
  Sn  Sn11  1  0.001969  0.603911  0.250000  1
  Sn  Sn12  1  0.606458  0.607977  0.750000  1
  Sn  Sn13  1  0.602944  0.997190  0.250000  1
  Bi  Bi14  1  0.392529  0.003200  0.750000  1
  Bi  Bi15  1  0.393569  0.388669  0.250000  1
