# generated using pymatgen
data_CdPd2PtO6
_symmetry_space_group_name_H-M   'P 1'
_cell_length_a   6.32045718
_cell_length_b   6.33423443
_cell_length_c   3.21137000
_cell_angle_alpha   90.00000000
_cell_angle_beta   90.00000000
_cell_angle_gamma   109.28949387
_symmetry_Int_Tables_number   1
_chemical_formula_structural   CdPd2PtO6
_chemical_formula_sum   'Cd1 Pd2 Pt1 O6'
_cell_volume   121.35041399
_cell_formula_units_Z   1
loop_
 _symmetry_equiv_pos_site_id
 _symmetry_equiv_pos_as_xyz
  1  'x, y, z'
loop_
 _atom_site_type_symbol
 _atom_site_label
 _atom_site_symmetry_multiplicity
 _atom_site_fract_x
 _atom_site_fract_y
 _atom_site_fract_z
 _atom_site_occupancy
  Cd  Cd0  1  0.500000  0.500000  0.000000  1
  Pd  Pd1  1  0.000000  0.500000  0.500000  1
  Pd  Pd2  1  0.000000  0.000000  0.000000  1
  Pt  Pt3  1  0.500000  0.000000  0.500000  1
  O  O4  1  0.662580  0.921545  0.000000  1
  O  O5  1  0.337420  0.078455  0.000000  1
  O  O6  1  0.921942  0.666649  0.000000  1
  O  O7  1  0.078058  0.333351  0.000000  1
  O  O8  1  0.662057  0.335804  0.500000  1
  O  O9  1  0.337943  0.664196  0.500000  1
