# generated using pymatgen
data_ErAl5Cu6
_symmetry_space_group_name_H-M   'P 1'
_cell_length_a   10.29714309
_cell_length_b   8.16193487
_cell_length_c   7.80150774
_cell_angle_alpha   80.30352024
_cell_angle_beta   51.38131412
_cell_angle_gamma   48.31517007
_symmetry_Int_Tables_number   1
_chemical_formula_structural   ErAl5Cu6
_chemical_formula_sum   'Er2 Al10 Cu12'
_cell_volume   346.72666179
_cell_formula_units_Z   2
loop_
 _symmetry_equiv_pos_site_id
 _symmetry_equiv_pos_as_xyz
  1  'x, y, z'
loop_
 _atom_site_type_symbol
 _atom_site_label
 _atom_site_symmetry_multiplicity
 _atom_site_fract_x
 _atom_site_fract_y
 _atom_site_fract_z
 _atom_site_occupancy
  Er  Er0  1  0.000000  0.000000  0.000000  1
  Er  Er1  1  0.250000  0.250000  0.250000  1
  Al  Al2  1  0.500000  0.500000  0.500000  1
  Al  Al3  1  0.750000  0.750000  0.750000  1
  Al  Al4  1  0.754336  0.071499  0.836601  1
  Al  Al5  1  0.836601  0.337565  0.754336  1
  Al  Al6  1  0.071499  0.754336  0.337565  1
  Al  Al7  1  0.337565  0.836601  0.071499  1
  Al  Al8  1  0.495664  0.178501  0.413399  1
  Al  Al9  1  0.413399  0.912435  0.495664  1
  Al  Al10  1  0.178501  0.495664  0.912435  1
  Al  Al11  1  0.912435  0.413399  0.178501  1
  Cu  Cu12  1  0.625000  0.125000  0.625000  1
  Cu  Cu13  1  0.625000  0.625000  0.625000  1
  Cu  Cu14  1  0.125000  0.625000  0.625000  1
  Cu  Cu15  1  0.625000  0.625000  0.125000  1
  Cu  Cu16  1  0.492058  0.433921  0.182949  1
  Cu  Cu17  1  0.182949  0.891072  0.492058  1
  Cu  Cu18  1  0.433921  0.492058  0.891072  1
  Cu  Cu19  1  0.891072  0.182949  0.433921  1
  Cu  Cu20  1  0.757942  0.816079  0.067051  1
  Cu  Cu21  1  0.067051  0.358928  0.757942  1
  Cu  Cu22  1  0.816079  0.757942  0.358928  1
  Cu  Cu23  1  0.358928  0.067051  0.816079  1
