# generated using pymatgen
data_Y2Mn2Co9As7Ru
_symmetry_space_group_name_H-M   'P 1'
_cell_length_a   3.76704700
_cell_length_b   9.43450607
_cell_length_c   9.45939572
_cell_angle_alpha   120.46617720
_cell_angle_beta   90.00000000
_cell_angle_gamma   90.00000000
_symmetry_Int_Tables_number   1
_chemical_formula_structural   Y2Mn2Co9As7Ru
_chemical_formula_sum   'Y2 Mn2 Co9 As7 Ru1'
_cell_volume   289.77098875
_cell_formula_units_Z   1
loop_
 _symmetry_equiv_pos_site_id
 _symmetry_equiv_pos_as_xyz
  1  'x, y, z'
loop_
 _atom_site_type_symbol
 _atom_site_label
 _atom_site_symmetry_multiplicity
 _atom_site_fract_x
 _atom_site_fract_y
 _atom_site_fract_z
 _atom_site_occupancy
  Y  Y0  1  0.000000  0.665354  0.333250  1
  Y  Y1  1  0.500000  0.335774  0.669043  1
  Mn  Mn2  1  0.500000  0.114332  0.221988  1
  Mn  Mn3  1  0.500000  0.103900  0.882750  1
  Co  Co4  1  0.000000  0.572098  0.941605  1
  Co  Co5  1  0.000000  0.371183  0.430075  1
  Co  Co6  1  0.000000  0.060056  0.629063  1
  Co  Co7  1  0.000000  0.879650  0.158604  1
  Co  Co8  1  0.000000  0.275318  0.116935  1
  Co  Co9  1  0.000000  0.840049  0.717568  1
  Co  Co10  1  0.500000  0.949241  0.383507  1
  Co  Co11  1  0.500000  0.436058  0.051122  1
  Co  Co12  1  0.500000  0.617050  0.564598  1
  As  As13  1  0.000000  0.996627  0.997974  1
  As  As14  1  0.500000  0.709655  0.118531  1
  As  As15  1  0.500000  0.406830  0.289603  1
  As  As16  1  0.500000  0.882979  0.590158  1
  As  As17  1  0.000000  0.588233  0.701159  1
  As  As18  1  0.000000  0.114779  0.415604  1
  As  As19  1  0.000000  0.300945  0.885563  1
  Ru  Ru20  1  0.500000  0.779887  0.901300  1
