# generated using pymatgen
data_SmTh7(Si3Rh)4
_symmetry_space_group_name_H-M   'P 1'
_cell_length_a   8.24920421
_cell_length_b   8.21578702
_cell_length_c   8.43918900
_cell_angle_alpha   90.00000000
_cell_angle_beta   90.00000000
_cell_angle_gamma   119.86612735
_symmetry_Int_Tables_number   1
_chemical_formula_structural   SmTh7(Si3Rh)4
_chemical_formula_sum   'Sm1 Th7 Si12 Rh4'
_cell_volume   495.99448963
_cell_formula_units_Z   1
loop_
 _symmetry_equiv_pos_site_id
 _symmetry_equiv_pos_as_xyz
  1  'x, y, z'
loop_
 _atom_site_type_symbol
 _atom_site_label
 _atom_site_symmetry_multiplicity
 _atom_site_fract_x
 _atom_site_fract_y
 _atom_site_fract_z
 _atom_site_occupancy
  Sm  Sm0  1  0.999635  0.499817  0.750000  1
  Th  Th1  1  0.000059  0.000029  0.250000  1
  Th  Th2  1  0.999983  0.999992  0.750000  1
  Th  Th3  1  0.499980  0.500041  0.250000  1
  Th  Th4  1  0.499977  0.999936  0.250000  1
  Th  Th5  1  0.000118  0.500058  0.250000  1
  Th  Th6  1  0.500061  0.500020  0.750000  1
  Th  Th7  1  0.500064  0.000046  0.750000  1
  Si  Si8  1  0.165940  0.832032  0.501426  1
  Si  Si9  1  0.165939  0.333907  0.501426  1
  Si  Si10  1  0.669071  0.834536  0.499440  1
  Si  Si11  1  0.834083  0.167964  0.501027  1
  Si  Si12  1  0.834083  0.666118  0.501027  1
  Si  Si13  1  0.330952  0.165475  0.499216  1
  Si  Si14  1  0.834083  0.167964  0.998973  1
  Si  Si15  1  0.834083  0.666118  0.998973  1
  Si  Si16  1  0.330952  0.165475  0.000784  1
  Si  Si17  1  0.165940  0.832032  0.998574  1
  Si  Si18  1  0.165939  0.333907  0.998574  1
  Si  Si19  1  0.669071  0.834536  0.000560  1
  Rh  Rh20  1  0.336492  0.668248  0.499733  1
  Rh  Rh21  1  0.663503  0.331750  0.499703  1
  Rh  Rh22  1  0.663503  0.331750  0.000297  1
  Rh  Rh23  1  0.336492  0.668248  0.000267  1
