# generated using pymatgen
data_Y4Re2B16MoW
_symmetry_space_group_name_H-M   'P 1'
_cell_length_a   3.62262900
_cell_length_b   6.01208360
_cell_length_c   11.63014814
_cell_angle_alpha   89.94920649
_cell_angle_beta   90.00000000
_cell_angle_gamma   90.00000000
_symmetry_Int_Tables_number   1
_chemical_formula_structural   Y4Re2B16MoW
_chemical_formula_sum   'Y4 Re2 B16 Mo1 W1'
_cell_volume   253.29927494
_cell_formula_units_Z   1
loop_
 _symmetry_equiv_pos_site_id
 _symmetry_equiv_pos_as_xyz
  1  'x, y, z'
loop_
 _atom_site_type_symbol
 _atom_site_label
 _atom_site_symmetry_multiplicity
 _atom_site_fract_x
 _atom_site_fract_y
 _atom_site_fract_z
 _atom_site_occupancy
  Y  Y0  1  0.000000  0.127398  0.149312  1
  Y  Y1  1  0.000000  0.872617  0.850512  1
  Y  Y2  1  0.000000  0.626758  0.349272  1
  Y  Y3  1  0.000000  0.373544  0.650838  1
  Re  Re4  1  0.000000  0.633786  0.086656  1
  Re  Re5  1  0.000000  0.366056  0.913407  1
  B  B6  1  0.500000  0.477314  0.191194  1
  B  B7  1  0.500000  0.522834  0.808751  1
  B  B8  1  0.500000  0.975539  0.305790  1
  B  B9  1  0.500000  0.023977  0.694106  1
  B  B10  1  0.500000  0.289141  0.313232  1
  B  B11  1  0.500000  0.711289  0.686436  1
  B  B12  1  0.500000  0.784977  0.184101  1
  B  B13  1  0.500000  0.214975  0.815826  1
  B  B14  1  0.500000  0.367085  0.467779  1
  B  B15  1  0.500000  0.633367  0.532465  1
  B  B16  1  0.500000  0.862947  0.030901  1
  B  B17  1  0.500000  0.137043  0.969063  1
  B  B18  1  0.500000  0.386863  0.047143  1
  B  B19  1  0.500000  0.613164  0.952871  1
  B  B20  1  0.500000  0.884990  0.452707  1
  B  B21  1  0.500000  0.114512  0.547623  1
  Mo  Mo22  1  0.000000  0.870347  0.585010  1
  W  W23  1  0.000000  0.129478  0.415005  1
