# generated using pymatgen
data_Rb3Ga2(AsO4)3
_symmetry_space_group_name_H-M   'P 1'
_cell_length_a   9.06393821
_cell_length_b   9.45608900
_cell_length_c   10.24504900
_cell_angle_alpha   90.00000000
_cell_angle_beta   116.25436036
_cell_angle_gamma   90.00000000
_symmetry_Int_Tables_number   1
_chemical_formula_structural   Rb3Ga2(AsO4)3
_chemical_formula_sum   'Rb6 Ga4 As6 O24'
_cell_volume   787.51176642
_cell_formula_units_Z   2
loop_
 _symmetry_equiv_pos_site_id
 _symmetry_equiv_pos_as_xyz
  1  'x, y, z'
loop_
 _atom_site_type_symbol
 _atom_site_label
 _atom_site_symmetry_multiplicity
 _atom_site_fract_x
 _atom_site_fract_y
 _atom_site_fract_z
 _atom_site_occupancy
  Rb  Rb0  1  0.640768  0.346330  0.000000  1
  Rb  Rb1  1  0.359232  0.846330  0.000000  1
  Rb  Rb2  1  0.066522  0.033544  0.232673  1
  Rb  Rb3  1  0.166151  0.533544  0.232673  1
  Rb  Rb4  1  0.833848  0.033544  0.767328  1
  Rb  Rb5  1  0.933479  0.533544  0.767328  1
  Ga  Ga6  1  0.511062  0.177535  0.333593  1
  Ga  Ga7  1  0.822531  0.677535  0.333593  1
  Ga  Ga8  1  0.177469  0.177535  0.666406  1
  Ga  Ga9  1  0.488937  0.677535  0.666406  1
  As  As10  1  0.227631  0.236997  0.000000  1
  As  As11  1  0.772369  0.736997  0.000000  1
  As  As12  1  0.875410  0.343572  0.411600  1
  As  As13  1  0.536190  0.843572  0.411600  1
  As  As14  1  0.463811  0.343572  0.588401  1
  As  As15  1  0.124590  0.843572  0.588401  1
  O  O16  1  0.041100  0.237390  0.000000  1
  O  O17  1  0.311780  0.395961  0.000000  1
  O  O18  1  0.958900  0.737390  0.000000  1
  O  O19  1  0.688220  0.895962  0.000000  1
  O  O20  1  0.361937  0.126213  0.146314  1
  O  O21  1  0.784376  0.626213  0.146314  1
  O  O22  1  0.973780  0.320703  0.308398  1
  O  O23  1  0.334618  0.820703  0.308398  1
  O  O24  1  0.677681  0.276009  0.315890  1
  O  O25  1  0.638209  0.776009  0.315890  1
  O  O26  1  0.387566  0.273433  0.412568  1
  O  O27  1  0.025001  0.773434  0.412568  1
  O  O28  1  0.601256  0.019091  0.450218  1
  O  O29  1  0.848962  0.519091  0.450218  1
  O  O30  1  0.151038  0.019091  0.549782  1
  O  O31  1  0.398744  0.519091  0.549782  1
  O  O32  1  0.974999  0.273433  0.587433  1
  O  O33  1  0.612433  0.773434  0.587433  1
  O  O34  1  0.361791  0.276009  0.684109  1
  O  O35  1  0.322318  0.776009  0.684109  1
  O  O36  1  0.665382  0.320703  0.691601  1
  O  O37  1  0.026220  0.820703  0.691601  1
  O  O38  1  0.215624  0.126213  0.853685  1
  O  O39  1  0.638062  0.626213  0.853685  1
