# generated using pymatgen
data_LiNd3Dy2(P2Ru3)6
_symmetry_space_group_name_H-M   'P 1'
_cell_length_a   12.67818971
_cell_length_b   12.48465417
_cell_length_c   3.99411100
_cell_angle_alpha   90.00000000
_cell_angle_beta   90.00000000
_cell_angle_gamma   119.49630726
_symmetry_Int_Tables_number   1
_chemical_formula_structural   LiNd3Dy2(P2Ru3)6
_chemical_formula_sum   'Li1 Nd3 Dy2 P12 Ru18'
_cell_volume   550.25817560
_cell_formula_units_Z   1
loop_
 _symmetry_equiv_pos_site_id
 _symmetry_equiv_pos_as_xyz
  1  'x, y, z'
loop_
 _atom_site_type_symbol
 _atom_site_label
 _atom_site_symmetry_multiplicity
 _atom_site_fract_x
 _atom_site_fract_y
 _atom_site_fract_z
 _atom_site_occupancy
  Li  Li0  1  0.000000  0.561879  0.000000  1
  Nd  Nd1  1  0.000000  0.182629  0.500000  1
  Nd  Nd2  1  0.817228  0.814429  0.500000  1
  Nd  Nd3  1  0.182772  0.997201  0.500000  1
  Dy  Dy4  1  0.658018  0.328105  0.000000  1
  Dy  Dy5  1  0.341982  0.670087  0.000000  1
  P  P6  1  0.000000  0.803263  0.000000  1
  P  P7  1  0.184649  0.186347  0.000000  1
  P  P8  1  0.815351  0.001699  0.000000  1
  P  P9  1  0.692829  0.174727  0.500000  1
  P  P10  1  0.816556  0.517350  0.500000  1
  P  P11  1  0.473350  0.305296  0.500000  1
  P  P12  1  0.183444  0.700794  0.500000  1
  P  P13  1  0.526650  0.831946  0.500000  1
  P  P14  1  0.307171  0.481896  0.500000  1
  P  P15  1  0.000000  0.370495  0.000000  1
  P  P16  1  0.624018  0.623864  0.000000  1
  P  P17  1  0.375982  0.999846  0.000000  1
  Ru  Ru18  1  0.443356  0.445552  0.000000  1
  Ru  Ru19  1  0.556644  0.002196  0.000000  1
  Ru  Ru20  1  0.000000  0.706018  0.500000  1
  Ru  Ru21  1  0.282646  0.285911  0.500000  1
  Ru  Ru22  1  0.717354  0.003265  0.500000  1
  Ru  Ru23  1  0.803905  0.188020  0.000000  1
  Ru  Ru24  1  0.811648  0.614621  0.000000  1
  Ru  Ru25  1  0.375387  0.191935  0.000000  1
  Ru  Ru26  1  0.188352  0.802973  0.000000  1
  Ru  Ru27  1  0.624613  0.816548  0.000000  1
  Ru  Ru28  1  0.196095  0.384115  0.000000  1
  Ru  Ru29  1  0.876125  0.369366  0.500000  1
  Ru  Ru30  1  0.628555  0.506970  0.500000  1
  Ru  Ru31  1  0.493056  0.128332  0.500000  1
  Ru  Ru32  1  0.371445  0.878416  0.500000  1
  Ru  Ru33  1  0.506944  0.635276  0.500000  1
  Ru  Ru34  1  0.123875  0.493241  0.500000  1
  Ru  Ru35  1  0.000000  0.995398  0.000000  1
