# generated using pymatgen
data_LaPr2Cd3IrPd2
_symmetry_space_group_name_H-M   'P 1'
_cell_length_a   7.72782666
_cell_length_b   7.74401012
_cell_length_c   4.07612900
_cell_angle_alpha   90.00000000
_cell_angle_beta   90.00000000
_cell_angle_gamma   119.19757401
_symmetry_Int_Tables_number   1
_chemical_formula_structural   LaPr2Cd3IrPd2
_chemical_formula_sum   'La1 Pr2 Cd3 Ir1 Pd2'
_cell_volume   212.93985712
_cell_formula_units_Z   1
loop_
 _symmetry_equiv_pos_site_id
 _symmetry_equiv_pos_as_xyz
  1  'x, y, z'
loop_
 _atom_site_type_symbol
 _atom_site_label
 _atom_site_symmetry_multiplicity
 _atom_site_fract_x
 _atom_site_fract_y
 _atom_site_fract_z
 _atom_site_occupancy
  La  La0  1  0.421626  0.404933  0.500000  1
  Pr  Pr1  1  0.986224  0.584762  0.500000  1
  Pr  Pr2  1  0.598143  0.013458  0.500000  1
  Cd  Cd3  1  0.750433  0.754024  0.000000  1
  Cd  Cd4  1  0.249551  0.993325  0.000000  1
  Cd  Cd5  1  0.001507  0.252516  0.000000  1
  Ir  Ir6  1  0.660782  0.333769  0.000000  1
  Pd  Pd7  1  0.999603  0.999823  0.500000  1
  Pd  Pd8  1  0.332131  0.663390  0.000000  1
