# generated using pymatgen
data_La4Sn11Hg
_symmetry_space_group_name_H-M   'P 1'
_cell_length_a   9.73950900
_cell_length_b   6.75131554
_cell_length_c   6.75132034
_cell_angle_alpha   89.85654245
_cell_angle_beta   90.00000000
_cell_angle_gamma   90.00000000
_symmetry_Int_Tables_number   1
_chemical_formula_structural   La4Sn11Hg
_chemical_formula_sum   'La4 Sn11 Hg1'
_cell_volume   443.92829162
_cell_formula_units_Z   1
loop_
 _symmetry_equiv_pos_site_id
 _symmetry_equiv_pos_as_xyz
  1  'x, y, z'
loop_
 _atom_site_type_symbol
 _atom_site_label
 _atom_site_symmetry_multiplicity
 _atom_site_fract_x
 _atom_site_fract_y
 _atom_site_fract_z
 _atom_site_occupancy
  La  La0  1  0.250000  0.011046  0.002277  1
  La  La1  1  0.250000  0.494690  0.505555  1
  La  La2  1  0.750000  0.994784  0.999575  1
  La  La3  1  0.750000  0.509593  0.498759  1
  Sn  Sn4  1  0.996561  0.239621  0.739232  1
  Sn  Sn5  1  0.504289  0.255380  0.247198  1
  Sn  Sn6  1  0.497428  0.752533  0.251625  1
  Sn  Sn7  1  0.000409  0.744360  0.757791  1
  Sn  Sn8  1  0.002572  0.752533  0.251625  1
  Sn  Sn9  1  0.499591  0.744360  0.757791  1
  Sn  Sn10  1  0.503439  0.239621  0.739232  1
  Sn  Sn11  1  0.995711  0.255380  0.247198  1
  Sn  Sn12  1  0.250000  0.995421  0.502593  1
  Sn  Sn13  1  0.250000  0.510525  0.005643  1
  Sn  Sn14  1  0.750000  0.008109  0.498333  1
  Hg  Hg15  1  0.750000  0.492044  0.995571  1
