# generated using pymatgen
data_CrTc6RuO24
_symmetry_space_group_name_H-M   'P 1'
_cell_length_a   10.23461673
_cell_length_b   10.23461639
_cell_length_c   10.23461600
_cell_angle_alpha   49.07359838
_cell_angle_beta   49.07360745
_cell_angle_gamma   49.07360421
_symmetry_Int_Tables_number   1
_chemical_formula_structural   CrTc6RuO24
_chemical_formula_sum   'Cr1 Tc6 Ru1 O24'
_cell_volume   562.01059376
_cell_formula_units_Z   1
loop_
 _symmetry_equiv_pos_site_id
 _symmetry_equiv_pos_as_xyz
  1  'x, y, z'
loop_
 _atom_site_type_symbol
 _atom_site_label
 _atom_site_symmetry_multiplicity
 _atom_site_fract_x
 _atom_site_fract_y
 _atom_site_fract_z
 _atom_site_occupancy
  Cr  Cr0  1  0.000000  0.000000  0.000000  1
  Tc  Tc1  1  0.593999  0.906870  0.249599  1
  Tc  Tc2  1  0.249599  0.593999  0.906870  1
  Tc  Tc3  1  0.906870  0.249599  0.593999  1
  Tc  Tc4  1  0.750401  0.406001  0.093130  1
  Tc  Tc5  1  0.093130  0.750401  0.406001  1
  Tc  Tc6  1  0.406001  0.093130  0.750401  1
  Ru  Ru7  1  0.500000  0.500000  0.500000  1
  O  O8  1  0.820615  0.879646  0.174496  1
  O  O9  1  0.174496  0.820615  0.879646  1
  O  O10  1  0.879646  0.174496  0.820615  1
  O  O11  1  0.673938  0.379699  0.321033  1
  O  O12  1  0.321033  0.673938  0.379699  1
  O  O13  1  0.379699  0.321033  0.673938  1
  O  O14  1  0.179385  0.120354  0.825504  1
  O  O15  1  0.825504  0.179385  0.120354  1
  O  O16  1  0.120354  0.825504  0.179385  1
  O  O17  1  0.326062  0.620301  0.678967  1
  O  O18  1  0.678967  0.326062  0.620301  1
  O  O19  1  0.620301  0.678967  0.326062  1
  O  O20  1  0.435994  0.981371  0.429574  1
  O  O21  1  0.429574  0.435994  0.981371  1
  O  O22  1  0.981371  0.429574  0.435994  1
  O  O23  1  0.930782  0.480072  0.935473  1
  O  O24  1  0.935473  0.930782  0.480072  1
  O  O25  1  0.480072  0.935473  0.930782  1
  O  O26  1  0.564006  0.018629  0.570426  1
  O  O27  1  0.570426  0.564006  0.018629  1
  O  O28  1  0.018629  0.570426  0.564006  1
  O  O29  1  0.069218  0.519928  0.064527  1
  O  O30  1  0.064527  0.069218  0.519928  1
  O  O31  1  0.519928  0.064527  0.069218  1
