# generated using pymatgen
data_Ba8Ta(SbO6)3
_symmetry_space_group_name_H-M   'P 1'
_cell_length_a   6.18275400
_cell_length_b   6.18275434
_cell_length_c   16.73184000
_cell_angle_alpha   90.00000000
_cell_angle_beta   90.00000000
_cell_angle_gamma   119.99998748
_symmetry_Int_Tables_number   1
_chemical_formula_structural   Ba8Ta(SbO6)3
_chemical_formula_sum   'Ba8 Ta1 Sb3 O18'
_cell_volume   553.90890544
_cell_formula_units_Z   1
loop_
 _symmetry_equiv_pos_site_id
 _symmetry_equiv_pos_as_xyz
  1  'x, y, z'
loop_
 _atom_site_type_symbol
 _atom_site_label
 _atom_site_symmetry_multiplicity
 _atom_site_fract_x
 _atom_site_fract_y
 _atom_site_fract_z
 _atom_site_occupancy
  Ba  Ba0  1  0.000000  0.000000  0.751695  1
  Ba  Ba1  1  0.000000  0.000000  0.243071  1
  Ba  Ba2  1  0.666667  0.333333  0.630074  1
  Ba  Ba3  1  0.333333  0.666667  0.127022  1
  Ba  Ba4  1  0.333333  0.666667  0.363617  1
  Ba  Ba5  1  0.666667  0.333333  0.874218  1
  Ba  Ba6  1  0.000000  0.000000  0.500900  1
  Ba  Ba7  1  0.000000  0.000000  0.000781  1
  Ta  Ta8  1  0.666667  0.333333  0.343421  1
  Sb  Sb9  1  0.333333  0.666667  0.838445  1
  Sb  Sb10  1  0.333333  0.666667  0.661104  1
  Sb  Sb11  1  0.666667  0.333333  0.163939  1
  O  O12  1  0.524421  0.949510  0.749877  1
  O  O13  1  0.050490  0.574912  0.749877  1
  O  O14  1  0.425088  0.475579  0.749877  1
  O  O15  1  0.474134  0.048433  0.249894  1
  O  O16  1  0.951567  0.425701  0.249894  1
  O  O17  1  0.574299  0.525866  0.249894  1
  O  O18  1  0.106288  0.352925  0.607170  1
  O  O19  1  0.647075  0.753362  0.607170  1
  O  O20  1  0.246638  0.893712  0.607170  1
  O  O21  1  0.889616  0.647394  0.108045  1
  O  O22  1  0.352606  0.242221  0.108045  1
  O  O23  1  0.757779  0.110384  0.108045  1
  O  O24  1  0.894843  0.639758  0.393190  1
  O  O25  1  0.360242  0.255085  0.393190  1
  O  O26  1  0.744915  0.105157  0.393190  1
  O  O27  1  0.107774  0.352574  0.892395  1
  O  O28  1  0.647426  0.755199  0.892395  1
  O  O29  1  0.244801  0.892226  0.892395  1
