# generated using pymatgen
data_Ho5Zr2P12Ir17
_symmetry_space_group_name_H-M   'P 1'
_cell_length_a   12.89901803
_cell_length_b   12.89901761
_cell_length_c   3.97882000
_cell_angle_alpha   90.00000000
_cell_angle_beta   90.00000000
_cell_angle_gamma   121.18647822
_symmetry_Int_Tables_number   1
_chemical_formula_structural   Ho5Zr2P12Ir17
_chemical_formula_sum   'Ho5 Zr2 P12 Ir17'
_cell_volume   566.34456065
_cell_formula_units_Z   1
loop_
 _symmetry_equiv_pos_site_id
 _symmetry_equiv_pos_as_xyz
  1  'x, y, z'
loop_
 _atom_site_type_symbol
 _atom_site_label
 _atom_site_symmetry_multiplicity
 _atom_site_fract_x
 _atom_site_fract_y
 _atom_site_fract_z
 _atom_site_occupancy
  Ho  Ho0  1  0.330931  0.669578  0.000000  1
  Ho  Ho1  1  0.669578  0.330931  0.000000  1
  Ho  Ho2  1  0.817009  0.999851  0.500000  1
  Ho  Ho3  1  0.999851  0.817009  0.500000  1
  Ho  Ho4  1  0.187199  0.187199  0.500000  1
  Zr  Zr5  1  0.449066  0.002146  0.000000  1
  Zr  Zr6  1  0.002146  0.449066  0.000000  1
  P  P7  1  0.174786  0.001195  0.000000  1
  P  P8  1  0.001195  0.174786  0.000000  1
  P  P9  1  0.818976  0.818976  0.000000  1
  P  P10  1  0.171488  0.484903  0.500000  1
  P  P11  1  0.515980  0.689910  0.500000  1
  P  P12  1  0.315703  0.835075  0.500000  1
  P  P13  1  0.689910  0.515980  0.500000  1
  P  P14  1  0.835075  0.315703  0.500000  1
  P  P15  1  0.484903  0.171488  0.500000  1
  P  P16  1  0.645716  0.993635  0.000000  1
  P  P17  1  0.993635  0.645716  0.000000  1
  P  P18  1  0.354995  0.354995  0.000000  1
  Ir  Ir19  1  0.534885  0.534885  0.000000  1
  Ir  Ir20  1  0.359888  0.495320  0.500000  1
  Ir  Ir21  1  0.515078  0.871519  0.500000  1
  Ir  Ir22  1  0.140718  0.644929  0.500000  1
  Ir  Ir23  1  0.871519  0.515078  0.500000  1
  Ir  Ir24  1  0.644929  0.140718  0.500000  1
  Ir  Ir25  1  0.495320  0.359888  0.500000  1
  Ir  Ir26  1  0.184251  0.375460  0.000000  1
  Ir  Ir27  1  0.622198  0.796560  0.000000  1
  Ir  Ir28  1  0.187267  0.821948  0.000000  1
  Ir  Ir29  1  0.796560  0.622198  0.000000  1
  Ir  Ir30  1  0.821948  0.187267  0.000000  1
  Ir  Ir31  1  0.375460  0.184251  0.000000  1
  Ir  Ir32  1  0.280334  0.002948  0.500000  1
  Ir  Ir33  1  0.002948  0.280334  0.500000  1
  Ir  Ir34  1  0.711941  0.711941  0.500000  1
  Ir  Ir35  1  0.996613  0.996613  0.000000  1
