# generated using pymatgen
data_Ba4Re(N2F)2
_symmetry_space_group_name_H-M   'P 1'
_cell_length_a   5.94493300
_cell_length_b   8.55470771
_cell_length_c   10.03471260
_cell_angle_alpha   94.78282028
_cell_angle_beta   90.00000000
_cell_angle_gamma   90.00000000
_symmetry_Int_Tables_number   1
_chemical_formula_structural   Ba4Re(N2F)2
_chemical_formula_sum   'Ba8 Re2 N8 F4'
_cell_volume   508.55998414
_cell_formula_units_Z   2
loop_
 _symmetry_equiv_pos_site_id
 _symmetry_equiv_pos_as_xyz
  1  'x, y, z'
loop_
 _atom_site_type_symbol
 _atom_site_label
 _atom_site_symmetry_multiplicity
 _atom_site_fract_x
 _atom_site_fract_y
 _atom_site_fract_z
 _atom_site_occupancy
  Ba  Ba0  1  0.750001  0.196111  0.051227  1
  Ba  Ba1  1  0.750001  0.722381  0.267431  1
  Ba  Ba2  1  0.250000  0.017666  0.357092  1
  Ba  Ba3  1  0.250000  0.466103  0.345628  1
  Ba  Ba4  1  0.750001  0.533897  0.654372  1
  Ba  Ba5  1  0.750001  0.982333  0.642909  1
  Ba  Ba6  1  0.250000  0.277619  0.732570  1
  Ba  Ba7  1  0.250000  0.803889  0.948772  1
  Re  Re8  1  0.750001  0.244097  0.393538  1
  Re  Re9  1  0.250000  0.755904  0.606463  1
  N  N10  1  0.750001  0.050931  0.295397  1
  N  N11  1  0.750001  0.399202  0.277361  1
  N  N12  1  0.999265  0.736233  0.499560  1
  N  N13  1  0.500735  0.736233  0.499560  1
  N  N14  1  0.499264  0.263767  0.500440  1
  N  N15  1  0.000736  0.263767  0.500440  1
  N  N16  1  0.250000  0.600798  0.722639  1
  N  N17  1  0.250000  0.949068  0.704603  1
  F  F18  1  0.250000  0.087548  0.095713  1
  F  F19  1  0.250000  0.742592  0.209633  1
  F  F20  1  0.750001  0.257409  0.790367  1
  F  F21  1  0.750001  0.912451  0.904287  1
