# generated using pymatgen
data_HfZr4Sn3Ge
_symmetry_space_group_name_H-M   'P 1'
_cell_length_a   8.69280200
_cell_length_b   8.69280169
_cell_length_c   5.93137500
_cell_angle_alpha   90.00000000
_cell_angle_beta   90.00000000
_cell_angle_gamma   120.00000119
_symmetry_Int_Tables_number   1
_chemical_formula_structural   HfZr4Sn3Ge
_chemical_formula_sum   'Hf2 Zr8 Sn6 Ge2'
_cell_volume   388.15534276
_cell_formula_units_Z   2
loop_
 _symmetry_equiv_pos_site_id
 _symmetry_equiv_pos_as_xyz
  1  'x, y, z'
loop_
 _atom_site_type_symbol
 _atom_site_label
 _atom_site_symmetry_multiplicity
 _atom_site_fract_x
 _atom_site_fract_y
 _atom_site_fract_z
 _atom_site_occupancy
  Hf  Hf0  1  0.333333  0.666667  0.000000  1
  Hf  Hf1  1  0.666667  0.333333  0.500000  1
  Zr  Zr2  1  0.666667  0.333333  0.000000  1
  Zr  Zr3  1  0.333333  0.666667  0.500000  1
  Zr  Zr4  1  0.263072  0.000000  0.250000  1
  Zr  Zr5  1  0.263072  0.263072  0.750000  1
  Zr  Zr6  1  0.000000  0.736928  0.750000  1
  Zr  Zr7  1  0.000000  0.263072  0.250000  1
  Zr  Zr8  1  0.736928  0.736928  0.250000  1
  Zr  Zr9  1  0.736928  0.000000  0.750000  1
  Sn  Sn10  1  0.607267  0.000000  0.250000  1
  Sn  Sn11  1  0.607267  0.607267  0.750000  1
  Sn  Sn12  1  0.000000  0.392733  0.750000  1
  Sn  Sn13  1  0.000000  0.607267  0.250000  1
  Sn  Sn14  1  0.392733  0.392733  0.250000  1
  Sn  Sn15  1  0.392733  0.000000  0.750000  1
  Ge  Ge16  1  0.000000  0.000000  0.000000  1
  Ge  Ge17  1  0.000000  0.000000  0.500000  1
