# generated using pymatgen
data_Li3(WF6)2
_symmetry_space_group_name_H-M   'P 1'
_cell_length_a   9.37526000
_cell_length_b   5.12874751
_cell_length_c   9.89756653
_cell_angle_alpha   86.59039938
_cell_angle_beta   90.00000000
_cell_angle_gamma   90.00000000
_symmetry_Int_Tables_number   1
_chemical_formula_structural   Li3(WF6)2
_chemical_formula_sum   'Li6 W4 F24'
_cell_volume   475.06565427
_cell_formula_units_Z   2
loop_
 _symmetry_equiv_pos_site_id
 _symmetry_equiv_pos_as_xyz
  1  'x, y, z'
loop_
 _atom_site_type_symbol
 _atom_site_label
 _atom_site_symmetry_multiplicity
 _atom_site_fract_x
 _atom_site_fract_y
 _atom_site_fract_z
 _atom_site_occupancy
  Li  Li0  1  0.406833  0.982374  0.886327  1
  Li  Li1  1  0.848165  0.508226  0.622737  1
  Li  Li2  1  0.294918  0.012674  0.605321  1
  Li  Li3  1  0.593167  0.982374  0.386327  1
  Li  Li4  1  0.151835  0.508226  0.122737  1
  Li  Li5  1  0.705082  0.012674  0.105321  1
  W  W6  1  0.005328  0.002940  0.868059  1
  W  W7  1  0.509110  0.493905  0.631431  1
  W  W8  1  0.994672  0.002940  0.368059  1
  W  W9  1  0.490890  0.493905  0.131431  1
  F  F10  1  0.133852  0.187577  0.978618  1
  F  F11  1  0.024336  0.697359  0.995603  1
  F  F12  1  0.848986  0.127839  0.977798  1
  F  F13  1  0.167956  0.880006  0.764466  1
  F  F14  1  0.987433  0.305398  0.739240  1
  F  F15  1  0.881715  0.815058  0.755932  1
  F  F16  1  0.504163  0.779103  0.760122  1
  F  F17  1  0.366328  0.253566  0.739911  1
  F  F18  1  0.685189  0.345174  0.716129  1
  F  F19  1  0.343800  0.682318  0.543388  1
  F  F20  1  0.490104  0.204161  0.503621  1
  F  F21  1  0.657222  0.709380  0.516510  1
  F  F22  1  0.866148  0.187577  0.478618  1
  F  F23  1  0.975664  0.697359  0.495603  1
  F  F24  1  0.151014  0.127839  0.477798  1
  F  F25  1  0.832044  0.880006  0.264466  1
  F  F26  1  0.012567  0.305398  0.239240  1
  F  F27  1  0.118285  0.815058  0.255932  1
  F  F28  1  0.495837  0.779103  0.260122  1
  F  F29  1  0.633672  0.253566  0.239911  1
  F  F30  1  0.314811  0.345174  0.216129  1
  F  F31  1  0.656200  0.682318  0.043388  1
  F  F32  1  0.509896  0.204161  0.003621  1
  F  F33  1  0.342778  0.709380  0.016510  1
