# generated using pymatgen
data_Yb7PrSbPd24
_symmetry_space_group_name_H-M   'P 1'
_cell_length_a   8.37745702
_cell_length_b   8.37745703
_cell_length_c   8.37745700
_cell_angle_alpha   89.99630679
_cell_angle_beta   89.99630679
_cell_angle_gamma   89.99630655
_symmetry_Int_Tables_number   1
_chemical_formula_structural   Yb7PrSbPd24
_chemical_formula_sum   'Yb7 Pr1 Sb1 Pd24'
_cell_volume   587.94489261
_cell_formula_units_Z   1
loop_
 _symmetry_equiv_pos_site_id
 _symmetry_equiv_pos_as_xyz
  1  'x, y, z'
loop_
 _atom_site_type_symbol
 _atom_site_label
 _atom_site_symmetry_multiplicity
 _atom_site_fract_x
 _atom_site_fract_y
 _atom_site_fract_z
 _atom_site_occupancy
  Yb  Yb0  1  0.747906  0.747906  0.252568  1
  Yb  Yb1  1  0.747906  0.252568  0.747906  1
  Yb  Yb2  1  0.252568  0.747906  0.747906  1
  Yb  Yb3  1  0.747380  0.747380  0.747380  1
  Yb  Yb4  1  0.747314  0.252312  0.252312  1
  Yb  Yb5  1  0.252312  0.252312  0.747314  1
  Yb  Yb6  1  0.252312  0.747314  0.252312  1
  Pr  Pr7  1  0.252781  0.252781  0.252781  1
  Sb  Sb8  1  0.999357  0.999357  0.999357  1
  Pd  Pd9  1  0.997012  0.997012  0.310948  1
  Pd  Pd10  1  0.733216  0.000394  0.500711  1
  Pd  Pd11  1  0.733216  0.500711  0.000394  1
  Pd  Pd12  1  0.500711  0.000394  0.733216  1
  Pd  Pd13  1  0.000394  0.733216  0.500711  1
  Pd  Pd14  1  0.502400  0.995992  0.266486  1
  Pd  Pd15  1  0.995992  0.266486  0.502400  1
  Pd  Pd16  1  0.500711  0.733216  0.000394  1
  Pd  Pd17  1  0.255727  0.503389  0.503389  1
  Pd  Pd18  1  0.500177  0.500177  0.744481  1
  Pd  Pd19  1  0.503389  0.503389  0.255727  1
  Pd  Pd20  1  0.503389  0.255727  0.503389  1
  Pd  Pd21  1  0.500177  0.744481  0.500177  1
  Pd  Pd22  1  0.744481  0.500177  0.500177  1
  Pd  Pd23  1  0.310948  0.997012  0.997012  1
  Pd  Pd24  1  0.999849  0.999849  0.689763  1
  Pd  Pd25  1  0.995992  0.502400  0.266486  1
  Pd  Pd26  1  0.997012  0.310948  0.997012  1
  Pd  Pd27  1  0.999849  0.689763  0.999849  1
  Pd  Pd28  1  0.689763  0.999849  0.999849  1
  Pd  Pd29  1  0.266486  0.502400  0.995992  1
  Pd  Pd30  1  0.266486  0.995992  0.502400  1
  Pd  Pd31  1  0.000394  0.500711  0.733216  1
  Pd  Pd32  1  0.502400  0.266486  0.995992  1
