# generated using pymatgen
data_DyYTi2Al2O10
_symmetry_space_group_name_H-M   'P 1'
_cell_length_a   5.70714100
_cell_length_b   7.42031710
_cell_length_c   8.48282312
_cell_angle_alpha   89.98101372
_cell_angle_beta   90.00000000
_cell_angle_gamma   90.00000000
_symmetry_Int_Tables_number   1
_chemical_formula_structural   DyYTi2Al2O10
_chemical_formula_sum   'Dy2 Y2 Ti4 Al4 O20'
_cell_volume   359.23732564
_cell_formula_units_Z   2
loop_
 _symmetry_equiv_pos_site_id
 _symmetry_equiv_pos_as_xyz
  1  'x, y, z'
loop_
 _atom_site_type_symbol
 _atom_site_label
 _atom_site_symmetry_multiplicity
 _atom_site_fract_x
 _atom_site_fract_y
 _atom_site_fract_z
 _atom_site_occupancy
  Dy  Dy0  1  0.000000  0.358352  0.329633  1
  Dy  Dy1  1  0.000000  0.641648  0.670367  1
  Y  Y2  1  0.000000  0.858252  0.170503  1
  Y  Y3  1  0.000000  0.141748  0.829497  1
  Ti  Ti4  1  0.500000  0.123583  0.146103  1
  Ti  Ti5  1  0.500000  0.876417  0.853897  1
  Ti  Ti6  1  0.500000  0.623313  0.354131  1
  Ti  Ti7  1  0.500000  0.376687  0.645869  1
  Al  Al8  1  0.242621  0.500000  0.000000  1
  Al  Al9  1  0.757301  0.000000  0.500000  1
  Al  Al10  1  0.757379  0.500000  0.000000  1
  Al  Al11  1  0.242699  0.000000  0.500000  1
  O  O12  1  0.000000  0.339845  0.058133  1
  O  O13  1  0.000000  0.660155  0.941867  1
  O  O14  1  0.000000  0.839644  0.442475  1
  O  O15  1  0.000000  0.160356  0.557525  1
  O  O16  1  0.500000  0.349601  0.071254  1
  O  O17  1  0.500000  0.650399  0.928746  1
  O  O18  1  0.500000  0.849642  0.428629  1
  O  O19  1  0.500000  0.150358  0.571371  1
  O  O20  1  0.250686  0.107898  0.293985  1
  O  O21  1  0.250686  0.892102  0.706015  1
  O  O22  1  0.749089  0.607086  0.206163  1
  O  O23  1  0.749089  0.392914  0.793837  1
  O  O24  1  0.749314  0.892102  0.706015  1
  O  O25  1  0.749314  0.107898  0.293985  1
  O  O26  1  0.250911  0.392914  0.793837  1
  O  O27  1  0.250911  0.607086  0.206163  1
  O  O28  1  0.277401  0.000000  0.000000  1
  O  O29  1  0.723146  0.500000  0.500000  1
  O  O30  1  0.722599  0.000000  0.000000  1
  O  O31  1  0.276854  0.500000  0.500000  1
