# generated using pymatgen
data_Ti12Al3Ga5(PtC)4
_symmetry_space_group_name_H-M   'P 1'
_cell_length_a   8.23715854
_cell_length_b   8.23761641
_cell_length_c   8.23951700
_cell_angle_alpha   59.99261894
_cell_angle_beta   59.98986810
_cell_angle_gamma   59.95614932
_symmetry_Int_Tables_number   1
_chemical_formula_structural   Ti12Al3Ga5(PtC)4
_chemical_formula_sum   'Ti12 Al3 Ga5 Pt4 C4'
_cell_volume   395.15197578
_cell_formula_units_Z   1
loop_
 _symmetry_equiv_pos_site_id
 _symmetry_equiv_pos_as_xyz
  1  'x, y, z'
loop_
 _atom_site_type_symbol
 _atom_site_label
 _atom_site_symmetry_multiplicity
 _atom_site_fract_x
 _atom_site_fract_y
 _atom_site_fract_z
 _atom_site_occupancy
  Ti  Ti0  1  0.934543  0.934936  0.565250  1
  Ti  Ti1  1  0.684709  0.313671  0.314615  1
  Ti  Ti2  1  0.314812  0.685692  0.684875  1
  Ti  Ti3  1  0.682864  0.685831  0.315659  1
  Ti  Ti4  1  0.684697  0.313682  0.687007  1
  Ti  Ti5  1  0.314802  0.685703  0.314623  1
  Ti  Ti6  1  0.566369  0.934757  0.563442  1
  Ti  Ti7  1  0.566356  0.934763  0.935430  1
  Ti  Ti8  1  0.935620  0.563889  0.563957  1
  Ti  Ti9  1  0.935634  0.563869  0.936539  1
  Ti  Ti10  1  0.313338  0.312418  0.687129  1
  Ti  Ti11  1  0.564812  0.561656  0.936761  1
  Al  Al12  1  0.914923  0.914762  0.914219  1
  Al  Al13  1  0.914906  0.914758  0.256118  1
  Al  Al14  1  0.335161  0.994518  0.335168  1
  Ga  Ga15  1  0.911261  0.266569  0.911084  1
  Ga  Ga16  1  0.338649  0.338994  0.983375  1
  Ga  Ga17  1  0.983431  0.338847  0.338863  1
  Ga  Ga18  1  0.338645  0.338983  0.338981  1
  Ga  Ga19  1  0.266233  0.910970  0.911391  1
  Pt  Pt20  1  0.121427  0.627489  0.125541  1
  Pt  Pt21  1  0.125312  0.121489  0.624504  1
  Pt  Pt22  1  0.626155  0.120046  0.126900  1
  Pt  Pt23  1  0.125312  0.121489  0.128695  1
  C  C24  1  0.624730  0.125527  0.624866  1
  C  C25  1  0.625190  0.624876  0.124542  1
  C  C26  1  0.124928  0.624931  0.625073  1
  C  C27  1  0.625183  0.624885  0.625392  1
