# generated using pymatgen
data_Zr10CuHgBi5Au
_symmetry_space_group_name_H-M   'P 1'
_cell_length_a   8.80481686
_cell_length_b   8.86124814
_cell_length_c   5.97435614
_cell_angle_alpha   89.89970021
_cell_angle_beta   90.20189207
_cell_angle_gamma   119.78956399
_symmetry_Int_Tables_number   1
_chemical_formula_structural   Zr10CuHgBi5Au
_chemical_formula_sum   'Zr10 Cu1 Hg1 Bi5 Au1'
_cell_volume   404.53051452
_cell_formula_units_Z   1
loop_
 _symmetry_equiv_pos_site_id
 _symmetry_equiv_pos_as_xyz
  1  'x, y, z'
loop_
 _atom_site_type_symbol
 _atom_site_label
 _atom_site_symmetry_multiplicity
 _atom_site_fract_x
 _atom_site_fract_y
 _atom_site_fract_z
 _atom_site_occupancy
  Zr  Zr0  1  0.726210  0.000000  0.239232  1
  Zr  Zr1  1  0.007840  0.734773  0.238117  1
  Zr  Zr2  1  0.273067  0.265227  0.238117  1
  Zr  Zr3  1  0.264095  0.000000  0.769367  1
  Zr  Zr4  1  0.999315  0.266447  0.760659  1
  Zr  Zr5  1  0.732868  0.733553  0.760659  1
  Zr  Zr6  1  0.331994  0.666999  0.497579  1
  Zr  Zr7  1  0.664996  0.333001  0.497579  1
  Zr  Zr8  1  0.665683  0.333117  0.001560  1
  Zr  Zr9  1  0.332566  0.666883  0.001560  1
  Cu  Cu10  1  0.998235  0.000000  0.005314  1
  Hg  Hg11  1  0.385519  0.000000  0.254756  1
  Bi  Bi12  1  0.000075  0.381749  0.253402  1
  Bi  Bi13  1  0.618327  0.618251  0.253402  1
  Bi  Bi14  1  0.611014  0.000000  0.744752  1
  Bi  Bi15  1  0.000470  0.615506  0.745248  1
  Bi  Bi16  1  0.384964  0.384494  0.745248  1
  Au  Au17  1  0.002761  0.000000  0.493450  1
