# generated using pymatgen
data_LaNd3Th2(ScBi5)2
_symmetry_space_group_name_H-M   'P 1'
_cell_length_a   9.76500500
_cell_length_b   9.75708741
_cell_length_c   6.58170800
_cell_angle_alpha   90.00000000
_cell_angle_beta   90.00000000
_cell_angle_gamma   120.02684349
_symmetry_Int_Tables_number   1
_chemical_formula_structural   LaNd3Th2(ScBi5)2
_chemical_formula_sum   'La1 Nd3 Th2 Sc2 Bi10'
_cell_volume   542.93066416
_cell_formula_units_Z   1
loop_
 _symmetry_equiv_pos_site_id
 _symmetry_equiv_pos_as_xyz
  1  'x, y, z'
loop_
 _atom_site_type_symbol
 _atom_site_label
 _atom_site_symmetry_multiplicity
 _atom_site_fract_x
 _atom_site_fract_y
 _atom_site_fract_z
 _atom_site_occupancy
  La  La0  1  0.620876  0.000000  0.250000  1
  Nd  Nd1  1  0.382088  0.000000  0.750000  1
  Nd  Nd2  1  0.620455  0.621301  0.750000  1
  Nd  Nd3  1  0.999155  0.378699  0.750000  1
  Th  Th4  1  0.999398  0.618722  0.250000  1
  Th  Th5  1  0.380676  0.381278  0.250000  1
  Sc  Sc6  1  0.999232  0.000000  0.997997  1
  Sc  Sc7  1  0.999232  0.000000  0.502003  1
  Bi  Bi8  1  0.003221  0.266388  0.250000  1
  Bi  Bi9  1  0.330054  0.663871  0.500159  1
  Bi  Bi10  1  0.666184  0.336129  0.999841  1
  Bi  Bi11  1  0.330054  0.663871  0.999841  1
  Bi  Bi12  1  0.267350  0.266872  0.750000  1
  Bi  Bi13  1  0.735832  0.000000  0.750000  1
  Bi  Bi14  1  0.000478  0.733128  0.750000  1
  Bi  Bi15  1  0.736833  0.733612  0.250000  1
  Bi  Bi16  1  0.262691  0.000000  0.250000  1
  Bi  Bi17  1  0.666184  0.336129  0.500159  1
