# generated using pymatgen
data_Tb3Dy2Bi2Ru
_symmetry_space_group_name_H-M   'P 1'
_cell_length_a   8.00163600
_cell_length_b   9.03887400
_cell_length_c   12.50176400
_cell_angle_alpha   90.00000000
_cell_angle_beta   90.00000000
_cell_angle_gamma   90.00000000
_symmetry_Int_Tables_number   1
_chemical_formula_structural   Tb3Dy2Bi2Ru
_chemical_formula_sum   'Tb12 Dy8 Bi8 Ru4'
_cell_volume   904.19982765
_cell_formula_units_Z   4
loop_
 _symmetry_equiv_pos_site_id
 _symmetry_equiv_pos_as_xyz
  1  'x, y, z'
loop_
 _atom_site_type_symbol
 _atom_site_label
 _atom_site_symmetry_multiplicity
 _atom_site_fract_x
 _atom_site_fract_y
 _atom_site_fract_z
 _atom_site_occupancy
  Tb  Tb0  1  0.843835  0.750000  0.792993  1
  Tb  Tb1  1  0.156165  0.250000  0.207007  1
  Tb  Tb2  1  0.343835  0.250000  0.707007  1
  Tb  Tb3  1  0.656165  0.750000  0.292993  1
  Tb  Tb4  1  0.375243  0.750000  0.692035  1
  Tb  Tb5  1  0.624757  0.250000  0.307965  1
  Tb  Tb6  1  0.875243  0.250000  0.807965  1
  Tb  Tb7  1  0.124757  0.750000  0.192035  1
  Tb  Tb8  1  0.946360  0.750000  0.504767  1
  Tb  Tb9  1  0.053640  0.250000  0.495233  1
  Tb  Tb10  1  0.446360  0.250000  0.995233  1
  Tb  Tb11  1  0.553640  0.750000  0.004767  1
  Dy  Dy12  1  0.675272  0.041522  0.564130  1
  Dy  Dy13  1  0.324728  0.958478  0.435870  1
  Dy  Dy14  1  0.175272  0.958478  0.935870  1
  Dy  Dy15  1  0.324728  0.541522  0.435870  1
  Dy  Dy16  1  0.824728  0.041522  0.064130  1
  Dy  Dy17  1  0.675272  0.458478  0.564130  1
  Dy  Dy18  1  0.824728  0.458478  0.064130  1
  Dy  Dy19  1  0.175272  0.541522  0.935870  1
  Bi  Bi20  1  0.569932  0.493951  0.827482  1
  Bi  Bi21  1  0.430068  0.506049  0.172518  1
  Bi  Bi22  1  0.069932  0.506049  0.672518  1
  Bi  Bi23  1  0.430068  0.993951  0.172518  1
  Bi  Bi24  1  0.930068  0.493951  0.327482  1
  Bi  Bi25  1  0.569932  0.006049  0.827482  1
  Bi  Bi26  1  0.930068  0.006049  0.327482  1
  Bi  Bi27  1  0.069932  0.993951  0.672518  1
  Ru  Ru28  1  0.573808  0.750000  0.511193  1
  Ru  Ru29  1  0.426192  0.250000  0.488807  1
  Ru  Ru30  1  0.073808  0.250000  0.988807  1
  Ru  Ru31  1  0.926192  0.750000  0.011193  1
