# generated using pymatgen
data_Pr10Co2Br15
_symmetry_space_group_name_H-M   'P 1'
_cell_length_a   9.63163862
_cell_length_b   10.58927501
_cell_length_c   11.30451247
_cell_angle_alpha   92.12195569
_cell_angle_beta   114.13302372
_cell_angle_gamma   110.56136089
_symmetry_Int_Tables_number   1
_chemical_formula_structural   Pr10Co2Br15
_chemical_formula_sum   'Pr10 Co2 Br15'
_cell_volume   962.90860467
_cell_formula_units_Z   1
loop_
 _symmetry_equiv_pos_site_id
 _symmetry_equiv_pos_as_xyz
  1  'x, y, z'
loop_
 _atom_site_type_symbol
 _atom_site_label
 _atom_site_symmetry_multiplicity
 _atom_site_fract_x
 _atom_site_fract_y
 _atom_site_fract_z
 _atom_site_occupancy
  Pr  Pr0  1  0.803010  0.404678  0.271359  1
  Pr  Pr1  1  0.196990  0.595322  0.728641  1
  Pr  Pr2  1  0.670592  0.750797  0.822471  1
  Pr  Pr3  1  0.329408  0.249203  0.177529  1
  Pr  Pr4  1  0.528983  0.705162  0.103819  1
  Pr  Pr5  1  0.471017  0.294838  0.896181  1
  Pr  Pr6  1  0.596550  0.047776  0.341138  1
  Pr  Pr7  1  0.403450  0.952224  0.658862  1
  Pr  Pr8  1  0.732956  0.079978  0.050068  1
  Pr  Pr9  1  0.267044  0.920022  0.949932  1
  Co  Co10  1  0.466186  0.827267  0.880756  1
  Co  Co11  1  0.533814  0.172733  0.119244  1
  Br  Br12  1  0.000000  0.000000  0.000000  1
  Br  Br13  1  0.639644  0.885741  0.587595  1
  Br  Br14  1  0.360356  0.114259  0.412405  1
  Br  Br15  1  0.887876  0.305816  0.525246  1
  Br  Br16  1  0.112124  0.694184  0.474754  1
  Br  Br17  1  0.303480  0.771070  0.187607  1
  Br  Br18  1  0.696520  0.228930  0.812393  1
  Br  Br19  1  0.061460  0.341613  0.223963  1
  Br  Br20  1  0.169982  0.057099  0.702566  1
  Br  Br21  1  0.830018  0.942901  0.297434  1
  Br  Br22  1  0.248630  0.416548  0.948963  1
  Br  Br23  1  0.751370  0.583452  0.051037  1
  Br  Br24  1  0.407761  0.470771  0.669604  1
  Br  Br25  1  0.592239  0.529229  0.330396  1
  Br  Br26  1  0.938540  0.658387  0.776037  1
