# generated using pymatgen
data_Yb2Ce(MgRh)3
_symmetry_space_group_name_H-M   'P 1'
_cell_length_a   7.21931625
_cell_length_b   7.21931682
_cell_length_c   4.11017300
_cell_angle_alpha   90.00000000
_cell_angle_beta   90.00000000
_cell_angle_gamma   118.17928652
_symmetry_Int_Tables_number   1
_chemical_formula_structural   Yb2Ce(MgRh)3
_chemical_formula_sum   'Yb2 Ce1 Mg3 Rh3'
_cell_volume   188.82604230
_cell_formula_units_Z   1
loop_
 _symmetry_equiv_pos_site_id
 _symmetry_equiv_pos_as_xyz
  1  'x, y, z'
loop_
 _atom_site_type_symbol
 _atom_site_label
 _atom_site_symmetry_multiplicity
 _atom_site_fract_x
 _atom_site_fract_y
 _atom_site_fract_z
 _atom_site_occupancy
  Yb  Yb0  1  0.587012  0.001988  0.000000  1
  Yb  Yb1  1  0.001988  0.587012  0.000000  1
  Ce  Ce2  1  0.416439  0.416439  0.000000  1
  Mg  Mg3  1  0.244397  0.994496  0.500000  1
  Mg  Mg4  1  0.994496  0.244397  0.500000  1
  Mg  Mg5  1  0.764739  0.764739  0.500000  1
  Rh  Rh6  1  0.337062  0.644874  0.500000  1
  Rh  Rh7  1  0.644874  0.337062  0.500000  1
  Rh  Rh8  1  0.008993  0.008993  0.000000  1
