# generated using pymatgen
data_Tb2ThIn3IrRh2
_symmetry_space_group_name_H-M   'P 1'
_cell_length_a   7.62684475
_cell_length_b   7.76797988
_cell_length_c   3.90725900
_cell_angle_alpha   90.00000000
_cell_angle_beta   90.00000000
_cell_angle_gamma   120.93692467
_symmetry_Int_Tables_number   1
_chemical_formula_structural   Tb2ThIn3IrRh2
_chemical_formula_sum   'Tb2 Th1 In3 Ir1 Rh2'
_cell_volume   198.55357403
_cell_formula_units_Z   1
loop_
 _symmetry_equiv_pos_site_id
 _symmetry_equiv_pos_as_xyz
  1  'x, y, z'
loop_
 _atom_site_type_symbol
 _atom_site_label
 _atom_site_symmetry_multiplicity
 _atom_site_fract_x
 _atom_site_fract_y
 _atom_site_fract_z
 _atom_site_occupancy
  Tb  Tb0  1  0.404041  0.411508  0.500000  1
  Tb  Tb1  1  0.590820  0.997929  0.500000  1
  Th  Th2  1  0.999685  0.583063  0.500000  1
  In  In3  1  0.733049  0.744838  0.000000  1
  In  In4  1  0.998394  0.239892  0.000000  1
  In  In5  1  0.269217  0.014037  0.000000  1
  Ir  Ir6  1  0.317225  0.666374  0.000000  1
  Rh  Rh7  1  0.000790  0.989874  0.500000  1
  Rh  Rh8  1  0.686779  0.352486  0.000000  1
