# generated using pymatgen
data_PrNd11(PtCl3)4
_symmetry_space_group_name_H-M   'P 1'
_cell_length_a   10.30626945
_cell_length_b   10.30634023
_cell_length_c   10.31010903
_cell_angle_alpha   109.48300380
_cell_angle_beta   109.48321951
_cell_angle_gamma   109.44945867
_symmetry_Int_Tables_number   1
_chemical_formula_structural   PrNd11(PtCl3)4
_chemical_formula_sum   'Pr1 Nd11 Pt4 Cl12'
_cell_volume   843.01726633
_cell_formula_units_Z   1
loop_
 _symmetry_equiv_pos_site_id
 _symmetry_equiv_pos_as_xyz
  1  'x, y, z'
loop_
 _atom_site_type_symbol
 _atom_site_label
 _atom_site_symmetry_multiplicity
 _atom_site_fract_x
 _atom_site_fract_y
 _atom_site_fract_z
 _atom_site_occupancy
  Pr  Pr0  1  0.239767  0.260235  0.749999  1
  Nd  Nd1  1  0.478356  0.489190  0.239297  1
  Nd  Nd2  1  0.750020  0.239188  0.260844  1
  Nd  Nd3  1  0.749747  0.010728  0.489039  1
  Nd  Nd4  1  0.239195  0.478405  0.489022  1
  Nd  Nd5  1  0.260815  0.749979  0.239157  1
  Nd  Nd6  1  0.021597  0.260807  0.010978  1
  Nd  Nd7  1  0.010805  0.021641  0.260698  1
  Nd  Nd8  1  0.489272  0.750253  0.010963  1
  Nd  Nd9  1  0.489158  0.239114  0.478226  1
  Nd  Nd10  1  0.010743  0.489250  0.749997  1
  Nd  Nd11  1  0.260885  0.010841  0.021773  1
  Pt  Pt12  1  0.250020  0.249988  0.250005  1
  Pt  Pt13  1  0.499986  0.000016  0.250000  1
  Pt  Pt14  1  0.999333  0.250011  0.499334  1
  Pt  Pt15  1  0.249986  0.500670  0.000666  1
  Cl  Cl16  1  0.249996  0.749363  0.750646  1
  Cl  Cl17  1  0.499165  0.499905  0.749340  1
  Cl  Cl18  1  0.001286  0.750661  0.000651  1
  Cl  Cl19  1  0.750637  0.250004  0.749354  1
  Cl  Cl20  1  0.000095  0.000836  0.750660  1
  Cl  Cl21  1  0.249975  0.000182  0.498872  1
  Cl  Cl22  1  0.749341  0.498714  0.499347  1
  Cl  Cl23  1  0.499817  0.250023  0.001130  1
  Cl  Cl24  1  0.749350  0.750652  0.250000  1
  Cl  Cl25  1  0.750646  0.000635  0.001287  1
  Cl  Cl26  1  0.000642  0.499359  0.250002  1
  Cl  Cl27  1  0.499364  0.749352  0.498711  1
