# generated using pymatgen
data_La2Cu7NiIr2
_symmetry_space_group_name_H-M   'P 1'
_cell_length_a   4.08601400
_cell_length_b   5.01314013
_cell_length_c   9.32820166
_cell_angle_alpha   89.88546908
_cell_angle_beta   90.00000000
_cell_angle_gamma   90.00000000
_symmetry_Int_Tables_number   1
_chemical_formula_structural   La2Cu7NiIr2
_chemical_formula_sum   'La2 Cu7 Ni1 Ir2'
_cell_volume   191.07626932
_cell_formula_units_Z   1
loop_
 _symmetry_equiv_pos_site_id
 _symmetry_equiv_pos_as_xyz
  1  'x, y, z'
loop_
 _atom_site_type_symbol
 _atom_site_label
 _atom_site_symmetry_multiplicity
 _atom_site_fract_x
 _atom_site_fract_y
 _atom_site_fract_z
 _atom_site_occupancy
  La  La0  1  0.000000  0.251235  0.753401  1
  La  La1  1  0.000000  0.748765  0.246599  1
  Cu  Cu2  1  0.000000  0.242243  0.076667  1
  Cu  Cu3  1  0.000000  0.749002  0.578210  1
  Cu  Cu4  1  0.000000  0.757757  0.923333  1
  Cu  Cu5  1  0.000000  0.250998  0.421790  1
  Cu  Cu6  1  0.500000  0.500000  0.500000  1
  Cu  Cu7  1  0.500000  0.500000  0.000000  1
  Cu  Cu8  1  0.500000  0.000000  0.500000  1
  Ni  Ni9  1  0.500000  0.000000  0.000000  1
  Ir  Ir10  1  0.500000  0.753434  0.750829  1
  Ir  Ir11  1  0.500000  0.246566  0.249171  1
