# generated using pymatgen
data_Y3Ta2Nb(B2Ru5)2
_symmetry_space_group_name_H-M   'P 1'
_cell_length_a   9.62200726
_cell_length_b   9.62200709
_cell_length_c   3.12318000
_cell_angle_alpha   90.00000000
_cell_angle_beta   90.00000000
_cell_angle_gamma   90.38470996
_symmetry_Int_Tables_number   1
_chemical_formula_structural   Y3Ta2Nb(B2Ru5)2
_chemical_formula_sum   'Y3 Ta2 Nb1 B4 Ru10'
_cell_volume   289.14692489
_cell_formula_units_Z   1
loop_
 _symmetry_equiv_pos_site_id
 _symmetry_equiv_pos_as_xyz
  1  'x, y, z'
loop_
 _atom_site_type_symbol
 _atom_site_label
 _atom_site_symmetry_multiplicity
 _atom_site_fract_x
 _atom_site_fract_y
 _atom_site_fract_z
 _atom_site_occupancy
  Y  Y0  1  0.823673  0.675265  0.000000  1
  Y  Y1  1  0.175265  0.323673  0.000000  1
  Y  Y2  1  0.325546  0.825546  0.000000  1
  Ta  Ta3  1  0.498223  0.502724  0.000000  1
  Ta  Ta4  1  0.002724  0.998223  0.000000  1
  Nb  Nb5  1  0.675864  0.175864  0.000000  1
  B  B6  1  0.623175  0.881413  0.000000  1
  B  B7  1  0.381413  0.123175  0.000000  1
  B  B8  1  0.118949  0.618949  0.000000  1
  B  B9  1  0.876320  0.376320  0.000000  1
  Ru  Ru10  1  0.570807  0.722150  0.500000  1
  Ru  Ru11  1  0.441459  0.280196  0.500000  1
  Ru  Ru12  1  0.069028  0.780493  0.500000  1
  Ru  Ru13  1  0.915652  0.213272  0.500000  1
  Ru  Ru14  1  0.280493  0.569028  0.500000  1
  Ru  Ru15  1  0.713272  0.415652  0.500000  1
  Ru  Ru16  1  0.222150  0.070807  0.500000  1
  Ru  Ru17  1  0.780196  0.941459  0.500000  1
  Ru  Ru18  1  0.509849  0.009849  0.500000  1
  Ru  Ru19  1  0.995939  0.495939  0.500000  1
