# generated using pymatgen
data_Dy3GaCoSn5
_symmetry_space_group_name_H-M   'P 1'
_cell_length_a   8.37092146
_cell_length_b   8.37092192
_cell_length_c   13.09337700
_cell_angle_alpha   90.00000000
_cell_angle_beta   90.00000000
_cell_angle_gamma   148.90481277
_symmetry_Int_Tables_number   1
_chemical_formula_structural   Dy3GaCoSn5
_chemical_formula_sum   'Dy6 Ga2 Co2 Sn10'
_cell_volume   473.84478000
_cell_formula_units_Z   2
loop_
 _symmetry_equiv_pos_site_id
 _symmetry_equiv_pos_as_xyz
  1  'x, y, z'
loop_
 _atom_site_type_symbol
 _atom_site_label
 _atom_site_symmetry_multiplicity
 _atom_site_fract_x
 _atom_site_fract_y
 _atom_site_fract_z
 _atom_site_occupancy
  Dy  Dy0  1  0.898220  0.101780  0.095934  1
  Dy  Dy1  1  0.101780  0.898220  0.595934  1
  Dy  Dy2  1  0.898071  0.101929  0.750000  1
  Dy  Dy3  1  0.101780  0.898220  0.904066  1
  Dy  Dy4  1  0.101929  0.898071  0.250000  1
  Dy  Dy5  1  0.898220  0.101780  0.404066  1
  Ga  Ga6  1  0.739912  0.260088  0.250000  1
  Ga  Ga7  1  0.260088  0.739912  0.750000  1
  Co  Co8  1  0.295454  0.704546  0.250000  1
  Co  Co9  1  0.704546  0.295454  0.750000  1
  Sn  Sn10  1  0.757968  0.242032  0.572669  1
  Sn  Sn11  1  0.426131  0.573869  0.576209  1
  Sn  Sn12  1  0.573869  0.426131  0.423791  1
  Sn  Sn13  1  0.242032  0.757968  0.072669  1
  Sn  Sn14  1  0.242032  0.757968  0.427331  1
  Sn  Sn15  1  0.573869  0.426131  0.076209  1
  Sn  Sn16  1  0.453135  0.546865  0.250000  1
  Sn  Sn17  1  0.546865  0.453135  0.750000  1
  Sn  Sn18  1  0.757968  0.242032  0.927331  1
  Sn  Sn19  1  0.426131  0.573869  0.923791  1
