# generated using pymatgen
data_Ti5NbAl4(PtC)2
_symmetry_space_group_name_H-M   'P 1'
_cell_length_a   8.27056527
_cell_length_b   8.25932950
_cell_length_c   8.27056551
_cell_angle_alpha   60.08625131
_cell_angle_beta   59.93615956
_cell_angle_gamma   60.08624744
_symmetry_Int_Tables_number   1
_chemical_formula_structural   Ti5NbAl4(PtC)2
_chemical_formula_sum   'Ti10 Nb2 Al8 Pt4 C4'
_cell_volume   399.81089040
_cell_formula_units_Z   2
loop_
 _symmetry_equiv_pos_site_id
 _symmetry_equiv_pos_as_xyz
  1  'x, y, z'
loop_
 _atom_site_type_symbol
 _atom_site_label
 _atom_site_symmetry_multiplicity
 _atom_site_fract_x
 _atom_site_fract_y
 _atom_site_fract_z
 _atom_site_occupancy
  Ti  Ti0  1  0.316013  0.684457  0.685273  1
  Ti  Ti1  1  0.685046  0.684400  0.316026  1
  Ti  Ti2  1  0.685295  0.316439  0.685179  1
  Ti  Ti3  1  0.314655  0.684512  0.314799  1
  Ti  Ti4  1  0.564821  0.933561  0.564705  1
  Ti  Ti5  1  0.565271  0.934623  0.935934  1
  Ti  Ti6  1  0.933974  0.565600  0.564954  1
  Ti  Ti7  1  0.935201  0.565488  0.935345  1
  Ti  Ti8  1  0.314066  0.315377  0.684729  1
  Ti  Ti9  1  0.564727  0.565543  0.933987  1
  Nb  Nb10  1  0.935505  0.934532  0.565241  1
  Nb  Nb11  1  0.684759  0.315468  0.314495  1
  Al  Al12  1  0.914396  0.257301  0.913911  1
  Al  Al13  1  0.336075  0.335789  0.992857  1
  Al  Al14  1  0.994408  0.336361  0.335840  1
  Al  Al15  1  0.333525  0.336341  0.335533  1
  Al  Al16  1  0.257143  0.914211  0.913925  1
  Al  Al17  1  0.914467  0.913659  0.916475  1
  Al  Al18  1  0.914160  0.913639  0.255592  1
  Al  Al19  1  0.336089  0.992699  0.335604  1
  Pt  Pt20  1  0.125465  0.625000  0.124535  1
  Pt  Pt21  1  0.125455  0.125225  0.625334  1
  Pt  Pt22  1  0.624666  0.124775  0.124545  1
  Pt  Pt23  1  0.126903  0.125000  0.123097  1
  C  C24  1  0.619260  0.125000  0.630740  1
  C  C25  1  0.624301  0.630323  0.120995  1
  C  C26  1  0.129005  0.619677  0.625699  1
  C  C27  1  0.625350  0.625000  0.624650  1
