# generated using pymatgen
data_PrSn2PtAu
_symmetry_space_group_name_H-M   'P 1'
_cell_length_a   4.63438200
_cell_length_b   4.63438200
_cell_length_c   11.01994500
_cell_angle_alpha   90.00000000
_cell_angle_beta   90.00000000
_cell_angle_gamma   90.00000000
_symmetry_Int_Tables_number   1
_chemical_formula_structural   PrSn2PtAu
_chemical_formula_sum   'Pr2 Sn4 Pt2 Au2'
_cell_volume   236.68083041
_cell_formula_units_Z   2
loop_
 _symmetry_equiv_pos_site_id
 _symmetry_equiv_pos_as_xyz
  1  'x, y, z'
loop_
 _atom_site_type_symbol
 _atom_site_label
 _atom_site_symmetry_multiplicity
 _atom_site_fract_x
 _atom_site_fract_y
 _atom_site_fract_z
 _atom_site_occupancy
  Pr  Pr0  1  0.000000  0.500000  0.249157  1
  Pr  Pr1  1  0.500000  0.000000  0.750843  1
  Sn  Sn2  1  0.000000  0.000000  0.500000  1
  Sn  Sn3  1  0.500000  0.500000  0.500000  1
  Sn  Sn4  1  0.000000  0.500000  0.860149  1
  Sn  Sn5  1  0.500000  0.000000  0.139851  1
  Pt  Pt6  1  0.000000  0.500000  0.624550  1
  Pt  Pt7  1  0.500000  0.000000  0.375450  1
  Au  Au8  1  0.000000  0.000000  0.000000  1
  Au  Au9  1  0.500000  0.500000  0.000000  1
