# generated using pymatgen
data_CaTb2Y(Ga2Ag)4
_symmetry_space_group_name_H-M   'P 1'
_cell_length_a   4.38459900
_cell_length_b   7.01237918
_cell_length_c   10.32429419
_cell_angle_alpha   89.63883599
_cell_angle_beta   90.00000000
_cell_angle_gamma   90.00000000
_symmetry_Int_Tables_number   1
_chemical_formula_structural   CaTb2Y(Ga2Ag)4
_chemical_formula_sum   'Ca1 Tb2 Y1 Ga8 Ag4'
_cell_volume   317.42930288
_cell_formula_units_Z   1
loop_
 _symmetry_equiv_pos_site_id
 _symmetry_equiv_pos_as_xyz
  1  'x, y, z'
loop_
 _atom_site_type_symbol
 _atom_site_label
 _atom_site_symmetry_multiplicity
 _atom_site_fract_x
 _atom_site_fract_y
 _atom_site_fract_z
 _atom_site_occupancy
  Ca  Ca0  1  0.250000  0.776843  0.826985  1
  Tb  Tb1  1  0.750000  0.721108  0.328270  1
  Tb  Tb2  1  0.250000  0.280843  0.672770  1
  Y  Y3  1  0.750000  0.220348  0.171952  1
  Ga  Ga4  1  0.250000  0.927683  0.156169  1
  Ga  Ga5  1  0.750000  0.074407  0.849220  1
  Ga  Ga6  1  0.750000  0.571332  0.649203  1
  Ga  Ga7  1  0.250000  0.425383  0.345041  1
  Ga  Ga8  1  0.250000  0.701880  0.534492  1
  Ga  Ga9  1  0.750000  0.293068  0.461937  1
  Ga  Ga10  1  0.750000  0.797279  0.037590  1
  Ga  Ga11  1  0.250000  0.205403  0.964686  1
  Ag  Ag12  1  0.250000  0.545168  0.098226  1
  Ag  Ag13  1  0.750000  0.457987  0.902553  1
  Ag  Ag14  1  0.750000  0.957112  0.597735  1
  Ag  Ag15  1  0.250000  0.044154  0.403172  1
