# generated using pymatgen
data_Sc8Ti5Si16Mo3W4
_symmetry_space_group_name_H-M   'P 1'
_cell_length_a   6.58618583
_cell_length_b   6.77572421
_cell_length_c   12.84591011
_cell_angle_alpha   89.97247864
_cell_angle_beta   89.98761805
_cell_angle_gamma   90.00327218
_symmetry_Int_Tables_number   1
_chemical_formula_structural   Sc8Ti5Si16Mo3W4
_chemical_formula_sum   'Sc8 Ti5 Si16 Mo3 W4'
_cell_volume   573.26380024
_cell_formula_units_Z   1
loop_
 _symmetry_equiv_pos_site_id
 _symmetry_equiv_pos_as_xyz
  1  'x, y, z'
loop_
 _atom_site_type_symbol
 _atom_site_label
 _atom_site_symmetry_multiplicity
 _atom_site_fract_x
 _atom_site_fract_y
 _atom_site_fract_z
 _atom_site_occupancy
  Sc  Sc0  1  0.497601  0.671532  0.594532  1
  Sc  Sc1  1  0.997938  0.828401  0.906816  1
  Sc  Sc2  1  0.501461  0.327764  0.093902  1
  Sc  Sc3  1  0.000151  0.173411  0.405731  1
  Sc  Sc4  1  0.502206  0.328470  0.405695  1
  Sc  Sc5  1  0.001085  0.175207  0.094311  1
  Sc  Sc6  1  0.498242  0.674888  0.905997  1
  Sc  Sc7  1  0.999226  0.825530  0.593768  1
  Ti  Ti8  1  0.663918  0.170340  0.625946  1
  Ti  Ti9  1  0.163245  0.330516  0.874488  1
  Ti  Ti10  1  0.337449  0.829577  0.125551  1
  Ti  Ti11  1  0.834479  0.669163  0.373578  1
  Ti  Ti12  1  0.334238  0.829123  0.373542  1
  Si  Si13  1  0.668589  0.963952  0.458690  1
  Si  Si14  1  0.166820  0.536474  0.041632  1
  Si  Si15  1  0.333477  0.037056  0.958799  1
  Si  Si16  1  0.832888  0.463076  0.541341  1
  Si  Si17  1  0.331445  0.036823  0.541045  1
  Si  Si18  1  0.831140  0.461733  0.958631  1
  Si  Si19  1  0.669665  0.963037  0.041716  1
  Si  Si20  1  0.168468  0.537154  0.459661  1
  Si  Si21  1  0.464239  0.383077  0.751558  1
  Si  Si22  1  0.964452  0.116279  0.749164  1
  Si  Si23  1  0.537193  0.615540  0.249958  1
  Si  Si24  1  0.035319  0.882365  0.248718  1
  Si  Si25  1  0.702013  0.860537  0.748716  1
  Si  Si26  1  0.201573  0.640369  0.751247  1
  Si  Si27  1  0.296477  0.139549  0.250167  1
  Si  Si28  1  0.798279  0.360170  0.250366  1
  Mo  Mo29  1  0.830875  0.667698  0.123387  1
  Mo  Mo30  1  0.668783  0.167292  0.875179  1
  Mo  Mo31  1  0.167897  0.331403  0.626264  1
  W  W32  1  0.837390  0.494064  0.749672  1
  W  W33  1  0.337687  0.007299  0.750876  1
  W  W34  1  0.163198  0.506922  0.249490  1
  W  W35  1  0.660895  0.994208  0.249868  1
