# generated using pymatgen
data_Tb4Y12MgIn3Pd4
_symmetry_space_group_name_H-M   'P 1'
_cell_length_a   9.78958360
_cell_length_b   9.76848846
_cell_length_c   9.76856800
_cell_angle_alpha   59.99958392
_cell_angle_beta   60.07095010
_cell_angle_gamma   60.07098738
_symmetry_Int_Tables_number   1
_chemical_formula_structural   Tb4Y12MgIn3Pd4
_chemical_formula_sum   'Tb4 Y12 Mg1 In3 Pd4'
_cell_volume   661.25833190
_cell_formula_units_Z   1
loop_
 _symmetry_equiv_pos_site_id
 _symmetry_equiv_pos_as_xyz
  1  'x, y, z'
loop_
 _atom_site_type_symbol
 _atom_site_label
 _atom_site_symmetry_multiplicity
 _atom_site_fract_x
 _atom_site_fract_y
 _atom_site_fract_z
 _atom_site_occupancy
  Tb  Tb0  1  0.352000  0.351255  0.351251  1
  Tb  Tb1  1  0.352002  0.351256  0.945492  1
  Tb  Tb2  1  0.352004  0.945491  0.351254  1
  Tb  Tb3  1  0.943284  0.352243  0.352239  1
  Y  Y4  1  0.809083  0.190506  0.190508  1
  Y  Y5  1  0.187567  0.811965  0.811965  1
  Y  Y6  1  0.187567  0.811966  0.188503  1
  Y  Y7  1  0.809083  0.190506  0.809903  1
  Y  Y8  1  0.187564  0.188504  0.811965  1
  Y  Y9  1  0.809084  0.809900  0.190508  1
  Y  Y10  1  0.935583  0.564574  0.564576  1
  Y  Y11  1  0.564284  0.936042  0.936044  1
  Y  Y12  1  0.564285  0.936041  0.563628  1
  Y  Y13  1  0.935584  0.564574  0.935264  1
  Y  Y14  1  0.564286  0.563626  0.936043  1
  Y  Y15  1  0.935584  0.935262  0.564577  1
  Mg  Mg16  1  0.265358  0.578211  0.578215  1
  In  In17  1  0.582412  0.583705  0.583704  1
  In  In18  1  0.582412  0.583705  0.250177  1
  In  In19  1  0.582410  0.250179  0.583705  1
  Pd  Pd20  1  0.143649  0.144412  0.144413  1
  Pd  Pd21  1  0.143648  0.144410  0.567530  1
  Pd  Pd22  1  0.143647  0.567538  0.144408  1
  Pd  Pd23  1  0.567617  0.144129  0.144127  1
