# generated using pymatgen
data_Fe3Ag2P7Ru9
_symmetry_space_group_name_H-M   'P 1'
_cell_length_a   9.32061700
_cell_length_b   9.32061666
_cell_length_c   3.74488600
_cell_angle_alpha   90.00000000
_cell_angle_beta   90.00000000
_cell_angle_gamma   119.99999765
_symmetry_Int_Tables_number   1
_chemical_formula_structural   Fe3Ag2P7Ru9
_chemical_formula_sum   'Fe3 Ag2 P7 Ru9'
_cell_volume   281.74651497
_cell_formula_units_Z   1
loop_
 _symmetry_equiv_pos_site_id
 _symmetry_equiv_pos_as_xyz
  1  'x, y, z'
loop_
 _atom_site_type_symbol
 _atom_site_label
 _atom_site_symmetry_multiplicity
 _atom_site_fract_x
 _atom_site_fract_y
 _atom_site_fract_z
 _atom_site_occupancy
  Fe  Fe0  1  0.803221  0.602536  0.000000  1
  Fe  Fe1  1  0.799315  0.196779  0.000000  1
  Fe  Fe2  1  0.397464  0.200685  0.000000  1
  Ag  Ag3  1  0.000000  0.000000  0.000000  1
  Ag  Ag4  1  0.333333  0.666667  0.500000  1
  P  P5  1  0.059864  0.644333  0.000000  1
  P  P6  1  0.584468  0.940136  0.000000  1
  P  P7  1  0.355667  0.415532  0.000000  1
  P  P8  1  0.758133  0.717651  0.500000  1
  P  P9  1  0.959518  0.241867  0.500000  1
  P  P10  1  0.282349  0.040482  0.500000  1
  P  P11  1  0.666667  0.333333  0.000000  1
  Ru  Ru12  1  0.108627  0.423036  0.000000  1
  Ru  Ru13  1  0.314409  0.891373  0.000000  1
  Ru  Ru14  1  0.576964  0.685591  0.000000  1
  Ru  Ru15  1  0.036815  0.786812  0.500000  1
  Ru  Ru16  1  0.749998  0.963185  0.500000  1
  Ru  Ru17  1  0.213188  0.250002  0.500000  1
  Ru  Ru18  1  0.875192  0.437886  0.500000  1
  Ru  Ru19  1  0.562693  0.124808  0.500000  1
  Ru  Ru20  1  0.562114  0.437307  0.500000  1
