# generated using pymatgen
data_Ta12Al3Pt5N4
_symmetry_space_group_name_H-M   'P 1'
_cell_length_a   7.04001682
_cell_length_b   7.03987388
_cell_length_c   7.03968901
_cell_angle_alpha   90.19561836
_cell_angle_beta   89.82024151
_cell_angle_gamma   89.80429280
_symmetry_Int_Tables_number   1
_chemical_formula_structural   Ta12Al3Pt5N4
_chemical_formula_sum   'Ta12 Al3 Pt5 N4'
_cell_volume   348.88703562
_cell_formula_units_Z   1
loop_
 _symmetry_equiv_pos_site_id
 _symmetry_equiv_pos_as_xyz
  1  'x, y, z'
loop_
 _atom_site_type_symbol
 _atom_site_label
 _atom_site_symmetry_multiplicity
 _atom_site_fract_x
 _atom_site_fract_y
 _atom_site_fract_z
 _atom_site_occupancy
  Ta  Ta0  1  0.790430  0.957751  0.376152  1
  Ta  Ta1  1  0.708165  0.049248  0.881263  1
  Ta  Ta2  1  0.212849  0.454083  0.125201  1
  Ta  Ta3  1  0.295892  0.540054  0.629017  1
  Ta  Ta4  1  0.950967  0.381295  0.791781  1
  Ta  Ta5  1  0.042211  0.876291  0.709295  1
  Ta  Ta6  1  0.459945  0.129067  0.204451  1
  Ta  Ta7  1  0.546029  0.625260  0.287328  1
  Ta  Ta8  1  0.374789  0.787405  0.953842  1
  Ta  Ta9  1  0.870923  0.704359  0.039719  1
  Ta  Ta10  1  0.123880  0.209493  0.457996  1
  Ta  Ta11  1  0.618796  0.291584  0.549414  1
  Al  Al12  1  0.933275  0.571685  0.426873  1
  Al  Al13  1  0.072500  0.066930  0.072159  1
  Al  Al14  1  0.427864  0.926927  0.566908  1
  Pt  Pt15  1  0.179000  0.820794  0.320722  1
  Pt  Pt16  1  0.310830  0.166923  0.815545  1
  Pt  Pt17  1  0.833067  0.315417  0.189081  1
  Pt  Pt18  1  0.684802  0.689033  0.666883  1
  Pt  Pt19  1  0.565362  0.434782  0.934745  1
  N  N20  1  0.872422  0.127481  0.627689  1
  N  N21  1  0.622494  0.874732  0.121844  1
  N  N22  1  0.125365  0.622037  0.877142  1
  N  N23  1  0.378142  0.377369  0.374949  1
