# generated using pymatgen
data_Tm3LuPd3RuO14
_symmetry_space_group_name_H-M   'P 1'
_cell_length_a   7.14858943
_cell_length_b   7.14858913
_cell_length_c   7.19886739
_cell_angle_alpha   60.23077373
_cell_angle_beta   60.23077038
_cell_angle_gamma   60.00000386
_symmetry_Int_Tables_number   1
_chemical_formula_structural   Tm3LuPd3RuO14
_chemical_formula_sum   'Tm3 Lu1 Pd3 Ru1 O14'
_cell_volume   261.03333768
_cell_formula_units_Z   1
loop_
 _symmetry_equiv_pos_site_id
 _symmetry_equiv_pos_as_xyz
  1  'x, y, z'
loop_
 _atom_site_type_symbol
 _atom_site_label
 _atom_site_symmetry_multiplicity
 _atom_site_fract_x
 _atom_site_fract_y
 _atom_site_fract_z
 _atom_site_occupancy
  Tm  Tm0  1  0.125000  0.125000  0.125000  1
  Tm  Tm1  1  0.625000  0.125000  0.125000  1
  Tm  Tm2  1  0.125000  0.625000  0.125000  1
  Lu  Lu3  1  0.125000  0.125000  0.625000  1
  Pd  Pd4  1  0.625000  0.625000  0.625000  1
  Pd  Pd5  1  0.125000  0.625000  0.625000  1
  Pd  Pd6  1  0.625000  0.125000  0.625000  1
  Ru  Ru7  1  0.625000  0.625000  0.125000  1
  O  O8  1  0.288323  0.714067  0.283542  1
  O  O9  1  0.280341  0.280341  0.720725  1
  O  O10  1  0.535933  0.961677  0.966458  1
  O  O11  1  0.531407  0.969659  0.529275  1
  O  O12  1  0.535933  0.535933  0.966458  1
  O  O13  1  0.280341  0.718593  0.720725  1
  O  O14  1  0.961677  0.535933  0.966458  1
  O  O15  1  0.714067  0.288323  0.283542  1
  O  O16  1  0.718593  0.280341  0.720725  1
  O  O17  1  0.714067  0.714067  0.283542  1
  O  O18  1  0.249391  0.249391  0.251829  1
  O  O19  1  0.969659  0.969659  0.529275  1
  O  O20  1  0.969659  0.531407  0.529275  1
  O  O21  1  0.000609  0.000609  0.998171  1
