# generated using pymatgen
data_HoMg3(AlPt)4
_symmetry_space_group_name_H-M   'P 1'
_cell_length_a   4.14738600
_cell_length_b   6.72934009
_cell_length_c   7.70048644
_cell_angle_alpha   92.42201274
_cell_angle_beta   90.00000000
_cell_angle_gamma   90.00000000
_symmetry_Int_Tables_number   1
_chemical_formula_structural   HoMg3(AlPt)4
_chemical_formula_sum   'Ho1 Mg3 Al4 Pt4'
_cell_volume   214.72220235
_cell_formula_units_Z   1
loop_
 _symmetry_equiv_pos_site_id
 _symmetry_equiv_pos_as_xyz
  1  'x, y, z'
loop_
 _atom_site_type_symbol
 _atom_site_label
 _atom_site_symmetry_multiplicity
 _atom_site_fract_x
 _atom_site_fract_y
 _atom_site_fract_z
 _atom_site_occupancy
  Ho  Ho0  1  0.750000  0.476670  0.171362  1
  Mg  Mg1  1  0.250000  0.023627  0.667233  1
  Mg  Mg2  1  0.250000  0.533842  0.822832  1
  Mg  Mg3  1  0.750000  0.968107  0.336931  1
  Al  Al4  1  0.250000  0.142982  0.052086  1
  Al  Al5  1  0.250000  0.645567  0.446148  1
  Al  Al6  1  0.750000  0.860780  0.942403  1
  Al  Al7  1  0.750000  0.352849  0.559456  1
  Pt  Pt8  1  0.250000  0.263018  0.375088  1
  Pt  Pt9  1  0.250000  0.784346  0.133661  1
  Pt  Pt10  1  0.750000  0.725368  0.627962  1
  Pt  Pt11  1  0.750000  0.222844  0.864838  1
