# generated using pymatgen
data_Y6Tm10MgAg3Rh4
_symmetry_space_group_name_H-M   'P 1'
_cell_length_a   9.49407216
_cell_length_b   9.50280538
_cell_length_c   9.50279500
_cell_angle_alpha   59.99966032
_cell_angle_beta   59.96880611
_cell_angle_gamma   59.96918994
_symmetry_Int_Tables_number   1
_chemical_formula_structural   Y6Tm10MgAg3Rh4
_chemical_formula_sum   'Y6 Tm10 Mg1 Ag3 Rh4'
_cell_volume   605.94882101
_cell_formula_units_Z   1
loop_
 _symmetry_equiv_pos_site_id
 _symmetry_equiv_pos_as_xyz
  1  'x, y, z'
loop_
 _atom_site_type_symbol
 _atom_site_label
 _atom_site_symmetry_multiplicity
 _atom_site_fract_x
 _atom_site_fract_y
 _atom_site_fract_z
 _atom_site_occupancy
  Y  Y0  1  0.185093  0.813501  0.813494  1
  Y  Y1  1  0.813157  0.185903  0.185907  1
  Y  Y2  1  0.813159  0.185903  0.815025  1
  Y  Y3  1  0.185089  0.813496  0.187912  1
  Y  Y4  1  0.813151  0.815033  0.185908  1
  Y  Y5  1  0.185096  0.187912  0.813489  1
  Tm  Tm6  1  0.602491  0.600379  0.600362  1
  Tm  Tm7  1  0.602494  0.600379  0.196758  1
  Tm  Tm8  1  0.602488  0.196761  0.600372  1
  Tm  Tm9  1  0.182137  0.605966  0.605950  1
  Tm  Tm10  1  0.061504  0.437825  0.437829  1
  Tm  Tm11  1  0.435476  0.063963  0.063981  1
  Tm  Tm12  1  0.435477  0.063969  0.436576  1
  Tm  Tm13  1  0.061507  0.437821  0.062846  1
  Tm  Tm14  1  0.435468  0.436583  0.063977  1
  Tm  Tm15  1  0.061515  0.062822  0.437828  1
  Mg  Mg16  1  0.538406  0.820544  0.820518  1
  Ag  Ag17  1  0.832201  0.833902  0.833894  1
  Ag  Ag18  1  0.832198  0.833905  0.499994  1
  Ag  Ag19  1  0.832197  0.500001  0.833899  1
  Rh  Rh20  1  0.390294  0.395416  0.395373  1
  Rh  Rh21  1  0.390323  0.395371  0.818970  1
  Rh  Rh22  1  0.390365  0.818895  0.395365  1
  Rh  Rh23  1  0.818717  0.393754  0.393771  1
