# generated using pymatgen
data_TbCr4AgO14
_symmetry_space_group_name_H-M   'P 1'
_cell_length_a   7.30388352
_cell_length_b   7.30388312
_cell_length_c   7.30388451
_cell_angle_alpha   112.05328612
_cell_angle_beta   108.19582797
_cell_angle_gamma   108.19582641
_symmetry_Int_Tables_number   1
_chemical_formula_structural   TbCr4AgO14
_chemical_formula_sum   'Tb1 Cr4 Ag1 O14'
_cell_volume   299.48447063
_cell_formula_units_Z   1
loop_
 _symmetry_equiv_pos_site_id
 _symmetry_equiv_pos_as_xyz
  1  'x, y, z'
loop_
 _atom_site_type_symbol
 _atom_site_label
 _atom_site_symmetry_multiplicity
 _atom_site_fract_x
 _atom_site_fract_y
 _atom_site_fract_z
 _atom_site_occupancy
  Tb  Tb0  1  0.000000  0.988619  0.988619  1
  Cr  Cr1  1  0.542648  0.953608  0.170043  1
  Cr  Cr2  1  0.457351  0.627394  0.410959  1
  Cr  Cr3  1  0.216434  0.170043  0.627394  1
  Cr  Cr4  1  0.783566  0.410959  0.953608  1
  Ag  Ag5  1  0.000000  0.572578  0.572578  1
  O  O6  1  0.298575  0.910084  0.005631  1
  O  O7  1  0.683653  0.918669  0.033907  1
  O  O8  1  0.818329  0.525901  0.207357  1
  O  O9  1  0.316346  0.350253  0.235016  1
  O  O10  1  0.500000  0.756056  0.256056  1
  O  O11  1  0.115237  0.033907  0.350253  1
  O  O12  1  0.681455  0.207357  0.389029  1
  O  O13  1  0.318544  0.707573  0.525903  1
  O  O14  1  0.701425  0.707056  0.611509  1
  O  O15  1  0.095547  0.005631  0.707056  1
  O  O16  1  0.181671  0.389030  0.707573  1
  O  O17  1  0.500000  0.256056  0.756056  1
  O  O18  1  0.904453  0.611509  0.910084  1
  O  O19  1  0.884763  0.235016  0.918669  1
