# generated using pymatgen
data_TbYTm14(Ga3Co)2
_symmetry_space_group_name_H-M   'P 1'
_cell_length_a   9.87989700
_cell_length_b   9.87989693
_cell_length_c   6.88489800
_cell_angle_alpha   90.00000000
_cell_angle_beta   90.00000000
_cell_angle_gamma   119.99999688
_symmetry_Int_Tables_number   1
_chemical_formula_structural   TbYTm14(Ga3Co)2
_chemical_formula_sum   'Tb1 Y1 Tm14 Ga6 Co2'
_cell_volume   582.01340431
_cell_formula_units_Z   1
loop_
 _symmetry_equiv_pos_site_id
 _symmetry_equiv_pos_as_xyz
  1  'x, y, z'
loop_
 _atom_site_type_symbol
 _atom_site_label
 _atom_site_symmetry_multiplicity
 _atom_site_fract_x
 _atom_site_fract_y
 _atom_site_fract_z
 _atom_site_occupancy
  Tb  Tb0  1  0.000000  0.000000  0.269236  1
  Y  Y1  1  0.000000  0.000000  0.769195  1
  Tm  Tm2  1  0.825826  0.651653  0.488934  1
  Tm  Tm3  1  0.348347  0.174174  0.488934  1
  Tm  Tm4  1  0.825826  0.174174  0.488934  1
  Tm  Tm5  1  0.174203  0.348404  0.988908  1
  Tm  Tm6  1  0.651596  0.825797  0.988908  1
  Tm  Tm7  1  0.174203  0.825797  0.988908  1
  Tm  Tm8  1  0.666667  0.333333  0.172197  1
  Tm  Tm9  1  0.333333  0.666667  0.672326  1
  Tm  Tm10  1  0.536673  0.073345  0.792638  1
  Tm  Tm11  1  0.926655  0.463327  0.792638  1
  Tm  Tm12  1  0.536673  0.463327  0.792638  1
  Tm  Tm13  1  0.463331  0.926661  0.292625  1
  Tm  Tm14  1  0.073339  0.536669  0.292625  1
  Tm  Tm15  1  0.463331  0.536669  0.292625  1
  Ga  Ga16  1  0.835985  0.671971  0.040139  1
  Ga  Ga17  1  0.328029  0.164015  0.040139  1
  Ga  Ga18  1  0.835985  0.164015  0.040139  1
  Ga  Ga19  1  0.164016  0.328032  0.540210  1
  Ga  Ga20  1  0.671968  0.835984  0.540210  1
  Ga  Ga21  1  0.164016  0.835984  0.540210  1
  Co  Co22  1  0.666667  0.333333  0.556319  1
  Co  Co23  1  0.333333  0.666667  0.056433  1
