# generated using pymatgen
data_Ta3MnAl2C
_symmetry_space_group_name_H-M   'P 1'
_cell_length_a   8.23311188
_cell_length_b   8.23311225
_cell_length_c   8.23311200
_cell_angle_alpha   60.00000099
_cell_angle_beta   59.99999950
_cell_angle_gamma   59.99999884
_symmetry_Int_Tables_number   1
_chemical_formula_structural   Ta3MnAl2C
_chemical_formula_sum   'Ta12 Mn4 Al8 C4'
_cell_volume   394.61816857
_cell_formula_units_Z   4
loop_
 _symmetry_equiv_pos_site_id
 _symmetry_equiv_pos_as_xyz
  1  'x, y, z'
loop_
 _atom_site_type_symbol
 _atom_site_label
 _atom_site_symmetry_multiplicity
 _atom_site_fract_x
 _atom_site_fract_y
 _atom_site_fract_z
 _atom_site_occupancy
  Ta  Ta0  1  0.556177  0.943823  0.556177  1
  Ta  Ta1  1  0.306177  0.693823  0.693823  1
  Ta  Ta2  1  0.693823  0.306177  0.306177  1
  Ta  Ta3  1  0.306177  0.693823  0.306177  1
  Ta  Ta4  1  0.693823  0.693823  0.306177  1
  Ta  Ta5  1  0.306177  0.306177  0.693823  1
  Ta  Ta6  1  0.556177  0.556177  0.943823  1
  Ta  Ta7  1  0.943823  0.556177  0.556177  1
  Ta  Ta8  1  0.556177  0.943823  0.943823  1
  Ta  Ta9  1  0.943823  0.943823  0.556177  1
  Ta  Ta10  1  0.693823  0.306177  0.693823  1
  Ta  Ta11  1  0.943823  0.556177  0.943823  1
  Mn  Mn12  1  0.125000  0.125000  0.125000  1
  Mn  Mn13  1  0.625000  0.125000  0.125000  1
  Mn  Mn14  1  0.125000  0.625000  0.125000  1
  Mn  Mn15  1  0.125000  0.125000  0.625000  1
  Al  Al16  1  0.916936  0.916936  0.916936  1
  Al  Al17  1  0.000807  0.333064  0.333064  1
  Al  Al18  1  0.333064  0.000807  0.333064  1
  Al  Al19  1  0.333064  0.333064  0.000807  1
  Al  Al20  1  0.916936  0.249193  0.916936  1
  Al  Al21  1  0.916936  0.916936  0.249193  1
  Al  Al22  1  0.249193  0.916936  0.916936  1
  Al  Al23  1  0.333064  0.333064  0.333064  1
  C  C24  1  0.625000  0.625000  0.625000  1
  C  C25  1  0.125000  0.625000  0.625000  1
  C  C26  1  0.625000  0.125000  0.625000  1
  C  C27  1  0.625000  0.625000  0.125000  1
