# generated using pymatgen
data_Tm5Al2Ru3
_symmetry_space_group_name_H-M   'P 1'
_cell_length_a   8.24408312
_cell_length_b   8.24408264
_cell_length_c   8.24408300
_cell_angle_alpha   109.47122398
_cell_angle_beta   109.47122280
_cell_angle_gamma   109.47121965
_symmetry_Int_Tables_number   1
_chemical_formula_structural   Tm5Al2Ru3
_chemical_formula_sum   'Tm10 Al4 Ru6'
_cell_volume   431.32550426
_cell_formula_units_Z   2
loop_
 _symmetry_equiv_pos_site_id
 _symmetry_equiv_pos_as_xyz
  1  'x, y, z'
loop_
 _atom_site_type_symbol
 _atom_site_label
 _atom_site_symmetry_multiplicity
 _atom_site_fract_x
 _atom_site_fract_y
 _atom_site_fract_z
 _atom_site_occupancy
  Tm  Tm0  1  0.786998  0.786998  0.786998  1
  Tm  Tm1  1  0.320039  0.570039  0.750000  1
  Tm  Tm2  1  0.750000  0.320039  0.570039  1
  Tm  Tm3  1  0.570039  0.750000  0.320039  1
  Tm  Tm4  1  0.713002  0.500000  0.000000  1
  Tm  Tm5  1  0.000000  0.713002  0.500000  1
  Tm  Tm6  1  0.500000  0.000000  0.713002  1
  Tm  Tm7  1  0.250000  0.179961  0.929961  1
  Tm  Tm8  1  0.929961  0.250000  0.179961  1
  Tm  Tm9  1  0.179961  0.929961  0.250000  1
  Al  Al10  1  0.409951  0.409951  0.409951  1
  Al  Al11  1  0.090049  0.500000  0.000000  1
  Al  Al12  1  0.000000  0.090049  0.500000  1
  Al  Al13  1  0.500000  0.000000  0.090049  1
  Ru  Ru14  1  0.875324  0.125324  0.750000  1
  Ru  Ru15  1  0.750000  0.875324  0.125324  1
  Ru  Ru16  1  0.125324  0.750000  0.875324  1
  Ru  Ru17  1  0.250000  0.624676  0.374676  1
  Ru  Ru18  1  0.374676  0.250000  0.624676  1
  Ru  Ru19  1  0.624676  0.374676  0.250000  1
