# generated using pymatgen
data_EuDy(Si7Ir3)2
_symmetry_space_group_name_H-M   'P 1'
_cell_length_a   8.10992933
_cell_length_b   8.10993013
_cell_length_c   8.10993012
_cell_angle_alpha   56.77288491
_cell_angle_beta   56.77287958
_cell_angle_gamma   56.77288063
_symmetry_Int_Tables_number   1
_chemical_formula_structural   EuDy(Si7Ir3)2
_chemical_formula_sum   'Eu1 Dy1 Si14 Ir6'
_cell_volume   349.07288048
_cell_formula_units_Z   1
loop_
 _symmetry_equiv_pos_site_id
 _symmetry_equiv_pos_as_xyz
  1  'x, y, z'
loop_
 _atom_site_type_symbol
 _atom_site_label
 _atom_site_symmetry_multiplicity
 _atom_site_fract_x
 _atom_site_fract_y
 _atom_site_fract_z
 _atom_site_occupancy
  Eu  Eu0  1  0.500000  0.500000  0.500000  1
  Dy  Dy1  1  0.000000  0.000000  0.000000  1
  Si  Si2  1  0.065094  0.849901  0.672762  1
  Si  Si3  1  0.672762  0.065094  0.849901  1
  Si  Si4  1  0.849901  0.672762  0.065094  1
  Si  Si5  1  0.173052  0.350883  0.564869  1
  Si  Si6  1  0.564869  0.173052  0.350883  1
  Si  Si7  1  0.350883  0.564869  0.173052  1
  Si  Si8  1  0.934906  0.150099  0.327238  1
  Si  Si9  1  0.327238  0.934906  0.150099  1
  Si  Si10  1  0.150099  0.327238  0.934906  1
  Si  Si11  1  0.826948  0.649117  0.435131  1
  Si  Si12  1  0.435131  0.826948  0.649117  1
  Si  Si13  1  0.649117  0.435131  0.826948  1
  Si  Si14  1  0.750038  0.750038  0.750038  1
  Si  Si15  1  0.249962  0.249962  0.249962  1
  Ir  Ir16  1  0.067423  0.752267  0.428346  1
  Ir  Ir17  1  0.428346  0.067423  0.752267  1
  Ir  Ir18  1  0.752267  0.428346  0.067423  1
  Ir  Ir19  1  0.932577  0.247733  0.571654  1
  Ir  Ir20  1  0.571654  0.932577  0.247733  1
  Ir  Ir21  1  0.247733  0.571654  0.932577  1
