# generated using pymatgen
data_Dy5P12Ru16Pt3
_symmetry_space_group_name_H-M   'P 1'
_cell_length_a   12.61822000
_cell_length_b   12.61822044
_cell_length_c   3.96827700
_cell_angle_alpha   90.00000000
_cell_angle_beta   90.00000000
_cell_angle_gamma   119.99999955
_symmetry_Int_Tables_number   1
_chemical_formula_structural   Dy5P12Ru16Pt3
_chemical_formula_sum   'Dy5 P12 Ru16 Pt3'
_cell_volume   547.17824082
_cell_formula_units_Z   1
loop_
 _symmetry_equiv_pos_site_id
 _symmetry_equiv_pos_as_xyz
  1  'x, y, z'
loop_
 _atom_site_type_symbol
 _atom_site_label
 _atom_site_symmetry_multiplicity
 _atom_site_fract_x
 _atom_site_fract_y
 _atom_site_fract_z
 _atom_site_occupancy
  Dy  Dy0  1  0.666667  0.333333  0.000000  1
  Dy  Dy1  1  0.333333  0.666667  0.000000  1
  Dy  Dy2  1  0.816188  0.999297  0.500000  1
  Dy  Dy3  1  0.183109  0.183812  0.500000  1
  Dy  Dy4  1  0.000703  0.816891  0.500000  1
  P  P5  1  0.627773  0.987192  0.000000  1
  P  P6  1  0.359419  0.372227  0.000000  1
  P  P7  1  0.012808  0.640581  0.000000  1
  P  P8  1  0.695968  0.528716  0.500000  1
  P  P9  1  0.832749  0.304032  0.500000  1
  P  P10  1  0.308424  0.829471  0.500000  1
  P  P11  1  0.521046  0.691576  0.500000  1
  P  P12  1  0.183225  0.000805  0.000000  1
  P  P13  1  0.817581  0.816775  0.000000  1
  P  P14  1  0.999195  0.182419  0.000000  1
  P  P15  1  0.471284  0.167251  0.500000  1
  P  P16  1  0.170529  0.478954  0.500000  1
  Ru  Ru17  1  0.621044  0.799796  0.000000  1
  Ru  Ru18  1  0.178752  0.378956  0.000000  1
  Ru  Ru19  1  0.378446  0.187944  0.000000  1
  Ru  Ru20  1  0.200204  0.821248  0.000000  1
  Ru  Ru21  1  0.809498  0.621554  0.000000  1
  Ru  Ru22  1  0.126577  0.636175  0.500000  1
  Ru  Ru23  1  0.363825  0.490403  0.500000  1
  Ru  Ru24  1  0.509597  0.873423  0.500000  1
  Ru  Ru25  1  0.000000  0.000000  0.000000  1
  Ru  Ru26  1  0.717240  0.715734  0.500000  1
  Ru  Ru27  1  0.998494  0.282760  0.500000  1
  Ru  Ru28  1  0.453267  0.005609  0.000000  1
  Ru  Ru29  1  0.552342  0.546733  0.000000  1
  Ru  Ru30  1  0.994391  0.447658  0.000000  1
  Ru  Ru31  1  0.812056  0.190502  0.000000  1
  Ru  Ru32  1  0.284266  0.001506  0.500000  1
  Pt  Pt33  1  0.868273  0.501931  0.500000  1
  Pt  Pt34  1  0.498069  0.366342  0.500000  1
  Pt  Pt35  1  0.633658  0.131727  0.500000  1
