# generated using pymatgen
data_Sc7Zn(Co3Sn11)2
_symmetry_space_group_name_H-M   'P 1'
_cell_length_a   9.51257800
_cell_length_b   9.51257782
_cell_length_c   9.75771700
_cell_angle_alpha   90.00000000
_cell_angle_beta   90.00000000
_cell_angle_gamma   120.00000061
_symmetry_Int_Tables_number   1
_chemical_formula_structural   Sc7Zn(Co3Sn11)2
_chemical_formula_sum   'Sc7 Zn1 Co6 Sn22'
_cell_volume   764.67219902
_cell_formula_units_Z   1
loop_
 _symmetry_equiv_pos_site_id
 _symmetry_equiv_pos_as_xyz
  1  'x, y, z'
loop_
 _atom_site_type_symbol
 _atom_site_label
 _atom_site_symmetry_multiplicity
 _atom_site_fract_x
 _atom_site_fract_y
 _atom_site_fract_z
 _atom_site_occupancy
  Sc  Sc0  1  0.000000  0.000000  0.000000  1
  Sc  Sc1  1  0.517279  0.482721  0.691993  1
  Sc  Sc2  1  0.517279  0.034557  0.691993  1
  Sc  Sc3  1  0.965443  0.482721  0.691993  1
  Sc  Sc4  1  0.034557  0.517279  0.308007  1
  Sc  Sc5  1  0.482721  0.965443  0.308007  1
  Sc  Sc6  1  0.482721  0.517279  0.308007  1
  Zn  Zn7  1  0.000000  0.000000  0.500000  1
  Co  Co8  1  0.169572  0.830428  0.800001  1
  Co  Co9  1  0.169572  0.339144  0.800001  1
  Co  Co10  1  0.660856  0.830428  0.800001  1
  Co  Co11  1  0.339144  0.169572  0.199999  1
  Co  Co12  1  0.830428  0.660856  0.199999  1
  Co  Co13  1  0.830428  0.169572  0.199999  1
  Sn  Sn14  1  0.666667  0.333333  0.179007  1
  Sn  Sn15  1  0.666667  0.333333  0.863439  1
  Sn  Sn16  1  0.333333  0.666667  0.136561  1
  Sn  Sn17  1  0.345308  0.345308  0.000000  1
  Sn  Sn18  1  0.000000  0.654692  0.000000  1
  Sn  Sn19  1  0.654692  0.000000  0.000000  1
  Sn  Sn20  1  0.654692  0.654692  0.000000  1
  Sn  Sn21  1  0.333333  0.666667  0.820993  1
  Sn  Sn22  1  0.437625  0.218813  0.456315  1
  Sn  Sn23  1  0.218813  0.781187  0.543685  1
  Sn  Sn24  1  0.218813  0.437625  0.543685  1
  Sn  Sn25  1  0.562375  0.781187  0.543685  1
  Sn  Sn26  1  0.116170  0.883830  0.276929  1
  Sn  Sn27  1  0.781187  0.562375  0.456315  1
  Sn  Sn28  1  0.781187  0.218813  0.456315  1
  Sn  Sn29  1  0.345308  0.000000  0.000000  1
  Sn  Sn30  1  0.116170  0.232341  0.276929  1
  Sn  Sn31  1  0.767659  0.883830  0.276929  1
  Sn  Sn32  1  0.232341  0.116170  0.723071  1
  Sn  Sn33  1  0.883830  0.767659  0.723071  1
  Sn  Sn34  1  0.883830  0.116170  0.723071  1
  Sn  Sn35  1  0.000000  0.345308  0.000000  1
