# generated using pymatgen
data_Zr10HgBi4Sb
_symmetry_space_group_name_H-M   'P 1'
_cell_length_a   5.66259363
_cell_length_b   8.57938691
_cell_length_c   8.57938700
_cell_angle_alpha   96.25234439
_cell_angle_beta   109.26946260
_cell_angle_gamma   70.73052319
_symmetry_Int_Tables_number   1
_chemical_formula_structural   Zr10HgBi4Sb
_chemical_formula_sum   'Zr10 Hg1 Bi4 Sb1'
_cell_volume   371.40750309
_cell_formula_units_Z   1
loop_
 _symmetry_equiv_pos_site_id
 _symmetry_equiv_pos_as_xyz
  1  'x, y, z'
loop_
 _atom_site_type_symbol
 _atom_site_label
 _atom_site_symmetry_multiplicity
 _atom_site_fract_x
 _atom_site_fract_y
 _atom_site_fract_z
 _atom_site_occupancy
  Zr  Zr0  1  0.428027  0.856164  0.705533  1
  Zr  Zr1  1  0.578641  0.143858  0.294466  1
  Zr  Zr2  1  0.921341  0.294467  0.143836  1
  Zr  Zr3  1  0.071969  0.705534  0.856142  1
  Zr  Zr4  1  0.722653  0.705505  0.143925  1
  Zr  Zr5  1  0.284208  0.294492  0.856056  1
  Zr  Zr6  1  0.777356  0.143944  0.705508  1
  Zr  Zr7  1  0.215767  0.856075  0.294495  1
  Zr  Zr8  1  0.250014  0.499986  0.500014  1
  Zr  Zr9  1  0.750015  0.499985  0.500015  1
  Hg  Hg10  1  0.250023  0.999977  0.000023  1
  Bi  Bi11  1  0.334896  0.499959  0.169660  1
  Bi  Bi12  1  0.665188  0.500048  0.830336  1
  Bi  Bi13  1  0.834804  0.830340  0.500041  1
  Bi  Bi14  1  0.165102  0.169664  0.499952  1
  Sb  Sb15  1  0.749997  0.000003  0.999997  1
