# generated using pymatgen
data_Rb2Mg(HgSe2)2
_symmetry_space_group_name_H-M   'P 1'
_cell_length_a   10.03062209
_cell_length_b   10.03062102
_cell_length_c   10.03062117
_cell_angle_alpha   141.61361708
_cell_angle_beta   108.70548184
_cell_angle_gamma   83.99906799
_symmetry_Int_Tables_number   1
_chemical_formula_structural   Rb2Mg(HgSe2)2
_chemical_formula_sum   'Rb4 Mg2 Hg4 Se8'
_cell_volume   574.78629899
_cell_formula_units_Z   2
loop_
 _symmetry_equiv_pos_site_id
 _symmetry_equiv_pos_as_xyz
  1  'x, y, z'
loop_
 _atom_site_type_symbol
 _atom_site_label
 _atom_site_symmetry_multiplicity
 _atom_site_fract_x
 _atom_site_fract_y
 _atom_site_fract_z
 _atom_site_occupancy
  Rb  Rb0  1  0.123245  0.773857  0.897102  1
  Rb  Rb1  1  0.876755  0.226143  0.102898  1
  Rb  Rb2  1  0.623245  0.726143  0.349388  1
  Rb  Rb3  1  0.376755  0.273857  0.650612  1
  Mg  Mg4  1  0.250000  0.750000  0.500000  1
  Mg  Mg5  1  0.750000  0.250000  0.500000  1
  Hg  Hg6  1  0.914910  0.750000  0.164910  1
  Hg  Hg7  1  0.585090  0.750000  0.835090  1
  Hg  Hg8  1  0.085090  0.250000  0.835090  1
  Hg  Hg9  1  0.414910  0.250000  0.164910  1
  Se  Se10  1  0.233485  0.645925  0.158788  1
  Se  Se11  1  0.487137  0.074697  0.841212  1
  Se  Se12  1  0.012863  0.854075  0.587560  1
  Se  Se13  1  0.266515  0.425303  0.412440  1
  Se  Se14  1  0.766515  0.354075  0.841212  1
  Se  Se15  1  0.512863  0.925303  0.158788  1
  Se  Se16  1  0.987137  0.145925  0.412440  1
  Se  Se17  1  0.733485  0.574697  0.587560  1
