# generated using pymatgen
data_La19YbGa12
_symmetry_space_group_name_H-M   'P 1'
_cell_length_a   7.98751400
_cell_length_b   7.98751400
_cell_length_c   14.91174800
_cell_angle_alpha   90.00000000
_cell_angle_beta   90.00000000
_cell_angle_gamma   90.00000000
_symmetry_Int_Tables_number   1
_chemical_formula_structural   La19YbGa12
_chemical_formula_sum   'La19 Yb1 Ga12'
_cell_volume   951.37518738
_cell_formula_units_Z   1
loop_
 _symmetry_equiv_pos_site_id
 _symmetry_equiv_pos_as_xyz
  1  'x, y, z'
loop_
 _atom_site_type_symbol
 _atom_site_label
 _atom_site_symmetry_multiplicity
 _atom_site_fract_x
 _atom_site_fract_y
 _atom_site_fract_z
 _atom_site_occupancy
  La  La0  1  0.000000  0.500000  0.787667  1
  La  La1  1  0.000000  0.500000  0.289315  1
  La  La2  1  0.500000  0.000000  0.206447  1
  La  La3  1  0.685081  0.663293  0.603148  1
  La  La4  1  0.684901  0.339552  0.102576  1
  La  La5  1  0.811313  0.840589  0.397169  1
  La  La6  1  0.183373  0.839627  0.895666  1
  La  La7  1  0.314919  0.336707  0.603148  1
  La  La8  1  0.315099  0.660448  0.102576  1
  La  La9  1  0.188687  0.159411  0.397169  1
  La  La10  1  0.816627  0.160373  0.895666  1
  La  La11  1  0.659411  0.311313  0.397169  1
  La  La12  1  0.339627  0.316627  0.895666  1
  La  La13  1  0.163293  0.814919  0.603148  1
  La  La14  1  0.839552  0.815099  0.102576  1
  La  La15  1  0.340589  0.688687  0.397169  1
  La  La16  1  0.660373  0.683373  0.895666  1
  La  La17  1  0.836707  0.185081  0.603148  1
  La  La18  1  0.160448  0.184901  0.102576  1
  Yb  Yb19  1  0.500000  0.000000  0.728226  1
  Ga  Ga20  1  0.000000  0.500000  0.496390  1
  Ga  Ga21  1  0.000000  0.500000  0.996287  1
  Ga  Ga22  1  0.500000  0.000000  0.512079  1
  Ga  Ga23  1  0.500000  0.000000  0.998339  1
  Ga  Ga24  1  0.881020  0.882829  0.747770  1
  Ga  Ga25  1  0.881072  0.117917  0.249984  1
  Ga  Ga26  1  0.617917  0.618928  0.249984  1
  Ga  Ga27  1  0.382829  0.618980  0.747770  1
  Ga  Ga28  1  0.118980  0.117171  0.747770  1
  Ga  Ga29  1  0.118928  0.882083  0.249984  1
  Ga  Ga30  1  0.382083  0.381072  0.249984  1
  Ga  Ga31  1  0.617171  0.381020  0.747770  1
