# generated using pymatgen
data_Tb2Al20ReRuRh2
_symmetry_space_group_name_H-M   'P 1'
_cell_length_a   6.88029437
_cell_length_b   6.87127237
_cell_length_c   9.17438985
_cell_angle_alpha   90.71392341
_cell_angle_beta   90.48614228
_cell_angle_gamma   96.88000192
_symmetry_Int_Tables_number   1
_chemical_formula_structural   Tb2Al20ReRuRh2
_chemical_formula_sum   'Tb2 Al20 Re1 Ru1 Rh2'
_cell_volume   430.55352449
_cell_formula_units_Z   1
loop_
 _symmetry_equiv_pos_site_id
 _symmetry_equiv_pos_as_xyz
  1  'x, y, z'
loop_
 _atom_site_type_symbol
 _atom_site_label
 _atom_site_symmetry_multiplicity
 _atom_site_fract_x
 _atom_site_fract_y
 _atom_site_fract_z
 _atom_site_occupancy
  Tb  Tb0  1  0.873683  0.130687  0.751029  1
  Tb  Tb1  1  0.126317  0.869313  0.248971  1
  Al  Al2  1  0.620186  0.376804  0.550119  1
  Al  Al3  1  0.379814  0.623196  0.449881  1
  Al  Al4  1  0.376881  0.619778  0.049064  1
  Al  Al5  1  0.623119  0.380222  0.950936  1
  Al  Al6  1  0.224959  0.223788  0.500056  1
  Al  Al7  1  0.775041  0.776212  0.499944  1
  Al  Al8  1  0.775649  0.776643  0.000190  1
  Al  Al9  1  0.224351  0.223357  0.999810  1
  Al  Al10  1  0.844429  0.157296  0.100917  1
  Al  Al11  1  0.155571  0.842704  0.899083  1
  Al  Al12  1  0.158951  0.844659  0.601744  1
  Al  Al13  1  0.841049  0.155341  0.398256  1
  Al  Al14  1  0.856499  0.589118  0.749425  1
  Al  Al15  1  0.143501  0.410882  0.250575  1
  Al  Al16  1  0.412062  0.142721  0.749644  1
  Al  Al17  1  0.587938  0.857279  0.250356  1
  Al  Al18  1  0.220739  0.480422  0.753949  1
  Al  Al19  1  0.779261  0.519578  0.246051  1
  Al  Al20  1  0.519489  0.779003  0.746014  1
  Al  Al21  1  0.480511  0.220997  0.253986  1
  Re  Re22  1  0.000000  0.500000  0.000000  1
  Ru  Ru23  1  0.500000  0.000000  0.500000  1
  Rh  Rh24  1  0.000000  0.500000  0.500000  1
  Rh  Rh25  1  0.500000  0.000000  0.000000  1
