# generated using pymatgen
data_Tm4Lu2Al19Si5Os8
_symmetry_space_group_name_H-M   'P 1'
_cell_length_a   8.66298600
_cell_length_b   8.64837079
_cell_length_c   9.54135400
_cell_angle_alpha   90.00000000
_cell_angle_beta   90.00000000
_cell_angle_gamma   120.05591847
_symmetry_Int_Tables_number   1
_chemical_formula_structural   Tm4Lu2Al19Si5Os8
_chemical_formula_sum   'Tm4 Lu2 Al19 Si5 Os8'
_cell_volume   618.72486014
_cell_formula_units_Z   1
loop_
 _symmetry_equiv_pos_site_id
 _symmetry_equiv_pos_as_xyz
  1  'x, y, z'
loop_
 _atom_site_type_symbol
 _atom_site_label
 _atom_site_symmetry_multiplicity
 _atom_site_fract_x
 _atom_site_fract_y
 _atom_site_fract_z
 _atom_site_occupancy
  Tm  Tm0  1  0.606575  0.805576  0.250000  1
  Tm  Tm1  1  0.391300  0.196270  0.750000  1
  Tm  Tm2  1  0.199001  0.805576  0.250000  1
  Tm  Tm3  1  0.804970  0.196270  0.750000  1
  Lu  Lu4  1  0.195978  0.391957  0.250000  1
  Lu  Lu5  1  0.804421  0.608841  0.750000  1
  Al  Al6  1  0.164589  0.329178  0.578840  1
  Al  Al7  1  0.834778  0.669555  0.421333  1
  Al  Al8  1  0.670076  0.835378  0.577644  1
  Al  Al9  1  0.834778  0.669555  0.078667  1
  Al  Al10  1  0.328840  0.165420  0.421335  1
  Al  Al11  1  0.164589  0.329178  0.921160  1
  Al  Al12  1  0.165302  0.835378  0.577644  1
  Al  Al13  1  0.328840  0.165420  0.078665  1
  Al  Al14  1  0.836580  0.165420  0.421335  1
  Al  Al15  1  0.670076  0.835378  0.922356  1
  Al  Al16  1  0.836580  0.165420  0.078665  1
  Al  Al17  1  0.165302  0.835378  0.922356  1
  Al  Al18  1  0.437418  0.874837  0.750000  1
  Al  Al19  1  0.873650  0.433915  0.250000  1
  Al  Al20  1  0.127055  0.564359  0.750000  1
  Al  Al21  1  0.560266  0.433915  0.250000  1
  Al  Al22  1  0.437304  0.564359  0.750000  1
  Al  Al23  1  0.999978  0.999956  0.250000  1
  Al  Al24  1  0.000184  0.000368  0.750000  1
  Si  Si25  1  0.332412  0.664826  0.039261  1
  Si  Si26  1  0.667383  0.334765  0.959454  1
  Si  Si27  1  0.667383  0.334765  0.540546  1
  Si  Si28  1  0.332412  0.664826  0.460739  1
  Si  Si29  1  0.563640  0.127280  0.250000  1
  Os  Os30  1  0.500688  0.001374  0.006416  1
  Os  Os31  1  0.999031  0.498952  0.000454  1
  Os  Os32  1  0.500688  0.001374  0.493584  1
  Os  Os33  1  0.499921  0.498952  0.000454  1
  Os  Os34  1  0.999031  0.498952  0.499546  1
  Os  Os35  1  0.499921  0.498952  0.499546  1
  Os  Os36  1  0.999531  0.999060  0.999986  1
  Os  Os37  1  0.999531  0.999060  0.500014  1
