# generated using pymatgen
data_Ho2Lu9Th5(MgRu)4
_symmetry_space_group_name_H-M   'P 1'
_cell_length_a   9.64585289
_cell_length_b   9.66899960
_cell_length_c   9.65815158
_cell_angle_alpha   59.83112636
_cell_angle_beta   60.11585398
_cell_angle_gamma   60.00439043
_symmetry_Int_Tables_number   1
_chemical_formula_structural   Ho2Lu9Th5(MgRu)4
_chemical_formula_sum   'Ho2 Lu9 Th5 Mg4 Ru4'
_cell_volume   636.70182409
_cell_formula_units_Z   1
loop_
 _symmetry_equiv_pos_site_id
 _symmetry_equiv_pos_as_xyz
  1  'x, y, z'
loop_
 _atom_site_type_symbol
 _atom_site_label
 _atom_site_symmetry_multiplicity
 _atom_site_fract_x
 _atom_site_fract_y
 _atom_site_fract_z
 _atom_site_occupancy
  Ho  Ho0  1  0.564124  0.566598  0.934034  1
  Ho  Ho1  1  0.935245  0.934035  0.566599  1
  Lu  Lu2  1  0.185716  0.814277  0.814287  1
  Lu  Lu3  1  0.190882  0.809981  0.184631  1
  Lu  Lu4  1  0.814491  0.184637  0.809968  1
  Lu  Lu5  1  0.191213  0.184555  0.809832  1
  Lu  Lu6  1  0.814412  0.809850  0.184547  1
  Lu  Lu7  1  0.932451  0.567548  0.567545  1
  Lu  Lu8  1  0.564721  0.935280  0.935284  1
  Lu  Lu9  1  0.562841  0.935105  0.565811  1
  Lu  Lu10  1  0.936246  0.565807  0.935107  1
  Th  Th11  1  0.342496  0.349582  0.349727  1
  Th  Th12  1  0.347167  0.348718  0.956673  1
  Th  Th13  1  0.347440  0.956669  0.348724  1
  Th  Th14  1  0.958193  0.349734  0.349582  1
  Th  Th15  1  0.816733  0.183268  0.183266  1
  Mg  Mg16  1  0.582089  0.579894  0.579330  1
  Mg  Mg17  1  0.580047  0.582342  0.258085  1
  Mg  Mg18  1  0.579528  0.258083  0.582350  1
  Mg  Mg19  1  0.258692  0.579304  0.579905  1
  Ru  Ru20  1  0.130474  0.146423  0.145493  1
  Ru  Ru21  1  0.143920  0.141838  0.570972  1
  Ru  Ru22  1  0.143274  0.570971  0.141835  1
  Ru  Ru23  1  0.577605  0.145501  0.146415  1
