# generated using pymatgen
data_Er12InCo4Ir
_symmetry_space_group_name_H-M   'P 1'
_cell_length_a   8.21029116
_cell_length_b   8.21029050
_cell_length_c   8.21029104
_cell_angle_alpha   111.18161291
_cell_angle_beta   110.78332890
_cell_angle_gamma   106.48950169
_symmetry_Int_Tables_number   1
_chemical_formula_structural   Er12InCo4Ir
_chemical_formula_sum   'Er12 In1 Co4 Ir1'
_cell_volume   425.17823303
_cell_formula_units_Z   1
loop_
 _symmetry_equiv_pos_site_id
 _symmetry_equiv_pos_as_xyz
  1  'x, y, z'
loop_
 _atom_site_type_symbol
 _atom_site_label
 _atom_site_symmetry_multiplicity
 _atom_site_fract_x
 _atom_site_fract_y
 _atom_site_fract_z
 _atom_site_occupancy
  Er  Er0  1  0.182966  0.284195  0.467161  1
  Er  Er1  1  0.817034  0.715805  0.532839  1
  Er  Er2  1  0.182966  0.715805  0.898771  1
  Er  Er3  1  0.817034  0.284195  0.101229  1
  Er  Er4  1  0.315130  0.620597  0.305467  1
  Er  Er5  1  0.684870  0.379403  0.694533  1
  Er  Er6  1  0.315130  0.009662  0.694533  1
  Er  Er7  1  0.684870  0.990338  0.305467  1
  Er  Er8  1  0.413439  0.218698  0.194741  1
  Er  Er9  1  0.586561  0.781302  0.805259  1
  Er  Er10  1  0.023957  0.218698  0.805259  1
  Er  Er11  1  0.976043  0.781302  0.194741  1
  In  In12  1  0.500000  0.500000  0.000000  1
  Co  Co13  1  0.111978  0.611978  0.500000  1
  Co  Co14  1  0.888022  0.388022  0.500000  1
  Co  Co15  1  0.377471  0.000000  0.377471  1
  Co  Co16  1  0.622529  0.000000  0.622529  1
  Ir  Ir17  1  0.000000  0.000000  0.000000  1
