# generated using pymatgen
data_CaDy(FeO3)2
_symmetry_space_group_name_H-M   'P 1'
_cell_length_a   5.34403700
_cell_length_b   5.58509900
_cell_length_c   7.64225700
_cell_angle_alpha   90.00000000
_cell_angle_beta   90.00000000
_cell_angle_gamma   90.00000000
_symmetry_Int_Tables_number   1
_chemical_formula_structural   CaDy(FeO3)2
_chemical_formula_sum   'Ca2 Dy2 Fe4 O12'
_cell_volume   228.09825901
_cell_formula_units_Z   2
loop_
 _symmetry_equiv_pos_site_id
 _symmetry_equiv_pos_as_xyz
  1  'x, y, z'
loop_
 _atom_site_type_symbol
 _atom_site_label
 _atom_site_symmetry_multiplicity
 _atom_site_fract_x
 _atom_site_fract_y
 _atom_site_fract_z
 _atom_site_occupancy
  Ca  Ca0  1  0.012550  0.944110  0.750000  1
  Ca  Ca1  1  0.512550  0.555890  0.250000  1
  Dy  Dy2  1  0.482158  0.431850  0.750000  1
  Dy  Dy3  1  0.982158  0.068150  0.250000  1
  Fe  Fe4  1  0.498784  0.994547  0.499774  1
  Fe  Fe5  1  0.998784  0.505453  0.500226  1
  Fe  Fe6  1  0.998784  0.505453  0.999774  1
  Fe  Fe7  1  0.498784  0.994547  0.000226  1
  O  O8  1  0.305119  0.693401  0.552279  1
  O  O9  1  0.805119  0.806599  0.447721  1
  O  O10  1  0.208452  0.207023  0.952270  1
  O  O11  1  0.708452  0.292977  0.047730  1
  O  O12  1  0.708452  0.292977  0.452270  1
  O  O13  1  0.208452  0.207023  0.547730  1
  O  O14  1  0.805119  0.806599  0.052279  1
  O  O15  1  0.305119  0.693401  0.947721  1
  O  O16  1  0.086212  0.469426  0.250000  1
  O  O17  1  0.586212  0.030574  0.750000  1
  O  O18  1  0.394369  0.973674  0.250000  1
  O  O19  1  0.894369  0.526326  0.750000  1
