# generated using pymatgen
data_Hf6Zn19PAu4
_symmetry_space_group_name_H-M   'P 1'
_cell_length_a   8.87106196
_cell_length_b   8.82477456
_cell_length_c   8.82477700
_cell_angle_alpha   60.45370118
_cell_angle_beta   59.84212462
_cell_angle_gamma   59.84219074
_symmetry_Int_Tables_number   1
_chemical_formula_structural   Hf6Zn19PAu4
_chemical_formula_sum   'Hf6 Zn19 P1 Au4'
_cell_volume   488.97598028
_cell_formula_units_Z   1
loop_
 _symmetry_equiv_pos_site_id
 _symmetry_equiv_pos_as_xyz
  1  'x, y, z'
loop_
 _atom_site_type_symbol
 _atom_site_label
 _atom_site_symmetry_multiplicity
 _atom_site_fract_x
 _atom_site_fract_y
 _atom_site_fract_z
 _atom_site_occupancy
  Hf  Hf0  1  0.711748  0.295929  0.295930  1
  Hf  Hf1  1  0.286599  0.707956  0.707957  1
  Hf  Hf2  1  0.294965  0.704306  0.298806  1
  Hf  Hf3  1  0.709870  0.292019  0.698734  1
  Hf  Hf4  1  0.294965  0.298807  0.704307  1
  Hf  Hf5  1  0.709871  0.698734  0.292018  1
  Zn  Zn6  1  0.879864  0.872989  0.371203  1
  Zn  Zn7  1  0.879864  0.371205  0.872988  1
  Zn  Zn8  1  0.623251  0.122967  0.122968  1
  Zn  Zn9  1  0.364157  0.878054  0.878056  1
  Zn  Zn10  1  0.496118  0.998803  0.998802  1
  Zn  Zn11  1  0.997926  0.501568  0.501567  1
  Zn  Zn12  1  0.000561  0.498816  0.997734  1
  Zn  Zn13  1  0.508798  0.997636  0.493722  1
  Zn  Zn14  1  0.000561  0.997735  0.498816  1
  Zn  Zn15  1  0.508798  0.493722  0.997637  1
  Zn  Zn16  1  0.341588  0.335983  0.335984  1
  Zn  Zn17  1  0.658847  0.662734  0.662734  1
  Zn  Zn18  1  0.338495  0.337833  0.988721  1
  Zn  Zn19  1  0.338497  0.988720  0.337833  1
  Zn  Zn20  1  0.662944  0.661643  0.007624  1
  Zn  Zn21  1  0.662943  0.007625  0.661643  1
  Zn  Zn22  1  0.000161  0.333111  0.333112  1
  Zn  Zn23  1  0.007659  0.663929  0.663929  1
  Zn  Zn24  1  0.980865  0.009454  0.009453  1
  P  P25  1  0.499972  0.501927  0.501927  1
  Au  Au26  1  0.120441  0.118142  0.118145  1
  Au  Au27  1  0.872669  0.882487  0.882486  1
  Au  Au28  1  0.123502  0.121632  0.643532  1
  Au  Au29  1  0.123501  0.643533  0.121633  1
