# generated using pymatgen
data_Dy2B5
_symmetry_space_group_name_H-M   'P 1'
_cell_length_a   7.09616725
_cell_length_b   7.09719000
_cell_length_c   7.12285370
_cell_angle_alpha   90.00000000
_cell_angle_beta   103.01970419
_cell_angle_gamma   90.00000000
_symmetry_Int_Tables_number   1
_chemical_formula_structural   Dy2B5
_chemical_formula_sum   'Dy8 B20'
_cell_volume   349.50526587
_cell_formula_units_Z   4
loop_
 _symmetry_equiv_pos_site_id
 _symmetry_equiv_pos_as_xyz
  1  'x, y, z'
loop_
 _atom_site_type_symbol
 _atom_site_label
 _atom_site_symmetry_multiplicity
 _atom_site_fract_x
 _atom_site_fract_y
 _atom_site_fract_z
 _atom_site_occupancy
  Dy  Dy0  1  0.233126  0.192136  0.127880  1
  Dy  Dy1  1  0.757888  0.184846  0.246179  1
  Dy  Dy2  1  0.242112  0.684846  0.253820  1
  Dy  Dy3  1  0.766873  0.692136  0.372121  1
  Dy  Dy4  1  0.233127  0.307865  0.627879  1
  Dy  Dy5  1  0.757888  0.315153  0.746179  1
  Dy  Dy6  1  0.242112  0.815153  0.753820  1
  Dy  Dy7  1  0.766874  0.807865  0.872121  1
  B  B8  1  0.685941  0.498050  0.040549  1
  B  B9  1  0.503055  0.673867  0.039798  1
  B  B10  1  0.925740  0.490886  0.074959  1
  B  B11  1  0.498690  0.910848  0.089116  1
  B  B12  1  0.503202  0.461666  0.174363  1
  B  B13  1  0.496799  0.961666  0.325637  1
  B  B14  1  0.501311  0.410848  0.410883  1
  B  B15  1  0.074259  0.990886  0.425041  1
  B  B16  1  0.496944  0.173867  0.460203  1
  B  B17  1  0.314058  0.998050  0.459451  1
  B  B18  1  0.685942  0.001949  0.540549  1
  B  B19  1  0.503056  0.826133  0.539798  1
  B  B20  1  0.925740  0.009114  0.574959  1
  B  B21  1  0.498689  0.589153  0.589116  1
  B  B22  1  0.503201  0.038335  0.674363  1
  B  B23  1  0.496798  0.538335  0.825637  1
  B  B24  1  0.501310  0.089152  0.910884  1
  B  B25  1  0.074259  0.509115  0.925041  1
  B  B26  1  0.496945  0.326133  0.960203  1
  B  B27  1  0.314059  0.501949  0.959451  1
