# generated using pymatgen
data_TmSc9(GaSb)3
_symmetry_space_group_name_H-M   'P 1'
_cell_length_a   8.26944800
_cell_length_b   8.30159253
_cell_length_c   6.03326000
_cell_angle_alpha   90.00000000
_cell_angle_beta   90.00000000
_cell_angle_gamma   119.87198672
_symmetry_Int_Tables_number   1
_chemical_formula_structural   TmSc9(GaSb)3
_chemical_formula_sum   'Tm1 Sc9 Ga3 Sb3'
_cell_volume   359.15290145
_cell_formula_units_Z   1
loop_
 _symmetry_equiv_pos_site_id
 _symmetry_equiv_pos_as_xyz
  1  'x, y, z'
loop_
 _atom_site_type_symbol
 _atom_site_label
 _atom_site_symmetry_multiplicity
 _atom_site_fract_x
 _atom_site_fract_y
 _atom_site_fract_z
 _atom_site_occupancy
  Tm  Tm0  1  0.231602  0.000000  0.250000  1
  Sc  Sc1  1  0.327542  0.666156  0.003673  1
  Sc  Sc2  1  0.661387  0.333844  0.496327  1
  Sc  Sc3  1  0.661387  0.333844  0.003673  1
  Sc  Sc4  1  0.327542  0.666156  0.496327  1
  Sc  Sc5  1  0.241121  0.229388  0.750000  1
  Sc  Sc6  1  0.011733  0.770612  0.750000  1
  Sc  Sc7  1  0.012623  0.248676  0.250000  1
  Sc  Sc8  1  0.763948  0.751324  0.250000  1
  Sc  Sc9  1  0.756622  0.000000  0.750000  1
  Ga  Ga10  1  0.995407  0.598413  0.250000  1
  Ga  Ga11  1  0.396993  0.401587  0.250000  1
  Ga  Ga12  1  0.397537  0.000000  0.750000  1
  Sb  Sb13  1  0.612500  0.000000  0.250000  1
  Sb  Sb14  1  0.604808  0.607563  0.750000  1
  Sb  Sb15  1  0.997246  0.392437  0.750000  1
