# generated using pymatgen
data_Sr4H12PtAu
_symmetry_space_group_name_H-M   'P 1'
_cell_length_a   7.41251935
_cell_length_b   7.41251981
_cell_length_c   5.71653109
_cell_angle_alpha   90.07834572
_cell_angle_beta   90.07833640
_cell_angle_gamma   134.65338330
_symmetry_Int_Tables_number   1
_chemical_formula_structural   Sr4H12PtAu
_chemical_formula_sum   'Sr4 H12 Pt1 Au1'
_cell_volume   223.43850908
_cell_formula_units_Z   1
loop_
 _symmetry_equiv_pos_site_id
 _symmetry_equiv_pos_as_xyz
  1  'x, y, z'
loop_
 _atom_site_type_symbol
 _atom_site_label
 _atom_site_symmetry_multiplicity
 _atom_site_fract_x
 _atom_site_fract_y
 _atom_site_fract_z
 _atom_site_occupancy
  Sr  Sr0  1  0.647063  0.352937  0.000000  1
  Sr  Sr1  1  0.352937  0.647063  0.000000  1
  Sr  Sr2  1  0.853104  0.146896  0.500000  1
  Sr  Sr3  1  0.146896  0.853104  0.500000  1
  H  H4  1  0.877210  0.122790  0.000000  1
  H  H5  1  0.122790  0.877210  0.000000  1
  H  H6  1  0.622312  0.377688  0.500000  1
  H  H7  1  0.377688  0.622312  0.500000  1
  H  H8  1  0.000389  0.500004  0.250028  1
  H  H9  1  0.999611  0.499996  0.749972  1
  H  H10  1  0.499996  0.999611  0.749972  1
  H  H11  1  0.500004  0.000389  0.250028  1
  H  H12  1  0.281398  0.281398  0.286577  1
  H  H13  1  0.718602  0.718602  0.713423  1
  H  H14  1  0.288942  0.288942  0.719117  1
  H  H15  1  0.711058  0.711058  0.280883  1
  Pt  Pt16  1  0.500000  0.500000  0.500000  1
  Au  Au17  1  0.000000  0.000000  0.000000  1
