# generated using pymatgen
data_Tb19Er(Bi2Os)4
_symmetry_space_group_name_H-M   'P 1'
_cell_length_a   8.00378838
_cell_length_b   9.06669480
_cell_length_c   12.54184213
_cell_angle_alpha   89.97484490
_cell_angle_beta   90.02544904
_cell_angle_gamma   89.97131212
_symmetry_Int_Tables_number   1
_chemical_formula_structural   Tb19Er(Bi2Os)4
_chemical_formula_sum   'Tb19 Er1 Bi8 Os4'
_cell_volume   910.13493589
_cell_formula_units_Z   1
loop_
 _symmetry_equiv_pos_site_id
 _symmetry_equiv_pos_as_xyz
  1  'x, y, z'
loop_
 _atom_site_type_symbol
 _atom_site_label
 _atom_site_symmetry_multiplicity
 _atom_site_fract_x
 _atom_site_fract_y
 _atom_site_fract_z
 _atom_site_occupancy
  Tb  Tb0  1  0.842937  0.749869  0.792416  1
  Tb  Tb1  1  0.156887  0.249976  0.207065  1
  Tb  Tb2  1  0.343340  0.249453  0.707087  1
  Tb  Tb3  1  0.656655  0.750119  0.293153  1
  Tb  Tb4  1  0.376305  0.750692  0.692968  1
  Tb  Tb5  1  0.625054  0.249072  0.307200  1
  Tb  Tb6  1  0.875600  0.250154  0.806602  1
  Tb  Tb7  1  0.124365  0.749858  0.193314  1
  Tb  Tb8  1  0.942837  0.750927  0.504575  1
  Tb  Tb9  1  0.055623  0.249479  0.495620  1
  Tb  Tb10  1  0.443874  0.249892  0.995551  1
  Tb  Tb11  1  0.556634  0.749952  0.004246  1
  Tb  Tb12  1  0.324938  0.958912  0.436536  1
  Tb  Tb13  1  0.175457  0.958552  0.936055  1
  Tb  Tb14  1  0.324218  0.540864  0.436419  1
  Tb  Tb15  1  0.824431  0.041204  0.063684  1
  Tb  Tb16  1  0.675849  0.458802  0.563782  1
  Tb  Tb17  1  0.824240  0.458650  0.063592  1
  Tb  Tb18  1  0.175586  0.541409  0.936232  1
  Er  Er19  1  0.673148  0.042080  0.563938  1
  Bi  Bi20  1  0.569744  0.493272  0.827580  1
  Bi  Bi21  1  0.430379  0.506409  0.172532  1
  Bi  Bi22  1  0.070446  0.506705  0.672074  1
  Bi  Bi23  1  0.430028  0.993281  0.172275  1
  Bi  Bi24  1  0.930006  0.493307  0.327915  1
  Bi  Bi25  1  0.570291  0.006700  0.827490  1
  Bi  Bi26  1  0.930477  0.006513  0.327559  1
  Bi  Bi27  1  0.068455  0.993732  0.671995  1
  Os  Os28  1  0.575276  0.750797  0.511098  1
  Os  Os29  1  0.426908  0.249406  0.489575  1
  Os  Os30  1  0.074864  0.250029  0.989054  1
  Os  Os31  1  0.925151  0.749936  0.010819  1
