# generated using pymatgen
data_Nd3TiFeCo7P6
_symmetry_space_group_name_H-M   'P 1'
_cell_length_a   3.76824500
_cell_length_b   10.76941800
_cell_length_c   12.45067300
_cell_angle_alpha   90.00000000
_cell_angle_beta   90.00000000
_cell_angle_gamma   90.00000000
_symmetry_Int_Tables_number   1
_chemical_formula_structural   Nd3TiFeCo7P6
_chemical_formula_sum   'Nd6 Ti2 Fe2 Co14 P12'
_cell_volume   505.27079042
_cell_formula_units_Z   2
loop_
 _symmetry_equiv_pos_site_id
 _symmetry_equiv_pos_as_xyz
  1  'x, y, z'
loop_
 _atom_site_type_symbol
 _atom_site_label
 _atom_site_symmetry_multiplicity
 _atom_site_fract_x
 _atom_site_fract_y
 _atom_site_fract_z
 _atom_site_occupancy
  Nd  Nd0  1  0.000000  0.500000  0.524545  1
  Nd  Nd1  1  0.500000  0.000000  0.475455  1
  Nd  Nd2  1  0.500000  0.821379  0.204461  1
  Nd  Nd3  1  0.500000  0.178621  0.204461  1
  Nd  Nd4  1  0.000000  0.678621  0.795539  1
  Nd  Nd5  1  0.000000  0.321379  0.795539  1
  Ti  Ti6  1  0.500000  0.500000  0.150366  1
  Ti  Ti7  1  0.000000  0.000000  0.849634  1
  Fe  Fe8  1  0.000000  0.500000  0.989738  1
  Fe  Fe9  1  0.500000  0.000000  0.010262  1
  Co  Co10  1  0.500000  0.500000  0.703537  1
  Co  Co11  1  0.000000  0.000000  0.296463  1
  Co  Co12  1  0.500000  0.330974  0.996269  1
  Co  Co13  1  0.500000  0.669026  0.996269  1
  Co  Co14  1  0.000000  0.169026  0.003731  1
  Co  Co15  1  0.000000  0.830974  0.003731  1
  Co  Co16  1  0.500000  0.296262  0.431650  1
  Co  Co17  1  0.500000  0.703738  0.431650  1
  Co  Co18  1  0.000000  0.203738  0.568350  1
  Co  Co19  1  0.000000  0.796262  0.568350  1
  Co  Co20  1  0.500000  0.880750  0.706013  1
  Co  Co21  1  0.500000  0.119250  0.706013  1
  Co  Co22  1  0.000000  0.619250  0.293987  1
  Co  Co23  1  0.000000  0.380750  0.293987  1
  P  P24  1  0.500000  0.500000  0.890542  1
  P  P25  1  0.000000  0.000000  0.109458  1
  P  P26  1  0.500000  0.500000  0.347868  1
  P  P27  1  0.000000  0.000000  0.652132  1
  P  P28  1  0.500000  0.304568  0.614308  1
  P  P29  1  0.500000  0.695432  0.614308  1
  P  P30  1  0.000000  0.195432  0.385692  1
  P  P31  1  0.000000  0.804568  0.385692  1
  P  P32  1  0.500000  0.844812  0.896177  1
  P  P33  1  0.500000  0.155188  0.896177  1
  P  P34  1  0.000000  0.655188  0.103823  1
  P  P35  1  0.000000  0.344812  0.103823  1
