# generated using pymatgen
data_Cs2Nb(WO4)3
_symmetry_space_group_name_H-M   'P 1'
_cell_length_a   7.48342612
_cell_length_b   7.48342669
_cell_length_c   7.44809069
_cell_angle_alpha   59.99126210
_cell_angle_beta   59.99126219
_cell_angle_gamma   59.73671551
_symmetry_Int_Tables_number   1
_chemical_formula_structural   Cs2Nb(WO4)3
_chemical_formula_sum   'Cs2 Nb1 W3 O12'
_cell_volume   294.30808610
_cell_formula_units_Z   1
loop_
 _symmetry_equiv_pos_site_id
 _symmetry_equiv_pos_as_xyz
  1  'x, y, z'
loop_
 _atom_site_type_symbol
 _atom_site_label
 _atom_site_symmetry_multiplicity
 _atom_site_fract_x
 _atom_site_fract_y
 _atom_site_fract_z
 _atom_site_occupancy
  Cs  Cs0  1  0.862115  0.888755  0.378772  1
  Cs  Cs1  1  0.111245  0.137885  0.621228  1
  Nb  Nb2  1  0.482326  0.517674  0.000000  1
  W  W3  1  0.987470  0.507390  0.995451  1
  W  W4  1  0.492610  0.012530  0.004549  1
  W  W5  1  0.499631  0.500369  0.500000  1
  O  O6  1  0.188161  0.193045  0.061746  1
  O  O7  1  0.561271  0.560921  0.683636  1
  O  O8  1  0.182263  0.563378  0.059655  1
  O  O9  1  0.563059  0.180318  0.696237  1
  O  O10  1  0.559732  0.186098  0.062822  1
  O  O11  1  0.181085  0.563209  0.695987  1
  O  O12  1  0.806955  0.811839  0.938254  1
  O  O13  1  0.439079  0.438729  0.316364  1
  O  O14  1  0.813902  0.440268  0.937178  1
  O  O15  1  0.436791  0.818915  0.304013  1
  O  O16  1  0.436622  0.817737  0.940345  1
  O  O17  1  0.819682  0.436941  0.303763  1
