# generated using pymatgen
data_Tb4Al18ZnIr3Rh2
_symmetry_space_group_name_H-M   'P 1'
_cell_length_a   7.58201611
_cell_length_b   7.58201575
_cell_length_c   9.47240540
_cell_angle_alpha   90.00262967
_cell_angle_beta   90.00263707
_cell_angle_gamma   119.62911624
_symmetry_Int_Tables_number   1
_chemical_formula_structural   Tb4Al18ZnIr3Rh2
_chemical_formula_sum   'Tb4 Al18 Zn1 Ir3 Rh2'
_cell_volume   473.33788514
_cell_formula_units_Z   1
loop_
 _symmetry_equiv_pos_site_id
 _symmetry_equiv_pos_as_xyz
  1  'x, y, z'
loop_
 _atom_site_type_symbol
 _atom_site_label
 _atom_site_symmetry_multiplicity
 _atom_site_fract_x
 _atom_site_fract_y
 _atom_site_fract_z
 _atom_site_occupancy
  Tb  Tb0  1  0.995077  0.674664  0.249765  1
  Tb  Tb1  1  0.004923  0.325336  0.750235  1
  Tb  Tb2  1  0.674664  0.995077  0.249765  1
  Tb  Tb3  1  0.325336  0.004923  0.750235  1
  Al  Al4  1  0.134882  0.134882  0.256158  1
  Al  Al5  1  0.865118  0.865118  0.743842  1
  Al  Al6  1  0.001877  0.344122  0.078898  1
  Al  Al7  1  0.998123  0.655878  0.921102  1
  Al  Al8  1  0.000926  0.664900  0.571505  1
  Al  Al9  1  0.335100  0.999074  0.428495  1
  Al  Al10  1  0.999074  0.335100  0.428495  1
  Al  Al11  1  0.664900  0.000926  0.571505  1
  Al  Al12  1  0.655878  0.998123  0.921102  1
  Al  Al13  1  0.344122  0.001877  0.078898  1
  Al  Al14  1  0.333119  0.333119  0.551043  1
  Al  Al15  1  0.666881  0.666881  0.448957  1
  Al  Al16  1  0.657573  0.657573  0.059059  1
  Al  Al17  1  0.342427  0.342427  0.940941  1
  Al  Al18  1  0.338450  0.550023  0.250929  1
  Al  Al19  1  0.661550  0.449977  0.749071  1
  Al  Al20  1  0.550023  0.338450  0.250929  1
  Al  Al21  1  0.449977  0.661550  0.749071  1
  Zn  Zn22  1  0.000000  0.000000  0.000000  1
  Ir  Ir23  1  0.328609  0.671391  0.500000  1
  Ir  Ir24  1  0.671391  0.328609  0.500000  1
  Ir  Ir25  1  0.000000  0.000000  0.500000  1
  Rh  Rh26  1  0.671602  0.328398  0.000000  1
  Rh  Rh27  1  0.328398  0.671602  0.000000  1
