# generated using pymatgen
data_Na4TbP12Ir19
_symmetry_space_group_name_H-M   'P 1'
_cell_length_a   3.97707800
_cell_length_b   12.63233455
_cell_length_c   12.63243500
_cell_angle_alpha   120.00114871
_cell_angle_beta   90.00000000
_cell_angle_gamma   90.00000000
_symmetry_Int_Tables_number   1
_chemical_formula_structural   Na4TbP12Ir19
_chemical_formula_sum   'Na4 Tb1 P12 Ir19'
_cell_volume   549.61731283
_cell_formula_units_Z   1
loop_
 _symmetry_equiv_pos_site_id
 _symmetry_equiv_pos_as_xyz
  1  'x, y, z'
loop_
 _atom_site_type_symbol
 _atom_site_label
 _atom_site_symmetry_multiplicity
 _atom_site_fract_x
 _atom_site_fract_y
 _atom_site_fract_z
 _atom_site_occupancy
  Na  Na0  1  0.500000  0.999435  0.178712  1
  Na  Na1  1  0.500000  0.179286  0.000578  1
  Na  Na2  1  0.500000  0.821291  0.820724  1
  Na  Na3  1  0.000000  0.333335  0.666661  1
  Tb  Tb4  1  0.000000  0.666664  0.333328  1
  P  P5  1  0.000000  0.001697  0.822066  1
  P  P6  1  0.000000  0.820371  0.998318  1
  P  P7  1  0.000000  0.177935  0.179644  1
  P  P8  1  0.500000  0.311173  0.486164  1
  P  P9  1  0.500000  0.174991  0.688815  1
  P  P10  1  0.500000  0.513828  0.824997  1
  P  P11  1  0.500000  0.827969  0.520070  1
  P  P12  1  0.500000  0.479911  0.307897  1
  P  P13  1  0.500000  0.692095  0.172015  1
  P  P14  1  0.000000  0.003136  0.360423  1
  P  P15  1  0.000000  0.357270  0.996865  1
  P  P16  1  0.000000  0.639596  0.642741  1
  Ir  Ir17  1  0.000000  0.998261  0.539759  1
  Ir  Ir18  1  0.000000  0.541470  0.001716  1
  Ir  Ir19  1  0.000000  0.460254  0.458548  1
  Ir  Ir20  1  0.500000  0.001015  0.712235  1
  Ir  Ir21  1  0.500000  0.711226  0.998988  1
  Ir  Ir22  1  0.500000  0.287746  0.288769  1
  Ir  Ir23  1  0.000000  0.199017  0.380470  1
  Ir  Ir24  1  0.000000  0.181432  0.800983  1
  Ir  Ir25  1  0.000000  0.619547  0.818572  1
  Ir  Ir26  1  0.000000  0.816665  0.622267  1
  Ir  Ir27  1  0.000000  0.377742  0.194408  1
  Ir  Ir28  1  0.000000  0.805612  0.183350  1
  Ir  Ir29  1  0.500000  0.127723  0.489511  1
  Ir  Ir30  1  0.500000  0.361754  0.872229  1
  Ir  Ir31  1  0.500000  0.510476  0.638231  1
  Ir  Ir32  1  0.500000  0.636238  0.503941  1
  Ir  Ir33  1  0.500000  0.496026  0.132266  1
  Ir  Ir34  1  0.500000  0.867714  0.363755  1
  Ir  Ir35  1  0.000000  0.000000  0.999990  1
