# generated using pymatgen
data_SrNi9Sn2P3
_symmetry_space_group_name_H-M   'P 1'
_cell_length_a   6.99566700
_cell_length_b   6.99566646
_cell_length_c   10.85055000
_cell_angle_alpha   90.00000000
_cell_angle_beta   90.00000000
_cell_angle_gamma   119.99999784
_symmetry_Int_Tables_number   1
_chemical_formula_structural   SrNi9Sn2P3
_chemical_formula_sum   'Sr2 Ni18 Sn4 P6'
_cell_volume   459.87586421
_cell_formula_units_Z   2
loop_
 _symmetry_equiv_pos_site_id
 _symmetry_equiv_pos_as_xyz
  1  'x, y, z'
loop_
 _atom_site_type_symbol
 _atom_site_label
 _atom_site_symmetry_multiplicity
 _atom_site_fract_x
 _atom_site_fract_y
 _atom_site_fract_z
 _atom_site_occupancy
  Sr  Sr0  1  0.000000  0.000000  0.000000  1
  Sr  Sr1  1  0.000000  0.000000  0.500000  1
  Ni  Ni2  1  0.541107  0.082215  0.129437  1
  Ni  Ni3  1  0.458893  0.541107  0.629437  1
  Ni  Ni4  1  0.082215  0.541107  0.629437  1
  Ni  Ni5  1  0.917785  0.458893  0.129437  1
  Ni  Ni6  1  0.541107  0.458893  0.129437  1
  Ni  Ni7  1  0.458893  0.917785  0.870563  1
  Ni  Ni8  1  0.458893  0.541107  0.870563  1
  Ni  Ni9  1  0.458893  0.917785  0.629437  1
  Ni  Ni10  1  0.082215  0.541107  0.870563  1
  Ni  Ni11  1  0.917785  0.458893  0.370563  1
  Ni  Ni12  1  0.541107  0.082215  0.370563  1
  Ni  Ni13  1  0.541107  0.458893  0.370563  1
  Ni  Ni14  1  0.189410  0.378820  0.250000  1
  Ni  Ni15  1  0.810590  0.189410  0.750000  1
  Ni  Ni16  1  0.378820  0.189410  0.750000  1
  Ni  Ni17  1  0.621180  0.810590  0.250000  1
  Ni  Ni18  1  0.189410  0.810590  0.250000  1
  Ni  Ni19  1  0.810590  0.621180  0.750000  1
  Sn  Sn20  1  0.333333  0.666667  0.062600  1
  Sn  Sn21  1  0.666667  0.333333  0.562600  1
  Sn  Sn22  1  0.666667  0.333333  0.937400  1
  Sn  Sn23  1  0.333333  0.666667  0.437400  1
  P  P24  1  0.833410  0.666820  0.250000  1
  P  P25  1  0.166590  0.833410  0.750000  1
  P  P26  1  0.666820  0.833410  0.750000  1
  P  P27  1  0.333180  0.166590  0.250000  1
  P  P28  1  0.833410  0.166590  0.250000  1
  P  P29  1  0.166590  0.333180  0.750000  1
