# generated using pymatgen
data_Er16In3HgPd4
_symmetry_space_group_name_H-M   'P 1'
_cell_length_a   9.63576724
_cell_length_b   9.62666226
_cell_length_c   9.63576700
_cell_angle_alpha   59.96870535
_cell_angle_beta   59.99999740
_cell_angle_gamma   59.96870820
_symmetry_Int_Tables_number   1
_chemical_formula_structural   Er16In3HgPd4
_chemical_formula_sum   'Er16 In3 Hg1 Pd4'
_cell_volume   631.72452543
_cell_formula_units_Z   1
loop_
 _symmetry_equiv_pos_site_id
 _symmetry_equiv_pos_as_xyz
  1  'x, y, z'
loop_
 _atom_site_type_symbol
 _atom_site_label
 _atom_site_symmetry_multiplicity
 _atom_site_fract_x
 _atom_site_fract_y
 _atom_site_fract_z
 _atom_site_occupancy
  Er  Er0  1  0.189366  0.189259  0.810688  1
  Er  Er1  1  0.436351  0.060327  0.066971  1
  Er  Er2  1  0.436351  0.060327  0.436351  1
  Er  Er3  1  0.064801  0.434305  0.064801  1
  Er  Er4  1  0.647465  0.057605  0.647465  1
  Er  Er5  1  0.189150  0.809904  0.811796  1
  Er  Er6  1  0.066971  0.060327  0.436351  1
  Er  Er7  1  0.810688  0.189259  0.189366  1
  Er  Er8  1  0.811796  0.809904  0.189150  1
  Er  Er9  1  0.646464  0.647973  0.059100  1
  Er  Er10  1  0.646464  0.647973  0.646464  1
  Er  Er11  1  0.064801  0.434305  0.436092  1
  Er  Er12  1  0.059100  0.647973  0.646464  1
  Er  Er13  1  0.810688  0.189259  0.810688  1
  Er  Er14  1  0.436092  0.434305  0.064801  1
  Er  Er15  1  0.189150  0.809904  0.189150  1
  In  In16  1  0.416050  0.418492  0.749409  1
  In  In17  1  0.749409  0.418492  0.416050  1
  In  In18  1  0.416050  0.418492  0.416050  1
  Hg  Hg19  1  0.412848  0.761456  0.412848  1
  Pd  Pd20  1  0.855754  0.432738  0.855754  1
  Pd  Pd21  1  0.856068  0.855808  0.432055  1
  Pd  Pd22  1  0.432055  0.855808  0.856068  1
  Pd  Pd23  1  0.856068  0.855808  0.856068  1
