# generated using pymatgen
data_Ca6PrHoP6
_symmetry_space_group_name_H-M   'P 1'
_cell_length_a   7.60237120
_cell_length_b   7.61144787
_cell_length_c   7.53651400
_cell_angle_alpha   109.39972755
_cell_angle_beta   109.32529871
_cell_angle_gamma   109.64013088
_symmetry_Int_Tables_number   1
_chemical_formula_structural   Ca6PrHoP6
_chemical_formula_sum   'Ca6 Pr1 Ho1 P6'
_cell_volume   335.90926397
_cell_formula_units_Z   1
loop_
 _symmetry_equiv_pos_site_id
 _symmetry_equiv_pos_as_xyz
  1  'x, y, z'
loop_
 _atom_site_type_symbol
 _atom_site_label
 _atom_site_symmetry_multiplicity
 _atom_site_fract_x
 _atom_site_fract_y
 _atom_site_fract_z
 _atom_site_occupancy
  Ca  Ca0  1  0.126569  0.130621  0.128219  1
  Ca  Ca1  1  0.497583  0.002695  0.871235  1
  Ca  Ca2  1  0.868948  0.497403  0.003301  1
  Ca  Ca3  1  0.004009  0.869967  0.497778  1
  Ca  Ca4  1  0.366128  0.496770  0.997162  1
  Ca  Ca5  1  0.003300  0.370099  0.502010  1
  Pr  Pr6  1  0.633715  0.632801  0.632761  1
  Ho  Ho7  1  0.501152  0.999476  0.369099  1
  P  P8  1  0.625272  0.369959  0.255351  1
  P  P9  1  0.258863  0.635487  0.375543  1
  P  P10  1  0.742885  0.875475  0.127154  1
  P  P11  1  0.127746  0.753897  0.883480  1
  P  P12  1  0.379421  0.246092  0.618980  1
  P  P13  1  0.864409  0.119257  0.737928  1
