# generated using pymatgen
data_Ho3Hf3Sn6(Ir2Rh)2
_symmetry_space_group_name_H-M   'P 1'
_cell_length_a   7.46827900
_cell_length_b   7.46827896
_cell_length_c   7.51828000
_cell_angle_alpha   90.00000000
_cell_angle_beta   90.00000000
_cell_angle_gamma   120.00000461
_symmetry_Int_Tables_number   1
_chemical_formula_structural   Ho3Hf3Sn6(Ir2Rh)2
_chemical_formula_sum   'Ho3 Hf3 Sn6 Ir4 Rh2'
_cell_volume   363.15344880
_cell_formula_units_Z   1
loop_
 _symmetry_equiv_pos_site_id
 _symmetry_equiv_pos_as_xyz
  1  'x, y, z'
loop_
 _atom_site_type_symbol
 _atom_site_label
 _atom_site_symmetry_multiplicity
 _atom_site_fract_x
 _atom_site_fract_y
 _atom_site_fract_z
 _atom_site_occupancy
  Ho  Ho0  1  0.999757  0.406820  0.750000  1
  Ho  Ho1  1  0.593180  0.592937  0.750000  1
  Ho  Ho2  1  0.407063  0.000243  0.750000  1
  Hf  Hf3  1  0.998206  0.392696  0.250000  1
  Hf  Hf4  1  0.607304  0.605511  0.250000  1
  Hf  Hf5  1  0.394489  0.001794  0.250000  1
  Sn  Sn6  1  0.265586  0.267193  0.494004  1
  Sn  Sn7  1  0.001607  0.734414  0.494004  1
  Sn  Sn8  1  0.001607  0.734414  0.005996  1
  Sn  Sn9  1  0.732807  0.998393  0.494004  1
  Sn  Sn10  1  0.732807  0.998393  0.005996  1
  Sn  Sn11  1  0.265586  0.267193  0.005996  1
  Ir  Ir12  1  0.333333  0.666667  0.460673  1
  Ir  Ir13  1  0.666667  0.333333  0.463914  1
  Ir  Ir14  1  0.333333  0.666667  0.039327  1
  Ir  Ir15  1  0.666667  0.333333  0.036086  1
  Rh  Rh16  1  0.000000  0.000000  0.750000  1
  Rh  Rh17  1  0.000000  0.000000  0.250000  1
