# generated using pymatgen
data_Zr8Fe2Si16Os3Ru7
_symmetry_space_group_name_H-M   'P 1'
_cell_length_a   9.91758459
_cell_length_b   9.88402576
_cell_length_c   13.31777947
_cell_angle_alpha   53.69458744
_cell_angle_beta   53.67473885
_cell_angle_gamma   31.42944925
_symmetry_Int_Tables_number   1
_chemical_formula_structural   Zr8Fe2Si16Os3Ru7
_chemical_formula_sum   'Zr8 Fe2 Si16 Os3 Ru7'
_cell_volume   536.66446179
_cell_formula_units_Z   1
loop_
 _symmetry_equiv_pos_site_id
 _symmetry_equiv_pos_as_xyz
  1  'x, y, z'
loop_
 _atom_site_type_symbol
 _atom_site_label
 _atom_site_symmetry_multiplicity
 _atom_site_fract_x
 _atom_site_fract_y
 _atom_site_fract_z
 _atom_site_occupancy
  Zr  Zr0  1  0.038084  0.292512  0.638424  1
  Zr  Zr1  1  0.705913  0.952236  0.865003  1
  Zr  Zr2  1  0.966163  0.707519  0.359985  1
  Zr  Zr3  1  0.297283  0.038021  0.136146  1
  Zr  Zr4  1  0.301242  0.549432  0.647112  1
  Zr  Zr5  1  0.444803  0.699805  0.856626  1
  Zr  Zr6  1  0.700268  0.445319  0.348086  1
  Zr  Zr7  1  0.556352  0.302170  0.147652  1
  Fe  Fe8  1  0.106567  0.938745  0.081091  1
  Fe  Fe9  1  0.823836  0.650173  0.778892  1
  Si  Si10  1  0.969862  0.261820  0.895877  1
  Si  Si11  1  0.747622  0.015065  0.610367  1
  Si  Si12  1  0.037725  0.750008  0.103542  1
  Si  Si13  1  0.252206  0.977007  0.390878  1
  Si  Si14  1  0.138847  0.388974  0.892252  1
  Si  Si15  1  0.611997  0.854689  0.608937  1
  Si  Si16  1  0.861989  0.612896  0.103617  1
  Si  Si17  1  0.390833  0.142759  0.395670  1
  Si  Si18  1  0.082688  0.568131  0.570919  1
  Si  Si19  1  0.427909  0.897270  0.944196  1
  Si  Si20  1  0.914005  0.429451  0.433136  1
  Si  Si21  1  0.576739  0.084195  0.066160  1
  Si  Si22  1  0.619670  0.379282  0.750166  1
  Si  Si23  1  0.371134  0.636408  0.235702  1
  Si  Si24  1  0.126766  0.871352  0.749928  1
  Si  Si25  1  0.874846  0.125465  0.247023  1
  Os  Os26  1  0.901170  0.137349  0.583477  1
  Os  Os27  1  0.863974  0.098009  0.913500  1
  Os  Os28  1  0.101413  0.855009  0.414670  1
  Ru  Ru29  1  0.348831  0.168831  0.726489  1
  Ru  Ru30  1  0.170354  0.359394  0.217611  1
  Ru  Ru31  1  0.643113  0.831482  0.281636  1
  Ru  Ru32  1  0.242869  0.511754  0.931811  1
  Ru  Ru33  1  0.482135  0.761205  0.569346  1
  Ru  Ru34  1  0.783474  0.471652  0.065609  1
  Ru  Ru35  1  0.517318  0.234607  0.438461  1
