# generated using pymatgen
data_Li2HfRh4W
_symmetry_space_group_name_H-M   'P 1'
_cell_length_a   4.35092100
_cell_length_b   6.12887800
_cell_length_c   13.05397200
_cell_angle_alpha   89.99998130
_cell_angle_beta   89.99878848
_cell_angle_gamma   89.99998130
_symmetry_Int_Tables_number   1
_chemical_formula_structural   Li2HfRh4W
_chemical_formula_sum   'Li6 Hf3 Rh12 W3'
_cell_volume   348.10066356
_cell_formula_units_Z   3
loop_
 _symmetry_equiv_pos_site_id
 _symmetry_equiv_pos_as_xyz
  1  'x, y, z'
loop_
 _atom_site_type_symbol
 _atom_site_label
 _atom_site_symmetry_multiplicity
 _atom_site_fract_x
 _atom_site_fract_y
 _atom_site_fract_z
 _atom_site_occupancy
  Li  Li0  1  0.000004  0.499995  0.003197  1
  Li  Li1  1  0.499888  0.000001  0.166581  1
  Li  Li2  1  0.999881  0.500005  0.330116  1
  Li  Li3  1  0.499991  0.999998  0.497426  1
  Li  Li4  1  0.000117  0.500000  0.666528  1
  Li  Li5  1  0.500110  0.999998  0.835948  1
  Hf  Hf6  1  0.500000  0.500000  0.498148  1
  Hf  Hf7  1  0.000080  0.000000  0.666699  1
  Hf  Hf8  1  0.500077  0.499998  0.835186  1
  Rh  Rh9  1  0.499996  0.242747  0.007672  1
  Rh  Rh10  1  0.500002  0.757248  0.007672  1
  Rh  Rh11  1  0.999906  0.251413  0.166687  1
  Rh  Rh12  1  0.999954  0.748586  0.166688  1
  Rh  Rh13  1  0.499916  0.242646  0.325661  1
  Rh  Rh14  1  0.499920  0.757358  0.325662  1
  Rh  Rh15  1  0.999997  0.244615  0.492655  1
  Rh  Rh16  1  0.999994  0.755389  0.492654  1
  Rh  Rh17  1  0.500094  0.251687  0.666675  1
  Rh  Rh18  1  0.500088  0.748316  0.666675  1
  Rh  Rh19  1  0.000079  0.244662  0.840717  1
  Rh  Rh20  1  0.000073  0.755334  0.840717  1
  W  W21  1  0.000000  0.999998  0.001749  1
  W  W22  1  0.499921  0.499999  0.166699  1
  W  W23  1  0.999911  0.000001  0.331584  1
