# generated using pymatgen
data_LaDy4Ho2CoI12
_symmetry_space_group_name_H-M   'P 1'
_cell_length_a   9.77051046
_cell_length_b   9.76944229
_cell_length_c   9.77157834
_cell_angle_alpha   106.24948338
_cell_angle_beta   106.23629058
_cell_angle_gamma   106.21724618
_symmetry_Int_Tables_number   1
_chemical_formula_structural   LaDy4Ho2CoI12
_chemical_formula_sum   'La1 Dy4 Ho2 Co1 I12'
_cell_volume   792.44349834
_cell_formula_units_Z   1
loop_
 _symmetry_equiv_pos_site_id
 _symmetry_equiv_pos_as_xyz
  1  'x, y, z'
loop_
 _atom_site_type_symbol
 _atom_site_label
 _atom_site_symmetry_multiplicity
 _atom_site_fract_x
 _atom_site_fract_y
 _atom_site_fract_z
 _atom_site_occupancy
  La  La0  1  0.996628  0.996636  0.996658  1
  Dy  Dy1  1  0.515981  0.587588  0.782764  1
  Dy  Dy2  1  0.782829  0.516069  0.587765  1
  Dy  Dy3  1  0.587520  0.782867  0.516149  1
  Dy  Dy4  1  0.481925  0.410104  0.215625  1
  Ho  Ho5  1  0.217218  0.481997  0.410830  1
  Ho  Ho6  1  0.410669  0.217182  0.481917  1
  Co  Co7  1  0.499610  0.499501  0.499393  1
  I  I8  1  0.275637  0.822338  0.426705  1
  I  I9  1  0.426391  0.275446  0.822002  1
  I  I10  1  0.823199  0.426790  0.276167  1
  I  I11  1  0.721053  0.175174  0.571166  1
  I  I12  1  0.571454  0.722227  0.175433  1
  I  I13  1  0.175134  0.571125  0.721296  1
  I  I14  1  0.046859  0.124951  0.351829  1
  I  I15  1  0.351385  0.045851  0.125005  1
  I  I16  1  0.124300  0.351721  0.046744  1
  I  I17  1  0.951542  0.873072  0.643160  1
  I  I18  1  0.642989  0.951614  0.873052  1
  I  I19  1  0.873046  0.643116  0.951711  1
