# generated using pymatgen
data_HoEr4(MnB3)2
_symmetry_space_group_name_H-M   'P 1'
_cell_length_a   5.39254001
_cell_length_b   5.39254044
_cell_length_c   8.19300839
_cell_angle_alpha   70.78620185
_cell_angle_beta   70.78620047
_cell_angle_gamma   60.00000435
_symmetry_Int_Tables_number   1
_chemical_formula_structural   HoEr4(MnB3)2
_chemical_formula_sum   'Ho1 Er4 Mn2 B6'
_cell_volume   190.85135088
_cell_formula_units_Z   1
loop_
 _symmetry_equiv_pos_site_id
 _symmetry_equiv_pos_as_xyz
  1  'x, y, z'
loop_
 _atom_site_type_symbol
 _atom_site_label
 _atom_site_symmetry_multiplicity
 _atom_site_fract_x
 _atom_site_fract_y
 _atom_site_fract_z
 _atom_site_occupancy
  Ho  Ho0  1  0.000000  0.000000  0.000000  1
  Er  Er1  1  0.250368  0.250368  0.248896  1
  Er  Er2  1  0.749632  0.749632  0.751104  1
  Er  Er3  1  0.416558  0.416558  0.750326  1
  Er  Er4  1  0.583442  0.583442  0.249674  1
  Mn  Mn5  1  0.114318  0.114318  0.657045  1
  Mn  Mn6  1  0.885682  0.885682  0.342955  1
  B  B7  1  0.167004  0.832996  0.500000  1
  B  B8  1  0.832996  0.500000  0.500000  1
  B  B9  1  0.500000  0.167004  0.500000  1
  B  B10  1  0.167004  0.500000  0.500000  1
  B  B11  1  0.500000  0.832996  0.500000  1
  B  B12  1  0.832996  0.167004  0.500000  1
