# generated using pymatgen
data_Nd4YP12Ru19
_symmetry_space_group_name_H-M   'P 1'
_cell_length_a   12.62622400
_cell_length_b   12.62622509
_cell_length_c   4.01219600
_cell_angle_alpha   90.00000000
_cell_angle_beta   90.00000000
_cell_angle_gamma   119.99999714
_symmetry_Int_Tables_number   1
_chemical_formula_structural   Nd4YP12Ru19
_chemical_formula_sum   'Nd4 Y1 P12 Ru19'
_cell_volume   553.93626968
_cell_formula_units_Z   1
loop_
 _symmetry_equiv_pos_site_id
 _symmetry_equiv_pos_as_xyz
  1  'x, y, z'
loop_
 _atom_site_type_symbol
 _atom_site_label
 _atom_site_symmetry_multiplicity
 _atom_site_fract_x
 _atom_site_fract_y
 _atom_site_fract_z
 _atom_site_occupancy
  Nd  Nd0  1  0.999925  0.183765  0.500000  1
  Nd  Nd1  1  0.816235  0.816160  0.500000  1
  Nd  Nd2  1  0.183840  0.000075  0.500000  1
  Nd  Nd3  1  0.666667  0.333333  0.000000  1
  Y  Y4  1  0.333333  0.666667  0.000000  1
  P  P5  1  0.000958  0.813032  0.000000  1
  P  P6  1  0.186968  0.187925  0.000000  1
  P  P7  1  0.812075  0.999042  0.000000  1
  P  P8  1  0.694400  0.170621  0.500000  1
  P  P9  1  0.829379  0.523779  0.500000  1
  P  P10  1  0.476221  0.305600  0.500000  1
  P  P11  1  0.173069  0.694608  0.500000  1
  P  P12  1  0.521539  0.826931  0.500000  1
  P  P13  1  0.305392  0.478461  0.500000  1
  P  P14  1  0.999887  0.374339  0.000000  1
  P  P15  1  0.625661  0.625548  0.000000  1
  P  P16  1  0.374452  0.000113  0.000000  1
  Ru  Ru17  1  0.000218  0.554513  0.000000  1
  Ru  Ru18  1  0.445487  0.445705  0.000000  1
  Ru  Ru19  1  0.554295  0.999782  0.000000  1
  Ru  Ru20  1  0.001139  0.714798  0.500000  1
  Ru  Ru21  1  0.285202  0.286341  0.500000  1
  Ru  Ru22  1  0.713659  0.998861  0.500000  1
  Ru  Ru23  1  0.805691  0.183925  0.000000  1
  Ru  Ru24  1  0.816075  0.621766  0.000000  1
  Ru  Ru25  1  0.378234  0.194309  0.000000  1
  Ru  Ru26  1  0.185713  0.805298  0.000000  1
  Ru  Ru27  1  0.619586  0.814287  0.000000  1
  Ru  Ru28  1  0.194702  0.380414  0.000000  1
  Ru  Ru29  1  0.876106  0.366727  0.500000  1
  Ru  Ru30  1  0.633273  0.509380  0.500000  1
  Ru  Ru31  1  0.490620  0.123894  0.500000  1
  Ru  Ru32  1  0.367196  0.873695  0.500000  1
  Ru  Ru33  1  0.506500  0.632804  0.500000  1
  Ru  Ru34  1  0.126305  0.493500  0.500000  1
  Ru  Ru35  1  0.000000  0.000000  0.000000  1
