# generated using pymatgen
data_Y3Mg2Au3O14
_symmetry_space_group_name_H-M   'P 1'
_cell_length_a   7.27309721
_cell_length_b   7.27310388
_cell_length_c   7.27310412
_cell_angle_alpha   120.01275896
_cell_angle_beta   59.98721170
_cell_angle_gamma   120.01275802
_symmetry_Int_Tables_number   1
_chemical_formula_structural   Y3Mg2Au3O14
_chemical_formula_sum   'Y3 Mg2 Au3 O14'
_cell_volume   271.96826867
_cell_formula_units_Z   1
loop_
 _symmetry_equiv_pos_site_id
 _symmetry_equiv_pos_as_xyz
  1  'x, y, z'
loop_
 _atom_site_type_symbol
 _atom_site_label
 _atom_site_symmetry_multiplicity
 _atom_site_fract_x
 _atom_site_fract_y
 _atom_site_fract_z
 _atom_site_occupancy
  Y  Y0  1  0.000017  0.499988  0.000016  1
  Y  Y1  1  0.499985  0.000032  0.999978  1
  Y  Y2  1  0.500013  0.499996  0.500011  1
  Mg  Mg3  1  0.499988  0.499975  0.999992  1
  Mg  Mg4  1  0.000005  0.000012  0.500007  1
  Au  Au5  1  0.500023  0.999971  0.499850  1
  Au  Au6  1  0.000087  0.500030  0.500099  1
  Au  Au7  1  0.999855  0.999955  0.000014  1
  O  O8  1  0.615152  0.384872  0.115149  1
  O  O9  1  0.384867  0.615156  0.884864  1
  O  O10  1  0.099519  0.338326  0.161693  1
  O  O11  1  0.661644  0.900426  0.161643  1
  O  O12  1  0.661686  0.338334  0.599528  1
  O  O13  1  0.900440  0.661662  0.838357  1
  O  O14  1  0.338311  0.099505  0.838309  1
  O  O15  1  0.338350  0.661671  0.400448  1
  O  O16  1  0.648457  0.903856  0.596153  1
  O  O17  1  0.096139  0.351607  0.596137  1
  O  O18  1  0.096155  0.903856  0.148455  1
  O  O19  1  0.351590  0.096148  0.403864  1
  O  O20  1  0.903851  0.648478  0.403848  1
  O  O21  1  0.903869  0.096147  0.851585  1
