# generated using pymatgen
data_NdSc4Pd13Au2
_symmetry_space_group_name_H-M   'P 1'
_cell_length_a   4.09223000
_cell_length_b   4.05543500
_cell_length_c   20.19985300
_cell_angle_alpha   90.00000000
_cell_angle_beta   90.00000000
_cell_angle_gamma   90.00000000
_symmetry_Int_Tables_number   1
_chemical_formula_structural   NdSc4Pd13Au2
_chemical_formula_sum   'Nd1 Sc4 Pd13 Au2'
_cell_volume   335.23217038
_cell_formula_units_Z   1
loop_
 _symmetry_equiv_pos_site_id
 _symmetry_equiv_pos_as_xyz
  1  'x, y, z'
loop_
 _atom_site_type_symbol
 _atom_site_label
 _atom_site_symmetry_multiplicity
 _atom_site_fract_x
 _atom_site_fract_y
 _atom_site_fract_z
 _atom_site_occupancy
  Nd  Nd0  1  0.000000  0.000000  0.998379  1
  Sc  Sc1  1  0.000000  0.000000  0.202147  1
  Sc  Sc2  1  0.000000  0.000000  0.397590  1
  Sc  Sc3  1  0.000000  0.000000  0.604953  1
  Sc  Sc4  1  0.000000  0.000000  0.797089  1
  Pd  Pd5  1  0.500000  0.500000  0.000937  1
  Pd  Pd6  1  0.500000  0.500000  0.398920  1
  Pd  Pd7  1  0.500000  0.500000  0.600588  1
  Pd  Pd8  1  0.500000  0.500000  0.796955  1
  Pd  Pd9  1  0.500000  0.000000  0.106180  1
  Pd  Pd10  1  0.500000  0.000000  0.300959  1
  Pd  Pd11  1  0.500000  0.000000  0.699101  1
  Pd  Pd12  1  0.500000  0.000000  0.893439  1
  Pd  Pd13  1  0.000000  0.500000  0.106403  1
  Pd  Pd14  1  0.000000  0.500000  0.300855  1
  Pd  Pd15  1  0.000000  0.500000  0.499620  1
  Pd  Pd16  1  0.000000  0.500000  0.699279  1
  Pd  Pd17  1  0.000000  0.500000  0.893122  1
  Au  Au18  1  0.500000  0.500000  0.203263  1
  Au  Au19  1  0.500000  0.000000  0.500217  1
