# generated using pymatgen
data_Th8CrS17
_symmetry_space_group_name_H-M   'P 1'
_cell_length_a   8.10898211
_cell_length_b   8.10898163
_cell_length_c   10.70001157
_cell_angle_alpha   80.46985435
_cell_angle_beta   80.46985369
_cell_angle_gamma   64.69159577
_symmetry_Int_Tables_number   1
_chemical_formula_structural   Th8CrS17
_chemical_formula_sum   'Th8 Cr1 S17'
_cell_volume   623.72146890
_cell_formula_units_Z   1
loop_
 _symmetry_equiv_pos_site_id
 _symmetry_equiv_pos_as_xyz
  1  'x, y, z'
loop_
 _atom_site_type_symbol
 _atom_site_label
 _atom_site_symmetry_multiplicity
 _atom_site_fract_x
 _atom_site_fract_y
 _atom_site_fract_z
 _atom_site_occupancy
  Th  Th0  1  0.813243  0.301702  0.293954  1
  Th  Th1  1  0.698298  0.186757  0.706046  1
  Th  Th2  1  0.186757  0.698298  0.706046  1
  Th  Th3  1  0.301702  0.813243  0.293954  1
  Th  Th4  1  0.205006  0.205006  0.546544  1
  Th  Th5  1  0.794994  0.794994  0.453456  1
  Th  Th6  1  0.684968  0.684968  0.976345  1
  Th  Th7  1  0.315032  0.315032  0.023655  1
  Cr  Cr8  1  0.000000  0.000000  0.000000  1
  S  S9  1  0.824212  0.430075  0.530203  1
  S  S10  1  0.569925  0.175788  0.469797  1
  S  S11  1  0.175788  0.569925  0.469797  1
  S  S12  1  0.430075  0.824212  0.530203  1
  S  S13  1  0.943540  0.324188  0.031451  1
  S  S14  1  0.675811  0.056460  0.968549  1
  S  S15  1  0.056460  0.675811  0.968549  1
  S  S16  1  0.324189  0.943540  0.031451  1
  S  S17  1  0.207706  0.207706  0.280826  1
  S  S18  1  0.792294  0.792294  0.719174  1
  S  S19  1  0.057305  0.057305  0.775320  1
  S  S20  1  0.942695  0.942695  0.224680  1
  S  S21  1  0.303310  0.303310  0.755925  1
  S  S22  1  0.696690  0.696690  0.244075  1
  S  S23  1  0.519841  0.519841  0.832392  1
  S  S24  1  0.480159  0.480159  0.167608  1
  S  S25  1  0.000000  0.000000  0.500000  1
