# generated using pymatgen
data_CsAg2H8Ir
_symmetry_space_group_name_H-M   'P 1'
_cell_length_a   5.54995900
_cell_length_b   5.54995900
_cell_length_c   13.37716400
_cell_angle_alpha   90.00000000
_cell_angle_beta   90.00000000
_cell_angle_gamma   90.00000000
_symmetry_Int_Tables_number   1
_chemical_formula_structural   CsAg2H8Ir
_chemical_formula_sum   'Cs2 Ag4 H16 Ir2'
_cell_volume   412.04400619
_cell_formula_units_Z   2
loop_
 _symmetry_equiv_pos_site_id
 _symmetry_equiv_pos_as_xyz
  1  'x, y, z'
loop_
 _atom_site_type_symbol
 _atom_site_label
 _atom_site_symmetry_multiplicity
 _atom_site_fract_x
 _atom_site_fract_y
 _atom_site_fract_z
 _atom_site_occupancy
  Cs  Cs0  1  0.500000  0.000000  0.000000  1
  Cs  Cs1  1  0.000000  0.500000  0.500000  1
  Ag  Ag2  1  0.500000  0.000000  0.732757  1
  Ag  Ag3  1  0.000000  0.500000  0.232757  1
  Ag  Ag4  1  0.500000  0.000000  0.267243  1
  Ag  Ag5  1  0.000000  0.500000  0.767243  1
  H  H6  1  0.219054  0.219054  0.750000  1
  H  H7  1  0.780946  0.780946  0.750000  1
  H  H8  1  0.780946  0.219054  0.250000  1
  H  H9  1  0.219054  0.780946  0.250000  1
  H  H10  1  0.780946  0.780946  0.250000  1
  H  H11  1  0.219054  0.219054  0.250000  1
  H  H12  1  0.219054  0.780946  0.750000  1
  H  H13  1  0.780946  0.219054  0.750000  1
  H  H14  1  0.500000  0.067463  0.500000  1
  H  H15  1  0.500000  0.932537  0.500000  1
  H  H16  1  0.932537  0.500000  0.000000  1
  H  H17  1  0.067463  0.500000  0.000000  1
  H  H18  1  0.000000  0.000000  0.623989  1
  H  H19  1  0.000000  0.000000  0.123989  1
  H  H20  1  0.000000  0.000000  0.376011  1
  H  H21  1  0.000000  0.000000  0.876011  1
  Ir  Ir22  1  0.000000  0.000000  0.750000  1
  Ir  Ir23  1  0.000000  0.000000  0.250000  1
