# generated using pymatgen
data_YbNp3F15
_symmetry_space_group_name_H-M   'P 1'
_cell_length_a   8.55235304
_cell_length_b   8.55235244
_cell_length_c   8.64804546
_cell_angle_alpha   79.44357544
_cell_angle_beta   79.44357671
_cell_angle_gamma   99.70138890
_symmetry_Int_Tables_number   1
_chemical_formula_structural   YbNp3F15
_chemical_formula_sum   'Yb2 Np6 F30'
_cell_volume   597.79852104
_cell_formula_units_Z   2
loop_
 _symmetry_equiv_pos_site_id
 _symmetry_equiv_pos_as_xyz
  1  'x, y, z'
loop_
 _atom_site_type_symbol
 _atom_site_label
 _atom_site_symmetry_multiplicity
 _atom_site_fract_x
 _atom_site_fract_y
 _atom_site_fract_z
 _atom_site_occupancy
  Yb  Yb0  1  0.175580  0.824420  0.250000  1
  Yb  Yb1  1  0.824420  0.175580  0.750000  1
  Np  Np2  1  0.749133  0.250867  0.250000  1
  Np  Np3  1  0.250867  0.749133  0.750000  1
  Np  Np4  1  0.758488  0.677469  0.672701  1
  Np  Np5  1  0.322531  0.241512  0.827299  1
  Np  Np6  1  0.241512  0.322531  0.327299  1
  Np  Np7  1  0.677469  0.758488  0.172701  1
  F  F8  1  0.470308  0.529692  0.250000  1
  F  F9  1  0.748999  0.962867  0.969607  1
  F  F10  1  0.037133  0.251001  0.530393  1
  F  F11  1  0.251001  0.037133  0.030393  1
  F  F12  1  0.962867  0.748999  0.469607  1
  F  F13  1  0.529692  0.470308  0.750000  1
  F  F14  1  0.774702  0.278879  0.002270  1
  F  F15  1  0.009917  0.276448  0.213445  1
  F  F16  1  0.781590  0.507746  0.223925  1
  F  F17  1  0.507746  0.781590  0.723925  1
  F  F18  1  0.276448  0.009917  0.713445  1
  F  F19  1  0.278879  0.774702  0.502270  1
  F  F20  1  0.225298  0.721121  0.997730  1
  F  F21  1  0.990083  0.723552  0.786555  1
  F  F22  1  0.218410  0.492254  0.776075  1
  F  F23  1  0.492254  0.218410  0.276075  1
  F  F24  1  0.723552  0.990083  0.286555  1
  F  F25  1  0.721121  0.225298  0.497730  1
  F  F26  1  0.316272  0.347274  0.054145  1
  F  F27  1  0.935416  0.809340  0.155039  1
  F  F28  1  0.839782  0.452672  0.686005  1
  F  F29  1  0.452672  0.839782  0.186005  1
  F  F30  1  0.809340  0.935416  0.655039  1
  F  F31  1  0.347274  0.316272  0.554145  1
  F  F32  1  0.683728  0.652726  0.945855  1
  F  F33  1  0.064584  0.190660  0.844961  1
  F  F34  1  0.160218  0.547328  0.313995  1
  F  F35  1  0.547328  0.160218  0.813995  1
  F  F36  1  0.190660  0.064584  0.344961  1
  F  F37  1  0.652726  0.683728  0.445855  1
