# generated using pymatgen
data_Pr4Al18PtRh4Au
_symmetry_space_group_name_H-M   'P 1'
_cell_length_a   7.68745256
_cell_length_b   7.68745278
_cell_length_c   9.63006901
_cell_angle_alpha   90.00004667
_cell_angle_beta   90.00026064
_cell_angle_gamma   119.64538441
_symmetry_Int_Tables_number   1
_chemical_formula_structural   Pr4Al18PtRh4Au
_chemical_formula_sum   'Pr4 Al18 Pt1 Rh4 Au1'
_cell_volume   494.61326418
_cell_formula_units_Z   1
loop_
 _symmetry_equiv_pos_site_id
 _symmetry_equiv_pos_as_xyz
  1  'x, y, z'
loop_
 _atom_site_type_symbol
 _atom_site_label
 _atom_site_symmetry_multiplicity
 _atom_site_fract_x
 _atom_site_fract_y
 _atom_site_fract_z
 _atom_site_occupancy
  Pr  Pr0  1  0.992681  0.665436  0.749553  1
  Pr  Pr1  1  0.003688  0.331988  0.250643  1
  Pr  Pr2  1  0.668012  0.996308  0.749359  1
  Pr  Pr3  1  0.334564  0.007320  0.250448  1
  Al  Al4  1  0.127264  0.126242  0.752822  1
  Al  Al5  1  0.873758  0.872737  0.247184  1
  Al  Al6  1  0.010762  0.330009  0.577605  1
  Al  Al7  1  0.001800  0.675777  0.422803  1
  Al  Al8  1  0.000546  0.666510  0.070953  1
  Al  Al9  1  0.333488  0.999453  0.929045  1
  Al  Al10  1  0.000742  0.334166  0.928900  1
  Al  Al11  1  0.665832  0.999259  0.071100  1
  Al  Al12  1  0.669995  0.989239  0.422396  1
  Al  Al13  1  0.324229  0.998200  0.577197  1
  Al  Al14  1  0.331532  0.332018  0.043537  1
  Al  Al15  1  0.667978  0.668464  0.956463  1
  Al  Al16  1  0.667250  0.670900  0.555517  1
  Al  Al17  1  0.329105  0.332755  0.444481  1
  Al  Al18  1  0.341160  0.546838  0.755621  1
  Al  Al19  1  0.659333  0.459339  0.239872  1
  Al  Al20  1  0.540658  0.340665  0.760126  1
  Al  Al21  1  0.453160  0.658838  0.244379  1
  Pt  Pt22  1  0.329054  0.670948  0.499996  1
  Rh  Rh23  1  0.329147  0.670855  0.000001  1
  Rh  Rh24  1  0.671288  0.328711  0.000000  1
  Rh  Rh25  1  0.999868  0.000128  0.499998  1
  Rh  Rh26  1  0.000096  0.999907  0.999999  1
  Au  Au27  1  0.673011  0.326989  0.500000  1
