# generated using pymatgen
data_Nd6Y10MgNi4Ag3
_symmetry_space_group_name_H-M   'P 1'
_cell_length_a   9.62472256
_cell_length_b   9.65151125
_cell_length_c   9.66453000
_cell_angle_alpha   59.95536244
_cell_angle_beta   59.86308217
_cell_angle_gamma   59.86358304
_symmetry_Int_Tables_number   1
_chemical_formula_structural   Nd6Y10MgNi4Ag3
_chemical_formula_sum   'Nd6 Y10 Mg1 Ni4 Ag3'
_cell_volume   633.29044735
_cell_formula_units_Z   1
loop_
 _symmetry_equiv_pos_site_id
 _symmetry_equiv_pos_as_xyz
  1  'x, y, z'
loop_
 _atom_site_type_symbol
 _atom_site_label
 _atom_site_symmetry_multiplicity
 _atom_site_fract_x
 _atom_site_fract_y
 _atom_site_fract_z
 _atom_site_occupancy
  Nd  Nd0  1  0.564983  0.566524  0.934247  1
  Nd  Nd1  1  0.935134  0.931401  0.566732  1
  Nd  Nd2  1  0.350214  0.350131  0.348424  1
  Nd  Nd3  1  0.350214  0.350131  0.951232  1
  Nd  Nd4  1  0.352367  0.949753  0.348940  1
  Nd  Nd5  1  0.936365  0.355355  0.354140  1
  Y  Y6  1  0.811878  0.186918  0.188466  1
  Y  Y7  1  0.184712  0.814969  0.814214  1
  Y  Y8  1  0.184712  0.814969  0.186105  1
  Y  Y9  1  0.811878  0.186918  0.812738  1
  Y  Y10  1  0.185688  0.186639  0.813836  1
  Y  Y11  1  0.811412  0.812339  0.188125  1
  Y  Y12  1  0.934474  0.563724  0.564466  1
  Y  Y13  1  0.562964  0.936650  0.935969  1
  Y  Y14  1  0.562964  0.936650  0.564417  1
  Y  Y15  1  0.934474  0.563724  0.937335  1
  Mg  Mg16  1  0.288041  0.569311  0.571325  1
  Ni  Ni17  1  0.140543  0.144432  0.140915  1
  Ni  Ni18  1  0.140543  0.144432  0.574111  1
  Ni  Ni19  1  0.136845  0.574129  0.144513  1
  Ni  Ni20  1  0.573772  0.139861  0.143183  1
  Ag  Ag21  1  0.583319  0.586395  0.582195  1
  Ag  Ag22  1  0.583319  0.586395  0.248092  1
  Ag  Ag23  1  0.579188  0.248250  0.586282  1
