# generated using pymatgen
data_LaDy5IrBr10
_symmetry_space_group_name_H-M   'P 1'
_cell_length_a   7.44418386
_cell_length_b   9.36695639
_cell_length_c   9.34771461
_cell_angle_alpha   107.20180419
_cell_angle_beta   105.52418235
_cell_angle_gamma   95.96531848
_symmetry_Int_Tables_number   1
_chemical_formula_structural   LaDy5IrBr10
_chemical_formula_sum   'La1 Dy5 Ir1 Br10'
_cell_volume   587.95006249
_cell_formula_units_Z   1
loop_
 _symmetry_equiv_pos_site_id
 _symmetry_equiv_pos_as_xyz
  1  'x, y, z'
loop_
 _atom_site_type_symbol
 _atom_site_label
 _atom_site_symmetry_multiplicity
 _atom_site_fract_x
 _atom_site_fract_y
 _atom_site_fract_z
 _atom_site_occupancy
  La  La0  1  0.872875  0.249716  0.951149  1
  Dy  Dy1  1  0.639607  0.825972  0.865885  1
  Dy  Dy2  1  0.360234  0.175549  0.134987  1
  Dy  Dy3  1  0.028380  0.902747  0.699501  1
  Dy  Dy4  1  0.972420  0.089871  0.298603  1
  Dy  Dy5  1  0.123559  0.763204  0.046958  1
  Ir  Ir6  1  0.998871  0.002618  0.998282  1
  Br  Br7  1  0.652362  0.731142  0.553085  1
  Br  Br8  1  0.345529  0.267624  0.447045  1
  Br  Br9  1  0.219870  0.658078  0.750852  1
  Br  Br10  1  0.776791  0.337238  0.264990  1
  Br  Br11  1  0.443975  0.079918  0.820535  1
  Br  Br12  1  0.542752  0.911486  0.174007  1
  Br  Br13  1  0.265471  0.459720  0.088438  1
  Br  Br14  1  0.752993  0.557027  0.919053  1
  Br  Br15  1  0.084998  0.823988  0.367790  1
  Br  Br16  1  0.919312  0.164101  0.618838  1
