# generated using pymatgen
data_Ba4LaNp3O12
_symmetry_space_group_name_H-M   'P 1'
_cell_length_a   6.13760463
_cell_length_b   6.27739815
_cell_length_c   8.76205200
_cell_angle_alpha   90.02814864
_cell_angle_beta   89.78645676
_cell_angle_gamma   90.02047693
_symmetry_Int_Tables_number   1
_chemical_formula_structural   Ba4LaNp3O12
_chemical_formula_sum   'Ba4 La1 Np3 O12'
_cell_volume   337.58357966
_cell_formula_units_Z   1
loop_
 _symmetry_equiv_pos_site_id
 _symmetry_equiv_pos_as_xyz
  1  'x, y, z'
loop_
 _atom_site_type_symbol
 _atom_site_label
 _atom_site_symmetry_multiplicity
 _atom_site_fract_x
 _atom_site_fract_y
 _atom_site_fract_z
 _atom_site_occupancy
  Ba  Ba0  1  0.992315  0.028108  0.246904  1
  Ba  Ba1  1  0.492321  0.472573  0.753013  1
  Ba  Ba2  1  0.507679  0.527427  0.246987  1
  Ba  Ba3  1  0.007685  0.971892  0.753096  1
  La  La4  1  0.500000  0.000000  0.500000  1
  Np  Np5  1  0.500000  0.000000  0.000000  1
  Np  Np6  1  0.000000  0.500000  0.000000  1
  Np  Np7  1  0.000000  0.500000  0.500000  1
  O  O8  1  0.196370  0.224009  0.541494  1
  O  O9  1  0.723987  0.302465  0.458701  1
  O  O10  1  0.272440  0.721076  0.960030  1
  O  O11  1  0.774396  0.776044  0.037498  1
  O  O12  1  0.803630  0.775991  0.458506  1
  O  O13  1  0.276013  0.697535  0.541299  1
  O  O14  1  0.727560  0.278924  0.039970  1
  O  O15  1  0.225604  0.223956  0.962502  1
  O  O16  1  0.072371  0.483544  0.244615  1
  O  O17  1  0.576934  0.019273  0.764588  1
  O  O18  1  0.423066  0.980727  0.235412  1
  O  O19  1  0.927629  0.516456  0.755385  1
