# generated using pymatgen
data_Pr8Mn(Si4Ir)3
_symmetry_space_group_name_H-M   'P 1'
_cell_length_a   8.28060200
_cell_length_b   8.28060327
_cell_length_c   8.55859400
_cell_angle_alpha   90.00000000
_cell_angle_beta   90.00000000
_cell_angle_gamma   120.00001091
_symmetry_Int_Tables_number   1
_chemical_formula_structural   Pr8Mn(Si4Ir)3
_chemical_formula_sum   'Pr8 Mn1 Si12 Ir3'
_cell_volume   508.22602177
_cell_formula_units_Z   1
loop_
 _symmetry_equiv_pos_site_id
 _symmetry_equiv_pos_as_xyz
  1  'x, y, z'
loop_
 _atom_site_type_symbol
 _atom_site_label
 _atom_site_symmetry_multiplicity
 _atom_site_fract_x
 _atom_site_fract_y
 _atom_site_fract_z
 _atom_site_occupancy
  Pr  Pr0  1  0.497899  0.502101  0.749001  1
  Pr  Pr1  1  0.499404  0.500596  0.251014  1
  Pr  Pr2  1  0.004203  0.502101  0.749001  1
  Pr  Pr3  1  0.001191  0.500596  0.251014  1
  Pr  Pr4  1  0.497899  0.995797  0.749001  1
  Pr  Pr5  1  0.499404  0.998809  0.251014  1
  Pr  Pr6  1  0.000000  0.000000  0.750961  1
  Pr  Pr7  1  0.000000  0.000000  0.249341  1
  Mn  Mn8  1  0.666667  0.333333  0.994558  1
  Si  Si9  1  0.833054  0.166946  0.000964  1
  Si  Si10  1  0.167342  0.832658  0.999097  1
  Si  Si11  1  0.333893  0.166946  0.000964  1
  Si  Si12  1  0.166845  0.833155  0.500768  1
  Si  Si13  1  0.665315  0.832658  0.999097  1
  Si  Si14  1  0.832992  0.167008  0.499295  1
  Si  Si15  1  0.833054  0.666107  0.000964  1
  Si  Si16  1  0.666309  0.833155  0.500768  1
  Si  Si17  1  0.167342  0.334685  0.999097  1
  Si  Si18  1  0.334017  0.167008  0.499295  1
  Si  Si19  1  0.166845  0.333691  0.500768  1
  Si  Si20  1  0.832992  0.665983  0.499295  1
  Ir  Ir21  1  0.333333  0.666667  0.003373  1
  Ir  Ir22  1  0.333333  0.666667  0.497409  1
  Ir  Ir23  1  0.666667  0.333333  0.503939  1
