# generated using pymatgen
data_Tb5MoOsC7
_symmetry_space_group_name_H-M   'P 1'
_cell_length_a   8.30582700
_cell_length_b   8.30582852
_cell_length_c   3.49443300
_cell_angle_alpha   90.00000000
_cell_angle_beta   90.00000000
_cell_angle_gamma   122.78434712
_symmetry_Int_Tables_number   1
_chemical_formula_structural   Tb5MoOsC7
_chemical_formula_sum   'Tb5 Mo1 Os1 C7'
_cell_volume   202.67077599
_cell_formula_units_Z   1
loop_
 _symmetry_equiv_pos_site_id
 _symmetry_equiv_pos_as_xyz
  1  'x, y, z'
loop_
 _atom_site_type_symbol
 _atom_site_label
 _atom_site_symmetry_multiplicity
 _atom_site_fract_x
 _atom_site_fract_y
 _atom_site_fract_z
 _atom_site_occupancy
  Tb  Tb0  1  0.501235  0.498765  0.000000  1
  Tb  Tb1  1  0.071624  0.332999  0.500000  1
  Tb  Tb2  1  0.924904  0.666427  0.500000  1
  Tb  Tb3  1  0.667001  0.928376  0.500000  1
  Tb  Tb4  1  0.333573  0.075096  0.500000  1
  Mo  Mo5  1  0.287127  0.712873  0.000000  1
  Os  Os6  1  0.710671  0.289329  0.000000  1
  C  C7  1  0.634180  0.365820  0.500000  1
  C  C8  1  0.374977  0.625023  0.500000  1
  C  C9  1  0.999309  0.000691  0.000000  1
  C  C10  1  0.169788  0.171154  0.000000  1
  C  C11  1  0.828846  0.830212  0.000000  1
  C  C12  1  0.997128  0.500363  0.000000  1
  C  C13  1  0.499637  0.002872  0.000000  1
