# generated using pymatgen
data_Dy2Er6Ti11Si16Os
_symmetry_space_group_name_H-M   'P 1'
_cell_length_a   7.00728303
_cell_length_b   7.00559633
_cell_length_c   12.85666901
_cell_angle_alpha   90.02345515
_cell_angle_beta   89.96940499
_cell_angle_gamma   89.91170352
_symmetry_Int_Tables_number   1
_chemical_formula_structural   Dy2Er6Ti11Si16Os
_chemical_formula_sum   'Dy2 Er6 Ti11 Si16 Os1'
_cell_volume   631.13551291
_cell_formula_units_Z   1
loop_
 _symmetry_equiv_pos_site_id
 _symmetry_equiv_pos_as_xyz
  1  'x, y, z'
loop_
 _atom_site_type_symbol
 _atom_site_label
 _atom_site_symmetry_multiplicity
 _atom_site_fract_x
 _atom_site_fract_y
 _atom_site_fract_z
 _atom_site_occupancy
  Dy  Dy0  1  0.340909  0.004471  0.467144  1
  Dy  Dy1  1  0.496691  0.840602  0.718271  1
  Er  Er2  1  0.499766  0.159270  0.214858  1
  Er  Er3  1  0.840944  0.497161  0.281615  1
  Er  Er4  1  0.159095  0.499893  0.785341  1
  Er  Er5  1  0.657755  0.998989  0.969025  1
  Er  Er6  1  0.003628  0.341088  0.532713  1
  Er  Er7  1  0.998649  0.658196  0.031366  1
  Ti  Ti8  1  0.174105  0.827678  0.248209  1
  Ti  Ti9  1  0.827488  0.174079  0.752216  1
  Ti  Ti10  1  0.674038  0.673610  0.499804  1
  Ti  Ti11  1  0.150755  0.003965  0.875927  1
  Ti  Ti12  1  0.492364  0.654718  0.124511  1
  Ti  Ti13  1  0.507133  0.348901  0.628241  1
  Ti  Ti14  1  0.655756  0.492417  0.875765  1
  Ti  Ti15  1  0.349128  0.506656  0.371411  1
  Ti  Ti16  1  0.848975  0.994191  0.374684  1
  Ti  Ti17  1  0.002952  0.150973  0.124180  1
  Ti  Ti18  1  0.994791  0.848424  0.624783  1
  Si  Si19  1  0.202250  0.133034  0.685124  1
  Si  Si20  1  0.371679  0.699455  0.933474  1
  Si  Si21  1  0.632610  0.297365  0.433907  1
  Si  Si22  1  0.699908  0.371901  0.067191  1
  Si  Si23  1  0.296469  0.630090  0.565501  1
  Si  Si24  1  0.796060  0.867648  0.183026  1
  Si  Si25  1  0.131867  0.203501  0.314785  1
  Si  Si26  1  0.868533  0.796097  0.817093  1
  Si  Si27  1  0.287787  0.955010  0.064664  1
  Si  Si28  1  0.547465  0.792485  0.314990  1
  Si  Si29  1  0.450486  0.209275  0.818762  1
  Si  Si30  1  0.793542  0.546561  0.684834  1
  Si  Si31  1  0.208067  0.450632  0.181372  1
  Si  Si32  1  0.709499  0.048627  0.565511  1
  Si  Si33  1  0.954867  0.288246  0.935718  1
  Si  Si34  1  0.047765  0.707298  0.434118  1
  Os  Os35  1  0.326229  0.327495  0.999864  1
