# generated using pymatgen
data_CeDyCo17
_symmetry_space_group_name_H-M   'P 1'
_cell_length_a   6.27854945
_cell_length_b   6.27854919
_cell_length_c   6.27854818
_cell_angle_alpha   82.97006392
_cell_angle_beta   82.97006168
_cell_angle_gamma   82.97007195
_symmetry_Int_Tables_number   1
_chemical_formula_structural   CeDyCo17
_chemical_formula_sum   'Ce1 Dy1 Co17'
_cell_volume   242.34051411
_cell_formula_units_Z   1
loop_
 _symmetry_equiv_pos_site_id
 _symmetry_equiv_pos_as_xyz
  1  'x, y, z'
loop_
 _atom_site_type_symbol
 _atom_site_label
 _atom_site_symmetry_multiplicity
 _atom_site_fract_x
 _atom_site_fract_y
 _atom_site_fract_z
 _atom_site_occupancy
  Ce  Ce0  1  0.652617  0.652617  0.652617  1
  Dy  Dy1  1  0.342532  0.342532  0.342532  1
  Co  Co2  1  0.713752  0.288672  0.999802  1
  Co  Co3  1  0.999802  0.713752  0.288672  1
  Co  Co4  1  0.288672  0.999802  0.713752  1
  Co  Co5  1  0.999802  0.288672  0.713752  1
  Co  Co6  1  0.713752  0.999802  0.288672  1
  Co  Co7  1  0.288672  0.713752  0.999802  1
  Co  Co8  1  0.347161  0.347161  0.847752  1
  Co  Co9  1  0.847752  0.347161  0.347161  1
  Co  Co10  1  0.347161  0.847752  0.347161  1
  Co  Co11  1  0.653932  0.653932  0.143031  1
  Co  Co12  1  0.143031  0.653932  0.653932  1
  Co  Co13  1  0.653932  0.143031  0.653932  1
  Co  Co14  1  0.004107  0.004107  0.499149  1
  Co  Co15  1  0.499149  0.004107  0.004107  1
  Co  Co16  1  0.004107  0.499149  0.004107  1
  Co  Co17  1  0.903025  0.903025  0.903025  1
  Co  Co18  1  0.097038  0.097038  0.097038  1
