# generated using pymatgen
data_NaPr2(P3Pd10)2
_symmetry_space_group_name_H-M   'P 1'
_cell_length_a   8.69547230
_cell_length_b   8.69547200
_cell_length_c   8.69547200
_cell_angle_alpha   60.00000000
_cell_angle_beta   60.00000115
_cell_angle_gamma   59.99999742
_symmetry_Int_Tables_number   1
_chemical_formula_structural   NaPr2(P3Pd10)2
_chemical_formula_sum   'Na1 Pr2 P6 Pd20'
_cell_volume   464.90529828
_cell_formula_units_Z   1
loop_
 _symmetry_equiv_pos_site_id
 _symmetry_equiv_pos_as_xyz
  1  'x, y, z'
loop_
 _atom_site_type_symbol
 _atom_site_label
 _atom_site_symmetry_multiplicity
 _atom_site_fract_x
 _atom_site_fract_y
 _atom_site_fract_z
 _atom_site_occupancy
  Na  Na0  1  0.000000  0.000000  0.000000  1
  Pr  Pr1  1  0.250000  0.250000  0.250000  1
  Pr  Pr2  1  0.750000  0.750000  0.750000  1
  P  P3  1  0.740054  0.259946  0.259946  1
  P  P4  1  0.259946  0.740054  0.740054  1
  P  P5  1  0.259946  0.740054  0.259946  1
  P  P6  1  0.740054  0.259946  0.740054  1
  P  P7  1  0.259946  0.259946  0.740054  1
  P  P8  1  0.740054  0.740054  0.259946  1
  Pd  Pd9  1  0.386666  0.386666  0.386666  1
  Pd  Pd10  1  0.613334  0.613334  0.613334  1
  Pd  Pd11  1  0.386666  0.386666  0.840002  1
  Pd  Pd12  1  0.386666  0.840002  0.386666  1
  Pd  Pd13  1  0.613334  0.613334  0.159998  1
  Pd  Pd14  1  0.613334  0.159998  0.613334  1
  Pd  Pd15  1  0.840002  0.386666  0.386666  1
  Pd  Pd16  1  0.159998  0.613334  0.613334  1
  Pd  Pd17  1  0.346469  0.000000  0.000000  1
  Pd  Pd18  1  0.653531  0.000000  0.000000  1
  Pd  Pd19  1  0.000000  0.346469  0.653531  1
  Pd  Pd20  1  0.000000  0.653531  0.346469  1
  Pd  Pd21  1  0.000000  0.346469  0.000000  1
  Pd  Pd22  1  0.653531  0.000000  0.346469  1
  Pd  Pd23  1  0.000000  0.653531  0.000000  1
  Pd  Pd24  1  0.346469  0.000000  0.653531  1
  Pd  Pd25  1  0.000000  0.000000  0.346469  1
  Pd  Pd26  1  0.000000  0.000000  0.653531  1
  Pd  Pd27  1  0.653531  0.346469  0.000000  1
  Pd  Pd28  1  0.346469  0.653531  0.000000  1
