# generated using pymatgen
data_Sc8Ti3Si16W9
_symmetry_space_group_name_H-M   'P 1'
_cell_length_a   6.56350203
_cell_length_b   6.77062567
_cell_length_c   12.81756093
_cell_angle_alpha   89.95200334
_cell_angle_beta   90.06183670
_cell_angle_gamma   90.01548187
_symmetry_Int_Tables_number   1
_chemical_formula_structural   Sc8Ti3Si16W9
_chemical_formula_sum   'Sc8 Ti3 Si16 W9'
_cell_volume   569.59923462
_cell_formula_units_Z   1
loop_
 _symmetry_equiv_pos_site_id
 _symmetry_equiv_pos_as_xyz
  1  'x, y, z'
loop_
 _atom_site_type_symbol
 _atom_site_label
 _atom_site_symmetry_multiplicity
 _atom_site_fract_x
 _atom_site_fract_y
 _atom_site_fract_z
 _atom_site_occupancy
  Sc  Sc0  1  0.495179  0.671101  0.592944  1
  Sc  Sc1  1  0.997218  0.829161  0.907353  1
  Sc  Sc2  1  0.505160  0.330271  0.092021  1
  Sc  Sc3  1  0.004724  0.171053  0.407897  1
  Sc  Sc4  1  0.504711  0.328036  0.407846  1
  Sc  Sc5  1  0.003163  0.173627  0.092915  1
  Sc  Sc6  1  0.498505  0.673818  0.906510  1
  Sc  Sc7  1  0.997696  0.825770  0.592519  1
  Ti  Ti8  1  0.665115  0.166704  0.624428  1
  Ti  Ti9  1  0.166038  0.333039  0.874631  1
  Ti  Ti10  1  0.334289  0.832936  0.126253  1
  Si  Si11  1  0.668840  0.961199  0.458120  1
  Si  Si12  1  0.167284  0.536643  0.041940  1
  Si  Si13  1  0.332816  0.036653  0.958863  1
  Si  Si14  1  0.830421  0.459952  0.541498  1
  Si  Si15  1  0.330749  0.039340  0.541426  1
  Si  Si16  1  0.831946  0.461172  0.958959  1
  Si  Si17  1  0.668841  0.962300  0.041534  1
  Si  Si18  1  0.168300  0.538484  0.458518  1
  Si  Si19  1  0.465212  0.384612  0.750086  1
  Si  Si20  1  0.965147  0.116032  0.748705  1
  Si  Si21  1  0.533632  0.616058  0.250482  1
  Si  Si22  1  0.033125  0.884411  0.249496  1
  Si  Si23  1  0.703077  0.858030  0.748314  1
  Si  Si24  1  0.202364  0.642427  0.752171  1
  Si  Si25  1  0.297376  0.143256  0.248720  1
  Si  Si26  1  0.798703  0.356062  0.250230  1
  W  W27  1  0.833703  0.663556  0.374652  1
  W  W28  1  0.331192  0.834948  0.375935  1
  W  W29  1  0.829157  0.664686  0.124752  1
  W  W30  1  0.668449  0.167037  0.874772  1
  W  W31  1  0.168543  0.335906  0.624135  1
  W  W32  1  0.839028  0.495416  0.750232  1
  W  W33  1  0.338667  0.005144  0.750164  1
  W  W34  1  0.161782  0.504874  0.250641  1
  W  W35  1  0.659848  0.996289  0.250338  1
