# generated using pymatgen
data_Pa6Sb8Ir5Rh
_symmetry_space_group_name_H-M   'P 1'
_cell_length_a   8.37092309
_cell_length_b   8.37092271
_cell_length_c   8.37092155
_cell_angle_alpha   109.41150582
_cell_angle_beta   109.59071433
_cell_angle_gamma   109.41150500
_symmetry_Int_Tables_number   1
_chemical_formula_structural   Pa6Sb8Ir5Rh
_chemical_formula_sum   'Pa6 Sb8 Ir5 Rh1'
_cell_volume   451.54045157
_cell_formula_units_Z   1
loop_
 _symmetry_equiv_pos_site_id
 _symmetry_equiv_pos_as_xyz
  1  'x, y, z'
loop_
 _atom_site_type_symbol
 _atom_site_label
 _atom_site_symmetry_multiplicity
 _atom_site_fract_x
 _atom_site_fract_y
 _atom_site_fract_z
 _atom_site_occupancy
  Pa  Pa0  1  0.875000  0.250000  0.125000  1
  Pa  Pa1  1  0.625000  0.750000  0.375000  1
  Pa  Pa2  1  0.249778  0.125117  0.875323  1
  Pa  Pa3  1  0.750206  0.374883  0.624661  1
  Pa  Pa4  1  0.124677  0.874455  0.249794  1
  Pa  Pa5  1  0.375339  0.625545  0.750222  1
  Sb  Sb6  1  0.673880  0.499600  0.998291  1
  Sb  Sb7  1  0.498691  0.000400  0.674280  1
  Sb  Sb8  1  0.000181  0.675124  0.500147  1
  Sb  Sb9  1  0.825023  0.824876  0.825057  1
  Sb  Sb10  1  0.499853  0.000034  0.174977  1
  Sb  Sb11  1  0.174943  0.499966  0.999819  1
  Sb  Sb12  1  0.001709  0.175589  0.501309  1
  Sb  Sb13  1  0.325720  0.324411  0.326120  1
  Ir  Ir14  1  0.125000  0.750000  0.875000  1
  Ir  Ir15  1  0.249553  0.624606  0.374555  1
  Ir  Ir16  1  0.749949  0.875394  0.124947  1
  Ir  Ir17  1  0.625445  0.374998  0.250051  1
  Ir  Ir18  1  0.875053  0.125002  0.750447  1
  Rh  Rh19  1  0.375000  0.250000  0.625000  1
