# generated using pymatgen
data_LiNd2Th(Co4P3)2
_symmetry_space_group_name_H-M   'P 1'
_cell_length_a   3.80645000
_cell_length_b   10.72595900
_cell_length_c   12.44090500
_cell_angle_alpha   90.00000000
_cell_angle_beta   90.00000000
_cell_angle_gamma   90.00000000
_symmetry_Int_Tables_number   1
_chemical_formula_structural   LiNd2Th(Co4P3)2
_chemical_formula_sum   'Li2 Nd4 Th2 Co16 P12'
_cell_volume   507.93511253
_cell_formula_units_Z   2
loop_
 _symmetry_equiv_pos_site_id
 _symmetry_equiv_pos_as_xyz
  1  'x, y, z'
loop_
 _atom_site_type_symbol
 _atom_site_label
 _atom_site_symmetry_multiplicity
 _atom_site_fract_x
 _atom_site_fract_y
 _atom_site_fract_z
 _atom_site_occupancy
  Li  Li0  1  0.500000  0.500000  0.150011  1
  Li  Li1  1  0.000000  0.000000  0.849989  1
  Nd  Nd2  1  0.500000  0.816754  0.205613  1
  Nd  Nd3  1  0.500000  0.183246  0.205613  1
  Nd  Nd4  1  0.000000  0.683246  0.794387  1
  Nd  Nd5  1  0.000000  0.316754  0.794387  1
  Th  Th6  1  0.000000  0.500000  0.524482  1
  Th  Th7  1  0.500000  0.000000  0.475518  1
  Co  Co8  1  0.500000  0.500000  0.701170  1
  Co  Co9  1  0.000000  0.000000  0.298830  1
  Co  Co10  1  0.000000  0.500000  0.986291  1
  Co  Co11  1  0.500000  0.000000  0.013709  1
  Co  Co12  1  0.500000  0.333351  0.996929  1
  Co  Co13  1  0.500000  0.666649  0.996929  1
  Co  Co14  1  0.000000  0.166649  0.003071  1
  Co  Co15  1  0.000000  0.833351  0.003071  1
  Co  Co16  1  0.500000  0.298974  0.431392  1
  Co  Co17  1  0.500000  0.701026  0.431392  1
  Co  Co18  1  0.000000  0.201026  0.568608  1
  Co  Co19  1  0.000000  0.798974  0.568608  1
  Co  Co20  1  0.500000  0.880867  0.706867  1
  Co  Co21  1  0.500000  0.119133  0.706867  1
  Co  Co22  1  0.000000  0.619133  0.293133  1
  Co  Co23  1  0.000000  0.380867  0.293133  1
  P  P24  1  0.500000  0.500000  0.886251  1
  P  P25  1  0.000000  0.000000  0.113749  1
  P  P26  1  0.500000  0.500000  0.340648  1
  P  P27  1  0.000000  0.000000  0.659352  1
  P  P28  1  0.500000  0.303506  0.614244  1
  P  P29  1  0.500000  0.696494  0.614244  1
  P  P30  1  0.000000  0.196494  0.385756  1
  P  P31  1  0.000000  0.803506  0.385756  1
  P  P32  1  0.500000  0.845347  0.897659  1
  P  P33  1  0.500000  0.154653  0.897659  1
  P  P34  1  0.000000  0.654653  0.102341  1
  P  P35  1  0.000000  0.345347  0.102341  1
