# generated using pymatgen
data_Yb7HfSi16(Mo2W)4
_symmetry_space_group_name_H-M   'P 1'
_cell_length_a   6.70434351
_cell_length_b   6.89075893
_cell_length_c   12.98867409
_cell_angle_alpha   89.76391617
_cell_angle_beta   89.96176054
_cell_angle_gamma   90.17191748
_symmetry_Int_Tables_number   1
_chemical_formula_structural   Yb7HfSi16(Mo2W)4
_chemical_formula_sum   'Yb7 Hf1 Si16 Mo8 W4'
_cell_volume   600.04302630
_cell_formula_units_Z   1
loop_
 _symmetry_equiv_pos_site_id
 _symmetry_equiv_pos_as_xyz
  1  'x, y, z'
loop_
 _atom_site_type_symbol
 _atom_site_label
 _atom_site_symmetry_multiplicity
 _atom_site_fract_x
 _atom_site_fract_y
 _atom_site_fract_z
 _atom_site_occupancy
  Yb  Yb0  1  0.998096  0.166161  0.090784  1
  Yb  Yb1  1  0.002405  0.834486  0.909140  1
  Yb  Yb2  1  0.502674  0.665465  0.909984  1
  Yb  Yb3  1  0.002425  0.834568  0.589487  1
  Yb  Yb4  1  0.497921  0.332458  0.090599  1
  Yb  Yb5  1  0.999405  0.167728  0.410127  1
  Yb  Yb6  1  0.498443  0.330823  0.408780  1
  Hf  Hf7  1  0.500751  0.674768  0.599081  1
  Si  Si8  1  0.035076  0.129941  0.747973  1
  Si  Si9  1  0.964257  0.875315  0.251017  1
  Si  Si10  1  0.464385  0.622051  0.249440  1
  Si  Si11  1  0.535152  0.375140  0.748059  1
  Si  Si12  1  0.300624  0.864256  0.750026  1
  Si  Si13  1  0.699513  0.133480  0.250474  1
  Si  Si14  1  0.198769  0.364098  0.250263  1
  Si  Si15  1  0.802515  0.637169  0.749946  1
  Si  Si16  1  0.167647  0.462066  0.545602  1
  Si  Si17  1  0.836250  0.541535  0.456667  1
  Si  Si18  1  0.340858  0.953950  0.457215  1
  Si  Si19  1  0.841341  0.542093  0.045580  1
  Si  Si20  1  0.658546  0.038964  0.545141  1
  Si  Si21  1  0.158320  0.457164  0.953168  1
  Si  Si22  1  0.659122  0.043216  0.953618  1
  Si  Si23  1  0.340977  0.957786  0.045449  1
  Mo  Mo24  1  0.333270  0.164692  0.625168  1
  Mo  Mo25  1  0.662368  0.828120  0.375092  1
  Mo  Mo26  1  0.165800  0.666726  0.373431  1
  Mo  Mo27  1  0.665199  0.831886  0.128238  1
  Mo  Mo28  1  0.830362  0.338208  0.625428  1
  Mo  Mo29  1  0.334664  0.166731  0.869861  1
  Mo  Mo30  1  0.833350  0.333177  0.870889  1
  Mo  Mo31  1  0.164668  0.667118  0.127819  1
  W  W32  1  0.165499  0.497081  0.747331  1
  W  W33  1  0.838577  0.508317  0.251207  1
  W  W34  1  0.339215  0.988824  0.250934  1
  W  W35  1  0.661555  0.004442  0.746985  1
