# generated using pymatgen
data_Tb3Dy3(Er2Sn3)2
_symmetry_space_group_name_H-M   'P 1'
_cell_length_a   8.95637205
_cell_length_b   8.95928695
_cell_length_c   6.52012300
_cell_angle_alpha   90.00000000
_cell_angle_beta   90.00000000
_cell_angle_gamma   120.00089167
_symmetry_Int_Tables_number   1
_chemical_formula_structural   Tb3Dy3(Er2Sn3)2
_chemical_formula_sum   'Tb3 Dy3 Er4 Sn6'
_cell_volume   453.09376949
_cell_formula_units_Z   1
loop_
 _symmetry_equiv_pos_site_id
 _symmetry_equiv_pos_as_xyz
  1  'x, y, z'
loop_
 _atom_site_type_symbol
 _atom_site_label
 _atom_site_symmetry_multiplicity
 _atom_site_fract_x
 _atom_site_fract_y
 _atom_site_fract_z
 _atom_site_occupancy
  Tb  Tb0  1  0.761196  0.999977  0.750000  1
  Tb  Tb1  1  0.238833  0.238833  0.750000  1
  Tb  Tb2  1  0.238777  0.999979  0.250000  1
  Dy  Dy3  1  0.999981  0.761125  0.750000  1
  Dy  Dy4  1  0.999972  0.238847  0.250000  1
  Dy  Dy5  1  0.761177  0.761180  0.250000  1
  Er  Er6  1  0.333318  0.666655  0.499982  1
  Er  Er7  1  0.666700  0.333365  0.000004  1
  Er  Er8  1  0.666700  0.333365  0.499996  1
  Er  Er9  1  0.333318  0.666655  0.000018  1
  Sn  Sn10  1  0.396178  0.999944  0.750000  1
  Sn  Sn11  1  0.396234  0.396288  0.250000  1
  Sn  Sn12  1  0.999944  0.603702  0.250000  1
  Sn  Sn13  1  0.000001  0.396326  0.750000  1
  Sn  Sn14  1  0.603817  0.603761  0.750000  1
  Sn  Sn15  1  0.603856  0.000000  0.250000  1
