# generated using pymatgen
data_PrEu3Mn4(Co4P3)4
_symmetry_space_group_name_H-M   'P 1'
_cell_length_a   3.68716500
_cell_length_b   10.48699100
_cell_length_c   11.97653794
_cell_angle_alpha   89.93444108
_cell_angle_beta   90.00000000
_cell_angle_gamma   90.00000000
_symmetry_Int_Tables_number   1
_chemical_formula_structural   PrEu3Mn4(Co4P3)4
_chemical_formula_sum   'Pr1 Eu3 Mn4 Co16 P12'
_cell_volume   463.09967733
_cell_formula_units_Z   1
loop_
 _symmetry_equiv_pos_site_id
 _symmetry_equiv_pos_as_xyz
  1  'x, y, z'
loop_
 _atom_site_type_symbol
 _atom_site_label
 _atom_site_symmetry_multiplicity
 _atom_site_fract_x
 _atom_site_fract_y
 _atom_site_fract_z
 _atom_site_occupancy
  Pr  Pr0  1  0.750000  0.082126  0.796668  1
  Eu  Eu1  1  0.250000  0.582878  0.704009  1
  Eu  Eu2  1  0.250000  0.916712  0.203255  1
  Eu  Eu3  1  0.750000  0.417160  0.296654  1
  Mn  Mn4  1  0.250000  0.707590  0.989143  1
  Mn  Mn5  1  0.250000  0.792126  0.489052  1
  Mn  Mn6  1  0.750000  0.293655  0.011584  1
  Mn  Mn7  1  0.750000  0.206643  0.510841  1
  Co  Co8  1  0.250000  0.405542  0.490858  1
  Co  Co9  1  0.250000  0.094859  0.991102  1
  Co  Co10  1  0.750000  0.594131  0.508831  1
  Co  Co11  1  0.750000  0.905755  0.009981  1
  Co  Co12  1  0.250000  0.220934  0.174586  1
  Co  Co13  1  0.250000  0.279041  0.674540  1
  Co  Co14  1  0.750000  0.779458  0.825642  1
  Co  Co15  1  0.750000  0.721016  0.324966  1
  Co  Co16  1  0.250000  0.881868  0.697521  1
  Co  Co17  1  0.250000  0.618185  0.198398  1
  Co  Co18  1  0.750000  0.118587  0.301597  1
  Co  Co19  1  0.750000  0.382007  0.802393  1
  Co  Co20  1  0.250000  0.466676  0.934542  1
  Co  Co21  1  0.250000  0.034018  0.432437  1
  Co  Co22  1  0.750000  0.534653  0.066845  1
  Co  Co23  1  0.750000  0.964631  0.565358  1
  P  P24  1  0.250000  0.421036  0.112929  1
  P  P25  1  0.250000  0.079462  0.609431  1
  P  P26  1  0.750000  0.580576  0.888623  1
  P  P27  1  0.750000  0.920201  0.386873  1
  P  P28  1  0.250000  0.276203  0.866630  1
  P  P29  1  0.250000  0.226783  0.365222  1
  P  P30  1  0.750000  0.726834  0.133526  1
  P  P31  1  0.750000  0.772268  0.633702  1
  P  P32  1  0.250000  0.601534  0.391564  1
  P  P33  1  0.250000  0.894463  0.894030  1
  P  P34  1  0.750000  0.399414  0.607895  1
  P  P35  1  0.750000  0.100975  0.108772  1
