# generated using pymatgen
data_Zr10GaSn7
_symmetry_space_group_name_H-M   'P 1'
_cell_length_a   8.81141300
_cell_length_b   8.81141318
_cell_length_c   5.93085000
_cell_angle_alpha   90.00000000
_cell_angle_beta   90.00000000
_cell_angle_gamma   119.99999556
_symmetry_Int_Tables_number   1
_chemical_formula_structural   Zr10GaSn7
_chemical_formula_sum   'Zr10 Ga1 Sn7'
_cell_volume   398.78490920
_cell_formula_units_Z   1
loop_
 _symmetry_equiv_pos_site_id
 _symmetry_equiv_pos_as_xyz
  1  'x, y, z'
loop_
 _atom_site_type_symbol
 _atom_site_label
 _atom_site_symmetry_multiplicity
 _atom_site_fract_x
 _atom_site_fract_y
 _atom_site_fract_z
 _atom_site_occupancy
  Zr  Zr0  1  0.666667  0.333333  0.000000  1
  Zr  Zr1  1  0.333333  0.666667  0.000000  1
  Zr  Zr2  1  0.333333  0.666667  0.500000  1
  Zr  Zr3  1  0.666667  0.333333  0.500000  1
  Zr  Zr4  1  0.726251  0.726251  0.738069  1
  Zr  Zr5  1  0.273749  0.000000  0.738069  1
  Zr  Zr6  1  0.000000  0.273749  0.738069  1
  Zr  Zr7  1  0.273749  0.273749  0.261931  1
  Zr  Zr8  1  0.726251  0.000000  0.261931  1
  Zr  Zr9  1  0.000000  0.726251  0.261931  1
  Ga  Ga10  1  0.000000  0.000000  0.500000  1
  Sn  Sn11  1  0.000000  0.000000  0.000000  1
  Sn  Sn12  1  0.387176  0.387176  0.751822  1
  Sn  Sn13  1  0.612824  0.000000  0.751822  1
  Sn  Sn14  1  0.000000  0.612824  0.751822  1
  Sn  Sn15  1  0.612824  0.612824  0.248178  1
  Sn  Sn16  1  0.387176  0.000000  0.248178  1
  Sn  Sn17  1  0.000000  0.387176  0.248178  1
