# generated using pymatgen
data_Y9Er7CdIn3Ir4
_symmetry_space_group_name_H-M   'P 1'
_cell_length_a   9.61855427
_cell_length_b   9.65629356
_cell_length_c   9.67118912
_cell_angle_alpha   59.63050870
_cell_angle_beta   59.85036952
_cell_angle_gamma   59.96291379
_symmetry_Int_Tables_number   1
_chemical_formula_structural   Y9Er7CdIn3Ir4
_chemical_formula_sum   'Y9 Er7 Cd1 In3 Ir4'
_cell_volume   632.47882633
_cell_formula_units_Z   1
loop_
 _symmetry_equiv_pos_site_id
 _symmetry_equiv_pos_as_xyz
  1  'x, y, z'
loop_
 _atom_site_type_symbol
 _atom_site_label
 _atom_site_symmetry_multiplicity
 _atom_site_fract_x
 _atom_site_fract_y
 _atom_site_fract_z
 _atom_site_occupancy
  Y  Y0  1  0.807717  0.191102  0.807787  1
  Y  Y1  1  0.190983  0.190155  0.808612  1
  Y  Y2  1  0.807988  0.808189  0.191084  1
  Y  Y3  1  0.940736  0.562122  0.560991  1
  Y  Y4  1  0.559561  0.939633  0.940368  1
  Y  Y5  1  0.561028  0.939836  0.559677  1
  Y  Y6  1  0.941684  0.560169  0.938875  1
  Y  Y7  1  0.560365  0.560007  0.940331  1
  Y  Y8  1  0.942433  0.938999  0.559076  1
  Er  Er9  1  0.348749  0.348514  0.348006  1
  Er  Er10  1  0.348590  0.349436  0.954277  1
  Er  Er11  1  0.349363  0.953119  0.349481  1
  Er  Er12  1  0.953756  0.349517  0.348916  1
  Er  Er13  1  0.807557  0.191264  0.191789  1
  Er  Er14  1  0.189924  0.809813  0.809626  1
  Er  Er15  1  0.190701  0.808761  0.190535  1
  Cd  Cd16  1  0.253942  0.581752  0.581753  1
  In  In17  1  0.581883  0.583345  0.583089  1
  In  In18  1  0.581425  0.583308  0.251718  1
  In  In19  1  0.581387  0.251545  0.583380  1
  Ir  Ir20  1  0.140125  0.140312  0.143441  1
  Ir  Ir21  1  0.143008  0.139872  0.573828  1
  Ir  Ir22  1  0.143704  0.575554  0.140199  1
  Ir  Ir23  1  0.573394  0.143680  0.143166  1
