# generated using pymatgen
data_K8Ti3GeO12
_symmetry_space_group_name_H-M   'P 1'
_cell_length_a   6.41157400
_cell_length_b   6.41157384
_cell_length_c   12.74007400
_cell_angle_alpha   90.00000000
_cell_angle_beta   90.00000000
_cell_angle_gamma   54.73370466
_symmetry_Int_Tables_number   1
_chemical_formula_structural   K8Ti3GeO12
_chemical_formula_sum   'K8 Ti3 Ge1 O12'
_cell_volume   427.60759901
_cell_formula_units_Z   1
loop_
 _symmetry_equiv_pos_site_id
 _symmetry_equiv_pos_as_xyz
  1  'x, y, z'
loop_
 _atom_site_type_symbol
 _atom_site_label
 _atom_site_symmetry_multiplicity
 _atom_site_fract_x
 _atom_site_fract_y
 _atom_site_fract_z
 _atom_site_occupancy
  K  K0  1  0.371019  0.371019  0.075642  1
  K  K1  1  0.053020  0.053020  0.138799  1
  K  K2  1  0.555582  0.555582  0.360435  1
  K  K3  1  0.869348  0.869348  0.424197  1
  K  K4  1  0.131106  0.131106  0.573650  1
  K  K5  1  0.446619  0.446619  0.637890  1
  K  K6  1  0.945425  0.945425  0.863884  1
  K  K7  1  0.631285  0.631285  0.927979  1
  Ti  Ti8  1  0.246217  0.246217  0.330535  1
  Ti  Ti9  1  0.753617  0.753617  0.665348  1
  Ti  Ti10  1  0.253520  0.253520  0.834706  1
  Ge  Ge11  1  0.744480  0.744480  0.164371  1
  O  O12  1  0.838100  0.838100  0.056035  1
  O  O13  1  0.592966  0.592966  0.142192  1
  O  O14  1  0.542592  0.023234  0.248351  1
  O  O15  1  0.023234  0.542592  0.248351  1
  O  O16  1  0.094959  0.094959  0.362668  1
  O  O17  1  0.335064  0.335064  0.445222  1
  O  O18  1  0.664735  0.664735  0.550453  1
  O  O19  1  0.906587  0.906587  0.636214  1
  O  O20  1  0.964564  0.464647  0.749985  1
  O  O21  1  0.464647  0.964564  0.749985  1
  O  O22  1  0.406665  0.406665  0.863745  1
  O  O23  1  0.164648  0.164648  0.949365  1
