# generated using pymatgen
data_Tb8SnPd23Pt
_symmetry_space_group_name_H-M   'P 1'
_cell_length_a   8.42251200
_cell_length_b   8.41752700
_cell_length_c   8.41752700
_cell_angle_alpha   90.00000000
_cell_angle_beta   90.00000000
_cell_angle_gamma   90.00000000
_symmetry_Int_Tables_number   1
_chemical_formula_structural   Tb8SnPd23Pt
_chemical_formula_sum   'Tb8 Sn1 Pd23 Pt1'
_cell_volume   596.77507306
_cell_formula_units_Z   1
loop_
 _symmetry_equiv_pos_site_id
 _symmetry_equiv_pos_as_xyz
  1  'x, y, z'
loop_
 _atom_site_type_symbol
 _atom_site_label
 _atom_site_symmetry_multiplicity
 _atom_site_fract_x
 _atom_site_fract_y
 _atom_site_fract_z
 _atom_site_occupancy
  Tb  Tb0  1  0.252792  0.253043  0.253043  1
  Tb  Tb1  1  0.747220  0.747187  0.747187  1
  Tb  Tb2  1  0.747220  0.747187  0.252813  1
  Tb  Tb3  1  0.747220  0.252813  0.747187  1
  Tb  Tb4  1  0.252792  0.253043  0.746957  1
  Tb  Tb5  1  0.252792  0.746957  0.253043  1
  Tb  Tb6  1  0.252792  0.746957  0.746957  1
  Tb  Tb7  1  0.747220  0.252813  0.252813  1
  Sn  Sn8  1  0.000081  0.000000  0.000000  1
  Pd  Pd9  1  0.265455  0.500000  0.000000  1
  Pd  Pd10  1  0.734553  0.500000  0.000000  1
  Pd  Pd11  1  0.000010  0.265407  0.500000  1
  Pd  Pd12  1  0.500063  0.265403  0.000000  1
  Pd  Pd13  1  0.000010  0.734593  0.500000  1
  Pd  Pd14  1  0.500063  0.734597  0.000000  1
  Pd  Pd15  1  0.500063  0.000000  0.265403  1
  Pd  Pd16  1  0.265455  0.000000  0.500000  1
  Pd  Pd17  1  0.500063  0.000000  0.734597  1
  Pd  Pd18  1  0.734553  0.000000  0.500000  1
  Pd  Pd19  1  0.000010  0.500000  0.265407  1
  Pd  Pd20  1  0.000010  0.500000  0.734593  1
  Pd  Pd21  1  0.745053  0.500000  0.500000  1
  Pd  Pd22  1  0.499979  0.254950  0.500000  1
  Pd  Pd23  1  0.499979  0.745050  0.500000  1
  Pd  Pd24  1  0.499979  0.500000  0.254950  1
  Pd  Pd25  1  0.499979  0.500000  0.745050  1
  Pd  Pd26  1  0.308563  0.000000  0.000000  1
  Pd  Pd27  1  0.691469  0.000000  0.000000  1
  Pd  Pd28  1  0.999926  0.308491  0.000000  1
  Pd  Pd29  1  0.999926  0.691509  0.000000  1
  Pd  Pd30  1  0.999926  0.000000  0.308491  1
  Pd  Pd31  1  0.999926  0.000000  0.691509  1
  Pt  Pt32  1  0.254857  0.500000  0.500000  1
