# generated using pymatgen
data_LuHf4(Re7Tc)3
_symmetry_space_group_name_H-M   'P 1'
_cell_length_a   8.48699831
_cell_length_b   8.48107716
_cell_length_c   8.48107700
_cell_angle_alpha   109.45707029
_cell_angle_beta   109.48535515
_cell_angle_gamma   109.48537097
_symmetry_Int_Tables_number   1
_chemical_formula_structural   LuHf4(Re7Tc)3
_chemical_formula_sum   'Lu1 Hf4 Re21 Tc3'
_cell_volume   469.84914204
_cell_formula_units_Z   1
loop_
 _symmetry_equiv_pos_site_id
 _symmetry_equiv_pos_as_xyz
  1  'x, y, z'
loop_
 _atom_site_type_symbol
 _atom_site_label
 _atom_site_symmetry_multiplicity
 _atom_site_fract_x
 _atom_site_fract_y
 _atom_site_fract_z
 _atom_site_occupancy
  Lu  Lu0  1  0.999757  0.000000  0.000000  1
  Hf  Hf1  1  0.626675  0.000000  0.000000  1
  Hf  Hf2  1  0.999961  0.628302  0.000000  1
  Hf  Hf3  1  0.999961  0.000000  0.628302  1
  Hf  Hf4  1  0.371658  0.371698  0.371698  1
  Re  Re5  1  0.675894  0.395717  0.000000  1
  Re  Re6  1  0.000672  0.396256  0.676556  1
  Re  Re7  1  0.324116  0.719701  0.323444  1
  Re  Re8  1  0.324116  0.323444  0.719701  1
  Re  Re9  1  0.000672  0.676556  0.396256  1
  Re  Re10  1  0.675894  0.000000  0.395717  1
  Re  Re11  1  0.604416  0.603744  0.280299  1
  Re  Re12  1  0.280176  0.604283  0.604283  1
  Re  Re13  1  0.604416  0.280299  0.603744  1
  Re  Re14  1  0.376228  0.194897  0.000000  1
  Re  Re15  1  0.181331  0.805103  0.805103  1
  Re  Re16  1  0.376228  0.000000  0.194897  1
  Re  Re17  1  0.194486  0.377449  0.000000  1
  Re  Re18  1  0.000339  0.376901  0.194079  1
  Re  Re19  1  0.806260  0.182822  0.805921  1
  Re  Re20  1  0.806260  0.805921  0.182822  1
  Re  Re21  1  0.000339  0.194079  0.376901  1
  Re  Re22  1  0.194486  0.000000  0.377449  1
  Re  Re23  1  0.623438  0.623099  0.817178  1
  Re  Re24  1  0.817037  0.622551  0.622551  1
  Re  Re25  1  0.623438  0.817178  0.623099  1
  Tc  Tc26  1  0.396338  0.677268  0.000000  1
  Tc  Tc27  1  0.719072  0.322732  0.322732  1
  Tc  Tc28  1  0.396338  0.000000  0.677268  1
