# generated using pymatgen
data_Sm2Ho2Ni13C4
_symmetry_space_group_name_H-M   'P 1'
_cell_length_a   8.41478786
_cell_length_b   8.41478856
_cell_length_c   3.88367100
_cell_angle_alpha   90.00000000
_cell_angle_beta   90.00000000
_cell_angle_gamma   90.69999787
_symmetry_Int_Tables_number   1
_chemical_formula_structural   Sm2Ho2Ni13C4
_chemical_formula_sum   'Sm2 Ho2 Ni13 C4'
_cell_volume   274.97701870
_cell_formula_units_Z   1
loop_
 _symmetry_equiv_pos_site_id
 _symmetry_equiv_pos_as_xyz
  1  'x, y, z'
loop_
 _atom_site_type_symbol
 _atom_site_label
 _atom_site_symmetry_multiplicity
 _atom_site_fract_x
 _atom_site_fract_y
 _atom_site_fract_z
 _atom_site_occupancy
  Sm  Sm0  1  0.347414  0.347414  0.500000  1
  Sm  Sm1  1  0.652586  0.652586  0.500000  1
  Ho  Ho2  1  0.812926  0.187074  0.500000  1
  Ho  Ho3  1  0.187074  0.812926  0.500000  1
  Ni  Ni4  1  0.000000  0.000000  0.000000  1
  Ni  Ni5  1  0.214558  0.570968  0.000000  1
  Ni  Ni6  1  0.785442  0.429032  0.000000  1
  Ni  Ni7  1  0.429032  0.785442  0.000000  1
  Ni  Ni8  1  0.570968  0.214558  0.000000  1
  Ni  Ni9  1  0.000000  0.500000  0.500000  1
  Ni  Ni10  1  0.500000  0.000000  0.500000  1
  Ni  Ni11  1  0.070618  0.290214  0.000000  1
  Ni  Ni12  1  0.929382  0.709786  0.000000  1
  Ni  Ni13  1  0.709786  0.929382  0.000000  1
  Ni  Ni14  1  0.290214  0.070618  0.000000  1
  Ni  Ni15  1  0.121657  0.121657  0.500000  1
  Ni  Ni16  1  0.878343  0.878343  0.500000  1
  C  C17  1  0.442899  0.557101  0.000000  1
  C  C18  1  0.557101  0.442899  0.000000  1
  C  C19  1  0.000000  0.500000  0.000000  1
  C  C20  1  0.500000  0.000000  0.000000  1
