# generated using pymatgen
data_Lu2SnB2Ir5
_symmetry_space_group_name_H-M   'P 1'
_cell_length_a   3.27692400
_cell_length_b   9.54613700
_cell_length_c   9.54613700
_cell_angle_alpha   90.00000000
_cell_angle_beta   90.00000000
_cell_angle_gamma   90.00000000
_symmetry_Int_Tables_number   1
_chemical_formula_structural   Lu2SnB2Ir5
_chemical_formula_sum   'Lu4 Sn2 B4 Ir10'
_cell_volume   298.62192774
_cell_formula_units_Z   2
loop_
 _symmetry_equiv_pos_site_id
 _symmetry_equiv_pos_as_xyz
  1  'x, y, z'
loop_
 _atom_site_type_symbol
 _atom_site_label
 _atom_site_symmetry_multiplicity
 _atom_site_fract_x
 _atom_site_fract_y
 _atom_site_fract_z
 _atom_site_occupancy
  Lu  Lu0  1  0.000000  0.176353  0.676353  1
  Lu  Lu1  1  0.000000  0.823647  0.323647  1
  Lu  Lu2  1  0.000000  0.323647  0.176353  1
  Lu  Lu3  1  0.000000  0.676353  0.823647  1
  Sn  Sn4  1  0.000000  0.000000  0.000000  1
  Sn  Sn5  1  0.000000  0.500000  0.500000  1
  B  B6  1  0.000000  0.620321  0.120321  1
  B  B7  1  0.000000  0.379679  0.879679  1
  B  B8  1  0.000000  0.879679  0.620321  1
  B  B9  1  0.000000  0.120321  0.379679  1
  Ir  Ir10  1  0.500000  0.070234  0.224165  1
  Ir  Ir11  1  0.500000  0.929766  0.775835  1
  Ir  Ir12  1  0.500000  0.775835  0.070234  1
  Ir  Ir13  1  0.500000  0.429766  0.724165  1
  Ir  Ir14  1  0.500000  0.224165  0.929766  1
  Ir  Ir15  1  0.500000  0.570234  0.275835  1
  Ir  Ir16  1  0.500000  0.724165  0.570234  1
  Ir  Ir17  1  0.500000  0.275835  0.429766  1
  Ir  Ir18  1  0.500000  0.000000  0.500000  1
  Ir  Ir19  1  0.500000  0.500000  0.000000  1
