# generated using pymatgen
data_Pr(Cd2Ag)4
_symmetry_space_group_name_H-M   'P 1'
_cell_length_a   7.58617442
_cell_length_b   7.58617368
_cell_length_c   7.58617438
_cell_angle_alpha   98.29541858
_cell_angle_beta   98.29541260
_cell_angle_gamma   135.35268350
_symmetry_Int_Tables_number   1
_chemical_formula_structural   Pr(Cd2Ag)4
_chemical_formula_sum   'Pr1 Cd8 Ag4'
_cell_volume   283.81164248
_cell_formula_units_Z   1
loop_
 _symmetry_equiv_pos_site_id
 _symmetry_equiv_pos_as_xyz
  1  'x, y, z'
loop_
 _atom_site_type_symbol
 _atom_site_label
 _atom_site_symmetry_multiplicity
 _atom_site_fract_x
 _atom_site_fract_y
 _atom_site_fract_z
 _atom_site_occupancy
  Pr  Pr0  1  0.000000  0.000000  0.000000  1
  Cd  Cd1  1  0.000000  0.344576  0.344576  1
  Cd  Cd2  1  0.000000  0.655424  0.655424  1
  Cd  Cd3  1  0.655424  0.000000  0.655424  1
  Cd  Cd4  1  0.344576  0.000000  0.344576  1
  Cd  Cd5  1  0.500000  0.282936  0.782936  1
  Cd  Cd6  1  0.500000  0.717064  0.217064  1
  Cd  Cd7  1  0.717064  0.500000  0.217064  1
  Cd  Cd8  1  0.282936  0.500000  0.782936  1
  Ag  Ag9  1  0.000000  0.000000  0.500000  1
  Ag  Ag10  1  0.500000  0.500000  0.500000  1
  Ag  Ag11  1  0.500000  0.000000  0.000000  1
  Ag  Ag12  1  0.000000  0.500000  0.000000  1
