# generated using pymatgen
data_Hf8Ti9Si16W3
_symmetry_space_group_name_H-M   'P 1'
_cell_length_a   6.57822301
_cell_length_b   6.72867344
_cell_length_c   12.91979400
_cell_angle_alpha   90.00000000
_cell_angle_beta   90.00000000
_cell_angle_gamma   89.97613233
_symmetry_Int_Tables_number   1
_chemical_formula_structural   Hf8Ti9Si16W3
_chemical_formula_sum   'Hf8 Ti9 Si16 W3'
_cell_volume   571.86510331
_cell_formula_units_Z   1
loop_
 _symmetry_equiv_pos_site_id
 _symmetry_equiv_pos_as_xyz
  1  'x, y, z'
loop_
 _atom_site_type_symbol
 _atom_site_label
 _atom_site_symmetry_multiplicity
 _atom_site_fract_x
 _atom_site_fract_y
 _atom_site_fract_z
 _atom_site_occupancy
  Hf  Hf0  1  0.995314  0.172812  0.093887  1
  Hf  Hf1  1  0.003346  0.827431  0.905869  1
  Hf  Hf2  1  0.502508  0.673987  0.906064  1
  Hf  Hf3  1  0.003346  0.827431  0.594131  1
  Hf  Hf4  1  0.497108  0.327115  0.093514  1
  Hf  Hf5  1  0.995314  0.172812  0.406113  1
  Hf  Hf6  1  0.497108  0.327115  0.406486  1
  Hf  Hf7  1  0.502508  0.673987  0.593936  1
  Ti  Ti8  1  0.162625  0.493461  0.750000  1
  Ti  Ti9  1  0.334841  0.170327  0.624853  1
  Ti  Ti10  1  0.665273  0.830703  0.375350  1
  Ti  Ti11  1  0.165230  0.669772  0.375005  1
  Ti  Ti12  1  0.665273  0.830703  0.124650  1
  Ti  Ti13  1  0.834537  0.328909  0.624715  1
  Ti  Ti14  1  0.334841  0.170327  0.875147  1
  Ti  Ti15  1  0.834537  0.328909  0.875285  1
  Ti  Ti16  1  0.165230  0.669772  0.124995  1
  Si  Si17  1  0.037323  0.117722  0.750000  1
  Si  Si18  1  0.964114  0.882977  0.250000  1
  Si  Si19  1  0.464514  0.616714  0.250000  1
  Si  Si20  1  0.535775  0.383518  0.750000  1
  Si  Si21  1  0.296180  0.860888  0.750000  1
  Si  Si22  1  0.702161  0.138451  0.250000  1
  Si  Si23  1  0.202943  0.360569  0.250000  1
  Si  Si24  1  0.798701  0.637051  0.750000  1
  Si  Si25  1  0.170121  0.461831  0.538397  1
  Si  Si26  1  0.830478  0.538718  0.461345  1
  Si  Si27  1  0.329418  0.961905  0.461441  1
  Si  Si28  1  0.830478  0.538718  0.038655  1
  Si  Si29  1  0.670313  0.038646  0.539011  1
  Si  Si30  1  0.170121  0.461831  0.961603  1
  Si  Si31  1  0.670313  0.038646  0.960989  1
  Si  Si32  1  0.329418  0.961905  0.038559  1
  W  W33  1  0.838429  0.505585  0.250000  1
  W  W34  1  0.338083  0.993832  0.250000  1
  W  W35  1  0.662182  0.004920  0.750000  1
