# generated using pymatgen
data_ErLu3(CrB4)4
_symmetry_space_group_name_H-M   'P 1'
_cell_length_a   3.39922000
_cell_length_b   5.88062967
_cell_length_c   11.35315331
_cell_angle_alpha   89.94511336
_cell_angle_beta   90.00000000
_cell_angle_gamma   90.00000000
_symmetry_Int_Tables_number   1
_chemical_formula_structural   ErLu3(CrB4)4
_chemical_formula_sum   'Er1 Lu3 Cr4 B16'
_cell_volume   226.94436690
_cell_formula_units_Z   1
loop_
 _symmetry_equiv_pos_site_id
 _symmetry_equiv_pos_as_xyz
  1  'x, y, z'
loop_
 _atom_site_type_symbol
 _atom_site_label
 _atom_site_symmetry_multiplicity
 _atom_site_fract_x
 _atom_site_fract_y
 _atom_site_fract_z
 _atom_site_occupancy
  Er  Er0  1  0.000000  0.625290  0.349440  1
  Lu  Lu1  1  0.000000  0.374706  0.650595  1
  Lu  Lu2  1  0.000000  0.125379  0.150217  1
  Lu  Lu3  1  0.000000  0.874648  0.849482  1
  Cr  Cr4  1  0.000000  0.623380  0.079446  1
  Cr  Cr5  1  0.000000  0.376511  0.919704  1
  Cr  Cr6  1  0.000000  0.123492  0.420405  1
  Cr  Cr7  1  0.000000  0.876783  0.580507  1
  B  B8  1  0.500000  0.782928  0.183943  1
  B  B9  1  0.500000  0.217283  0.815279  1
  B  B10  1  0.500000  0.281620  0.315329  1
  B  B11  1  0.500000  0.717306  0.684941  1
  B  B12  1  0.500000  0.864559  0.031947  1
  B  B13  1  0.500000  0.135489  0.967379  1
  B  B14  1  0.500000  0.364063  0.468262  1
  B  B15  1  0.500000  0.635835  0.533045  1
  B  B16  1  0.500000  0.886920  0.453227  1
  B  B17  1  0.500000  0.114307  0.548056  1
  B  B18  1  0.500000  0.385643  0.047133  1
  B  B19  1  0.500000  0.614168  0.952237  1
  B  B20  1  0.500000  0.976255  0.307207  1
  B  B21  1  0.500000  0.024241  0.693169  1
  B  B22  1  0.500000  0.474990  0.192063  1
  B  B23  1  0.500000  0.524201  0.806987  1
