# generated using pymatgen
data_Eu2Sn4IrRh3
_symmetry_space_group_name_H-M   'P 1'
_cell_length_a   4.52950700
_cell_length_b   4.52950700
_cell_length_c   10.90498100
_cell_angle_alpha   90.00000000
_cell_angle_beta   90.00000000
_cell_angle_gamma   90.00000000
_symmetry_Int_Tables_number   1
_chemical_formula_structural   Eu2Sn4IrRh3
_chemical_formula_sum   'Eu2 Sn4 Ir1 Rh3'
_cell_volume   223.73131928
_cell_formula_units_Z   1
loop_
 _symmetry_equiv_pos_site_id
 _symmetry_equiv_pos_as_xyz
  1  'x, y, z'
loop_
 _atom_site_type_symbol
 _atom_site_label
 _atom_site_symmetry_multiplicity
 _atom_site_fract_x
 _atom_site_fract_y
 _atom_site_fract_z
 _atom_site_occupancy
  Eu  Eu0  1  0.000000  0.499999  0.244509  1
  Eu  Eu1  1  0.499999  0.000000  0.753364  1
  Sn  Sn2  1  0.499999  0.000000  0.127222  1
  Sn  Sn3  1  0.000000  0.000000  0.499102  1
  Sn  Sn4  1  0.499999  0.499999  0.499102  1
  Sn  Sn5  1  0.000000  0.499999  0.873962  1
  Ir  Ir6  1  0.000000  0.499999  0.633124  1
  Rh  Rh7  1  0.000000  0.000000  0.000429  1
  Rh  Rh8  1  0.499999  0.499999  0.000429  1
  Rh  Rh9  1  0.499999  0.000000  0.368756  1
