# generated using pymatgen
data_Hf3Zr(ScSb)6
_symmetry_space_group_name_H-M   'P 1'
_cell_length_a   8.51275300
_cell_length_b   8.51275208
_cell_length_c   5.80738100
_cell_angle_alpha   90.00000000
_cell_angle_beta   90.00000000
_cell_angle_gamma   120.00000747
_symmetry_Int_Tables_number   1
_chemical_formula_structural   Hf3Zr(ScSb)6
_chemical_formula_sum   'Hf3 Zr1 Sc6 Sb6'
_cell_volume   364.46089395
_cell_formula_units_Z   1
loop_
 _symmetry_equiv_pos_site_id
 _symmetry_equiv_pos_as_xyz
  1  'x, y, z'
loop_
 _atom_site_type_symbol
 _atom_site_label
 _atom_site_symmetry_multiplicity
 _atom_site_fract_x
 _atom_site_fract_y
 _atom_site_fract_z
 _atom_site_occupancy
  Hf  Hf0  1  0.666667  0.333333  0.000000  1
  Hf  Hf1  1  0.333333  0.666667  0.000000  1
  Hf  Hf2  1  0.333333  0.666667  0.500000  1
  Zr  Zr3  1  0.666667  0.333333  0.500000  1
  Sc  Sc4  1  0.747685  0.747734  0.750024  1
  Sc  Sc5  1  0.252266  0.999950  0.750024  1
  Sc  Sc6  1  0.000050  0.252315  0.750024  1
  Sc  Sc7  1  0.252266  0.252315  0.249976  1
  Sc  Sc8  1  0.747685  0.999950  0.249976  1
  Sc  Sc9  1  0.000050  0.747734  0.249976  1
  Sb  Sb10  1  0.384302  0.384746  0.750454  1
  Sb  Sb11  1  0.615254  0.999555  0.750454  1
  Sb  Sb12  1  0.000445  0.615698  0.750454  1
  Sb  Sb13  1  0.615254  0.615698  0.249546  1
  Sb  Sb14  1  0.384302  0.999555  0.249546  1
  Sb  Sb15  1  0.000445  0.384746  0.249546  1
