# generated using pymatgen
data_LaB2OsRh
_symmetry_space_group_name_H-M   'P 1'
_cell_length_a   6.99976672
_cell_length_b   6.11859865
_cell_length_c   5.64759754
_cell_angle_alpha   72.88739985
_cell_angle_beta   56.65919144
_cell_angle_gamma   50.45340104
_symmetry_Int_Tables_number   1
_chemical_formula_structural   LaB2OsRh
_chemical_formula_sum   'La2 B4 Os2 Rh2'
_cell_volume   155.23426368
_cell_formula_units_Z   2
loop_
 _symmetry_equiv_pos_site_id
 _symmetry_equiv_pos_as_xyz
  1  'x, y, z'
loop_
 _atom_site_type_symbol
 _atom_site_label
 _atom_site_symmetry_multiplicity
 _atom_site_fract_x
 _atom_site_fract_y
 _atom_site_fract_z
 _atom_site_occupancy
  La  La0  1  0.000000  0.000000  0.000000  1
  La  La1  1  0.250000  0.250000  0.250000  1
  B  B2  1  0.312884  0.687116  0.312884  1
  B  B3  1  0.687116  0.312884  0.687116  1
  B  B4  1  0.580317  0.919683  0.580317  1
  B  B5  1  0.919683  0.580317  0.919683  1
  Os  Os6  1  0.614579  0.614579  0.885421  1
  Os  Os7  1  0.885421  0.885421  0.614579  1
  Rh  Rh8  1  0.632983  0.632983  0.367017  1
  Rh  Rh9  1  0.367017  0.367017  0.632983  1
