# generated using pymatgen
data_La6PrPa(ZnRh)8
_symmetry_space_group_name_H-M   'P 1'
_cell_length_a   4.00345600
_cell_length_b   7.45502724
_cell_length_c   16.70412146
_cell_angle_alpha   89.39865960
_cell_angle_beta   90.00000000
_cell_angle_gamma   90.00000000
_symmetry_Int_Tables_number   1
_chemical_formula_structural   La6PrPa(ZnRh)8
_chemical_formula_sum   'La6 Pr1 Pa1 Zn8 Rh8'
_cell_volume   498.52163901
_cell_formula_units_Z   1
loop_
 _symmetry_equiv_pos_site_id
 _symmetry_equiv_pos_as_xyz
  1  'x, y, z'
loop_
 _atom_site_type_symbol
 _atom_site_label
 _atom_site_symmetry_multiplicity
 _atom_site_fract_x
 _atom_site_fract_y
 _atom_site_fract_z
 _atom_site_occupancy
  La  La0  1  0.750000  0.948101  0.283297  1
  La  La1  1  0.750000  0.821532  0.060096  1
  La  La2  1  0.250000  0.049535  0.715455  1
  La  La3  1  0.250000  0.170867  0.939915  1
  La  La4  1  0.250000  0.549273  0.783702  1
  La  La5  1  0.250000  0.673737  0.559427  1
  Pr  Pr6  1  0.750000  0.332867  0.439639  1
  Pa  Pa7  1  0.750000  0.443887  0.214904  1
  Zn  Zn8  1  0.250000  0.005969  0.439712  1
  Zn  Zn9  1  0.750000  0.502418  0.941003  1
  Zn  Zn10  1  0.750000  0.005811  0.558465  1
  Zn  Zn11  1  0.250000  0.621007  0.350845  1
  Zn  Zn12  1  0.750000  0.376451  0.649915  1
  Zn  Zn13  1  0.750000  0.878499  0.849804  1
  Zn  Zn14  1  0.250000  0.497051  0.057980  1
  Zn  Zn15  1  0.250000  0.122377  0.151379  1
  Rh  Rh16  1  0.250000  0.244838  0.566106  1
  Rh  Rh17  1  0.750000  0.268807  0.075318  1
  Rh  Rh18  1  0.250000  0.266240  0.300361  1
  Rh  Rh19  1  0.750000  0.254601  0.817666  1
  Rh  Rh20  1  0.250000  0.747950  0.935491  1
  Rh  Rh21  1  0.750000  0.753292  0.685478  1
  Rh  Rh22  1  0.750000  0.763912  0.433687  1
  Rh  Rh23  1  0.250000  0.700976  0.190355  1
