# generated using pymatgen
data_DyYEr3CoSb2
_symmetry_space_group_name_H-M   'P 1'
_cell_length_a   7.85244200
_cell_length_b   8.73510000
_cell_length_c   12.11939300
_cell_angle_alpha   90.00000000
_cell_angle_beta   90.00000000
_cell_angle_gamma   90.00000000
_symmetry_Int_Tables_number   1
_chemical_formula_structural   DyYEr3CoSb2
_chemical_formula_sum   'Dy4 Y4 Er12 Co4 Sb8'
_cell_volume   831.29178204
_cell_formula_units_Z   4
loop_
 _symmetry_equiv_pos_site_id
 _symmetry_equiv_pos_as_xyz
  1  'x, y, z'
loop_
 _atom_site_type_symbol
 _atom_site_label
 _atom_site_symmetry_multiplicity
 _atom_site_fract_x
 _atom_site_fract_y
 _atom_site_fract_z
 _atom_site_occupancy
  Dy  Dy0  1  0.621324  0.750000  0.307148  1
  Dy  Dy1  1  0.878676  0.750000  0.807148  1
  Dy  Dy2  1  0.378676  0.250000  0.692852  1
  Dy  Dy3  1  0.121324  0.250000  0.192852  1
  Y  Y4  1  0.155578  0.750000  0.204023  1
  Y  Y5  1  0.344422  0.750000  0.704023  1
  Y  Y6  1  0.844422  0.250000  0.795977  1
  Y  Y7  1  0.655578  0.250000  0.295977  1
  Er  Er8  1  0.453286  0.750000  0.998374  1
  Er  Er9  1  0.046714  0.750000  0.498374  1
  Er  Er10  1  0.546714  0.250000  0.001626  1
  Er  Er11  1  0.953286  0.250000  0.501626  1
  Er  Er12  1  0.822208  0.535971  0.064815  1
  Er  Er13  1  0.677792  0.964029  0.564815  1
  Er  Er14  1  0.177792  0.035971  0.935185  1
  Er  Er15  1  0.322208  0.464029  0.435185  1
  Er  Er16  1  0.177792  0.464029  0.935185  1
  Er  Er17  1  0.322208  0.035971  0.435185  1
  Er  Er18  1  0.822208  0.964029  0.064815  1
  Er  Er19  1  0.677792  0.535971  0.564815  1
  Co  Co20  1  0.433632  0.750000  0.489869  1
  Co  Co21  1  0.066368  0.750000  0.989869  1
  Co  Co22  1  0.566368  0.250000  0.510131  1
  Co  Co23  1  0.933632  0.250000  0.010131  1
  Sb  Sb24  1  0.929079  0.508753  0.327974  1
  Sb  Sb25  1  0.570921  0.991247  0.827974  1
  Sb  Sb26  1  0.070921  0.008753  0.672026  1
  Sb  Sb27  1  0.429079  0.491247  0.172026  1
  Sb  Sb28  1  0.070921  0.491247  0.672026  1
  Sb  Sb29  1  0.429079  0.008753  0.172026  1
  Sb  Sb30  1  0.929079  0.991247  0.327974  1
  Sb  Sb31  1  0.570921  0.508753  0.827974  1
