# generated using pymatgen
data_Nd3Os2O9
_symmetry_space_group_name_H-M   'P 1'
_cell_length_a   5.64730334
_cell_length_b   6.82145017
_cell_length_c   11.09508960
_cell_angle_alpha   76.97903504
_cell_angle_beta   75.19900246
_cell_angle_gamma   69.27434705
_symmetry_Int_Tables_number   1
_chemical_formula_structural   Nd3Os2O9
_chemical_formula_sum   'Nd6 Os4 O18'
_cell_volume   382.16473160
_cell_formula_units_Z   2
loop_
 _symmetry_equiv_pos_site_id
 _symmetry_equiv_pos_as_xyz
  1  'x, y, z'
loop_
 _atom_site_type_symbol
 _atom_site_label
 _atom_site_symmetry_multiplicity
 _atom_site_fract_x
 _atom_site_fract_y
 _atom_site_fract_z
 _atom_site_occupancy
  Nd  Nd0  1  0.006707  0.220667  0.269873  1
  Nd  Nd1  1  0.993293  0.779333  0.730127  1
  Nd  Nd2  1  0.228509  0.158046  0.882451  1
  Nd  Nd3  1  0.771491  0.841954  0.117549  1
  Nd  Nd4  1  0.280317  0.596501  0.377845  1
  Nd  Nd5  1  0.719683  0.403499  0.622155  1
  Os  Os6  1  0.510886  0.390549  0.089408  1
  Os  Os7  1  0.489114  0.609451  0.910592  1
  Os  Os8  1  0.357418  0.126912  0.569980  1
  Os  Os9  1  0.642582  0.873088  0.430020  1
  O  O10  1  0.303895  0.418070  0.590032  1
  O  O11  1  0.696105  0.581930  0.409968  1
  O  O12  1  0.587549  0.057385  0.691172  1
  O  O13  1  0.412451  0.942615  0.308828  1
  O  O14  1  0.856914  0.187090  0.062375  1
  O  O15  1  0.143086  0.812910  0.937625  1
  O  O16  1  0.384879  0.170157  0.071089  1
  O  O17  1  0.615121  0.829843  0.928911  1
  O  O18  1  0.063415  0.118431  0.712955  1
  O  O19  1  0.936585  0.881569  0.287045  1
  O  O20  1  0.176873  0.509029  0.192266  1
  O  O21  1  0.823127  0.490971  0.807734  1
  O  O22  1  0.105569  0.253329  0.460374  1
  O  O23  1  0.894431  0.746671  0.539626  1
  O  O24  1  0.641602  0.523035  0.184853  1
  O  O25  1  0.358398  0.476965  0.815147  1
  O  O26  1  0.626464  0.182111  0.418855  1
  O  O27  1  0.373536  0.817889  0.581145  1
