# generated using pymatgen
data_Er3Zn2Cd3Pd
_symmetry_space_group_name_H-M   'P 1'
_cell_length_a   7.77737000
_cell_length_b   7.77736764
_cell_length_c   3.74402300
_cell_angle_alpha   90.00000000
_cell_angle_beta   90.00000000
_cell_angle_gamma   119.99998452
_symmetry_Int_Tables_number   1
_chemical_formula_structural   Er3Zn2Cd3Pd
_chemical_formula_sum   'Er3 Zn2 Cd3 Pd1'
_cell_volume   196.12574064
_cell_formula_units_Z   1
loop_
 _symmetry_equiv_pos_site_id
 _symmetry_equiv_pos_as_xyz
  1  'x, y, z'
loop_
 _atom_site_type_symbol
 _atom_site_label
 _atom_site_symmetry_multiplicity
 _atom_site_fract_x
 _atom_site_fract_y
 _atom_site_fract_z
 _atom_site_occupancy
  Er  Er0  1  0.399970  0.417272  0.000000  1
  Er  Er1  1  0.582728  0.982698  0.000000  1
  Er  Er2  1  0.017302  0.600030  0.000000  1
  Zn  Zn3  1  0.000000  0.000000  0.000000  1
  Zn  Zn4  1  0.666667  0.333333  0.500000  1
  Cd  Cd5  1  0.742121  0.732090  0.500000  1
  Cd  Cd6  1  0.267910  0.010031  0.500000  1
  Cd  Cd7  1  0.989969  0.257879  0.500000  1
  Pd  Pd8  1  0.333333  0.666667  0.500000  1
