# generated using pymatgen
data_Tb3ZrAl18(Pd2Ru)2
_symmetry_space_group_name_H-M   'P 1'
_cell_length_a   7.59219784
_cell_length_b   7.58887493
_cell_length_c   9.44915600
_cell_angle_alpha   90.00000000
_cell_angle_beta   90.00000000
_cell_angle_gamma   119.50623541
_symmetry_Int_Tables_number   1
_chemical_formula_structural   Tb3ZrAl18(Pd2Ru)2
_chemical_formula_sum   'Tb3 Zr1 Al18 Pd4 Ru2'
_cell_volume   473.81408126
_cell_formula_units_Z   1
loop_
 _symmetry_equiv_pos_site_id
 _symmetry_equiv_pos_as_xyz
  1  'x, y, z'
loop_
 _atom_site_type_symbol
 _atom_site_label
 _atom_site_symmetry_multiplicity
 _atom_site_fract_x
 _atom_site_fract_y
 _atom_site_fract_z
 _atom_site_occupancy
  Tb  Tb0  1  0.005577  0.329932  0.750000  1
  Tb  Tb1  1  0.668553  0.994740  0.250000  1
  Tb  Tb2  1  0.330163  0.005526  0.750000  1
  Zr  Zr3  1  0.994952  0.667318  0.250000  1
  Al  Al4  1  0.121343  0.118745  0.250000  1
  Al  Al5  1  0.875664  0.873707  0.750000  1
  Al  Al6  1  0.000119  0.333051  0.078781  1
  Al  Al7  1  0.999936  0.670493  0.930305  1
  Al  Al8  1  0.999936  0.670493  0.569695  1
  Al  Al9  1  0.325757  0.996398  0.420404  1
  Al  Al10  1  0.000119  0.333051  0.421219  1
  Al  Al11  1  0.670355  0.999227  0.574983  1
  Al  Al12  1  0.670355  0.999227  0.925017  1
  Al  Al13  1  0.325757  0.996398  0.079596  1
  Al  Al14  1  0.328998  0.329241  0.551045  1
  Al  Al15  1  0.675173  0.671836  0.441394  1
  Al  Al16  1  0.675173  0.671836  0.058606  1
  Al  Al17  1  0.328998  0.329241  0.948955  1
  Al  Al18  1  0.337253  0.547116  0.250000  1
  Al  Al19  1  0.659331  0.455223  0.750000  1
  Al  Al20  1  0.553094  0.346646  0.250000  1
  Al  Al21  1  0.452241  0.658148  0.750000  1
  Pd  Pd22  1  0.672304  0.327536  0.000660  1
  Pd  Pd23  1  0.328386  0.673114  0.001199  1
  Pd  Pd24  1  0.328386  0.673114  0.498801  1
  Pd  Pd25  1  0.672304  0.327536  0.499340  1
  Ru  Ru26  1  0.999885  0.000555  0.000937  1
  Ru  Ru27  1  0.999885  0.000555  0.499063  1
