# generated using pymatgen
data_Er3Zr2Sn3
_symmetry_space_group_name_H-M   'P 1'
_cell_length_a   8.78648000
_cell_length_b   8.78648010
_cell_length_c   6.10079400
_cell_angle_alpha   90.00000000
_cell_angle_beta   90.00000000
_cell_angle_gamma   119.99999964
_symmetry_Int_Tables_number   1
_chemical_formula_structural   Er3Zr2Sn3
_chemical_formula_sum   'Er6 Zr4 Sn6'
_cell_volume   407.89355989
_cell_formula_units_Z   2
loop_
 _symmetry_equiv_pos_site_id
 _symmetry_equiv_pos_as_xyz
  1  'x, y, z'
loop_
 _atom_site_type_symbol
 _atom_site_label
 _atom_site_symmetry_multiplicity
 _atom_site_fract_x
 _atom_site_fract_y
 _atom_site_fract_z
 _atom_site_occupancy
  Er  Er0  1  0.000000  0.759713  0.750000  1
  Er  Er1  1  0.000000  0.240287  0.250000  1
  Er  Er2  1  0.759713  0.759713  0.250000  1
  Er  Er3  1  0.759713  0.000000  0.750000  1
  Er  Er4  1  0.240287  0.240287  0.750000  1
  Er  Er5  1  0.240287  0.000000  0.250000  1
  Zr  Zr6  1  0.333333  0.666667  0.500000  1
  Zr  Zr7  1  0.666667  0.333333  0.000000  1
  Zr  Zr8  1  0.666667  0.333333  0.500000  1
  Zr  Zr9  1  0.333333  0.666667  0.000000  1
  Sn  Sn10  1  0.399928  0.000000  0.750000  1
  Sn  Sn11  1  0.399928  0.399928  0.250000  1
  Sn  Sn12  1  0.000000  0.600072  0.250000  1
  Sn  Sn13  1  0.000000  0.399928  0.750000  1
  Sn  Sn14  1  0.600072  0.600072  0.750000  1
  Sn  Sn15  1  0.600072  0.000000  0.250000  1
