# generated using pymatgen
data_SnAs4PtO14
_symmetry_space_group_name_H-M   'P 1'
_cell_length_a   5.09990620
_cell_length_b   8.34931583
_cell_length_c   7.40454984
_cell_angle_alpha   90.35653756
_cell_angle_beta   106.33779727
_cell_angle_gamma   90.57956234
_symmetry_Int_Tables_number   1
_chemical_formula_structural   SnAs4PtO14
_chemical_formula_sum   'Sn1 As4 Pt1 O14'
_cell_volume   302.53065414
_cell_formula_units_Z   1
loop_
 _symmetry_equiv_pos_site_id
 _symmetry_equiv_pos_as_xyz
  1  'x, y, z'
loop_
 _atom_site_type_symbol
 _atom_site_label
 _atom_site_symmetry_multiplicity
 _atom_site_fract_x
 _atom_site_fract_y
 _atom_site_fract_z
 _atom_site_occupancy
  Sn  Sn0  1  0.222231  0.506102  0.734647  1
  As  As1  1  0.394274  0.181851  0.501358  1
  As  As2  1  0.217078  0.783172  0.103526  1
  As  As3  1  0.771503  0.264805  0.902922  1
  As  As4  1  0.611578  0.688537  0.491484  1
  Pt  Pt5  1  0.779685  0.005610  0.270716  1
  O  O6  1  0.049593  0.311314  0.827995  1
  O  O7  1  0.107492  0.677331  0.898517  1
  O  O8  1  0.151305  0.031752  0.459337  1
  O  O9  1  0.294326  0.375023  0.512335  1
  O  O10  1  0.421352  0.693548  0.647196  1
  O  O11  1  0.586432  0.430009  0.926079  1
  O  O12  1  0.570552  0.124635  0.737658  1
  O  O13  1  0.412160  0.637069  0.258753  1
  O  O14  1  0.405281  0.954215  0.088687  1
  O  O15  1  0.616277  0.197622  0.363377  1
  O  O16  1  0.702064  0.887902  0.486127  1
  O  O17  1  0.858569  0.548674  0.528630  1
  O  O18  1  0.914572  0.154286  0.099507  1
  O  O19  1  0.918977  0.810103  0.165754  1
