# generated using pymatgen
data_Pa2CuRh5
_symmetry_space_group_name_H-M   'P 1'
_cell_length_a   4.09697500
_cell_length_b   5.71605900
_cell_length_c   11.38087200
_cell_angle_alpha   90.00000000
_cell_angle_beta   90.00000000
_cell_angle_gamma   90.00000000
_symmetry_Int_Tables_number   1
_chemical_formula_structural   Pa2CuRh5
_chemical_formula_sum   'Pa4 Cu2 Rh10'
_cell_volume   266.52352933
_cell_formula_units_Z   2
loop_
 _symmetry_equiv_pos_site_id
 _symmetry_equiv_pos_as_xyz
  1  'x, y, z'
loop_
 _atom_site_type_symbol
 _atom_site_label
 _atom_site_symmetry_multiplicity
 _atom_site_fract_x
 _atom_site_fract_y
 _atom_site_fract_z
 _atom_site_occupancy
  Pa  Pa0  1  0.500000  0.227363  0.629589  1
  Pa  Pa1  1  0.500000  0.772637  0.370411  1
  Pa  Pa2  1  0.500000  0.727363  0.870411  1
  Pa  Pa3  1  0.500000  0.272637  0.129589  1
  Cu  Cu4  1  0.000000  0.500000  0.500000  1
  Cu  Cu5  1  0.000000  0.000000  0.000000  1
  Rh  Rh6  1  0.500000  0.228539  0.882149  1
  Rh  Rh7  1  0.500000  0.771461  0.117851  1
  Rh  Rh8  1  0.500000  0.728539  0.617851  1
  Rh  Rh9  1  0.500000  0.271461  0.382149  1
  Rh  Rh10  1  0.000000  0.472615  0.744230  1
  Rh  Rh11  1  0.000000  0.527385  0.255770  1
  Rh  Rh12  1  0.000000  0.000000  0.500000  1
  Rh  Rh13  1  0.000000  0.500000  0.000000  1
  Rh  Rh14  1  0.000000  0.027385  0.244230  1
  Rh  Rh15  1  0.000000  0.972615  0.755770  1
