# generated using pymatgen
data_Lu3Sn3Ru2Au
_symmetry_space_group_name_H-M   'P 1'
_cell_length_a   7.74067400
_cell_length_b   7.74067408
_cell_length_c   3.63067800
_cell_angle_alpha   90.00000000
_cell_angle_beta   90.00000000
_cell_angle_gamma   119.99999110
_symmetry_Int_Tables_number   1
_chemical_formula_structural   Lu3Sn3Ru2Au
_chemical_formula_sum   'Lu3 Sn3 Ru2 Au1'
_cell_volume   188.39785934
_cell_formula_units_Z   1
loop_
 _symmetry_equiv_pos_site_id
 _symmetry_equiv_pos_as_xyz
  1  'x, y, z'
loop_
 _atom_site_type_symbol
 _atom_site_label
 _atom_site_symmetry_multiplicity
 _atom_site_fract_x
 _atom_site_fract_y
 _atom_site_fract_z
 _atom_site_occupancy
  Lu  Lu0  1  0.406515  0.387949  0.500000  1
  Lu  Lu1  1  0.612051  0.018566  0.500000  1
  Lu  Lu2  1  0.981434  0.593485  0.500000  1
  Sn  Sn3  1  0.736604  0.729715  0.000000  1
  Sn  Sn4  1  0.270285  0.006890  0.000000  1
  Sn  Sn5  1  0.993110  0.263396  0.000000  1
  Ru  Ru6  1  0.666667  0.333333  0.000000  1
  Ru  Ru7  1  0.000000  0.000000  0.500000  1
  Au  Au8  1  0.333333  0.666667  0.000000  1
