# generated using pymatgen
data_Zr3MnAs2Ru3
_symmetry_space_group_name_H-M   'P 1'
_cell_length_a   6.66231300
_cell_length_b   6.66231249
_cell_length_c   3.88672400
_cell_angle_alpha   90.00000000
_cell_angle_beta   90.00000000
_cell_angle_gamma   119.99999759
_symmetry_Int_Tables_number   1
_chemical_formula_structural   Zr3MnAs2Ru3
_chemical_formula_sum   'Zr3 Mn1 As2 Ru3'
_cell_volume   149.40473973
_cell_formula_units_Z   1
loop_
 _symmetry_equiv_pos_site_id
 _symmetry_equiv_pos_as_xyz
  1  'x, y, z'
loop_
 _atom_site_type_symbol
 _atom_site_label
 _atom_site_symmetry_multiplicity
 _atom_site_fract_x
 _atom_site_fract_y
 _atom_site_fract_z
 _atom_site_occupancy
  Zr  Zr0  1  0.402195  0.402195  0.500000  1
  Zr  Zr1  1  0.597805  0.000000  0.500000  1
  Zr  Zr2  1  0.000000  0.597805  0.500000  1
  Mn  Mn3  1  0.000000  0.000000  0.500000  1
  As  As4  1  0.666667  0.333333  0.000000  1
  As  As5  1  0.333333  0.666667  0.000000  1
  Ru  Ru6  1  0.000000  0.237848  0.000000  1
  Ru  Ru7  1  0.237848  0.000000  0.000000  1
  Ru  Ru8  1  0.762152  0.762152  0.000000  1
