# generated using pymatgen
data_Dy4Al4Ir3Au
_symmetry_space_group_name_H-M   'P 1'
_cell_length_a   4.34048400
_cell_length_b   6.86439606
_cell_length_c   7.90531425
_cell_angle_alpha   89.95383032
_cell_angle_beta   90.00000000
_cell_angle_gamma   90.00000000
_symmetry_Int_Tables_number   1
_chemical_formula_structural   Dy4Al4Ir3Au
_chemical_formula_sum   'Dy4 Al4 Ir3 Au1'
_cell_volume   235.53719047
_cell_formula_units_Z   1
loop_
 _symmetry_equiv_pos_site_id
 _symmetry_equiv_pos_as_xyz
  1  'x, y, z'
loop_
 _atom_site_type_symbol
 _atom_site_label
 _atom_site_symmetry_multiplicity
 _atom_site_fract_x
 _atom_site_fract_y
 _atom_site_fract_z
 _atom_site_occupancy
  Dy  Dy0  1  0.250000  0.024839  0.326065  1
  Dy  Dy1  1  0.250000  0.541489  0.182879  1
  Dy  Dy2  1  0.750000  0.969587  0.678933  1
  Dy  Dy3  1  0.750000  0.476269  0.812962  1
  Al  Al4  1  0.250000  0.135695  0.930941  1
  Al  Al5  1  0.250000  0.641575  0.562583  1
  Al  Al6  1  0.750000  0.847384  0.060916  1
  Al  Al7  1  0.750000  0.364406  0.444373  1
  Ir  Ir8  1  0.250000  0.268364  0.618336  1
  Ir  Ir9  1  0.250000  0.766095  0.881705  1
  Ir  Ir10  1  0.750000  0.734137  0.379727  1
  Au  Au11  1  0.750000  0.230161  0.120581  1
