# generated using pymatgen
data_K2(ZrTe2)5
_symmetry_space_group_name_H-M   'P 1'
_cell_length_a   6.93247652
_cell_length_b   12.13825345
_cell_length_c   9.92525267
_cell_angle_alpha   56.78345153
_cell_angle_beta   69.69484570
_cell_angle_gamma   90.01131129
_symmetry_Int_Tables_number   1
_chemical_formula_structural   K2(ZrTe2)5
_chemical_formula_sum   'K2 Zr5 Te10'
_cell_volume   635.74046661
_cell_formula_units_Z   1
loop_
 _symmetry_equiv_pos_site_id
 _symmetry_equiv_pos_as_xyz
  1  'x, y, z'
loop_
 _atom_site_type_symbol
 _atom_site_label
 _atom_site_symmetry_multiplicity
 _atom_site_fract_x
 _atom_site_fract_y
 _atom_site_fract_z
 _atom_site_occupancy
  K  K0  1  0.787854  0.076515  0.423598  1
  K  K1  1  0.012146  0.523485  0.976402  1
  Zr  Zr2  1  0.400000  0.800000  0.200000  1
  Zr  Zr3  1  0.802459  0.599510  0.398992  1
  Zr  Zr4  1  0.198055  0.400332  0.598463  1
  Zr  Zr5  1  0.601945  0.199668  0.801537  1
  Zr  Zr6  1  0.997541  0.000490  0.001008  1
  Te  Te7  1  0.987752  0.836770  0.359275  1
  Te  Te8  1  0.583805  0.039402  0.159282  1
  Te  Te9  1  0.186599  0.240191  0.958512  1
  Te  Te10  1  0.785244  0.439702  0.757465  1
  Te  Te11  1  0.390901  0.639755  0.554948  1
  Te  Te12  1  0.409099  0.960245  0.845052  1
  Te  Te13  1  0.014756  0.160298  0.642535  1
  Te  Te14  1  0.613401  0.359809  0.441488  1
  Te  Te15  1  0.216195  0.560598  0.240718  1
  Te  Te16  1  0.812248  0.763230  0.040725  1
