# generated using pymatgen
data_RbSmPaSe6
_symmetry_space_group_name_H-M   'P 1'
_cell_length_a   11.86822057
_cell_length_b   11.86822081
_cell_length_c   11.86822000
_cell_angle_alpha   159.59086639
_cell_angle_beta   152.56514192
_cell_angle_gamma   34.43566540
_symmetry_Int_Tables_number   1
_chemical_formula_structural   RbSmPaSe6
_chemical_formula_sum   'Rb1 Sm1 Pa1 Se6'
_cell_volume   268.33146082
_cell_formula_units_Z   1
loop_
 _symmetry_equiv_pos_site_id
 _symmetry_equiv_pos_as_xyz
  1  'x, y, z'
loop_
 _atom_site_type_symbol
 _atom_site_label
 _atom_site_symmetry_multiplicity
 _atom_site_fract_x
 _atom_site_fract_y
 _atom_site_fract_z
 _atom_site_occupancy
  Rb  Rb0  1  0.000208  0.000208  0.000000  1
  Sm  Sm1  1  0.315424  0.815424  0.500000  1
  Pa  Pa2  1  0.679725  0.179725  0.500000  1
  Se  Se3  1  0.766874  0.766874  0.000000  1
  Se  Se4  1  0.863799  0.614386  0.249414  1
  Se  Se5  1  0.177293  0.393296  0.783995  1
  Se  Se6  1  0.222405  0.222405  0.000000  1
  Se  Se7  1  0.364972  0.614386  0.750586  1
  Se  Se8  1  0.609301  0.393296  0.216005  1
