# generated using pymatgen
data_Cs2NaPO4
_symmetry_space_group_name_H-M   'P 1'
_cell_length_a   7.10936429
_cell_length_b   7.10936354
_cell_length_c   8.32921300
_cell_angle_alpha   90.00000000
_cell_angle_beta   90.00000000
_cell_angle_gamma   128.87240984
_symmetry_Int_Tables_number   1
_chemical_formula_structural   Cs2NaPO4
_chemical_formula_sum   'Cs4 Na2 P2 O8'
_cell_volume   327.75507771
_cell_formula_units_Z   2
loop_
 _symmetry_equiv_pos_site_id
 _symmetry_equiv_pos_as_xyz
  1  'x, y, z'
loop_
 _atom_site_type_symbol
 _atom_site_label
 _atom_site_symmetry_multiplicity
 _atom_site_fract_x
 _atom_site_fract_y
 _atom_site_fract_z
 _atom_site_occupancy
  Cs  Cs0  1  0.403459  0.596541  0.545002  1
  Cs  Cs1  1  0.596541  0.403459  0.045002  1
  Cs  Cs2  1  0.079443  0.920557  0.397204  1
  Cs  Cs3  1  0.920557  0.079443  0.897204  1
  Na  Na4  1  0.201931  0.798069  0.816542  1
  Na  Na5  1  0.798069  0.201931  0.316542  1
  P  P6  1  0.677134  0.322866  0.605560  1
  P  P7  1  0.322866  0.677134  0.105560  1
  O  O8  1  0.155620  0.429271  0.195071  1
  O  O9  1  0.844380  0.570729  0.695071  1
  O  O10  1  0.367160  0.632840  0.929297  1
  O  O11  1  0.632840  0.367160  0.429297  1
  O  O12  1  0.570729  0.844380  0.195071  1
  O  O13  1  0.429271  0.155620  0.695071  1
  O  O14  1  0.799483  0.200517  0.595253  1
  O  O15  1  0.200517  0.799483  0.095253  1
