# generated using pymatgen
data_Tb3HoCo4(P3Ir4)4
_symmetry_space_group_name_H-M   'P 1'
_cell_length_a   3.94004300
_cell_length_b   10.72076401
_cell_length_c   12.39285201
_cell_angle_alpha   89.99580234
_cell_angle_beta   90.00000462
_cell_angle_gamma   90.00000000
_symmetry_Int_Tables_number   1
_chemical_formula_structural   Tb3HoCo4(P3Ir4)4
_chemical_formula_sum   'Tb3 Ho1 Co4 P12 Ir16'
_cell_volume   523.47742815
_cell_formula_units_Z   1
loop_
 _symmetry_equiv_pos_site_id
 _symmetry_equiv_pos_as_xyz
  1  'x, y, z'
loop_
 _atom_site_type_symbol
 _atom_site_label
 _atom_site_symmetry_multiplicity
 _atom_site_fract_x
 _atom_site_fract_y
 _atom_site_fract_z
 _atom_site_occupancy
  Tb  Tb0  1  0.250000  0.914648  0.209779  1
  Tb  Tb1  1  0.750000  0.414881  0.290274  1
  Tb  Tb2  1  0.750000  0.085171  0.790253  1
  Ho  Ho3  1  0.250000  0.585248  0.709684  1
  Co  Co4  1  0.250000  0.462037  0.933550  1
  Co  Co5  1  0.250000  0.038387  0.434221  1
  Co  Co6  1  0.750000  0.538242  0.065545  1
  Co  Co7  1  0.750000  0.961440  0.566121  1
  P  P8  1  0.250000  0.426148  0.105087  1
  P  P9  1  0.250000  0.073573  0.605570  1
  P  P10  1  0.750000  0.573575  0.894073  1
  P  P11  1  0.750000  0.925991  0.394695  1
  P  P12  1  0.250000  0.271332  0.871559  1
  P  P13  1  0.250000  0.228825  0.371778  1
  P  P14  1  0.750000  0.728586  0.128275  1
  P  P15  1  0.750000  0.770905  0.628958  1
  P  P16  1  0.250000  0.594994  0.384618  1
  P  P17  1  0.250000  0.905362  0.884955  1
  P  P18  1  0.750000  0.405663  0.615291  1
  P  P19  1  0.750000  0.094817  0.115207  1
  Ir  Ir20  1  0.250000  0.720983  0.980335  1
  Ir  Ir21  1  0.250000  0.779340  0.480299  1
  Ir  Ir22  1  0.750000  0.279247  0.019672  1
  Ir  Ir23  1  0.750000  0.221138  0.519621  1
  Ir  Ir24  1  0.250000  0.407938  0.478964  1
  Ir  Ir25  1  0.250000  0.092563  0.978979  1
  Ir  Ir26  1  0.750000  0.592791  0.522243  1
  Ir  Ir27  1  0.750000  0.907645  0.020988  1
  Ir  Ir28  1  0.250000  0.231702  0.179739  1
  Ir  Ir29  1  0.250000  0.268278  0.679615  1
  Ir  Ir30  1  0.750000  0.767500  0.820116  1
  Ir  Ir31  1  0.750000  0.731216  0.320457  1
  Ir  Ir32  1  0.250000  0.884980  0.698592  1
  Ir  Ir33  1  0.250000  0.614499  0.198184  1
  Ir  Ir34  1  0.750000  0.114361  0.301601  1
  Ir  Ir35  1  0.750000  0.385992  0.801099  1
