# generated using pymatgen
data_Y8Lu11Si16Mo
_symmetry_space_group_name_H-M   'P 1'
_cell_length_a   7.41379555
_cell_length_b   7.41375554
_cell_length_c   13.71111400
_cell_angle_alpha   89.93869906
_cell_angle_beta   89.93653547
_cell_angle_gamma   90.01625427
_symmetry_Int_Tables_number   1
_chemical_formula_structural   Y8Lu11Si16Mo
_chemical_formula_sum   'Y8 Lu11 Si16 Mo1'
_cell_volume   753.61767593
_cell_formula_units_Z   1
loop_
 _symmetry_equiv_pos_site_id
 _symmetry_equiv_pos_as_xyz
  1  'x, y, z'
loop_
 _atom_site_type_symbol
 _atom_site_label
 _atom_site_symmetry_multiplicity
 _atom_site_fract_x
 _atom_site_fract_y
 _atom_site_fract_z
 _atom_site_occupancy
  Y  Y0  1  0.996364  0.344178  0.218274  1
  Y  Y1  1  0.008331  0.652529  0.708641  1
  Y  Y2  1  0.148554  0.495626  0.461126  1
  Y  Y3  1  0.502746  0.854070  0.042232  1
  Y  Y4  1  0.851669  0.506541  0.961431  1
  Y  Y5  1  0.490243  0.146493  0.533981  1
  Y  Y6  1  0.354160  0.998098  0.790260  1
  Y  Y7  1  0.647605  0.005086  0.288183  1
  Lu  Lu8  1  0.178183  0.180691  0.001521  1
  Lu  Lu9  1  0.825589  0.827314  0.496464  1
  Lu  Lu10  1  0.316196  0.681604  0.251804  1
  Lu  Lu11  1  0.679438  0.323167  0.749006  1
  Lu  Lu12  1  0.857222  0.997251  0.875922  1
  Lu  Lu13  1  0.494867  0.646759  0.621935  1
  Lu  Lu14  1  0.357763  0.507881  0.873479  1
  Lu  Lu15  1  0.500928  0.354014  0.132848  1
  Lu  Lu16  1  0.641971  0.492166  0.374288  1
  Lu  Lu17  1  0.004899  0.144797  0.621952  1
  Lu  Lu18  1  0.992941  0.857436  0.125539  1
  Si  Si19  1  0.286080  0.054365  0.196200  1
  Si  Si20  1  0.706850  0.946159  0.686608  1
  Si  Si21  1  0.434346  0.799395  0.433879  1
  Si  Si22  1  0.204041  0.556778  0.063412  1
  Si  Si23  1  0.555649  0.207661  0.940835  1
  Si  Si24  1  0.798419  0.443948  0.560816  1
  Si  Si25  1  0.057168  0.296331  0.811346  1
  Si  Si26  1  0.948145  0.713237  0.315819  1
  Si  Si27  1  0.348896  0.270251  0.327521  1
  Si  Si28  1  0.648732  0.707355  0.814269  1
  Si  Si29  1  0.201930  0.854778  0.554705  1
  Si  Si30  1  0.146258  0.795048  0.934558  1
  Si  Si31  1  0.793156  0.149584  0.066899  1
  Si  Si32  1  0.874310  0.196448  0.421767  1
  Si  Si33  1  0.296180  0.353839  0.683187  1
  Si  Si34  1  0.705039  0.647652  0.184887  1
  Mo  Mo35  1  0.145136  0.991471  0.374405  1
