# generated using pymatgen
data_Tb5CrCoO12
_symmetry_space_group_name_H-M   'P 1'
_cell_length_a   6.76601059
_cell_length_b   6.76601234
_cell_length_c   7.28532409
_cell_angle_alpha   74.45255628
_cell_angle_beta   74.45255379
_cell_angle_gamma   50.78767754
_symmetry_Int_Tables_number   1
_chemical_formula_structural   Tb5CrCoO12
_chemical_formula_sum   'Tb5 Cr1 Co1 O12'
_cell_volume   246.77339399
_cell_formula_units_Z   1
loop_
 _symmetry_equiv_pos_site_id
 _symmetry_equiv_pos_as_xyz
  1  'x, y, z'
loop_
 _atom_site_type_symbol
 _atom_site_label
 _atom_site_symmetry_multiplicity
 _atom_site_fract_x
 _atom_site_fract_y
 _atom_site_fract_z
 _atom_site_occupancy
  Tb  Tb0  1  0.686028  0.695641  0.667434  1
  Tb  Tb1  1  0.681937  0.704622  0.142961  1
  Tb  Tb2  1  0.996822  0.003178  0.000000  1
  Tb  Tb3  1  0.295378  0.318063  0.857039  1
  Tb  Tb4  1  0.304359  0.313972  0.332566  1
  Cr  Cr5  1  0.778317  0.221683  0.500000  1
  Co  Co6  1  0.259304  0.740696  0.500000  1
  O  O7  1  0.398789  0.912428  0.920393  1
  O  O8  1  0.585866  0.104847  0.577042  1
  O  O9  1  0.895153  0.414134  0.422958  1
  O  O10  1  0.087572  0.601211  0.079607  1
  O  O11  1  0.010270  0.991113  0.325878  1
  O  O12  1  0.501933  0.498470  0.677587  1
  O  O13  1  0.895009  0.406892  0.925294  1
  O  O14  1  0.099077  0.579339  0.578414  1
  O  O15  1  0.420661  0.900923  0.421586  1
  O  O16  1  0.593108  0.104991  0.074706  1
  O  O17  1  0.501530  0.498067  0.322413  1
  O  O18  1  0.008887  0.989730  0.674122  1
