# generated using pymatgen
data_K4Li2ScAlSb4
_symmetry_space_group_name_H-M   'P 1'
_cell_length_a   9.44085963
_cell_length_b   9.44086187
_cell_length_c   9.44085950
_cell_angle_alpha   137.21407147
_cell_angle_beta   61.79455883
_cell_angle_gamma   137.62400404
_symmetry_Int_Tables_number   1
_chemical_formula_structural   K4Li2ScAlSb4
_chemical_formula_sum   'K4 Li2 Sc1 Al1 Sb4'
_cell_volume   380.76816363
_cell_formula_units_Z   1
loop_
 _symmetry_equiv_pos_site_id
 _symmetry_equiv_pos_as_xyz
  1  'x, y, z'
loop_
 _atom_site_type_symbol
 _atom_site_label
 _atom_site_symmetry_multiplicity
 _atom_site_fract_x
 _atom_site_fract_y
 _atom_site_fract_z
 _atom_site_occupancy
  K  K0  1  0.824913  0.265638  0.096305  1
  K  K1  1  0.675086  0.771392  0.440724  1
  K  K2  1  0.330667  0.234362  0.559276  1
  K  K3  1  0.169332  0.728608  0.903695  1
  Li  Li4  1  0.750000  0.250000  0.500000  1
  Li  Li5  1  0.250000  0.750000  0.500000  1
  Sc  Sc6  1  0.250000  0.250000  0.000000  1
  Al  Al7  1  0.750000  0.750000  0.000000  1
  Sb  Sb8  1  0.410884  0.741207  0.137432  1
  Sb  Sb9  1  0.089116  0.226547  0.330323  1
  Sb  Sb10  1  0.896225  0.758793  0.669677  1
  Sb  Sb11  1  0.603774  0.273453  0.862567  1
