# generated using pymatgen
data_Sr2CaU(NiAs)4
_symmetry_space_group_name_H-M   'P 1'
_cell_length_a   4.10976800
_cell_length_b   4.10976807
_cell_length_c   16.86734100
_cell_angle_alpha   90.00000000
_cell_angle_beta   90.00000000
_cell_angle_gamma   120.00001550
_symmetry_Int_Tables_number   1
_chemical_formula_structural   Sr2CaU(NiAs)4
_chemical_formula_sum   'Sr2 Ca1 U1 Ni4 As4'
_cell_volume   246.72423394
_cell_formula_units_Z   1
loop_
 _symmetry_equiv_pos_site_id
 _symmetry_equiv_pos_as_xyz
  1  'x, y, z'
loop_
 _atom_site_type_symbol
 _atom_site_label
 _atom_site_symmetry_multiplicity
 _atom_site_fract_x
 _atom_site_fract_y
 _atom_site_fract_z
 _atom_site_occupancy
  Sr  Sr0  1  0.000000  0.000000  0.242585  1
  Sr  Sr1  1  0.000000  0.000000  0.508892  1
  Ca  Ca2  1  0.000000  0.000000  0.991524  1
  U  U3  1  0.000000  0.000000  0.756773  1
  Ni  Ni4  1  0.333333  0.666667  0.108034  1
  Ni  Ni5  1  0.666667  0.333333  0.847142  1
  Ni  Ni6  1  0.666667  0.333333  0.668645  1
  Ni  Ni7  1  0.333333  0.666667  0.378029  1
  As  As8  1  0.333333  0.666667  0.641530  1
  As  As9  1  0.666667  0.333333  0.377234  1
  As  As10  1  0.666667  0.333333  0.108638  1
  As  As11  1  0.333333  0.666667  0.870973  1
