# generated using pymatgen
data_SrNd7(Tm3Sn4)4
_symmetry_space_group_name_H-M   'P 1'
_cell_length_a   8.02525180
_cell_length_b   8.21898813
_cell_length_c   15.50066600
_cell_angle_alpha   89.97027503
_cell_angle_beta   89.21313078
_cell_angle_gamma   90.48501555
_symmetry_Int_Tables_number   1
_chemical_formula_structural   SrNd7(Tm3Sn4)4
_chemical_formula_sum   'Sr1 Nd7 Tm12 Sn16'
_cell_volume   1022.28214261
_cell_formula_units_Z   1
loop_
 _symmetry_equiv_pos_site_id
 _symmetry_equiv_pos_as_xyz
  1  'x, y, z'
loop_
 _atom_site_type_symbol
 _atom_site_label
 _atom_site_symmetry_multiplicity
 _atom_site_fract_x
 _atom_site_fract_y
 _atom_site_fract_z
 _atom_site_occupancy
  Sr  Sr0  1  0.509333  0.324803  0.908037  1
  Nd  Nd1  1  0.010964  0.177128  0.595393  1
  Nd  Nd2  1  0.488901  0.678178  0.403084  1
  Nd  Nd3  1  0.988915  0.826516  0.097558  1
  Nd  Nd4  1  0.491617  0.679212  0.096749  1
  Nd  Nd5  1  0.988058  0.823411  0.403321  1
  Nd  Nd6  1  0.509239  0.321583  0.594937  1
  Nd  Nd7  1  0.008366  0.173385  0.902926  1
  Tm  Tm8  1  0.349566  0.836575  0.876070  1
  Tm  Tm9  1  0.854847  0.663408  0.623804  1
  Tm  Tm10  1  0.645329  0.163804  0.376222  1
  Tm  Tm11  1  0.152443  0.332014  0.127277  1
  Tm  Tm12  1  0.652955  0.163480  0.124381  1
  Tm  Tm13  1  0.145794  0.337754  0.375037  1
  Tm  Tm14  1  0.353516  0.838479  0.621793  1
  Tm  Tm15  1  0.846811  0.664264  0.872643  1
  Tm  Tm16  1  0.184767  0.501104  0.748193  1
  Tm  Tm17  1  0.685467  0.998026  0.747672  1
  Tm  Tm18  1  0.817036  0.497875  0.252531  1
  Tm  Tm19  1  0.315187  0.000873  0.251405  1
  Sn  Sn20  1  0.312469  0.037535  0.044752  1
  Sn  Sn21  1  0.806862  0.458940  0.458265  1
  Sn  Sn22  1  0.693561  0.957687  0.540962  1
  Sn  Sn23  1  0.172319  0.543094  0.960886  1
  Sn  Sn24  1  0.688530  0.951270  0.959793  1
  Sn  Sn25  1  0.192052  0.542198  0.541103  1
  Sn  Sn26  1  0.306481  0.043223  0.457227  1
  Sn  Sn27  1  0.826367  0.464056  0.044378  1
  Sn  Sn28  1  0.547504  0.626795  0.747877  1
  Sn  Sn29  1  0.050951  0.875304  0.749094  1
  Sn  Sn30  1  0.453753  0.375305  0.248371  1
  Sn  Sn31  1  0.949690  0.123308  0.251519  1
  Sn  Sn32  1  0.316401  0.142151  0.749216  1
  Sn  Sn33  1  0.820957  0.356727  0.748782  1
  Sn  Sn34  1  0.681064  0.856249  0.249294  1
  Sn  Sn35  1  0.181932  0.644282  0.249448  1
