# generated using pymatgen
data_TbLu2Co8P6Rh
_symmetry_space_group_name_H-M   'P 1'
_cell_length_a   3.68952000
_cell_length_b   10.49986100
_cell_length_c   12.19790700
_cell_angle_alpha   90.00000000
_cell_angle_beta   90.00000000
_cell_angle_gamma   90.00000000
_symmetry_Int_Tables_number   1
_chemical_formula_structural   TbLu2Co8P6Rh
_chemical_formula_sum   'Tb2 Lu4 Co16 P12 Rh2'
_cell_volume   472.54017365
_cell_formula_units_Z   2
loop_
 _symmetry_equiv_pos_site_id
 _symmetry_equiv_pos_as_xyz
  1  'x, y, z'
loop_
 _atom_site_type_symbol
 _atom_site_label
 _atom_site_symmetry_multiplicity
 _atom_site_fract_x
 _atom_site_fract_y
 _atom_site_fract_z
 _atom_site_occupancy
  Tb  Tb0  1  0.000000  0.500000  0.525594  1
  Tb  Tb1  1  0.500000  0.000000  0.474406  1
  Lu  Lu2  1  0.500000  0.818783  0.207318  1
  Lu  Lu3  1  0.500000  0.181217  0.207318  1
  Lu  Lu4  1  0.000000  0.681217  0.792682  1
  Lu  Lu5  1  0.000000  0.318783  0.792682  1
  Co  Co6  1  0.500000  0.500000  0.705868  1
  Co  Co7  1  0.000000  0.000000  0.294132  1
  Co  Co8  1  0.000000  0.500000  0.986284  1
  Co  Co9  1  0.500000  0.000000  0.013716  1
  Co  Co10  1  0.500000  0.332480  0.992162  1
  Co  Co11  1  0.500000  0.667520  0.992162  1
  Co  Co12  1  0.000000  0.167520  0.007838  1
  Co  Co13  1  0.000000  0.832480  0.007838  1
  Co  Co14  1  0.500000  0.297105  0.430607  1
  Co  Co15  1  0.500000  0.702895  0.430607  1
  Co  Co16  1  0.000000  0.202895  0.569393  1
  Co  Co17  1  0.000000  0.797105  0.569393  1
  Co  Co18  1  0.500000  0.877221  0.708436  1
  Co  Co19  1  0.500000  0.122779  0.708436  1
  Co  Co20  1  0.000000  0.622779  0.291564  1
  Co  Co21  1  0.000000  0.377221  0.291564  1
  P  P22  1  0.500000  0.500000  0.882172  1
  P  P23  1  0.000000  0.000000  0.117828  1
  P  P24  1  0.500000  0.500000  0.352077  1
  P  P25  1  0.000000  0.000000  0.647923  1
  P  P26  1  0.500000  0.311142  0.617365  1
  P  P27  1  0.500000  0.688858  0.617365  1
  P  P28  1  0.000000  0.188858  0.382635  1
  P  P29  1  0.000000  0.811142  0.382635  1
  P  P30  1  0.500000  0.843609  0.892950  1
  P  P31  1  0.500000  0.156391  0.892950  1
  P  P32  1  0.000000  0.656391  0.107050  1
  P  P33  1  0.000000  0.343609  0.107050  1
  Rh  Rh34  1  0.500000  0.500000  0.160970  1
  Rh  Rh35  1  0.000000  0.000000  0.839030  1
