# generated using pymatgen
data_Tb5Dy3Th4(ZnAu5)4
_symmetry_space_group_name_H-M   'P 1'
_cell_length_a   8.49044888
_cell_length_b   8.49044815
_cell_length_c   13.62425203
_cell_angle_alpha   90.00678362
_cell_angle_beta   89.99321725
_cell_angle_gamma   127.38883292
_symmetry_Int_Tables_number   1
_chemical_formula_structural   Tb5Dy3Th4(ZnAu5)4
_chemical_formula_sum   'Tb5 Dy3 Th4 Zn4 Au20'
_cell_volume   780.34358066
_cell_formula_units_Z   1
loop_
 _symmetry_equiv_pos_site_id
 _symmetry_equiv_pos_as_xyz
  1  'x, y, z'
loop_
 _atom_site_type_symbol
 _atom_site_label
 _atom_site_symmetry_multiplicity
 _atom_site_fract_x
 _atom_site_fract_y
 _atom_site_fract_z
 _atom_site_occupancy
  Tb  Tb0  1  0.369209  0.630791  0.960342  1
  Tb  Tb1  1  0.881820  0.118180  0.952163  1
  Tb  Tb2  1  0.118066  0.881934  0.047908  1
  Tb  Tb3  1  0.881728  0.118272  0.547857  1
  Tb  Tb4  1  0.118234  0.881766  0.452090  1
  Dy  Dy5  1  0.630663  0.369337  0.460421  1
  Dy  Dy6  1  0.369317  0.630683  0.539491  1
  Dy  Dy7  1  0.630799  0.369201  0.039559  1
  Th  Th8  1  0.929748  0.070252  0.249986  1
  Th  Th9  1  0.070181  0.929819  0.749994  1
  Th  Th10  1  0.319944  0.680056  0.250072  1
  Th  Th11  1  0.680085  0.319915  0.749983  1
  Zn  Zn12  1  0.718777  0.281223  0.250035  1
  Zn  Zn13  1  0.281067  0.718933  0.749863  1
  Zn  Zn14  1  0.534388  0.465612  0.250003  1
  Zn  Zn15  1  0.465695  0.534305  0.749896  1
  Au  Au16  1  0.318457  0.065167  0.250018  1
  Au  Au17  1  0.065061  0.318268  0.750017  1
  Au  Au18  1  0.681732  0.934939  0.750017  1
  Au  Au19  1  0.934833  0.681543  0.250018  1
  Au  Au20  1  0.570493  0.005112  0.398319  1
  Au  Au21  1  0.005225  0.570624  0.601710  1
  Au  Au22  1  0.570652  0.005509  0.101852  1
  Au  Au23  1  0.004555  0.570413  0.898103  1
  Au  Au24  1  0.429376  0.994775  0.601710  1
  Au  Au25  1  0.994888  0.429507  0.398319  1
  Au  Au26  1  0.429587  0.995445  0.898103  1
  Au  Au27  1  0.994491  0.429348  0.101852  1
  Au  Au28  1  0.683562  0.739329  0.396776  1
  Au  Au29  1  0.739220  0.683399  0.603232  1
  Au  Au30  1  0.684113  0.739571  0.103496  1
  Au  Au31  1  0.739819  0.683485  0.896645  1
  Au  Au32  1  0.316601  0.260780  0.603232  1
  Au  Au33  1  0.260671  0.316438  0.396776  1
  Au  Au34  1  0.316515  0.260181  0.896645  1
  Au  Au35  1  0.260429  0.315887  0.103496  1
