# generated using pymatgen
data_K7Ti(SO4)6
_symmetry_space_group_name_H-M   'P 1'
_cell_length_a   9.43723730
_cell_length_b   9.43723753
_cell_length_c   9.43723804
_cell_angle_alpha   109.56768311
_cell_angle_beta   109.56768896
_cell_angle_gamma   109.56770082
_symmetry_Int_Tables_number   1
_chemical_formula_structural   K7Ti(SO4)6
_chemical_formula_sum   'K7 Ti1 S6 O24'
_cell_volume   644.69136077
_cell_formula_units_Z   1
loop_
 _symmetry_equiv_pos_site_id
 _symmetry_equiv_pos_as_xyz
  1  'x, y, z'
loop_
 _atom_site_type_symbol
 _atom_site_label
 _atom_site_symmetry_multiplicity
 _atom_site_fract_x
 _atom_site_fract_y
 _atom_site_fract_z
 _atom_site_occupancy
  K  K0  1  0.500000  0.500000  0.500000  1
  K  K1  1  0.837203  0.335349  0.677601  1
  K  K2  1  0.335349  0.677601  0.837203  1
  K  K3  1  0.677601  0.837203  0.335349  1
  K  K4  1  0.162797  0.664651  0.322399  1
  K  K5  1  0.664651  0.322399  0.162797  1
  K  K6  1  0.322399  0.162797  0.664651  1
  Ti  Ti7  1  0.000000  0.000000  0.000000  1
  S  S8  1  0.968442  0.749333  0.623704  1
  S  S9  1  0.749333  0.623704  0.968442  1
  S  S10  1  0.623704  0.968442  0.749333  1
  S  S11  1  0.031558  0.250667  0.376296  1
  S  S12  1  0.250667  0.376296  0.031558  1
  S  S13  1  0.376296  0.031558  0.250667  1
  O  O14  1  0.425833  0.909753  0.165376  1
  O  O15  1  0.909753  0.165376  0.425833  1
  O  O16  1  0.165376  0.425833  0.909753  1
  O  O17  1  0.574167  0.090247  0.834624  1
  O  O18  1  0.090247  0.834624  0.574167  1
  O  O19  1  0.834624  0.574167  0.090247  1
  O  O20  1  0.312344  0.984482  0.359859  1
  O  O21  1  0.984482  0.359859  0.312344  1
  O  O22  1  0.359859  0.312344  0.984482  1
  O  O23  1  0.687656  0.015518  0.640141  1
  O  O24  1  0.015518  0.640141  0.687656  1
  O  O25  1  0.640141  0.687656  0.015518  1
  O  O26  1  0.769200  0.977144  0.894362  1
  O  O27  1  0.977144  0.894362  0.769200  1
  O  O28  1  0.647111  0.475431  0.787051  1
  O  O29  1  0.787051  0.647111  0.475431  1
  O  O30  1  0.475431  0.787051  0.647111  1
  O  O31  1  0.352889  0.524569  0.212949  1
  O  O32  1  0.212949  0.352889  0.524569  1
  O  O33  1  0.524569  0.212949  0.352889  1
  O  O34  1  0.105638  0.230800  0.022856  1
  O  O35  1  0.022856  0.105638  0.230800  1
  O  O36  1  0.230800  0.022856  0.105638  1
  O  O37  1  0.894362  0.769200  0.977144  1
