# generated using pymatgen
data_Li4CaY3Si7Ge
_symmetry_space_group_name_H-M   'P 1'
_cell_length_a   3.80560500
_cell_length_b   7.75462374
_cell_length_c   10.29481071
_cell_angle_alpha   89.64106994
_cell_angle_beta   90.00000000
_cell_angle_gamma   90.00000000
_symmetry_Int_Tables_number   1
_chemical_formula_structural   Li4CaY3Si7Ge
_chemical_formula_sum   'Li4 Ca1 Y3 Si7 Ge1'
_cell_volume   303.80455659
_cell_formula_units_Z   1
loop_
 _symmetry_equiv_pos_site_id
 _symmetry_equiv_pos_as_xyz
  1  'x, y, z'
loop_
 _atom_site_type_symbol
 _atom_site_label
 _atom_site_symmetry_multiplicity
 _atom_site_fract_x
 _atom_site_fract_y
 _atom_site_fract_z
 _atom_site_occupancy
  Li  Li0  1  0.250000  0.997146  0.392871  1
  Li  Li1  1  0.750000  0.011396  0.608538  1
  Li  Li2  1  0.250000  0.487258  0.111276  1
  Li  Li3  1  0.750000  0.507664  0.892335  1
  Ca  Ca4  1  0.750000  0.362972  0.364472  1
  Y  Y5  1  0.250000  0.131695  0.862959  1
  Y  Y6  1  0.750000  0.867555  0.135650  1
  Y  Y7  1  0.250000  0.633828  0.634017  1
  Si  Si8  1  0.750000  0.261151  0.063033  1
  Si  Si9  1  0.750000  0.773897  0.432340  1
  Si  Si10  1  0.250000  0.236323  0.572147  1
  Si  Si11  1  0.750000  0.840430  0.814444  1
  Si  Si12  1  0.250000  0.154393  0.174089  1
  Si  Si13  1  0.750000  0.340743  0.684291  1
  Si  Si14  1  0.250000  0.664908  0.321709  1
  Ge  Ge15  1  0.250000  0.728639  0.935827  1
