# generated using pymatgen
data_Ce3Tm9Tc3Pt
_symmetry_space_group_name_H-M   'P 1'
_cell_length_a   7.19953930
_cell_length_b   9.28454200
_cell_length_c   6.32305100
_cell_angle_alpha   90.00000000
_cell_angle_beta   89.01851595
_cell_angle_gamma   90.00000000
_symmetry_Int_Tables_number   1
_chemical_formula_structural   Ce3Tm9Tc3Pt
_chemical_formula_sum   'Ce3 Tm9 Tc3 Pt1'
_cell_volume   422.59869660
_cell_formula_units_Z   1
loop_
 _symmetry_equiv_pos_site_id
 _symmetry_equiv_pos_as_xyz
  1  'x, y, z'
loop_
 _atom_site_type_symbol
 _atom_site_label
 _atom_site_symmetry_multiplicity
 _atom_site_fract_x
 _atom_site_fract_y
 _atom_site_fract_z
 _atom_site_occupancy
  Ce  Ce0  1  0.063389  0.250000  0.627295  1
  Ce  Ce1  1  0.946316  0.750000  0.367739  1
  Ce  Ce2  1  0.445180  0.750000  0.129876  1
  Tm  Tm3  1  0.527992  0.250000  0.877403  1
  Tm  Tm4  1  0.176169  0.060639  0.165137  1
  Tm  Tm5  1  0.821326  0.938177  0.828937  1
  Tm  Tm6  1  0.324038  0.936713  0.664142  1
  Tm  Tm7  1  0.821326  0.561823  0.828937  1
  Tm  Tm8  1  0.677286  0.065056  0.335087  1
  Tm  Tm9  1  0.176169  0.439361  0.165137  1
  Tm  Tm10  1  0.677286  0.434944  0.335087  1
  Tm  Tm11  1  0.324038  0.563287  0.664142  1
  Tc  Tc12  1  0.359427  0.250000  0.469398  1
  Tc  Tc13  1  0.639740  0.750000  0.507509  1
  Tc  Tc14  1  0.139187  0.750000  0.992123  1
  Pt  Pt15  1  0.881131  0.250000  0.042050  1
