# generated using pymatgen
data_V2ReNi2(B2W)3
_symmetry_space_group_name_H-M   'P 1'
_cell_length_a   4.44601100
_cell_length_b   4.44601027
_cell_length_c   10.67324300
_cell_angle_alpha   89.99881267
_cell_angle_beta   90.00118547
_cell_angle_gamma   138.38937016
_symmetry_Int_Tables_number   1
_chemical_formula_structural   V2ReNi2(B2W)3
_chemical_formula_sum   'V2 Re1 Ni2 B6 W3'
_cell_volume   140.10316355
_cell_formula_units_Z   1
loop_
 _symmetry_equiv_pos_site_id
 _symmetry_equiv_pos_as_xyz
  1  'x, y, z'
loop_
 _atom_site_type_symbol
 _atom_site_label
 _atom_site_symmetry_multiplicity
 _atom_site_fract_x
 _atom_site_fract_y
 _atom_site_fract_z
 _atom_site_occupancy
  V  V0  1  0.502827  0.497173  0.250517  1
  V  V1  1  0.500586  0.499414  0.749535  1
  Re  Re2  1  0.786913  0.213087  0.389181  1
  Ni  Ni3  1  0.498686  0.501314  0.499664  1
  Ni  Ni4  1  0.500163  0.499837  0.999564  1
  B  B5  1  0.083355  0.916645  0.391972  1
  B  B6  1  0.915996  0.084004  0.608686  1
  B  B7  1  0.084502  0.915498  0.108684  1
  B  B8  1  0.916147  0.083853  0.891606  1
  B  B9  1  0.204098  0.795902  0.250619  1
  B  B10  1  0.794830  0.205170  0.749906  1
  W  W11  1  0.211049  0.788951  0.608283  1
  W  W12  1  0.789473  0.210527  0.110375  1
  W  W13  1  0.211374  0.788626  0.891408  1
