# generated using pymatgen
data_CaTbGeRh3
_symmetry_space_group_name_H-M   'P 1'
_cell_length_a   5.12560897
_cell_length_b   5.12560971
_cell_length_c   5.12560955
_cell_angle_alpha   66.36012519
_cell_angle_beta   66.36012528
_cell_angle_gamma   66.36013994
_symmetry_Int_Tables_number   1
_chemical_formula_structural   CaTbGeRh3
_chemical_formula_sum   'Ca1 Tb1 Ge1 Rh3'
_cell_volume   108.27974594
_cell_formula_units_Z   1
loop_
 _symmetry_equiv_pos_site_id
 _symmetry_equiv_pos_as_xyz
  1  'x, y, z'
loop_
 _atom_site_type_symbol
 _atom_site_label
 _atom_site_symmetry_multiplicity
 _atom_site_fract_x
 _atom_site_fract_y
 _atom_site_fract_z
 _atom_site_occupancy
  Ca  Ca0  1  0.628210  0.628210  0.628210  1
  Tb  Tb1  1  0.370280  0.370280  0.370280  1
  Ge  Ge2  1  0.000132  0.000132  0.000132  1
  Rh  Rh3  1  0.000696  0.000696  0.499986  1
  Rh  Rh4  1  0.499986  0.000696  0.000696  1
  Rh  Rh5  1  0.000696  0.499986  0.000696  1
