# generated using pymatgen
data_Rb12Na8Hf3VP12
_symmetry_space_group_name_H-M   'P 1'
_cell_length_a   10.66573793
_cell_length_b   10.66574091
_cell_length_c   15.56778009
_cell_angle_alpha   90.00814726
_cell_angle_beta   90.00814357
_cell_angle_gamma   142.61230683
_symmetry_Int_Tables_number   1
_chemical_formula_structural   Rb12Na8Hf3VP12
_chemical_formula_sum   'Rb12 Na8 Hf3 V1 P12'
_cell_volume   1075.33568511
_cell_formula_units_Z   1
loop_
 _symmetry_equiv_pos_site_id
 _symmetry_equiv_pos_as_xyz
  1  'x, y, z'
loop_
 _atom_site_type_symbol
 _atom_site_label
 _atom_site_symmetry_multiplicity
 _atom_site_fract_x
 _atom_site_fract_y
 _atom_site_fract_z
 _atom_site_occupancy
  Rb  Rb0  1  0.948495  0.608037  0.821951  1
  Rb  Rb1  1  0.554709  0.889877  0.323927  1
  Rb  Rb2  1  0.391963  0.051505  0.178049  1
  Rb  Rb3  1  0.050857  0.391799  0.177987  1
  Rb  Rb4  1  0.893151  0.560332  0.327505  1
  Rb  Rb5  1  0.439668  0.106849  0.672495  1
  Rb  Rb6  1  0.608201  0.949143  0.822013  1
  Rb  Rb7  1  0.280295  0.279784  0.316535  1
  Rb  Rb8  1  0.782855  0.782830  0.186888  1
  Rb  Rb9  1  0.217170  0.217145  0.813112  1
  Rb  Rb10  1  0.720216  0.719705  0.683465  1
  Rb  Rb11  1  0.110123  0.445291  0.676073  1
  Na  Na12  1  0.919473  0.080527  0.000000  1
  Na  Na13  1  0.578521  0.421479  0.500000  1
  Na  Na14  1  0.080410  0.919590  0.000000  1
  Na  Na15  1  0.420414  0.579586  0.500000  1
  Na  Na16  1  0.755367  0.244633  0.000000  1
  Na  Na17  1  0.746455  0.253545  0.500000  1
  Na  Na18  1  0.244762  0.755238  0.000000  1
  Na  Na19  1  0.255193  0.744807  0.500000  1
  Hf  Hf20  1  0.585421  0.414579  0.000000  1
  Hf  Hf21  1  0.917957  0.082043  0.500000  1
  Hf  Hf22  1  0.414521  0.585479  0.000000  1
  V  V23  1  0.084942  0.915058  0.500000  1
  P  P24  1  0.868356  0.557417  0.096191  1
  P  P25  1  0.442583  0.131644  0.903809  1
  P  P26  1  0.631971  0.941858  0.595419  1
  P  P27  1  0.951757  0.652531  0.587363  1
  P  P28  1  0.131603  0.442755  0.904091  1
  P  P29  1  0.557245  0.868397  0.095909  1
  P  P30  1  0.347469  0.048243  0.412637  1
  P  P31  1  0.197285  0.187754  0.583807  1
  P  P32  1  0.698948  0.698746  0.913415  1
  P  P33  1  0.301254  0.301052  0.086585  1
  P  P34  1  0.058142  0.368029  0.404581  1
  P  P35  1  0.812246  0.802715  0.416193  1
