# generated using pymatgen
data_TbEuSc2(ZnSn)4
_symmetry_space_group_name_H-M   'P 1'
_cell_length_a   4.48676100
_cell_length_b   4.48676161
_cell_length_c   15.82907700
_cell_angle_alpha   90.00000000
_cell_angle_beta   90.00000000
_cell_angle_gamma   119.99998813
_symmetry_Int_Tables_number   1
_chemical_formula_structural   TbEuSc2(ZnSn)4
_chemical_formula_sum   'Tb1 Eu1 Sc2 Zn4 Sn4'
_cell_volume   275.96385742
_cell_formula_units_Z   1
loop_
 _symmetry_equiv_pos_site_id
 _symmetry_equiv_pos_as_xyz
  1  'x, y, z'
loop_
 _atom_site_type_symbol
 _atom_site_label
 _atom_site_symmetry_multiplicity
 _atom_site_fract_x
 _atom_site_fract_y
 _atom_site_fract_z
 _atom_site_occupancy
  Tb  Tb0  1  0.000000  0.000000  0.000000  1
  Eu  Eu1  1  0.000000  0.000000  0.500000  1
  Sc  Sc2  1  0.000000  0.000000  0.756467  1
  Sc  Sc3  1  0.000000  0.000000  0.243533  1
  Zn  Zn4  1  0.666667  0.333333  0.838906  1
  Zn  Zn5  1  0.666667  0.333333  0.673965  1
  Zn  Zn6  1  0.333333  0.666667  0.161094  1
  Zn  Zn7  1  0.333333  0.666667  0.326035  1
  Sn  Sn8  1  0.666667  0.333333  0.112834  1
  Sn  Sn9  1  0.666667  0.333333  0.372494  1
  Sn  Sn10  1  0.333333  0.666667  0.887166  1
  Sn  Sn11  1  0.333333  0.666667  0.627506  1
