# generated using pymatgen
data_Er7Lu3(Zn2Sb)2
_symmetry_space_group_name_H-M   'P 1'
_cell_length_a   8.46824655
_cell_length_b   8.46824589
_cell_length_c   8.46436844
_cell_angle_alpha   123.79314789
_cell_angle_beta   123.79314143
_cell_angle_gamma   83.54880796
_symmetry_Int_Tables_number   1
_chemical_formula_structural   Er7Lu3(Zn2Sb)2
_chemical_formula_sum   'Er7 Lu3 Zn4 Sb2'
_cell_volume   401.79968813
_cell_formula_units_Z   1
loop_
 _symmetry_equiv_pos_site_id
 _symmetry_equiv_pos_as_xyz
  1  'x, y, z'
loop_
 _atom_site_type_symbol
 _atom_site_label
 _atom_site_symmetry_multiplicity
 _atom_site_fract_x
 _atom_site_fract_y
 _atom_site_fract_z
 _atom_site_occupancy
  Er  Er0  1  0.701124  0.201124  0.190312  1
  Er  Er1  1  0.511101  0.700896  0.500050  1
  Er  Er2  1  0.200896  0.011101  0.500050  1
  Er  Er3  1  0.988912  0.488912  0.189253  1
  Er  Er4  1  0.299019  0.799019  0.810076  1
  Er  Er5  1  0.489296  0.299277  0.500186  1
  Er  Er6  1  0.799277  0.989296  0.500186  1
  Lu  Lu7  1  0.999931  0.999583  0.999774  1
  Lu  Lu8  1  0.499583  0.499931  0.999774  1
  Lu  Lu9  1  0.011192  0.511192  0.809789  1
  Zn  Zn10  1  0.636548  0.136548  0.773123  1
  Zn  Zn11  1  0.363063  0.863063  0.226400  1
  Zn  Zn12  1  0.136276  0.363697  0.500461  1
  Zn  Zn13  1  0.863697  0.636276  0.500461  1
  Sb  Sb14  1  0.750202  0.749883  0.000053  1
  Sb  Sb15  1  0.249883  0.250202  0.000053  1
