# generated using pymatgen
data_TbHo2Zr(Al3Rh)6
_symmetry_space_group_name_H-M   'P 1'
_cell_length_a   7.53592245
_cell_length_b   7.52442888
_cell_length_c   9.42059600
_cell_angle_alpha   90.00000000
_cell_angle_beta   90.00000000
_cell_angle_gamma   119.46670281
_symmetry_Int_Tables_number   1
_chemical_formula_structural   TbHo2Zr(Al3Rh)6
_chemical_formula_sum   'Tb1 Ho2 Zr1 Al18 Rh6'
_cell_volume   465.08016197
_cell_formula_units_Z   1
loop_
 _symmetry_equiv_pos_site_id
 _symmetry_equiv_pos_as_xyz
  1  'x, y, z'
loop_
 _atom_site_type_symbol
 _atom_site_label
 _atom_site_symmetry_multiplicity
 _atom_site_fract_x
 _atom_site_fract_y
 _atom_site_fract_z
 _atom_site_occupancy
  Tb  Tb0  1  0.006232  0.327006  0.750000  1
  Ho  Ho1  1  0.672039  0.995874  0.250000  1
  Ho  Ho2  1  0.327855  0.006356  0.750000  1
  Zr  Zr3  1  0.996503  0.672345  0.250000  1
  Al  Al4  1  0.124000  0.121338  0.250000  1
  Al  Al5  1  0.870749  0.869123  0.750000  1
  Al  Al6  1  0.000108  0.338803  0.080151  1
  Al  Al7  1  0.999630  0.664933  0.928815  1
  Al  Al8  1  0.999630  0.664933  0.571185  1
  Al  Al9  1  0.332360  0.997423  0.420291  1
  Al  Al10  1  0.000108  0.338803  0.419849  1
  Al  Al11  1  0.663697  0.998158  0.574887  1
  Al  Al12  1  0.663697  0.998158  0.925113  1
  Al  Al13  1  0.332360  0.997423  0.079709  1
  Al  Al14  1  0.334011  0.333638  0.546603  1
  Al  Al15  1  0.670091  0.667863  0.444066  1
  Al  Al16  1  0.670091  0.667863  0.055934  1
  Al  Al17  1  0.334011  0.333638  0.953397  1
  Al  Al18  1  0.336437  0.552260  0.250000  1
  Al  Al19  1  0.659685  0.449937  0.750000  1
  Al  Al20  1  0.557308  0.344723  0.250000  1
  Al  Al21  1  0.449131  0.659082  0.750000  1
  Rh  Rh22  1  0.672759  0.328302  0.001424  1
  Rh  Rh23  1  0.327980  0.672753  0.001973  1
  Rh  Rh24  1  0.327980  0.672753  0.498027  1
  Rh  Rh25  1  0.672759  0.328302  0.498576  1
  Rh  Rh26  1  0.999395  0.999105  0.001202  1
  Rh  Rh27  1  0.999395  0.999105  0.498798  1
