# generated using pymatgen
data_Dy10In3SnBi2
_symmetry_space_group_name_H-M   'P 1'
_cell_length_a   9.04098696
_cell_length_b   9.03584728
_cell_length_c   6.62557200
_cell_angle_alpha   90.00000000
_cell_angle_beta   90.00000000
_cell_angle_gamma   119.93395943
_symmetry_Int_Tables_number   1
_chemical_formula_structural   Dy10In3SnBi2
_chemical_formula_sum   'Dy10 In3 Sn1 Bi2'
_cell_volume   469.05887684
_cell_formula_units_Z   1
loop_
 _symmetry_equiv_pos_site_id
 _symmetry_equiv_pos_as_xyz
  1  'x, y, z'
loop_
 _atom_site_type_symbol
 _atom_site_label
 _atom_site_symmetry_multiplicity
 _atom_site_fract_x
 _atom_site_fract_y
 _atom_site_fract_z
 _atom_site_occupancy
  Dy  Dy0  1  0.992539  0.756842  0.750000  1
  Dy  Dy1  1  0.994474  0.236822  0.250000  1
  Dy  Dy2  1  0.766190  0.763708  0.250000  1
  Dy  Dy3  1  0.764885  0.000630  0.750000  1
  Dy  Dy4  1  0.235171  0.243320  0.750000  1
  Dy  Dy5  1  0.235786  0.992458  0.250000  1
  Dy  Dy6  1  0.331593  0.665125  0.500146  1
  Dy  Dy7  1  0.676169  0.338830  0.999469  1
  Dy  Dy8  1  0.676169  0.338830  0.500531  1
  Dy  Dy9  1  0.331593  0.665125  0.999854  1
  In  In10  1  0.001747  0.604184  0.250000  1
  In  In11  1  0.001383  0.397601  0.750000  1
  In  In12  1  0.602571  0.604678  0.750000  1
  Sn  Sn13  1  0.603651  0.998672  0.250000  1
  Bi  Bi14  1  0.392991  0.002444  0.750000  1
  Bi  Bi15  1  0.393090  0.390730  0.250000  1
