# generated using pymatgen
data_Sr3Ca3B(AsO4)5
_symmetry_space_group_name_H-M   'P 1'
_cell_length_a   7.22483506
_cell_length_b   7.29442894
_cell_length_c   9.38177907
_cell_angle_alpha   89.98945727
_cell_angle_beta   90.34328707
_cell_angle_gamma   90.71731849
_symmetry_Int_Tables_number   1
_chemical_formula_structural   Sr3Ca3B(AsO4)5
_chemical_formula_sum   'Sr3 Ca3 B1 As5 O20'
_cell_volume   494.38194541
_cell_formula_units_Z   1
loop_
 _symmetry_equiv_pos_site_id
 _symmetry_equiv_pos_as_xyz
  1  'x, y, z'
loop_
 _atom_site_type_symbol
 _atom_site_label
 _atom_site_symmetry_multiplicity
 _atom_site_fract_x
 _atom_site_fract_y
 _atom_site_fract_z
 _atom_site_occupancy
  Sr  Sr0  1  0.819005  0.788403  0.824245  1
  Sr  Sr1  1  0.223445  0.823863  0.181234  1
  Sr  Sr2  1  0.814263  0.204336  0.153663  1
  Ca  Ca3  1  0.993632  0.504501  0.466995  1
  Ca  Ca4  1  0.208708  0.175972  0.847133  1
  Ca  Ca5  1  0.490898  0.995554  0.537333  1
  B  B6  1  0.505768  0.493075  0.995479  1
  As  As7  1  0.693792  0.717226  0.205867  1
  As  As8  1  0.304449  0.293935  0.212133  1
  As  As9  1  0.283018  0.690476  0.796168  1
  As  As10  1  0.999918  0.009503  0.503866  1
  As  As11  1  0.714731  0.296572  0.782113  1
  O  O12  1  0.793598  0.521358  0.263875  1
  O  O13  1  0.680588  0.472996  0.915036  1
  O  O14  1  0.060367  0.818511  0.408075  1
  O  O15  1  0.513428  0.176009  0.757432  1
  O  O16  1  0.561174  0.829621  0.324120  1
  O  O17  1  0.157087  0.168107  0.102677  1
  O  O18  1  0.959006  0.191126  0.391943  1
  O  O19  1  0.180266  0.065076  0.617570  1
  O  O20  1  0.783458  0.418502  0.640028  1
  O  O21  1  0.213147  0.494124  0.268544  1
  O  O22  1  0.492332  0.331930  0.090688  1
  O  O23  1  0.519252  0.669328  0.071713  1
  O  O24  1  0.875612  0.165325  0.872059  1
  O  O25  1  0.402245  0.156720  0.334225  1
  O  O26  1  0.107674  0.604254  0.694507  1
  O  O27  1  0.844667  0.855001  0.110952  1
  O  O28  1  0.184850  0.850968  0.907496  1
  O  O29  1  0.335060  0.495475  0.906286  1
  O  O30  1  0.481453  0.764398  0.718206  1
  O  O31  1  0.803110  0.957758  0.598341  1
