# generated using pymatgen
data_Dy4Tm4B24MoRu3
_symmetry_space_group_name_H-M   'P 1'
_cell_length_a   3.64242800
_cell_length_b   9.13121534
_cell_length_c   11.52754802
_cell_angle_alpha   89.87075556
_cell_angle_beta   90.00000000
_cell_angle_gamma   90.00000000
_symmetry_Int_Tables_number   1
_chemical_formula_structural   Dy4Tm4B24MoRu3
_chemical_formula_sum   'Dy4 Tm4 B24 Mo1 Ru3'
_cell_volume   383.40290190
_cell_formula_units_Z   1
loop_
 _symmetry_equiv_pos_site_id
 _symmetry_equiv_pos_as_xyz
  1  'x, y, z'
loop_
 _atom_site_type_symbol
 _atom_site_label
 _atom_site_symmetry_multiplicity
 _atom_site_fract_x
 _atom_site_fract_y
 _atom_site_fract_z
 _atom_site_occupancy
  Dy  Dy0  1  0.000000  0.322066  0.413511  1
  Dy  Dy1  1  0.000000  0.677608  0.584782  1
  Dy  Dy2  1  0.000000  0.820553  0.087010  1
  Dy  Dy3  1  0.000000  0.177224  0.914798  1
  Tm  Tm4  1  0.000000  0.945389  0.372393  1
  Tm  Tm5  1  0.000000  0.057974  0.629159  1
  Tm  Tm6  1  0.000000  0.442859  0.126956  1
  Tm  Tm7  1  0.000000  0.556980  0.870494  1
  B  B8  1  0.500000  0.551463  0.435232  1
  B  B9  1  0.500000  0.445799  0.568357  1
  B  B10  1  0.500000  0.053785  0.067424  1
  B  B11  1  0.500000  0.945665  0.932815  1
  B  B12  1  0.500000  0.751704  0.421124  1
  B  B13  1  0.500000  0.251374  0.581725  1
  B  B14  1  0.500000  0.248798  0.080671  1
  B  B15  1  0.500000  0.750623  0.918473  1
  B  B16  1  0.500000  0.794630  0.264669  1
  B  B17  1  0.500000  0.208598  0.734718  1
  B  B18  1  0.500000  0.290860  0.233028  1
  B  B19  1  0.500000  0.709222  0.765564  1
  B  B20  1  0.500000  0.630877  0.182846  1
  B  B21  1  0.500000  0.368815  0.815310  1
  B  B22  1  0.500000  0.130884  0.314209  1
  B  B23  1  0.500000  0.870106  0.685298  1
  B  B24  1  0.500000  0.983265  0.212934  1
  B  B25  1  0.500000  0.017212  0.787899  1
  B  B26  1  0.500000  0.478373  0.286161  1
  B  B27  1  0.500000  0.516515  0.713144  1
  B  B28  1  0.500000  0.603557  0.027015  1
  B  B29  1  0.500000  0.395624  0.970363  1
  B  B30  1  0.500000  0.104874  0.471903  1
  B  B31  1  0.500000  0.898252  0.529695  1
  Mo  Mo32  1  0.000000  0.637905  0.320683  1
  Ru  Ru33  1  0.000000  0.360587  0.681096  1
  Ru  Ru34  1  0.000000  0.138180  0.178463  1
  Ru  Ru35  1  0.000000  0.861797  0.820076  1
