# generated using pymatgen
data_CePrAl20IrOs3
_symmetry_space_group_name_H-M   'P 1'
_cell_length_a   6.88815895
_cell_length_b   6.89226922
_cell_length_c   9.20294148
_cell_angle_alpha   90.16434378
_cell_angle_beta   90.08814602
_cell_angle_gamma   97.01620458
_symmetry_Int_Tables_number   1
_chemical_formula_structural   CePrAl20IrOs3
_chemical_formula_sum   'Ce1 Pr1 Al20 Ir1 Os3'
_cell_volume   433.63576212
_cell_formula_units_Z   1
loop_
 _symmetry_equiv_pos_site_id
 _symmetry_equiv_pos_as_xyz
  1  'x, y, z'
loop_
 _atom_site_type_symbol
 _atom_site_label
 _atom_site_symmetry_multiplicity
 _atom_site_fract_x
 _atom_site_fract_y
 _atom_site_fract_z
 _atom_site_occupancy
  Ce  Ce0  1  0.873098  0.123284  0.750108  1
  Pr  Pr1  1  0.127987  0.874540  0.250105  1
  Al  Al2  1  0.620873  0.376374  0.551556  1
  Al  Al3  1  0.379296  0.623801  0.449087  1
  Al  Al4  1  0.377112  0.623521  0.049343  1
  Al  Al5  1  0.622814  0.376813  0.950065  1
  Al  Al6  1  0.225249  0.223893  0.499833  1
  Al  Al7  1  0.774900  0.776214  0.501650  1
  Al  Al8  1  0.775942  0.776150  0.999325  1
  Al  Al9  1  0.224108  0.223555  0.999501  1
  Al  Al10  1  0.841020  0.159530  0.101921  1
  Al  Al11  1  0.158223  0.841564  0.897837  1
  Al  Al12  1  0.159305  0.842303  0.603706  1
  Al  Al13  1  0.839921  0.158858  0.396769  1
  Al  Al14  1  0.856062  0.588356  0.750629  1
  Al  Al15  1  0.143851  0.411909  0.249152  1
  Al  Al16  1  0.411075  0.142876  0.750251  1
  Al  Al17  1  0.588458  0.857066  0.249756  1
  Al  Al18  1  0.221131  0.482302  0.752072  1
  Al  Al19  1  0.777967  0.517025  0.247673  1
  Al  Al20  1  0.517054  0.779670  0.749625  1
  Al  Al21  1  0.483326  0.220578  0.250467  1
  Ir  Ir22  1  0.999263  0.499363  0.500429  1
  Os  Os23  1  0.999281  0.498814  0.999066  1
  Os  Os24  1  0.501334  0.000848  0.999108  1
  Os  Os25  1  0.501350  0.000793  0.500962  1
