# generated using pymatgen
data_Pa12Al9Re13Ru2
_symmetry_space_group_name_H-M   'P 1'
_cell_length_a   9.48394600
_cell_length_b   9.48394486
_cell_length_c   8.55991800
_cell_angle_alpha   90.00000000
_cell_angle_beta   90.00000000
_cell_angle_gamma   119.99999003
_symmetry_Int_Tables_number   1
_chemical_formula_structural   Pa12Al9Re13Ru2
_chemical_formula_sum   'Pa12 Al9 Re13 Ru2'
_cell_volume   666.77356348
_cell_formula_units_Z   1
loop_
 _symmetry_equiv_pos_site_id
 _symmetry_equiv_pos_as_xyz
  1  'x, y, z'
loop_
 _atom_site_type_symbol
 _atom_site_label
 _atom_site_symmetry_multiplicity
 _atom_site_fract_x
 _atom_site_fract_y
 _atom_site_fract_z
 _atom_site_occupancy
  Pa  Pa0  1  0.331139  0.996561  0.064999  1
  Pa  Pa1  1  0.665421  0.996561  0.935001  1
  Pa  Pa2  1  0.003439  0.334579  0.064999  1
  Pa  Pa3  1  0.668219  0.000609  0.565050  1
  Pa  Pa4  1  0.999391  0.331781  0.434950  1
  Pa  Pa5  1  0.003439  0.668861  0.935001  1
  Pa  Pa6  1  0.332390  0.000609  0.434950  1
  Pa  Pa7  1  0.999391  0.667610  0.565050  1
  Pa  Pa8  1  0.665421  0.668861  0.064999  1
  Pa  Pa9  1  0.331139  0.334579  0.935001  1
  Pa  Pa10  1  0.332390  0.331781  0.565050  1
  Pa  Pa11  1  0.668219  0.667610  0.434950  1
  Al  Al12  1  0.666667  0.333333  0.500000  1
  Al  Al13  1  0.666667  0.333333  0.000000  1
  Al  Al14  1  0.333333  0.666667  0.000000  1
  Al  Al15  1  0.166123  0.002723  0.750345  1
  Al  Al16  1  0.836601  0.002723  0.249655  1
  Al  Al17  1  0.997277  0.163399  0.750345  1
  Al  Al18  1  0.997277  0.833877  0.249655  1
  Al  Al19  1  0.836601  0.833877  0.750345  1
  Al  Al20  1  0.166123  0.163399  0.249655  1
  Re  Re21  1  0.166409  0.489145  0.752860  1
  Re  Re22  1  0.850940  0.504849  0.251093  1
  Re  Re23  1  0.510855  0.677265  0.752860  1
  Re  Re24  1  0.495151  0.149060  0.748907  1
  Re  Re25  1  0.495151  0.346089  0.251093  1
  Re  Re26  1  0.510855  0.833591  0.247140  1
  Re  Re27  1  0.322735  0.833591  0.752860  1
  Re  Re28  1  0.653911  0.504849  0.748907  1
  Re  Re29  1  0.653911  0.149060  0.251093  1
  Re  Re30  1  0.322735  0.489145  0.247140  1
  Re  Re31  1  0.850940  0.346089  0.748907  1
  Re  Re32  1  0.166409  0.677265  0.247140  1
  Re  Re33  1  0.333333  0.666667  0.500000  1
  Ru  Ru34  1  0.000000  0.000000  0.500000  1
  Ru  Ru35  1  0.000000  0.000000  0.000000  1
