# generated using pymatgen
data_SmY2Rh9
_symmetry_space_group_name_H-M   'P 1'
_cell_length_a   5.30177400
_cell_length_b   5.30177489
_cell_length_c   17.55353200
_cell_angle_alpha   90.00000000
_cell_angle_beta   90.00000000
_cell_angle_gamma   119.99999443
_symmetry_Int_Tables_number   1
_chemical_formula_structural   SmY2Rh9
_chemical_formula_sum   'Sm2 Y4 Rh18'
_cell_volume   427.30469688
_cell_formula_units_Z   2
loop_
 _symmetry_equiv_pos_site_id
 _symmetry_equiv_pos_as_xyz
  1  'x, y, z'
loop_
 _atom_site_type_symbol
 _atom_site_label
 _atom_site_symmetry_multiplicity
 _atom_site_fract_x
 _atom_site_fract_y
 _atom_site_fract_z
 _atom_site_occupancy
  Sm  Sm0  1  0.333333  0.666667  0.750000  1
  Sm  Sm1  1  0.666667  0.333333  0.250000  1
  Y  Y2  1  0.333333  0.666667  0.957932  1
  Y  Y3  1  0.666667  0.333333  0.042068  1
  Y  Y4  1  0.666667  0.333333  0.457932  1
  Y  Y5  1  0.333333  0.666667  0.542068  1
  Rh  Rh6  1  0.167245  0.832755  0.374072  1
  Rh  Rh7  1  0.167245  0.334489  0.374072  1
  Rh  Rh8  1  0.665511  0.832755  0.374072  1
  Rh  Rh9  1  0.832755  0.167245  0.625928  1
  Rh  Rh10  1  0.832755  0.665511  0.625928  1
  Rh  Rh11  1  0.334489  0.167245  0.625928  1
  Rh  Rh12  1  0.832755  0.167245  0.874072  1
  Rh  Rh13  1  0.832755  0.665511  0.874072  1
  Rh  Rh14  1  0.334489  0.167245  0.874072  1
  Rh  Rh15  1  0.167245  0.832755  0.125928  1
  Rh  Rh16  1  0.167245  0.334489  0.125928  1
  Rh  Rh17  1  0.665511  0.832755  0.125928  1
  Rh  Rh18  1  0.333333  0.666667  0.250000  1
  Rh  Rh19  1  0.666667  0.333333  0.750000  1
  Rh  Rh20  1  0.000000  0.000000  0.250000  1
  Rh  Rh21  1  0.000000  0.000000  0.750000  1
  Rh  Rh22  1  0.000000  0.000000  0.500000  1
  Rh  Rh23  1  0.000000  0.000000  0.000000  1
