# generated using pymatgen
data_Sc8Zn4PtAu3
_symmetry_space_group_name_H-M   'P 1'
_cell_length_a   6.70073402
_cell_length_b   6.79588301
_cell_length_c   6.70020801
_cell_angle_alpha   90.00298875
_cell_angle_beta   90.00669547
_cell_angle_gamma   89.99584820
_symmetry_Int_Tables_number   1
_chemical_formula_structural   Sc8Zn4PtAu3
_chemical_formula_sum   'Sc8 Zn4 Pt1 Au3'
_cell_volume   305.11007880
_cell_formula_units_Z   1
loop_
 _symmetry_equiv_pos_site_id
 _symmetry_equiv_pos_as_xyz
  1  'x, y, z'
loop_
 _atom_site_type_symbol
 _atom_site_label
 _atom_site_symmetry_multiplicity
 _atom_site_fract_x
 _atom_site_fract_y
 _atom_site_fract_z
 _atom_site_occupancy
  Sc  Sc0  1  0.252029  0.503215  0.247987  1
  Sc  Sc1  1  0.252032  0.996785  0.247985  1
  Sc  Sc2  1  0.747970  0.997667  0.247952  1
  Sc  Sc3  1  0.747974  0.502334  0.247949  1
  Sc  Sc4  1  0.252030  0.503187  0.752002  1
  Sc  Sc5  1  0.252027  0.996815  0.752003  1
  Sc  Sc6  1  0.747957  0.997679  0.752063  1
  Sc  Sc7  1  0.747958  0.502322  0.752060  1
  Zn  Zn8  1  0.000803  0.250002  0.000005  1
  Zn  Zn9  1  0.999140  0.749999  0.999996  1
  Zn  Zn10  1  0.499200  0.250000  0.499941  1
  Zn  Zn11  1  0.500814  0.750002  0.500066  1
  Pt  Pt12  1  0.501152  0.750001  0.999877  1
  Au  Au13  1  0.498873  0.250002  0.000120  1
  Au  Au14  1  0.998873  0.750000  0.499912  1
  Au  Au15  1  0.001168  0.250001  0.500082  1
