# generated using pymatgen
data_Er3TmCo4(SnH)4
_symmetry_space_group_name_H-M   'P 1'
_cell_length_a   4.25513600
_cell_length_b   7.06524101
_cell_length_c   8.10933902
_cell_angle_alpha   90.00721185
_cell_angle_beta   90.00000000
_cell_angle_gamma   90.00000000
_symmetry_Int_Tables_number   1
_chemical_formula_structural   Er3TmCo4(SnH)4
_chemical_formula_sum   'Er3 Tm1 Co4 Sn4 H4'
_cell_volume   243.79560939
_cell_formula_units_Z   1
loop_
 _symmetry_equiv_pos_site_id
 _symmetry_equiv_pos_as_xyz
  1  'x, y, z'
loop_
 _atom_site_type_symbol
 _atom_site_label
 _atom_site_symmetry_multiplicity
 _atom_site_fract_x
 _atom_site_fract_y
 _atom_site_fract_z
 _atom_site_occupancy
  Er  Er0  1  0.250000  0.986360  0.315449  1
  Er  Er1  1  0.250000  0.486101  0.184803  1
  Er  Er2  1  0.750000  0.513812  0.815182  1
  Tm  Tm3  1  0.750000  0.013768  0.684070  1
  Co  Co4  1  0.750000  0.772129  0.103550  1
  Co  Co5  1  0.250000  0.227448  0.895990  1
  Co  Co6  1  0.250000  0.728438  0.603671  1
  Co  Co7  1  0.750000  0.271977  0.396865  1
  Sn  Sn8  1  0.750000  0.654455  0.426745  1
  Sn  Sn9  1  0.250000  0.345614  0.573589  1
  Sn  Sn10  1  0.250000  0.845926  0.926042  1
  Sn  Sn11  1  0.750000  0.154003  0.073046  1
  H  H12  1  0.250000  0.449252  0.918765  1
  H  H13  1  0.750000  0.550282  0.081190  1
  H  H14  1  0.750000  0.050172  0.419407  1
  H  H15  1  0.250000  0.950263  0.581637  1
