# generated using pymatgen
data_Hf18Re3Mo5Pd2
_symmetry_space_group_name_H-M   'P 1'
_cell_length_a   8.50763902
_cell_length_b   8.73676341
_cell_length_c   8.74149341
_cell_angle_alpha   119.98340526
_cell_angle_beta   89.99366782
_cell_angle_gamma   90.00001295
_symmetry_Int_Tables_number   1
_chemical_formula_structural   Hf18Re3Mo5Pd2
_chemical_formula_sum   'Hf18 Re3 Mo5 Pd2'
_cell_volume   562.79274569
_cell_formula_units_Z   1
loop_
 _symmetry_equiv_pos_site_id
 _symmetry_equiv_pos_as_xyz
  1  'x, y, z'
loop_
 _atom_site_type_symbol
 _atom_site_label
 _atom_site_symmetry_multiplicity
 _atom_site_fract_x
 _atom_site_fract_y
 _atom_site_fract_z
 _atom_site_occupancy
  Hf  Hf0  1  0.551817  0.803815  0.607637  1
  Hf  Hf1  1  0.551325  0.804320  0.195873  1
  Hf  Hf2  1  0.551337  0.391559  0.195876  1
  Hf  Hf3  1  0.445435  0.195306  0.390610  1
  Hf  Hf4  1  0.446268  0.196036  0.804718  1
  Hf  Hf5  1  0.446255  0.608670  0.804715  1
  Hf  Hf6  1  0.054814  0.194552  0.389103  1
  Hf  Hf7  1  0.053958  0.195143  0.805546  1
  Hf  Hf8  1  0.053971  0.610399  0.805541  1
  Hf  Hf9  1  0.947852  0.804839  0.609670  1
  Hf  Hf10  1  0.948390  0.805228  0.194908  1
  Hf  Hf11  1  0.948375  0.389686  0.194912  1
  Hf  Hf12  1  0.750353  0.457150  0.914283  1
  Hf  Hf13  1  0.750376  0.456814  0.542626  1
  Hf  Hf14  1  0.750375  0.085819  0.542621  1
  Hf  Hf15  1  0.249744  0.542911  0.085844  1
  Hf  Hf16  1  0.249747  0.541625  0.455730  1
  Hf  Hf17  1  0.249751  0.914099  0.455736  1
  Re  Re18  1  0.250104  0.889356  0.111794  1
  Re  Re19  1  0.250103  0.222434  0.111797  1
  Re  Re20  1  0.999655  0.000200  0.000399  1
  Mo  Mo21  1  0.749649  0.110977  0.221949  1
  Mo  Mo22  1  0.749693  0.111518  0.889161  1
  Mo  Mo23  1  0.749694  0.777651  0.889163  1
  Mo  Mo24  1  0.250234  0.889859  0.779724  1
  Mo  Mo25  1  0.500678  0.000131  0.000263  1
  Pd  Pd26  1  0.750282  0.666596  0.333146  1
  Pd  Pd27  1  0.249764  0.333305  0.666656  1
