# generated using pymatgen
data_Np4Ge6Os2Ru5
_symmetry_space_group_name_H-M   'P 1'
_cell_length_a   7.18471541
_cell_length_b   7.18471424
_cell_length_c   7.18471437
_cell_angle_alpha   109.33116306
_cell_angle_beta   109.54129775
_cell_angle_gamma   109.54129604
_symmetry_Int_Tables_number   1
_chemical_formula_structural   Np4Ge6Os2Ru5
_chemical_formula_sum   'Np4 Ge6 Os2 Ru5'
_cell_volume   285.49908286
_cell_formula_units_Z   1
loop_
 _symmetry_equiv_pos_site_id
 _symmetry_equiv_pos_as_xyz
  1  'x, y, z'
loop_
 _atom_site_type_symbol
 _atom_site_label
 _atom_site_symmetry_multiplicity
 _atom_site_fract_x
 _atom_site_fract_y
 _atom_site_fract_z
 _atom_site_occupancy
  Np  Np0  1  0.499998  0.499998  0.499998  1
  Np  Np1  1  0.000000  0.000000  0.499998  1
  Np  Np2  1  0.499998  0.000000  0.000000  1
  Np  Np3  1  0.000000  0.499998  0.000000  1
  Ge  Ge4  1  0.000000  0.307118  0.307118  1
  Ge  Ge5  1  0.000000  0.692881  0.692881  1
  Ge  Ge6  1  0.305832  0.000000  0.305832  1
  Ge  Ge7  1  0.305832  0.305832  0.000000  1
  Ge  Ge8  1  0.694167  0.000000  0.694167  1
  Ge  Ge9  1  0.694167  0.694167  0.000000  1
  Os  Os10  1  0.500001  0.750000  0.249999  1
  Os  Os11  1  0.500001  0.249999  0.750000  1
  Ru  Ru12  1  0.000000  0.000000  0.000000  1
  Ru  Ru13  1  0.250443  0.500001  0.750444  1
  Ru  Ru14  1  0.749556  0.249555  0.500001  1
  Ru  Ru15  1  0.749556  0.500001  0.249555  1
  Ru  Ru16  1  0.250443  0.750444  0.500001  1
