# generated using pymatgen
data_Lu2CuNi11P7
_symmetry_space_group_name_H-M   'P 1'
_cell_length_a   9.05513968
_cell_length_b   9.02755847
_cell_length_c   3.64382200
_cell_angle_alpha   90.00000000
_cell_angle_beta   90.00000000
_cell_angle_gamma   119.84265512
_symmetry_Int_Tables_number   1
_chemical_formula_structural   Lu2CuNi11P7
_chemical_formula_sum   'Lu2 Cu1 Ni11 P7'
_cell_volume   258.36854951
_cell_formula_units_Z   1
loop_
 _symmetry_equiv_pos_site_id
 _symmetry_equiv_pos_as_xyz
  1  'x, y, z'
loop_
 _atom_site_type_symbol
 _atom_site_label
 _atom_site_symmetry_multiplicity
 _atom_site_fract_x
 _atom_site_fract_y
 _atom_site_fract_z
 _atom_site_occupancy
  Lu  Lu0  1  0.332383  0.664385  0.000000  1
  Lu  Lu1  1  0.667903  0.334454  0.500001  1
  Cu  Cu2  1  0.224556  0.100853  0.500001  1
  Ni  Ni3  1  0.434292  0.061341  0.000000  1
  Ni  Ni4  1  0.152152  0.271409  0.000000  1
  Ni  Ni5  1  0.937904  0.373249  0.000000  1
  Ni  Ni6  1  0.630623  0.568437  0.000000  1
  Ni  Ni7  1  0.122552  0.849232  0.000000  1
  Ni  Ni8  1  0.718521  0.876465  0.000000  1
  Ni  Ni9  1  0.904319  0.121180  0.500001  1
  Ni  Ni10  1  0.382393  0.433294  0.500001  1
  Ni  Ni11  1  0.051259  0.616649  0.500001  1
  Ni  Ni12  1  0.876348  0.781408  0.500001  1
  Ni  Ni13  1  0.567049  0.950673  0.500001  1
  P  P14  1  0.991037  0.995695  0.000000  1
  P  P15  1  0.706050  0.116037  0.000000  1
  P  P16  1  0.415272  0.300068  0.000000  1
  P  P17  1  0.887038  0.593207  0.000000  1
  P  P18  1  0.112911  0.405519  0.500001  1
  P  P19  1  0.590856  0.705656  0.500001  1
  P  P20  1  0.294582  0.880784  0.500001  1
