# generated using pymatgen
data_TmFeSi2Ir
_symmetry_space_group_name_H-M   'P 1'
_cell_length_a   5.60647161
_cell_length_b   5.60647250
_cell_length_c   5.60647194
_cell_angle_alpha   138.07452838
_cell_angle_beta   138.07453012
_cell_angle_gamma   60.78886698
_symmetry_Int_Tables_number   1
_chemical_formula_structural   TmFeSi2Ir
_chemical_formula_sum   'Tm1 Fe1 Si2 Ir1'
_cell_volume   77.82245480
_cell_formula_units_Z   1
loop_
 _symmetry_equiv_pos_site_id
 _symmetry_equiv_pos_as_xyz
  1  'x, y, z'
loop_
 _atom_site_type_symbol
 _atom_site_label
 _atom_site_symmetry_multiplicity
 _atom_site_fract_x
 _atom_site_fract_y
 _atom_site_fract_z
 _atom_site_occupancy
  Tm  Tm0  1  0.000000  0.000000  0.000000  1
  Fe  Fe1  1  0.750000  0.250000  0.500000  1
  Si  Si2  1  0.625786  0.625786  0.000000  1
  Si  Si3  1  0.374214  0.374214  0.000000  1
  Ir  Ir4  1  0.250000  0.750000  0.500000  1
