# generated using pymatgen
data_NdY2Er2Bi3
_symmetry_space_group_name_H-M   'P 1'
_cell_length_a   8.31681900
_cell_length_b   9.53084100
_cell_length_c   12.16804500
_cell_angle_alpha   90.00000000
_cell_angle_beta   90.00000000
_cell_angle_gamma   90.00000000
_symmetry_Int_Tables_number   1
_chemical_formula_structural   NdY2Er2Bi3
_chemical_formula_sum   'Nd4 Y8 Er8 Bi12'
_cell_volume   964.51565612
_cell_formula_units_Z   4
loop_
 _symmetry_equiv_pos_site_id
 _symmetry_equiv_pos_as_xyz
  1  'x, y, z'
loop_
 _atom_site_type_symbol
 _atom_site_label
 _atom_site_symmetry_multiplicity
 _atom_site_fract_x
 _atom_site_fract_y
 _atom_site_fract_z
 _atom_site_occupancy
  Nd  Nd0  1  0.184018  0.749733  0.720344  1
  Nd  Nd1  1  0.684018  0.750267  0.779656  1
  Nd  Nd2  1  0.815982  0.249733  0.279656  1
  Nd  Nd3  1  0.315982  0.250267  0.220344  1
  Y  Y4  1  0.693057  0.562442  0.060368  1
  Y  Y5  1  0.193057  0.937558  0.439632  1
  Y  Y6  1  0.306943  0.062442  0.939632  1
  Y  Y7  1  0.806943  0.437558  0.560368  1
  Y  Y8  1  0.353203  0.749920  0.216642  1
  Y  Y9  1  0.853203  0.750080  0.283358  1
  Y  Y10  1  0.646797  0.249920  0.783358  1
  Y  Y11  1  0.146797  0.250080  0.716642  1
  Er  Er12  1  0.024950  0.750202  0.988053  1
  Er  Er13  1  0.524950  0.749798  0.511947  1
  Er  Er14  1  0.975050  0.250202  0.011947  1
  Er  Er15  1  0.475050  0.249798  0.488053  1
  Er  Er16  1  0.306858  0.435213  0.939865  1
  Er  Er17  1  0.806858  0.064787  0.560135  1
  Er  Er18  1  0.693142  0.935213  0.060135  1
  Er  Er19  1  0.193142  0.564787  0.439865  1
  Bi  Bi20  1  0.434648  0.007872  0.671011  1
  Bi  Bi21  1  0.934648  0.492128  0.828989  1
  Bi  Bi22  1  0.565352  0.507872  0.328989  1
  Bi  Bi23  1  0.065352  0.992128  0.171011  1
  Bi  Bi24  1  0.565971  0.991898  0.329120  1
  Bi  Bi25  1  0.065971  0.508102  0.170880  1
  Bi  Bi26  1  0.434029  0.491898  0.670880  1
  Bi  Bi27  1  0.934029  0.008102  0.829120  1
  Bi  Bi28  1  0.406930  0.748332  0.962163  1
  Bi  Bi29  1  0.906930  0.751668  0.537837  1
  Bi  Bi30  1  0.593070  0.248332  0.037837  1
  Bi  Bi31  1  0.093070  0.251668  0.462163  1
