# generated using pymatgen
data_Ni8W
_symmetry_space_group_name_H-M   'P 1'
_cell_length_a   5.62554798
_cell_length_b   5.62554886
_cell_length_c   5.62523300
_cell_angle_alpha   95.74250511
_cell_angle_beta   95.75638509
_cell_angle_gamma   143.09710558
_symmetry_Int_Tables_number   1
_chemical_formula_structural   Ni8W
_chemical_formula_sum   'Ni8 W1'
_cell_volume   101.39852325
_cell_formula_units_Z   1
loop_
 _symmetry_equiv_pos_site_id
 _symmetry_equiv_pos_as_xyz
  1  'x, y, z'
loop_
 _atom_site_type_symbol
 _atom_site_label
 _atom_site_symmetry_multiplicity
 _atom_site_fract_x
 _atom_site_fract_y
 _atom_site_fract_z
 _atom_site_occupancy
  Ni  Ni0  1  0.666854  0.333146  0.000000  1
  Ni  Ni1  1  0.333147  0.666855  0.000000  1
  Ni  Ni2  1  0.666854  0.666854  0.333707  1
  Ni  Ni3  1  0.334092  0.000002  0.334093  1
  Ni  Ni4  1  0.000002  0.334061  0.334063  1
  Ni  Ni5  1  0.665908  0.999998  0.665907  1
  Ni  Ni6  1  0.999998  0.665939  0.665937  1
  Ni  Ni7  1  0.333146  0.333146  0.666293  1
  W  W8  1  0.000000  0.000000  0.000000  1
