# generated using pymatgen
data_Dy6Er10Cd4Ru3Pt
_symmetry_space_group_name_H-M   'P 1'
_cell_length_a   9.54147357
_cell_length_b   9.63999128
_cell_length_c   9.63999102
_cell_angle_alpha   60.00660062
_cell_angle_beta   59.66388014
_cell_angle_gamma   59.66388196
_symmetry_Int_Tables_number   1
_chemical_formula_structural   Dy6Er10Cd4Ru3Pt
_chemical_formula_sum   'Dy6 Er10 Cd4 Ru3 Pt1'
_cell_volume   623.80660749
_cell_formula_units_Z   1
loop_
 _symmetry_equiv_pos_site_id
 _symmetry_equiv_pos_as_xyz
  1  'x, y, z'
loop_
 _atom_site_type_symbol
 _atom_site_label
 _atom_site_symmetry_multiplicity
 _atom_site_fract_x
 _atom_site_fract_y
 _atom_site_fract_z
 _atom_site_occupancy
  Dy  Dy0  1  0.935940  0.562314  0.562314  1
  Dy  Dy1  1  0.557669  0.938936  0.938936  1
  Dy  Dy2  1  0.557627  0.938981  0.564415  1
  Dy  Dy3  1  0.935922  0.562366  0.939386  1
  Dy  Dy4  1  0.557627  0.564415  0.938981  1
  Dy  Dy5  1  0.935922  0.939386  0.562366  1
  Er  Er6  1  0.345992  0.350389  0.350389  1
  Er  Er7  1  0.346012  0.350275  0.953280  1
  Er  Er8  1  0.346012  0.953280  0.350275  1
  Er  Er9  1  0.966344  0.344512  0.344512  1
  Er  Er10  1  0.815588  0.188566  0.188566  1
  Er  Er11  1  0.186164  0.812667  0.812667  1
  Er  Er12  1  0.186132  0.812680  0.188535  1
  Er  Er13  1  0.815542  0.188549  0.807345  1
  Er  Er14  1  0.186132  0.188535  0.812680  1
  Er  Er15  1  0.815542  0.807345  0.188549  1
  Cd  Cd16  1  0.580049  0.579495  0.579495  1
  Cd  Cd17  1  0.580058  0.579496  0.260942  1
  Cd  Cd18  1  0.580058  0.260942  0.579496  1
  Cd  Cd19  1  0.256571  0.581136  0.581136  1
  Ru  Ru20  1  0.146493  0.138458  0.138458  1
  Ru  Ru21  1  0.146409  0.138419  0.576759  1
  Ru  Ru22  1  0.146409  0.576759  0.138419  1
  Pt  Pt23  1  0.573794  0.142094  0.142094  1
