# generated using pymatgen
data_TbYBe2(Os2C)2
_symmetry_space_group_name_H-M   'P 1'
_cell_length_a   5.63207300
_cell_length_b   5.63207196
_cell_length_c   7.05777400
_cell_angle_alpha   90.00000000
_cell_angle_beta   90.00000000
_cell_angle_gamma   140.00697616
_symmetry_Int_Tables_number   1
_chemical_formula_structural   TbYBe2(Os2C)2
_chemical_formula_sum   'Tb1 Y1 Be2 Os4 C2'
_cell_volume   143.88273656
_cell_formula_units_Z   1
loop_
 _symmetry_equiv_pos_site_id
 _symmetry_equiv_pos_as_xyz
  1  'x, y, z'
loop_
 _atom_site_type_symbol
 _atom_site_label
 _atom_site_symmetry_multiplicity
 _atom_site_fract_x
 _atom_site_fract_y
 _atom_site_fract_z
 _atom_site_occupancy
  Tb  Tb0  1  0.544754  0.455246  0.250000  1
  Y  Y1  1  0.455261  0.544739  0.750000  1
  Be  Be2  1  0.269965  0.730035  0.250000  1
  Be  Be3  1  0.730026  0.269974  0.750000  1
  Os  Os4  1  0.823528  0.176472  0.058822  1
  Os  Os5  1  0.176484  0.823516  0.941136  1
  Os  Os6  1  0.176484  0.823516  0.558864  1
  Os  Os7  1  0.823528  0.176472  0.441178  1
  C  C8  1  0.999985  0.000015  0.999954  1
  C  C9  1  0.999985  0.000015  0.500046  1
