# generated using pymatgen
data_Y8ReTc3C8
_symmetry_space_group_name_H-M   'P 1'
_cell_length_a   5.11076700
_cell_length_b   6.59068832
_cell_length_c   9.90546847
_cell_angle_alpha   89.96452215
_cell_angle_beta   90.00000000
_cell_angle_gamma   90.00000000
_symmetry_Int_Tables_number   1
_chemical_formula_structural   Y8ReTc3C8
_chemical_formula_sum   'Y8 Re1 Tc3 C8'
_cell_volume   333.65050954
_cell_formula_units_Z   1
loop_
 _symmetry_equiv_pos_site_id
 _symmetry_equiv_pos_as_xyz
  1  'x, y, z'
loop_
 _atom_site_type_symbol
 _atom_site_label
 _atom_site_symmetry_multiplicity
 _atom_site_fract_x
 _atom_site_fract_y
 _atom_site_fract_z
 _atom_site_occupancy
  Y  Y0  1  0.750000  0.531885  0.783627  1
  Y  Y1  1  0.250000  0.967657  0.283566  1
  Y  Y2  1  0.750000  0.678618  0.443455  1
  Y  Y3  1  0.250000  0.820652  0.942898  1
  Y  Y4  1  0.750000  0.180140  0.057567  1
  Y  Y5  1  0.250000  0.321061  0.557303  1
  Y  Y6  1  0.250000  0.467329  0.216674  1
  Y  Y7  1  0.750000  0.032094  0.716470  1
  Re  Re8  1  0.750000  0.721401  0.134917  1
  Tc  Tc9  1  0.250000  0.278560  0.865139  1
  Tc  Tc10  1  0.250000  0.778746  0.634949  1
  Tc  Tc11  1  0.750000  0.221862  0.365430  1
  C  C12  1  0.250000  0.678935  0.452753  1
  C  C13  1  0.250000  0.545793  0.758705  1
  C  C14  1  0.750000  0.455435  0.240334  1
  C  C15  1  0.750000  0.820744  0.951703  1
  C  C16  1  0.250000  0.045535  0.741437  1
  C  C17  1  0.250000  0.178626  0.047311  1
  C  C18  1  0.750000  0.321084  0.547485  1
  C  C19  1  0.750000  0.953842  0.258275  1
