# generated using pymatgen
data_LiSc4Co19As12
_symmetry_space_group_name_H-M   'P 1'
_cell_length_a   3.71758500
_cell_length_b   10.58729511
_cell_length_c   12.12464711
_cell_angle_alpha   89.92497120
_cell_angle_beta   90.00000000
_cell_angle_gamma   90.00000000
_symmetry_Int_Tables_number   1
_chemical_formula_structural   LiSc4Co19As12
_chemical_formula_sum   'Li1 Sc4 Co19 As12'
_cell_volume   477.21563164
_cell_formula_units_Z   1
loop_
 _symmetry_equiv_pos_site_id
 _symmetry_equiv_pos_as_xyz
  1  'x, y, z'
loop_
 _atom_site_type_symbol
 _atom_site_label
 _atom_site_symmetry_multiplicity
 _atom_site_fract_x
 _atom_site_fract_y
 _atom_site_fract_z
 _atom_site_occupancy
  Li  Li0  1  0.250000  0.702418  0.990524  1
  Sc  Sc1  1  0.250000  0.578330  0.700898  1
  Sc  Sc2  1  0.250000  0.923168  0.202298  1
  Sc  Sc3  1  0.750000  0.421310  0.299221  1
  Sc  Sc4  1  0.750000  0.075469  0.798696  1
  Co  Co5  1  0.250000  0.785741  0.493061  1
  Co  Co6  1  0.750000  0.291295  0.009261  1
  Co  Co7  1  0.750000  0.214489  0.506368  1
  Co  Co8  1  0.250000  0.407465  0.486407  1
  Co  Co9  1  0.250000  0.093048  0.985885  1
  Co  Co10  1  0.750000  0.591845  0.515502  1
  Co  Co11  1  0.750000  0.910196  0.015414  1
  Co  Co12  1  0.250000  0.218817  0.176538  1
  Co  Co13  1  0.250000  0.283258  0.676285  1
  Co  Co14  1  0.750000  0.784777  0.820387  1
  Co  Co15  1  0.750000  0.715408  0.326872  1
  Co  Co16  1  0.250000  0.885202  0.697362  1
  Co  Co17  1  0.250000  0.618763  0.200221  1
  Co  Co18  1  0.750000  0.117026  0.300752  1
  Co  Co19  1  0.750000  0.380544  0.801501  1
  Co  Co20  1  0.250000  0.463701  0.930921  1
  Co  Co21  1  0.250000  0.033728  0.430614  1
  Co  Co22  1  0.750000  0.534222  0.067878  1
  Co  Co23  1  0.750000  0.968016  0.567242  1
  As  As24  1  0.250000  0.419157  0.117017  1
  As  As25  1  0.250000  0.083879  0.615911  1
  As  As26  1  0.750000  0.581380  0.879774  1
  As  As27  1  0.750000  0.916653  0.383113  1
  As  As28  1  0.250000  0.261749  0.867200  1
  As  As29  1  0.250000  0.236686  0.367495  1
  As  As30  1  0.750000  0.737755  0.136237  1
  As  As31  1  0.750000  0.765179  0.631414  1
  As  As32  1  0.250000  0.597231  0.391107  1
  As  As33  1  0.250000  0.900506  0.890108  1
  As  As34  1  0.750000  0.401547  0.610803  1
  As  As35  1  0.750000  0.100042  0.109715  1
