# generated using pymatgen
data_Sn3Pb4WO13
_symmetry_space_group_name_H-M   'P 1'
_cell_length_a   7.65654067
_cell_length_b   7.65654071
_cell_length_c   7.65654098
_cell_angle_alpha   59.32807644
_cell_angle_beta   59.32807564
_cell_angle_gamma   59.32807849
_symmetry_Int_Tables_number   1
_chemical_formula_structural   Sn3Pb4WO13
_chemical_formula_sum   'Sn3 Pb4 W1 O13'
_cell_volume   312.52731841
_cell_formula_units_Z   1
loop_
 _symmetry_equiv_pos_site_id
 _symmetry_equiv_pos_as_xyz
  1  'x, y, z'
loop_
 _atom_site_type_symbol
 _atom_site_label
 _atom_site_symmetry_multiplicity
 _atom_site_fract_x
 _atom_site_fract_y
 _atom_site_fract_z
 _atom_site_occupancy
  Sn  Sn0  1  0.000382  0.499521  0.499521  1
  Sn  Sn1  1  0.499521  0.000382  0.499521  1
  Sn  Sn2  1  0.499521  0.499521  0.000382  1
  Pb  Pb3  1  0.500218  0.999332  0.999332  1
  Pb  Pb4  1  0.999332  0.500218  0.999332  1
  Pb  Pb5  1  0.999332  0.999332  0.500218  1
  Pb  Pb6  1  0.999403  0.999403  0.999403  1
  W  W7  1  0.499462  0.499462  0.499462  1
  O  O8  1  0.830031  0.830031  0.425538  1
  O  O9  1  0.432470  0.432470  0.806136  1
  O  O10  1  0.830031  0.425538  0.830031  1
  O  O11  1  0.432470  0.806136  0.432470  1
  O  O12  1  0.425538  0.830031  0.830031  1
  O  O13  1  0.806136  0.432470  0.432470  1
  O  O14  1  0.172273  0.172273  0.572166  1
  O  O15  1  0.565597  0.565597  0.195640  1
  O  O16  1  0.172273  0.572166  0.172273  1
  O  O17  1  0.565597  0.195640  0.565597  1
  O  O18  1  0.572166  0.172273  0.172273  1
  O  O19  1  0.195640  0.565597  0.565597  1
  O  O20  1  0.127609  0.127609  0.127609  1
