# generated using pymatgen
data_YbSb12IrOs2Ru
_symmetry_space_group_name_H-M   'P 1'
_cell_length_a   8.14844730
_cell_length_b   8.12818112
_cell_length_c   8.15917010
_cell_angle_alpha   109.51225971
_cell_angle_beta   109.56806922
_cell_angle_gamma   109.44668927
_symmetry_Int_Tables_number   1
_chemical_formula_structural   YbSb12IrOs2Ru
_chemical_formula_sum   'Yb1 Sb12 Ir1 Os2 Ru1'
_cell_volume   415.41570247
_cell_formula_units_Z   1
loop_
 _symmetry_equiv_pos_site_id
 _symmetry_equiv_pos_as_xyz
  1  'x, y, z'
loop_
 _atom_site_type_symbol
 _atom_site_label
 _atom_site_symmetry_multiplicity
 _atom_site_fract_x
 _atom_site_fract_y
 _atom_site_fract_z
 _atom_site_occupancy
  Yb  Yb0  1  0.000000  0.000000  0.000000  1
  Sb  Sb1  1  0.843233  0.659245  0.504944  1
  Sb  Sb2  1  0.156767  0.340755  0.495056  1
  Sb  Sb3  1  0.157145  0.661899  0.818065  1
  Sb  Sb4  1  0.842855  0.338101  0.181935  1
  Sb  Sb5  1  0.661824  0.504966  0.843225  1
  Sb  Sb6  1  0.338176  0.495034  0.156775  1
  Sb  Sb7  1  0.658477  0.815360  0.153710  1
  Sb  Sb8  1  0.341523  0.184640  0.846290  1
  Sb  Sb9  1  0.504673  0.844218  0.662039  1
  Sb  Sb10  1  0.495327  0.155782  0.337961  1
  Sb  Sb11  1  0.183799  0.843723  0.338795  1
  Sb  Sb12  1  0.816201  0.156277  0.661205  1
  Ir  Ir13  1  0.000000  0.000000  0.500000  1
  Os  Os14  1  0.500000  0.500000  0.500000  1
  Os  Os15  1  0.000000  0.500000  0.000000  1
  Ru  Ru16  1  0.500000  0.000000  0.000000  1
