# generated using pymatgen
data_Pr7ThGaPd24
_symmetry_space_group_name_H-M   'P 1'
_cell_length_a   8.53124385
_cell_length_b   8.53124385
_cell_length_c   8.53124385
_cell_angle_alpha   90.12319713
_cell_angle_beta   90.12319713
_cell_angle_gamma   89.87680287
_symmetry_Int_Tables_number   1
_chemical_formula_structural   Pr7ThGaPd24
_chemical_formula_sum   'Pr7 Th1 Ga1 Pd24'
_cell_volume   620.91772762
_cell_formula_units_Z   1
loop_
 _symmetry_equiv_pos_site_id
 _symmetry_equiv_pos_as_xyz
  1  'x, y, z'
loop_
 _atom_site_type_symbol
 _atom_site_label
 _atom_site_symmetry_multiplicity
 _atom_site_fract_x
 _atom_site_fract_y
 _atom_site_fract_z
 _atom_site_occupancy
  Pr  Pr0  1  0.252212  0.747765  0.252235  1
  Pr  Pr1  1  0.747765  0.252212  0.252235  1
  Pr  Pr2  1  0.747765  0.747765  0.747788  1
  Pr  Pr3  1  0.747484  0.747484  0.252516  1
  Pr  Pr4  1  0.748960  0.252316  0.747684  1
  Pr  Pr5  1  0.252316  0.748960  0.747684  1
  Pr  Pr6  1  0.252316  0.252316  0.251040  1
  Th  Th7  1  0.253754  0.253754  0.746246  1
  Ga  Ga8  1  0.998062  0.998062  0.001938  1
  Pd  Pd9  1  0.498170  0.498170  0.746836  1
  Pd  Pd10  1  0.498170  0.253164  0.501830  1
  Pd  Pd11  1  0.253164  0.498170  0.501830  1
  Pd  Pd12  1  0.499415  0.499415  0.252729  1
  Pd  Pd13  1  0.499415  0.747271  0.500585  1
  Pd  Pd14  1  0.747271  0.499415  0.500585  1
  Pd  Pd15  1  0.002082  0.002082  0.708887  1
  Pd  Pd16  1  0.002082  0.291113  0.997918  1
  Pd  Pd17  1  0.291113  0.002082  0.997918  1
  Pd  Pd18  1  0.999962  0.999962  0.293828  1
  Pd  Pd19  1  0.999962  0.706172  0.000038  1
  Pd  Pd20  1  0.706172  0.999962  0.000038  1
  Pd  Pd21  1  0.003498  0.498356  0.739920  1
  Pd  Pd22  1  0.498356  0.260080  0.996502  1
  Pd  Pd23  1  0.260080  0.003498  0.501644  1
  Pd  Pd24  1  0.003498  0.260080  0.501644  1
  Pd  Pd25  1  0.498356  0.003498  0.739920  1
  Pd  Pd26  1  0.260080  0.498356  0.996502  1
  Pd  Pd27  1  0.000261  0.499194  0.260196  1
  Pd  Pd28  1  0.499194  0.739804  0.999739  1
  Pd  Pd29  1  0.000261  0.739804  0.500806  1
  Pd  Pd30  1  0.499194  0.000261  0.260196  1
  Pd  Pd31  1  0.739804  0.000261  0.500806  1
  Pd  Pd32  1  0.739804  0.499194  0.999739  1
