# generated using pymatgen
data_Zr6AlSi5Ru12
_symmetry_space_group_name_H-M   'P 1'
_cell_length_a   4.42311504
_cell_length_b   6.25538605
_cell_length_c   13.20874900
_cell_angle_alpha   89.99999569
_cell_angle_beta   90.00043716
_cell_angle_gamma   89.98483807
_symmetry_Int_Tables_number   1
_chemical_formula_structural   Zr6AlSi5Ru12
_chemical_formula_sum   'Zr6 Al1 Si5 Ru12'
_cell_volume   365.46351323
_cell_formula_units_Z   1
loop_
 _symmetry_equiv_pos_site_id
 _symmetry_equiv_pos_as_xyz
  1  'x, y, z'
loop_
 _atom_site_type_symbol
 _atom_site_label
 _atom_site_symmetry_multiplicity
 _atom_site_fract_x
 _atom_site_fract_y
 _atom_site_fract_z
 _atom_site_occupancy
  Zr  Zr0  1  0.000004  0.999999  0.999897  1
  Zr  Zr1  1  0.499902  0.500000  0.167089  1
  Zr  Zr2  1  0.999909  0.999999  0.333335  1
  Zr  Zr3  1  0.500000  0.499999  0.499578  1
  Zr  Zr4  1  0.000101  0.000000  0.666756  1
  Zr  Zr5  1  0.500102  0.500000  0.833342  1
  Al  Al6  1  0.500087  0.000000  0.833350  1
  Si  Si7  1  0.000002  0.499999  0.998958  1
  Si  Si8  1  0.499909  0.000000  0.166076  1
  Si  Si9  1  0.999904  0.500001  0.333342  1
  Si  Si10  1  0.500003  0.999999  0.500584  1
  Si  Si11  1  0.000089  0.500000  0.667720  1
  Ru  Ru12  1  0.500085  0.251118  0.002315  1
  Ru  Ru13  1  0.499915  0.748882  0.002315  1
  Ru  Ru14  1  0.999827  0.250709  0.167589  1
  Ru  Ru15  1  0.999999  0.749291  0.167588  1
  Ru  Ru16  1  0.499987  0.249030  0.333343  1
  Ru  Ru17  1  0.499818  0.750973  0.333342  1
  Ru  Ru18  1  0.999919  0.250731  0.499096  1
  Ru  Ru19  1  0.000089  0.749266  0.499096  1
  Ru  Ru20  1  0.500179  0.251139  0.664348  1
  Ru  Ru21  1  0.500007  0.748860  0.664348  1
  Ru  Ru22  1  0.999992  0.253847  0.833299  1
  Ru  Ru23  1  0.000175  0.746153  0.833299  1
