# generated using pymatgen
data_Dy7YIn8
_symmetry_space_group_name_H-M   'P 1'
_cell_length_a   6.53023400
_cell_length_b   6.53023468
_cell_length_c   10.43645600
_cell_angle_alpha   90.00000000
_cell_angle_beta   90.00000000
_cell_angle_gamma   104.76071110
_symmetry_Int_Tables_number   1
_chemical_formula_structural   Dy7YIn8
_chemical_formula_sum   'Dy7 Y1 In8'
_cell_volume   430.36436252
_cell_formula_units_Z   1
loop_
 _symmetry_equiv_pos_site_id
 _symmetry_equiv_pos_as_xyz
  1  'x, y, z'
loop_
 _atom_site_type_symbol
 _atom_site_label
 _atom_site_symmetry_multiplicity
 _atom_site_fract_x
 _atom_site_fract_y
 _atom_site_fract_z
 _atom_site_occupancy
  Dy  Dy0  1  0.481870  0.481870  0.750000  1
  Dy  Dy1  1  0.247597  0.752371  0.500012  1
  Dy  Dy2  1  0.247597  0.752371  0.999988  1
  Dy  Dy3  1  0.752371  0.247597  0.500012  1
  Dy  Dy4  1  0.752371  0.247597  0.999988  1
  Dy  Dy5  1  0.986217  0.986217  0.250000  1
  Dy  Dy6  1  0.013910  0.013910  0.750000  1
  Y  Y7  1  0.518218  0.518218  0.250000  1
  In  In8  1  0.252294  0.252294  0.010258  1
  In  In9  1  0.747678  0.747678  0.989837  1
  In  In10  1  0.252294  0.252294  0.489742  1
  In  In11  1  0.747678  0.747678  0.510163  1
  In  In12  1  0.490429  0.011376  0.250000  1
  In  In13  1  0.988470  0.509629  0.750000  1
  In  In14  1  0.509629  0.988470  0.750000  1
  In  In15  1  0.011376  0.490429  0.250000  1
