# generated using pymatgen
data_Y3TlIn2Ag2Rh
_symmetry_space_group_name_H-M   'P 1'
_cell_length_a   8.05993052
_cell_length_b   8.09607787
_cell_length_c   3.71035000
_cell_angle_alpha   90.00000000
_cell_angle_beta   90.00000000
_cell_angle_gamma   120.23556298
_symmetry_Int_Tables_number   1
_chemical_formula_structural   Y3TlIn2Ag2Rh
_chemical_formula_sum   'Y3 Tl1 In2 Ag2 Rh1'
_cell_volume   209.17785425
_cell_formula_units_Z   1
loop_
 _symmetry_equiv_pos_site_id
 _symmetry_equiv_pos_as_xyz
  1  'x, y, z'
loop_
 _atom_site_type_symbol
 _atom_site_label
 _atom_site_symmetry_multiplicity
 _atom_site_fract_x
 _atom_site_fract_y
 _atom_site_fract_z
 _atom_site_occupancy
  Y  Y0  1  0.967980  0.581951  0.500000  1
  Y  Y1  1  0.414778  0.384624  0.500000  1
  Y  Y2  1  0.615249  0.033133  0.500000  1
  Tl  Tl3  1  0.011620  0.281353  0.000000  1
  In  In4  1  0.270121  0.989964  0.000000  1
  In  In5  1  0.721127  0.727082  0.000000  1
  Ag  Ag6  1  0.339583  0.675399  0.000000  1
  Ag  Ag7  1  0.998198  0.991464  0.500000  1
  Rh  Rh8  1  0.661343  0.335030  0.000000  1
