# generated using pymatgen
data_Tb19DySn16
_symmetry_space_group_name_H-M   'P 1'
_cell_length_a   8.06818750
_cell_length_b   8.22197458
_cell_length_c   15.53258300
_cell_angle_alpha   90.00000000
_cell_angle_beta   90.00000000
_cell_angle_gamma   89.95964420
_symmetry_Int_Tables_number   1
_chemical_formula_structural   Tb19DySn16
_chemical_formula_sum   'Tb19 Dy1 Sn16'
_cell_volume   1030.37588755
_cell_formula_units_Z   1
loop_
 _symmetry_equiv_pos_site_id
 _symmetry_equiv_pos_as_xyz
  1  'x, y, z'
loop_
 _atom_site_type_symbol
 _atom_site_label
 _atom_site_symmetry_multiplicity
 _atom_site_fract_x
 _atom_site_fract_y
 _atom_site_fract_z
 _atom_site_occupancy
  Tb  Tb0  1  0.367347  0.835711  0.878260  1
  Tb  Tb1  1  0.867938  0.663847  0.621747  1
  Tb  Tb2  1  0.632441  0.164137  0.378333  1
  Tb  Tb3  1  0.132419  0.335905  0.121406  1
  Tb  Tb4  1  0.632441  0.164137  0.121667  1
  Tb  Tb5  1  0.132419  0.335905  0.378594  1
  Tb  Tb6  1  0.367347  0.835711  0.621740  1
  Tb  Tb7  1  0.867938  0.663847  0.878253  1
  Tb  Tb8  1  0.519956  0.320129  0.902059  1
  Tb  Tb9  1  0.020310  0.180324  0.597918  1
  Tb  Tb10  1  0.479929  0.680065  0.402205  1
  Tb  Tb11  1  0.979828  0.819944  0.097916  1
  Tb  Tb12  1  0.479929  0.680065  0.097795  1
  Tb  Tb13  1  0.979828  0.819944  0.402084  1
  Tb  Tb14  1  0.519956  0.320129  0.597941  1
  Tb  Tb15  1  0.020310  0.180324  0.902082  1
  Tb  Tb16  1  0.698468  0.997927  0.750000  1
  Tb  Tb17  1  0.801347  0.497779  0.250000  1
  Tb  Tb18  1  0.301387  0.002245  0.250000  1
  Dy  Dy19  1  0.198815  0.502442  0.750000  1
  Sn  Sn20  1  0.292308  0.034644  0.041842  1
  Sn  Sn21  1  0.792215  0.465119  0.458133  1
  Sn  Sn22  1  0.707751  0.965307  0.542029  1
  Sn  Sn23  1  0.207709  0.534494  0.957385  1
  Sn  Sn24  1  0.707751  0.965307  0.957971  1
  Sn  Sn25  1  0.207709  0.534494  0.542615  1
  Sn  Sn26  1  0.292308  0.034644  0.458158  1
  Sn  Sn27  1  0.792215  0.465119  0.041867  1
  Sn  Sn28  1  0.564651  0.617979  0.750000  1
  Sn  Sn29  1  0.065978  0.880825  0.750000  1
  Sn  Sn30  1  0.434142  0.381470  0.250000  1
  Sn  Sn31  1  0.934432  0.118650  0.250000  1
  Sn  Sn32  1  0.327754  0.147431  0.750000  1
  Sn  Sn33  1  0.828566  0.354359  0.750000  1
  Sn  Sn34  1  0.671932  0.853795  0.250000  1
  Sn  Sn35  1  0.172225  0.645844  0.250000  1
