# generated using pymatgen
data_La6Cr(TcC4)3
_symmetry_space_group_name_H-M   'P 1'
_cell_length_a   8.53472400
_cell_length_b   8.53472354
_cell_length_c   5.35217300
_cell_angle_alpha   90.00000000
_cell_angle_beta   90.00000000
_cell_angle_gamma   119.99999195
_symmetry_Int_Tables_number   1
_chemical_formula_structural   La6Cr(TcC4)3
_chemical_formula_sum   'La6 Cr1 Tc3 C12'
_cell_volume   337.62900500
_cell_formula_units_Z   1
loop_
 _symmetry_equiv_pos_site_id
 _symmetry_equiv_pos_as_xyz
  1  'x, y, z'
loop_
 _atom_site_type_symbol
 _atom_site_label
 _atom_site_symmetry_multiplicity
 _atom_site_fract_x
 _atom_site_fract_y
 _atom_site_fract_z
 _atom_site_occupancy
  La  La0  1  0.617236  0.694480  0.750494  1
  La  La1  1  0.922756  0.617236  0.249506  1
  La  La2  1  0.694480  0.077244  0.249506  1
  La  La3  1  0.305520  0.922756  0.750494  1
  La  La4  1  0.077244  0.382764  0.750494  1
  La  La5  1  0.382764  0.305520  0.249506  1
  Cr  Cr6  1  0.000000  0.000000  0.000000  1
  Tc  Tc7  1  0.000000  0.000000  0.500000  1
  Tc  Tc8  1  0.666667  0.333333  0.749455  1
  Tc  Tc9  1  0.333333  0.666667  0.250545  1
  C  C10  1  0.951682  0.772810  0.755589  1
  C  C11  1  0.178871  0.951682  0.244411  1
  C  C12  1  0.772810  0.821129  0.244411  1
  C  C13  1  0.227190  0.178871  0.755589  1
  C  C14  1  0.821129  0.048318  0.755589  1
  C  C15  1  0.048318  0.227190  0.244411  1
  C  C16  1  0.859586  0.587697  0.750895  1
  C  C17  1  0.271888  0.859586  0.249105  1
  C  C18  1  0.587697  0.728112  0.249105  1
  C  C19  1  0.412303  0.271888  0.750895  1
  C  C20  1  0.140414  0.412303  0.249105  1
  C  C21  1  0.728112  0.140414  0.750895  1
