# generated using pymatgen
data_La4TbP12Ir11Ru8
_symmetry_space_group_name_H-M   'P 1'
_cell_length_a   12.76149207
_cell_length_b   12.72387969
_cell_length_c   4.02438800
_cell_angle_alpha   90.00000000
_cell_angle_beta   90.00000000
_cell_angle_gamma   120.03899291
_symmetry_Int_Tables_number   1
_chemical_formula_structural   La4TbP12Ir11Ru8
_chemical_formula_sum   'La4 Tb1 P12 Ir11 Ru8'
_cell_volume   565.69287632
_cell_formula_units_Z   1
loop_
 _symmetry_equiv_pos_site_id
 _symmetry_equiv_pos_as_xyz
  1  'x, y, z'
loop_
 _atom_site_type_symbol
 _atom_site_label
 _atom_site_symmetry_multiplicity
 _atom_site_fract_x
 _atom_site_fract_y
 _atom_site_fract_z
 _atom_site_occupancy
  La  La0  1  0.668062  0.332278  0.000000  1
  La  La1  1  0.334753  0.668343  0.000000  1
  La  La2  1  0.183447  0.185553  0.500000  1
  La  La3  1  0.998715  0.814617  0.500000  1
  Tb  Tb4  1  0.811440  0.000788  0.500000  1
  P  P5  1  0.632479  0.998482  0.000000  1
  P  P6  1  0.367254  0.367624  0.000000  1
  P  P7  1  0.000591  0.632197  0.000000  1
  P  P8  1  0.690340  0.521110  0.500000  1
  P  P9  1  0.830885  0.306329  0.500000  1
  P  P10  1  0.317002  0.835944  0.500000  1
  P  P11  1  0.521423  0.691893  0.500000  1
  P  P12  1  0.181996  0.000402  0.000000  1
  P  P13  1  0.816285  0.818963  0.000000  1
  P  P14  1  0.994177  0.181188  0.000000  1
  P  P15  1  0.478862  0.166622  0.500000  1
  P  P16  1  0.168101  0.478699  0.500000  1
  Ir  Ir17  1  0.625201  0.804733  0.000000  1
  Ir  Ir18  1  0.181538  0.378670  0.000000  1
  Ir  Ir19  1  0.377685  0.181431  0.000000  1
  Ir  Ir20  1  0.195370  0.819062  0.000000  1
  Ir  Ir21  1  0.802379  0.621179  0.000000  1
  Ir  Ir22  1  0.873743  0.509448  0.500000  1
  Ir  Ir23  1  0.491202  0.362450  0.500000  1
  Ir  Ir24  1  0.636773  0.126683  0.500000  1
  Ir  Ir25  1  0.129518  0.638809  0.500000  1
  Ir  Ir26  1  0.363367  0.489572  0.500000  1
  Ir  Ir27  1  0.996981  0.000189  0.000000  1
  Ru  Ru28  1  0.513771  0.874039  0.500000  1
  Ru  Ru29  1  0.710527  0.710790  0.500000  1
  Ru  Ru30  1  0.000345  0.288528  0.500000  1
  Ru  Ru31  1  0.450716  0.998838  0.000000  1
  Ru  Ru32  1  0.547795  0.547226  0.000000  1
  Ru  Ru33  1  0.000899  0.452546  0.000000  1
  Ru  Ru34  1  0.817844  0.194572  0.000000  1
  Ru  Ru35  1  0.288535  0.000201  0.500000  1
