# generated using pymatgen
data_Hf10ZnSn2GePb4
_symmetry_space_group_name_H-M   'P 1'
_cell_length_a   8.71800960
_cell_length_b   8.72398569
_cell_length_c   5.86293949
_cell_angle_alpha   90.04049405
_cell_angle_beta   89.97972918
_cell_angle_gamma   120.02267675
_symmetry_Int_Tables_number   1
_chemical_formula_structural   Hf10ZnSn2GePb4
_chemical_formula_sum   'Hf10 Zn1 Sn2 Ge1 Pb4'
_cell_volume   386.08145243
_cell_formula_units_Z   1
loop_
 _symmetry_equiv_pos_site_id
 _symmetry_equiv_pos_as_xyz
  1  'x, y, z'
loop_
 _atom_site_type_symbol
 _atom_site_label
 _atom_site_symmetry_multiplicity
 _atom_site_fract_x
 _atom_site_fract_y
 _atom_site_fract_z
 _atom_site_occupancy
  Hf  Hf0  1  0.733269  0.733728  0.248400  1
  Hf  Hf1  1  0.733269  0.999542  0.751600  1
  Hf  Hf2  1  0.004407  0.264771  0.248571  1
  Hf  Hf3  1  0.004407  0.739636  0.751429  1
  Hf  Hf4  1  0.266678  0.261896  0.750305  1
  Hf  Hf5  1  0.266678  0.004781  0.249695  1
  Hf  Hf6  1  0.334087  0.667043  0.500000  1
  Hf  Hf7  1  0.661813  0.330907  0.000000  1
  Hf  Hf8  1  0.661254  0.330627  0.500000  1
  Hf  Hf9  1  0.334197  0.667098  0.000000  1
  Zn  Zn10  1  0.999304  0.999652  0.500000  1
  Sn  Sn11  1  0.388931  0.998761  0.747975  1
  Sn  Sn12  1  0.388931  0.390171  0.252025  1
  Ge  Ge13  1  0.999021  0.999511  0.000000  1
  Pb  Pb14  1  0.999216  0.611769  0.251783  1
  Pb  Pb15  1  0.999216  0.387446  0.748217  1
  Pb  Pb16  1  0.612661  0.612042  0.748288  1
  Pb  Pb17  1  0.612661  0.000619  0.251712  1
