# generated using pymatgen
data_CeZnSiOsPd
_symmetry_space_group_name_H-M   'P 1'
_cell_length_a   4.21516300
_cell_length_b   4.21516300
_cell_length_c   10.28764800
_cell_angle_alpha   90.00000000
_cell_angle_beta   90.00000000
_cell_angle_gamma   90.00000000
_symmetry_Int_Tables_number   1
_chemical_formula_structural   CeZnSiOsPd
_chemical_formula_sum   'Ce2 Zn2 Si2 Os2 Pd2'
_cell_volume   182.78680552
_cell_formula_units_Z   2
loop_
 _symmetry_equiv_pos_site_id
 _symmetry_equiv_pos_as_xyz
  1  'x, y, z'
loop_
 _atom_site_type_symbol
 _atom_site_label
 _atom_site_symmetry_multiplicity
 _atom_site_fract_x
 _atom_site_fract_y
 _atom_site_fract_z
 _atom_site_occupancy
  Ce  Ce0  1  0.000000  0.500000  0.231699  1
  Ce  Ce1  1  0.500000  0.000000  0.768301  1
  Zn  Zn2  1  0.500000  0.500000  0.500000  1
  Zn  Zn3  1  0.000000  0.000000  0.500000  1
  Si  Si4  1  0.500000  0.000000  0.115334  1
  Si  Si5  1  0.000000  0.500000  0.884666  1
  Os  Os6  1  0.000000  0.000000  0.000000  1
  Os  Os7  1  0.500000  0.500000  0.000000  1
  Pd  Pd8  1  0.000000  0.500000  0.649182  1
  Pd  Pd9  1  0.500000  0.000000  0.350818  1
