# generated using pymatgen
data_Tb3CoAgSn3Ir
_symmetry_space_group_name_H-M   'P 1'
_cell_length_a   7.71138600
_cell_length_b   7.71138585
_cell_length_c   3.78126300
_cell_angle_alpha   90.00000000
_cell_angle_beta   90.00000000
_cell_angle_gamma   119.99999322
_symmetry_Int_Tables_number   1
_chemical_formula_structural   Tb3CoAgSn3Ir
_chemical_formula_sum   'Tb3 Co1 Ag1 Sn3 Ir1'
_cell_volume   194.72980245
_cell_formula_units_Z   1
loop_
 _symmetry_equiv_pos_site_id
 _symmetry_equiv_pos_as_xyz
  1  'x, y, z'
loop_
 _atom_site_type_symbol
 _atom_site_label
 _atom_site_symmetry_multiplicity
 _atom_site_fract_x
 _atom_site_fract_y
 _atom_site_fract_z
 _atom_site_occupancy
  Tb  Tb0  1  0.610557  0.021812  0.000000  1
  Tb  Tb1  1  0.978188  0.588745  0.000000  1
  Tb  Tb2  1  0.411255  0.389443  0.000000  1
  Co  Co3  1  0.000000  0.000000  0.000000  1
  Ag  Ag4  1  0.333333  0.666667  0.500000  1
  Sn  Sn5  1  0.247125  0.996230  0.500000  1
  Sn  Sn6  1  0.003770  0.250895  0.500000  1
  Sn  Sn7  1  0.749105  0.752875  0.500000  1
  Ir  Ir8  1  0.666667  0.333333  0.500000  1
