# generated using pymatgen
data_Tb8Y4TlCo4Pt
_symmetry_space_group_name_H-M   'P 1'
_cell_length_a   8.29237044
_cell_length_b   8.29237061
_cell_length_c   8.29237100
_cell_angle_alpha   107.14702102
_cell_angle_beta   110.24143623
_cell_angle_gamma   111.05098109
_symmetry_Int_Tables_number   1
_chemical_formula_structural   Tb8Y4TlCo4Pt
_chemical_formula_sum   'Tb8 Y4 Tl1 Co4 Pt1'
_cell_volume   438.38735783
_cell_formula_units_Z   1
loop_
 _symmetry_equiv_pos_site_id
 _symmetry_equiv_pos_as_xyz
  1  'x, y, z'
loop_
 _atom_site_type_symbol
 _atom_site_label
 _atom_site_symmetry_multiplicity
 _atom_site_fract_x
 _atom_site_fract_y
 _atom_site_fract_z
 _atom_site_occupancy
  Tb  Tb0  1  0.698541  0.284646  0.983187  1
  Tb  Tb1  1  0.301459  0.715354  0.016813  1
  Tb  Tb2  1  0.698541  0.715354  0.413894  1
  Tb  Tb3  1  0.301459  0.284646  0.586106  1
  Tb  Tb4  1  0.804581  0.119685  0.315103  1
  Tb  Tb5  1  0.804581  0.489478  0.684897  1
  Tb  Tb6  1  0.195419  0.880315  0.684897  1
  Tb  Tb7  1  0.195419  0.510522  0.315103  1
  Y  Y8  1  0.605667  0.791243  0.814424  1
  Y  Y9  1  0.976819  0.791243  0.185576  1
  Y  Y10  1  0.023181  0.208757  0.814424  1
  Y  Y11  1  0.394333  0.208757  0.185576  1
  Tl  Tl12  1  0.500000  0.000000  0.500000  1
  Co  Co13  1  0.878867  0.500000  0.378867  1
  Co  Co14  1  0.121133  0.500000  0.621133  1
  Co  Co15  1  0.000000  0.112441  0.112441  1
  Co  Co16  1  0.000000  0.887559  0.887559  1
  Pt  Pt17  1  0.500000  0.500000  0.000000  1
