# generated using pymatgen
data_Hf16TcNi4W3
_symmetry_space_group_name_H-M   'P 1'
_cell_length_a   8.68683054
_cell_length_b   8.70614279
_cell_length_c   8.70614400
_cell_angle_alpha   59.99999540
_cell_angle_beta   59.92642640
_cell_angle_gamma   59.92643216
_symmetry_Int_Tables_number   1
_chemical_formula_structural   Hf16TcNi4W3
_chemical_formula_sum   'Hf16 Tc1 Ni4 W3'
_cell_volume   465.06550440
_cell_formula_units_Z   1
loop_
 _symmetry_equiv_pos_site_id
 _symmetry_equiv_pos_as_xyz
  1  'x, y, z'
loop_
 _atom_site_type_symbol
 _atom_site_label
 _atom_site_symmetry_multiplicity
 _atom_site_fract_x
 _atom_site_fract_y
 _atom_site_fract_z
 _atom_site_occupancy
  Hf  Hf0  1  0.691319  0.102893  0.102893  1
  Hf  Hf1  1  0.102780  0.692056  0.102581  1
  Hf  Hf2  1  0.102780  0.102581  0.692056  1
  Hf  Hf3  1  0.102780  0.102581  0.102581  1
  Hf  Hf4  1  0.314680  0.314804  0.685258  1
  Hf  Hf5  1  0.686114  0.684011  0.314938  1
  Hf  Hf6  1  0.314680  0.685258  0.314804  1
  Hf  Hf7  1  0.686114  0.314938  0.684011  1
  Hf  Hf8  1  0.686114  0.314938  0.314938  1
  Hf  Hf9  1  0.314680  0.685258  0.685258  1
  Hf  Hf10  1  0.953710  0.953937  0.546177  1
  Hf  Hf11  1  0.545884  0.545878  0.954120  1
  Hf  Hf12  1  0.953710  0.546177  0.953937  1
  Hf  Hf13  1  0.545884  0.954120  0.545878  1
  Hf  Hf14  1  0.545884  0.954120  0.954120  1
  Hf  Hf15  1  0.953710  0.546177  0.546177  1
  Tc  Tc16  1  0.997414  0.334195  0.334195  1
  Ni  Ni17  1  0.325567  0.891478  0.891478  1
  Ni  Ni18  1  0.892308  0.326261  0.890716  1
  Ni  Ni19  1  0.892308  0.890716  0.326261  1
  Ni  Ni20  1  0.892308  0.890716  0.890716  1
  W  W21  1  0.333091  0.001826  0.332541  1
  W  W22  1  0.333091  0.332541  0.001826  1
  W  W23  1  0.333091  0.332541  0.332541  1
