# generated using pymatgen
data_Nd7USe12
_symmetry_space_group_name_H-M   'P 1'
_cell_length_a   4.17085700
_cell_length_b   11.20149129
_cell_length_c   11.48758270
_cell_angle_alpha   89.81999648
_cell_angle_beta   90.00000000
_cell_angle_gamma   90.00000000
_symmetry_Int_Tables_number   1
_chemical_formula_structural   Nd7USe12
_chemical_formula_sum   'Nd7 U1 Se12'
_cell_volume   536.69512845
_cell_formula_units_Z   1
loop_
 _symmetry_equiv_pos_site_id
 _symmetry_equiv_pos_as_xyz
  1  'x, y, z'
loop_
 _atom_site_type_symbol
 _atom_site_label
 _atom_site_symmetry_multiplicity
 _atom_site_fract_x
 _atom_site_fract_y
 _atom_site_fract_z
 _atom_site_occupancy
  Nd  Nd0  1  0.750000  0.814101  0.488903  1
  Nd  Nd1  1  0.750000  0.496264  0.308652  1
  Nd  Nd2  1  0.250000  0.995127  0.192312  1
  Nd  Nd3  1  0.750000  0.005087  0.804668  1
  Nd  Nd4  1  0.250000  0.312751  0.011285  1
  Nd  Nd5  1  0.750000  0.687372  0.988006  1
  Nd  Nd6  1  0.250000  0.503632  0.693396  1
  U  U7  1  0.250000  0.186931  0.509183  1
  Se  Se8  1  0.250000  0.553362  0.122584  1
  Se  Se9  1  0.750000  0.366725  0.547243  1
  Se  Se10  1  0.250000  0.624777  0.455239  1
  Se  Se11  1  0.250000  0.297988  0.276331  1
  Se  Se12  1  0.250000  0.202187  0.766538  1
  Se  Se13  1  0.750000  0.126311  0.045907  1
  Se  Se14  1  0.750000  0.700103  0.727229  1
  Se  Se15  1  0.250000  0.874332  0.953548  1
  Se  Se16  1  0.750000  0.800884  0.229180  1
  Se  Se17  1  0.750000  0.059717  0.381573  1
  Se  Se18  1  0.750000  0.444766  0.878620  1
  Se  Se19  1  0.250000  0.947583  0.619603  1
