# generated using pymatgen
data_Hf3Zr2Co16Si7Mo
_symmetry_space_group_name_H-M   'P 1'
_cell_length_a   7.99811642
_cell_length_b   8.02460434
_cell_length_c   8.01743510
_cell_angle_alpha   59.81116037
_cell_angle_beta   60.13892960
_cell_angle_gamma   60.04992057
_symmetry_Int_Tables_number   1
_chemical_formula_structural   Hf3Zr2Co16Si7Mo
_chemical_formula_sum   'Hf3 Zr2 Co16 Si7 Mo1'
_cell_volume   363.85156685
_cell_formula_units_Z   1
loop_
 _symmetry_equiv_pos_site_id
 _symmetry_equiv_pos_as_xyz
  1  'x, y, z'
loop_
 _atom_site_type_symbol
 _atom_site_label
 _atom_site_symmetry_multiplicity
 _atom_site_fract_x
 _atom_site_fract_y
 _atom_site_fract_z
 _atom_site_occupancy
  Hf  Hf0  1  0.296034  0.293590  0.703966  1
  Hf  Hf1  1  0.289429  0.710571  0.710571  1
  Hf  Hf2  1  0.706410  0.703966  0.293590  1
  Zr  Zr3  1  0.299058  0.700942  0.296445  1
  Zr  Zr4  1  0.703555  0.296445  0.700942  1
  Co  Co5  1  0.121122  0.120487  0.638246  1
  Co  Co6  1  0.668745  0.992087  0.669390  1
  Co  Co7  1  0.361754  0.879853  0.878878  1
  Co  Co8  1  0.007913  0.331255  0.330223  1
  Co  Co9  1  0.990724  0.669586  0.670871  1
  Co  Co10  1  0.329129  0.331182  0.009276  1
  Co  Co11  1  0.669777  0.669390  0.992087  1
  Co  Co12  1  0.644351  0.120417  0.121368  1
  Co  Co13  1  0.668818  0.670871  0.669586  1
  Co  Co14  1  0.878632  0.886135  0.355649  1
  Co  Co15  1  0.113865  0.121368  0.120417  1
  Co  Co16  1  0.879583  0.355649  0.886135  1
  Co  Co17  1  0.879513  0.878878  0.879853  1
  Co  Co18  1  0.330610  0.330223  0.331255  1
  Co  Co19  1  0.120147  0.638246  0.120487  1
  Co  Co20  1  0.330414  0.009276  0.331182  1
  Si  Si21  1  0.997377  0.495022  0.002623  1
  Si  Si22  1  0.997538  0.002462  0.494813  1
  Si  Si23  1  0.003777  0.996223  0.996223  1
  Si  Si24  1  0.505187  0.494813  0.002462  1
  Si  Si25  1  0.504978  0.002623  0.495022  1
  Si  Si26  1  0.499329  0.000671  0.000671  1
  Si  Si27  1  0.999329  0.500671  0.500671  1
  Mo  Mo28  1  0.702904  0.297096  0.297096  1
