# generated using pymatgen
data_Tm12Si12Ir3Rh
_symmetry_space_group_name_H-M   'P 1'
_cell_length_a   4.17706100
_cell_length_b   10.58648981
_cell_length_c   12.17876200
_cell_angle_alpha   90.07391389
_cell_angle_beta   90.00000000
_cell_angle_gamma   90.00000000
_symmetry_Int_Tables_number   1
_chemical_formula_structural   Tm12Si12Ir3Rh
_chemical_formula_sum   'Tm12 Si12 Ir3 Rh1'
_cell_volume   538.54944597
_cell_formula_units_Z   1
loop_
 _symmetry_equiv_pos_site_id
 _symmetry_equiv_pos_as_xyz
  1  'x, y, z'
loop_
 _atom_site_type_symbol
 _atom_site_label
 _atom_site_symmetry_multiplicity
 _atom_site_fract_x
 _atom_site_fract_y
 _atom_site_fract_z
 _atom_site_occupancy
  Tm  Tm0  1  0.250000  0.879455  0.020283  1
  Tm  Tm1  1  0.250000  0.620320  0.519713  1
  Tm  Tm2  1  0.750000  0.120864  0.980083  1
  Tm  Tm3  1  0.750000  0.380018  0.479848  1
  Tm  Tm4  1  0.250000  0.920062  0.603230  1
  Tm  Tm5  1  0.250000  0.579481  0.103781  1
  Tm  Tm6  1  0.750000  0.080001  0.396504  1
  Tm  Tm7  1  0.750000  0.419954  0.896370  1
  Tm  Tm8  1  0.250000  0.660575  0.800491  1
  Tm  Tm9  1  0.250000  0.839614  0.300133  1
  Tm  Tm10  1  0.750000  0.339531  0.199784  1
  Tm  Tm11  1  0.750000  0.159923  0.699512  1
  Si  Si12  1  0.250000  0.013936  0.821952  1
  Si  Si13  1  0.250000  0.487782  0.321283  1
  Si  Si14  1  0.750000  0.987539  0.178364  1
  Si  Si15  1  0.750000  0.512530  0.678766  1
  Si  Si16  1  0.250000  0.248133  0.840959  1
  Si  Si17  1  0.250000  0.252574  0.341404  1
  Si  Si18  1  0.750000  0.751893  0.158936  1
  Si  Si19  1  0.750000  0.747761  0.657888  1
  Si  Si20  1  0.250000  0.199818  0.543948  1
  Si  Si21  1  0.250000  0.300988  0.044112  1
  Si  Si22  1  0.750000  0.800431  0.455566  1
  Si  Si23  1  0.750000  0.697210  0.957294  1
  Ir  Ir24  1  0.250000  0.390668  0.679917  1
  Ir  Ir25  1  0.250000  0.109197  0.180873  1
  Ir  Ir26  1  0.750000  0.609515  0.319887  1
  Rh  Rh27  1  0.750000  0.890231  0.819122  1
