# generated using pymatgen
data_Ho5(Tl2Pd)2
_symmetry_space_group_name_H-M   'P 1'
_cell_length_a   18.38552200
_cell_length_b   8.25261800
_cell_length_c   3.62184800
_cell_angle_alpha   90.00000000
_cell_angle_beta   90.00000000
_cell_angle_gamma   90.00000000
_symmetry_Int_Tables_number   1
_chemical_formula_structural   Ho5(Tl2Pd)2
_chemical_formula_sum   'Ho10 Tl8 Pd4'
_cell_volume   549.53825168
_cell_formula_units_Z   2
loop_
 _symmetry_equiv_pos_site_id
 _symmetry_equiv_pos_as_xyz
  1  'x, y, z'
loop_
 _atom_site_type_symbol
 _atom_site_label
 _atom_site_symmetry_multiplicity
 _atom_site_fract_x
 _atom_site_fract_y
 _atom_site_fract_z
 _atom_site_occupancy
  Ho  Ho0  1  0.000000  0.000000  0.000000  1
  Ho  Ho1  1  0.415101  0.115882  0.000000  1
  Ho  Ho2  1  0.219779  0.241650  0.000000  1
  Ho  Ho3  1  0.719779  0.258351  0.000000  1
  Ho  Ho4  1  0.915101  0.384119  0.000000  1
  Ho  Ho5  1  0.500000  0.500000  0.000000  1
  Ho  Ho6  1  0.084899  0.615882  0.000000  1
  Ho  Ho7  1  0.280221  0.741650  0.000000  1
  Ho  Ho8  1  0.780221  0.758351  0.000000  1
  Ho  Ho9  1  0.584898  0.884119  0.000000  1
  Tl  Tl10  1  0.850966  0.082126  0.500000  1
  Tl  Tl11  1  0.566659  0.208188  0.500000  1
  Tl  Tl12  1  0.066659  0.291812  0.500000  1
  Tl  Tl13  1  0.350966  0.417873  0.500000  1
  Tl  Tl14  1  0.649034  0.582127  0.500000  1
  Tl  Tl15  1  0.933341  0.708187  0.500000  1
  Tl  Tl16  1  0.433341  0.791812  0.500000  1
  Tl  Tl17  1  0.149034  0.917873  0.500000  1
  Pd  Pd18  1  0.304169  0.025521  0.500000  1
  Pd  Pd19  1  0.804169  0.474479  0.500000  1
  Pd  Pd20  1  0.195831  0.525521  0.500000  1
  Pd  Pd21  1  0.695830  0.974480  0.500000  1
