# generated using pymatgen
data_Eu9DySn6F2
_symmetry_space_group_name_H-M   'P 1'
_cell_length_a   9.66838452
_cell_length_b   9.66838275
_cell_length_c   9.66838300
_cell_angle_alpha   128.82817481
_cell_angle_beta   128.82816634
_cell_angle_gamma   75.28720615
_symmetry_Int_Tables_number   1
_chemical_formula_structural   Eu9DySn6F2
_chemical_formula_sum   'Eu9 Dy1 Sn6 F2'
_cell_volume   533.88155377
_cell_formula_units_Z   1
loop_
 _symmetry_equiv_pos_site_id
 _symmetry_equiv_pos_as_xyz
  1  'x, y, z'
loop_
 _atom_site_type_symbol
 _atom_site_label
 _atom_site_symmetry_multiplicity
 _atom_site_fract_x
 _atom_site_fract_y
 _atom_site_fract_z
 _atom_site_occupancy
  Eu  Eu0  1  0.500000  0.500000  0.000000  1
  Eu  Eu1  1  0.514340  0.013202  0.828567  1
  Eu  Eu2  1  0.184635  0.685773  0.171433  1
  Eu  Eu3  1  0.013202  0.184635  0.498862  1
  Eu  Eu4  1  0.685773  0.514340  0.501138  1
  Eu  Eu5  1  0.485660  0.986798  0.171433  1
  Eu  Eu6  1  0.815365  0.314227  0.828567  1
  Eu  Eu7  1  0.986798  0.815365  0.501138  1
  Eu  Eu8  1  0.314227  0.485660  0.498862  1
  Dy  Dy9  1  0.000000  0.000000  0.000000  1
  Sn  Sn10  1  0.246772  0.246772  0.000000  1
  Sn  Sn11  1  0.753228  0.753228  0.000000  1
  Sn  Sn12  1  0.877811  0.366802  0.244616  1
  Sn  Sn13  1  0.122189  0.633198  0.755384  1
  Sn  Sn14  1  0.366802  0.122189  0.488991  1
  Sn  Sn15  1  0.633198  0.877811  0.511009  1
  F  F16  1  0.250000  0.750000  0.500000  1
  F  F17  1  0.750000  0.250000  0.500000  1
