# generated using pymatgen
data_Y8Be4GaSi11
_symmetry_space_group_name_H-M   'P 1'
_cell_length_a   7.88045600
_cell_length_b   7.86937686
_cell_length_c   8.12788000
_cell_angle_alpha   90.00203225
_cell_angle_beta   90.00000000
_cell_angle_gamma   120.04658323
_symmetry_Int_Tables_number   1
_chemical_formula_structural   Y8Be4GaSi11
_chemical_formula_sum   'Y8 Be4 Ga1 Si11'
_cell_volume   436.31039126
_cell_formula_units_Z   1
loop_
 _symmetry_equiv_pos_site_id
 _symmetry_equiv_pos_as_xyz
  1  'x, y, z'
loop_
 _atom_site_type_symbol
 _atom_site_label
 _atom_site_symmetry_multiplicity
 _atom_site_fract_x
 _atom_site_fract_y
 _atom_site_fract_z
 _atom_site_occupancy
  Y  Y0  1  0.998809  0.997617  0.250894  1
  Y  Y1  1  0.998789  0.997578  0.749097  1
  Y  Y2  1  0.998862  0.500839  0.251267  1
  Y  Y3  1  0.501978  0.500839  0.251267  1
  Y  Y4  1  0.499968  0.999937  0.750138  1
  Y  Y5  1  0.500117  0.000234  0.249846  1
  Y  Y6  1  0.501818  0.501020  0.748731  1
  Y  Y7  1  0.999201  0.501020  0.748731  1
  Be  Be8  1  0.335553  0.671107  0.999328  1
  Be  Be9  1  0.333738  0.667476  0.500695  1
  Be  Be10  1  0.666517  0.333034  0.000701  1
  Be  Be11  1  0.666919  0.333838  0.499302  1
  Ga  Ga12  1  0.173081  0.346162  0.000050  1
  Si  Si13  1  0.654170  0.827300  0.000044  1
  Si  Si14  1  0.172309  0.344617  0.499963  1
  Si  Si15  1  0.345880  0.170849  0.999960  1
  Si  Si16  1  0.173130  0.827300  0.000044  1
  Si  Si17  1  0.654854  0.826895  0.499948  1
  Si  Si18  1  0.827361  0.654722  0.999955  1
  Si  Si19  1  0.345233  0.172579  0.500042  1
  Si  Si20  1  0.172041  0.826895  0.499948  1
  Si  Si21  1  0.827356  0.654712  0.500048  1
  Si  Si22  1  0.824969  0.170849  0.999960  1
  Si  Si23  1  0.827346  0.172579  0.500042  1
