# generated using pymatgen
data_Er4Tm2MnSb2
_symmetry_space_group_name_H-M   'P 1'
_cell_length_a   8.09857036
_cell_length_b   8.09857053
_cell_length_c   4.21863400
_cell_angle_alpha   90.00000000
_cell_angle_beta   90.00000000
_cell_angle_gamma   120.08741305
_symmetry_Int_Tables_number   1
_chemical_formula_structural   Er4Tm2MnSb2
_chemical_formula_sum   'Er4 Tm2 Mn1 Sb2'
_cell_volume   239.40653102
_cell_formula_units_Z   1
loop_
 _symmetry_equiv_pos_site_id
 _symmetry_equiv_pos_as_xyz
  1  'x, y, z'
loop_
 _atom_site_type_symbol
 _atom_site_label
 _atom_site_symmetry_multiplicity
 _atom_site_fract_x
 _atom_site_fract_y
 _atom_site_fract_z
 _atom_site_occupancy
  Er  Er0  1  0.763821  0.763821  0.500000  1
  Er  Er1  1  0.605194  0.000455  0.000000  1
  Er  Er2  1  0.000455  0.605194  0.000000  1
  Er  Er3  1  0.394558  0.394558  0.000000  1
  Tm  Tm4  1  0.235710  0.000525  0.500000  1
  Tm  Tm5  1  0.000525  0.235710  0.500000  1
  Mn  Mn6  1  0.999857  0.999857  0.000000  1
  Sb  Sb7  1  0.332673  0.667208  0.500000  1
  Sb  Sb8  1  0.667208  0.332673  0.500000  1
