# generated using pymatgen
data_Pr5Si2Pb
_symmetry_space_group_name_H-M   'P 1'
_cell_length_a   7.99163906
_cell_length_b   7.99163955
_cell_length_c   9.28762829
_cell_angle_alpha   115.48218573
_cell_angle_beta   115.48218496
_cell_angle_gamma   89.99999599
_symmetry_Int_Tables_number   1
_chemical_formula_structural   Pr5Si2Pb
_chemical_formula_sum   'Pr10 Si4 Pb2'
_cell_volume   470.73786208
_cell_formula_units_Z   2
loop_
 _symmetry_equiv_pos_site_id
 _symmetry_equiv_pos_as_xyz
  1  'x, y, z'
loop_
 _atom_site_type_symbol
 _atom_site_label
 _atom_site_symmetry_multiplicity
 _atom_site_fract_x
 _atom_site_fract_y
 _atom_site_fract_z
 _atom_site_occupancy
  Pr  Pr0  1  0.500000  0.500000  0.000000  1
  Pr  Pr1  1  0.000000  0.000000  0.000000  1
  Pr  Pr2  1  0.963972  0.812827  0.276799  1
  Pr  Pr3  1  0.312827  0.463972  0.276799  1
  Pr  Pr4  1  0.812827  0.312827  0.276799  1
  Pr  Pr5  1  0.463972  0.963972  0.276799  1
  Pr  Pr6  1  0.036028  0.187173  0.723201  1
  Pr  Pr7  1  0.687173  0.536028  0.723201  1
  Pr  Pr8  1  0.187173  0.687173  0.723201  1
  Pr  Pr9  1  0.536028  0.036028  0.723201  1
  Si  Si10  1  0.616395  0.883605  0.000000  1
  Si  Si11  1  0.383605  0.116395  0.000000  1
  Si  Si12  1  0.883605  0.383605  0.000000  1
  Si  Si13  1  0.116395  0.616395  0.000000  1
  Pb  Pb14  1  0.750000  0.750000  0.500000  1
  Pb  Pb15  1  0.250000  0.250000  0.500000  1
