# generated using pymatgen
data_Yb3Zn7Co6BC
_symmetry_space_group_name_H-M   'P 1'
_cell_length_a   5.13320800
_cell_length_b   5.13320891
_cell_length_c   11.02021600
_cell_angle_alpha   90.00000000
_cell_angle_beta   90.00000000
_cell_angle_gamma   120.00000705
_symmetry_Int_Tables_number   1
_chemical_formula_structural   Yb3Zn7Co6BC
_chemical_formula_sum   'Yb3 Zn7 Co6 B1 C1'
_cell_volume   251.47713812
_cell_formula_units_Z   1
loop_
 _symmetry_equiv_pos_site_id
 _symmetry_equiv_pos_as_xyz
  1  'x, y, z'
loop_
 _atom_site_type_symbol
 _atom_site_label
 _atom_site_symmetry_multiplicity
 _atom_site_fract_x
 _atom_site_fract_y
 _atom_site_fract_z
 _atom_site_occupancy
  Yb  Yb0  1  0.000000  0.000000  0.000000  1
  Yb  Yb1  1  0.000000  0.000000  0.287642  1
  Yb  Yb2  1  0.000000  0.000000  0.712358  1
  Zn  Zn3  1  0.666667  0.333333  0.296506  1
  Zn  Zn4  1  0.333333  0.666667  0.300479  1
  Zn  Zn5  1  0.999223  0.499612  0.500000  1
  Zn  Zn6  1  0.500388  0.000777  0.500000  1
  Zn  Zn7  1  0.500388  0.499612  0.500000  1
  Zn  Zn8  1  0.333333  0.666667  0.699521  1
  Zn  Zn9  1  0.666667  0.333333  0.703494  1
  Co  Co10  1  0.496898  0.503102  0.116628  1
  Co  Co11  1  0.006206  0.503102  0.116628  1
  Co  Co12  1  0.496898  0.993794  0.116628  1
  Co  Co13  1  0.496898  0.993794  0.883372  1
  Co  Co14  1  0.006206  0.503102  0.883372  1
  Co  Co15  1  0.496898  0.503102  0.883372  1
  B  B16  1  0.666667  0.333333  0.000000  1
  C  C17  1  0.333333  0.666667  0.000000  1
