# generated using pymatgen
data_CaSmSi7Rh12
_symmetry_space_group_name_H-M   'P 1'
_cell_length_a   9.78295600
_cell_length_b   9.78295564
_cell_length_c   3.86648900
_cell_angle_alpha   90.00000000
_cell_angle_beta   90.00000000
_cell_angle_gamma   120.00000123
_symmetry_Int_Tables_number   1
_chemical_formula_structural   CaSmSi7Rh12
_chemical_formula_sum   'Ca1 Sm1 Si7 Rh12'
_cell_volume   320.47015440
_cell_formula_units_Z   1
loop_
 _symmetry_equiv_pos_site_id
 _symmetry_equiv_pos_as_xyz
  1  'x, y, z'
loop_
 _atom_site_type_symbol
 _atom_site_label
 _atom_site_symmetry_multiplicity
 _atom_site_fract_x
 _atom_site_fract_y
 _atom_site_fract_z
 _atom_site_occupancy
  Ca  Ca0  1  0.333333  0.666667  0.251710  1
  Sm  Sm1  1  0.000000  0.000000  0.750051  1
  Si  Si2  1  0.666667  0.333333  0.524402  1
  Si  Si3  1  0.066264  0.622390  0.751032  1
  Si  Si4  1  0.377610  0.443873  0.751032  1
  Si  Si5  1  0.556127  0.933736  0.751032  1
  Si  Si6  1  0.268456  0.042831  0.250191  1
  Si  Si7  1  0.957169  0.225625  0.250191  1
  Si  Si8  1  0.774375  0.731544  0.250191  1
  Rh  Rh9  1  0.810881  0.596200  0.745509  1
  Rh  Rh10  1  0.403800  0.214680  0.745509  1
  Rh  Rh11  1  0.785320  0.189119  0.745509  1
  Rh  Rh12  1  0.526227  0.075323  0.257008  1
  Rh  Rh13  1  0.924677  0.450903  0.257008  1
  Rh  Rh14  1  0.549097  0.473773  0.257008  1
  Rh  Rh15  1  0.109640  0.395461  0.752437  1
  Rh  Rh16  1  0.604539  0.714179  0.752437  1
  Rh  Rh17  1  0.285821  0.890360  0.752437  1
  Rh  Rh18  1  0.224235  0.271931  0.248416  1
  Rh  Rh19  1  0.728069  0.952305  0.248416  1
  Rh  Rh20  1  0.047695  0.775765  0.248416  1
