# generated using pymatgen
data_Dy8ErMg(Ni2Sb)2
_symmetry_space_group_name_H-M   'P 1'
_cell_length_a   8.61238480
_cell_length_b   8.61238494
_cell_length_c   8.61238481
_cell_angle_alpha   128.35357247
_cell_angle_beta   128.35357285
_cell_angle_gamma   76.05294642
_symmetry_Int_Tables_number   1
_chemical_formula_structural   Dy8ErMg(Ni2Sb)2
_chemical_formula_sum   'Dy8 Er1 Mg1 Ni4 Sb2'
_cell_volume   381.92052779
_cell_formula_units_Z   1
loop_
 _symmetry_equiv_pos_site_id
 _symmetry_equiv_pos_as_xyz
  1  'x, y, z'
loop_
 _atom_site_type_symbol
 _atom_site_label
 _atom_site_symmetry_multiplicity
 _atom_site_fract_x
 _atom_site_fract_y
 _atom_site_fract_z
 _atom_site_occupancy
  Dy  Dy0  1  0.802706  0.287110  0.823599  1
  Dy  Dy1  1  0.197294  0.712890  0.176401  1
  Dy  Dy2  1  0.463512  0.979107  0.176401  1
  Dy  Dy3  1  0.287110  0.463512  0.484404  1
  Dy  Dy4  1  0.020893  0.197294  0.484404  1
  Dy  Dy5  1  0.536488  0.020893  0.823599  1
  Dy  Dy6  1  0.712890  0.536488  0.515596  1
  Dy  Dy7  1  0.979107  0.802706  0.515596  1
  Er  Er8  1  0.500000  0.500000  0.000000  1
  Mg  Mg9  1  0.000000  0.000000  0.000000  1
  Ni  Ni10  1  0.130952  0.623881  0.754835  1
  Ni  Ni11  1  0.869048  0.376119  0.245165  1
  Ni  Ni12  1  0.623881  0.869048  0.492930  1
  Ni  Ni13  1  0.376119  0.130952  0.507070  1
  Sb  Sb14  1  0.258564  0.258564  0.000000  1
  Sb  Sb15  1  0.741436  0.741436  0.000000  1
