# generated using pymatgen
data_Dy2Ho3Er3Ga3Co
_symmetry_space_group_name_H-M   'P 1'
_cell_length_a   9.96879402
_cell_length_b   9.96879437
_cell_length_c   6.92178100
_cell_angle_alpha   89.99897381
_cell_angle_beta   90.00102472
_cell_angle_gamma   119.99353005
_symmetry_Int_Tables_number   1
_chemical_formula_structural   Dy2Ho3Er3Ga3Co
_chemical_formula_sum   'Dy4 Ho6 Er6 Ga6 Co2'
_cell_volume   595.74726372
_cell_formula_units_Z   2
loop_
 _symmetry_equiv_pos_site_id
 _symmetry_equiv_pos_as_xyz
  1  'x, y, z'
loop_
 _atom_site_type_symbol
 _atom_site_label
 _atom_site_symmetry_multiplicity
 _atom_site_fract_x
 _atom_site_fract_y
 _atom_site_fract_z
 _atom_site_occupancy
  Dy  Dy0  1  0.926824  0.463474  0.707703  1
  Dy  Dy1  1  0.536526  0.073176  0.707703  1
  Dy  Dy2  1  0.999976  0.000024  0.231604  1
  Dy  Dy3  1  0.000019  0.999981  0.731632  1
  Ho  Ho4  1  0.333404  0.666596  0.827378  1
  Ho  Ho5  1  0.666572  0.333428  0.327094  1
  Ho  Ho6  1  0.463242  0.536758  0.207633  1
  Ho  Ho7  1  0.073631  0.536810  0.207670  1
  Ho  Ho8  1  0.463190  0.926369  0.207670  1
  Ho  Ho9  1  0.536669  0.463331  0.707592  1
  Er  Er10  1  0.172983  0.827017  0.510739  1
  Er  Er11  1  0.653979  0.826848  0.510906  1
  Er  Er12  1  0.173152  0.346021  0.510906  1
  Er  Er13  1  0.827077  0.172923  0.011252  1
  Er  Er14  1  0.345956  0.173042  0.011111  1
  Er  Er15  1  0.826958  0.654044  0.011111  1
  Ga  Ga16  1  0.163372  0.836628  0.959367  1
  Ga  Ga17  1  0.673229  0.836608  0.959252  1
  Ga  Ga18  1  0.163392  0.326771  0.959252  1
  Ga  Ga19  1  0.836718  0.163282  0.458957  1
  Ga  Ga20  1  0.326681  0.163428  0.459125  1
  Ga  Ga21  1  0.836572  0.673319  0.459125  1
  Co  Co22  1  0.333341  0.666659  0.444855  1
  Co  Co23  1  0.666536  0.333464  0.945198  1
