# generated using pymatgen
data_NaU3Pd11Pt
_symmetry_space_group_name_H-M   'P 1'
_cell_length_a   5.76942136
_cell_length_b   5.76942017
_cell_length_c   9.49134800
_cell_angle_alpha   89.84048900
_cell_angle_beta   90.15951097
_cell_angle_gamma   120.01638171
_symmetry_Int_Tables_number   1
_chemical_formula_structural   NaU3Pd11Pt
_chemical_formula_sum   'Na1 U3 Pd11 Pt1'
_cell_volume   273.55773411
_cell_formula_units_Z   1
loop_
 _symmetry_equiv_pos_site_id
 _symmetry_equiv_pos_as_xyz
  1  'x, y, z'
loop_
 _atom_site_type_symbol
 _atom_site_label
 _atom_site_symmetry_multiplicity
 _atom_site_fract_x
 _atom_site_fract_y
 _atom_site_fract_z
 _atom_site_occupancy
  Na  Na0  1  0.333207  0.666793  0.249437  1
  U  U1  1  0.000151  0.999849  0.489861  1
  U  U2  1  0.999975  0.000025  0.010579  1
  U  U3  1  0.665238  0.334762  0.749411  1
  Pd  Pd4  1  0.500916  0.999010  0.500273  1
  Pd  Pd5  1  0.000990  0.499084  0.500273  1
  Pd  Pd6  1  0.500917  0.499083  0.998743  1
  Pd  Pd7  1  0.500537  0.001483  0.999185  1
  Pd  Pd8  1  0.998517  0.499463  0.999185  1
  Pd  Pd9  1  0.827961  0.656740  0.248771  1
  Pd  Pd10  1  0.343260  0.172039  0.248771  1
  Pd  Pd11  1  0.829099  0.170901  0.248379  1
  Pd  Pd12  1  0.167120  0.338324  0.751581  1
  Pd  Pd13  1  0.661676  0.832880  0.751581  1
  Pd  Pd14  1  0.167653  0.832347  0.751469  1
  Pt  Pt15  1  0.502784  0.497216  0.502500  1
