# generated using pymatgen
data_Tb8Ti8NbSi16W3
_symmetry_space_group_name_H-M   'P 1'
_cell_length_a   7.01821228
_cell_length_b   7.01821249
_cell_length_c   12.91892007
_cell_angle_alpha   90.03577072
_cell_angle_beta   89.96422983
_cell_angle_gamma   89.97789314
_symmetry_Int_Tables_number   1
_chemical_formula_structural   Tb8Ti8NbSi16W3
_chemical_formula_sum   'Tb8 Ti8 Nb1 Si16 W3'
_cell_volume   636.32505461
_cell_formula_units_Z   1
loop_
 _symmetry_equiv_pos_site_id
 _symmetry_equiv_pos_as_xyz
  1  'x, y, z'
loop_
 _atom_site_type_symbol
 _atom_site_label
 _atom_site_symmetry_multiplicity
 _atom_site_fract_x
 _atom_site_fract_y
 _atom_site_fract_z
 _atom_site_occupancy
  Tb  Tb0  1  0.339826  0.001757  0.467100  1
  Tb  Tb1  1  0.498402  0.840758  0.718162  1
  Tb  Tb2  1  0.500799  0.159858  0.216578  1
  Tb  Tb3  1  0.840758  0.498402  0.281838  1
  Tb  Tb4  1  0.159858  0.500799  0.783422  1
  Tb  Tb5  1  0.659880  0.999048  0.967379  1
  Tb  Tb6  1  0.001757  0.339826  0.532900  1
  Tb  Tb7  1  0.999048  0.659880  0.032621  1
  Ti  Ti8  1  0.153585  0.009781  0.876750  1
  Ti  Ti9  1  0.490288  0.654012  0.125534  1
  Ti  Ti10  1  0.508743  0.346791  0.627269  1
  Ti  Ti11  1  0.654012  0.490288  0.874466  1
  Ti  Ti12  1  0.346791  0.508743  0.372731  1
  Ti  Ti13  1  0.846502  0.990149  0.376012  1
  Ti  Ti14  1  0.009781  0.153585  0.123250  1
  Ti  Ti15  1  0.990149  0.846502  0.623988  1
  Nb  Nb16  1  0.674054  0.674054  0.500000  1
  Si  Si17  1  0.199368  0.129191  0.685662  1
  Si  Si18  1  0.370950  0.699364  0.935456  1
  Si  Si19  1  0.629636  0.297094  0.435282  1
  Si  Si20  1  0.699364  0.370950  0.064544  1
  Si  Si21  1  0.297094  0.629636  0.564718  1
  Si  Si22  1  0.800440  0.870820  0.185267  1
  Si  Si23  1  0.129191  0.199368  0.314338  1
  Si  Si24  1  0.870820  0.800440  0.814733  1
  Si  Si25  1  0.291418  0.953210  0.065119  1
  Si  Si26  1  0.545201  0.792068  0.313524  1
  Si  Si27  1  0.453227  0.208967  0.815718  1
  Si  Si28  1  0.792068  0.545201  0.686476  1
  Si  Si29  1  0.208967  0.453227  0.184282  1
  Si  Si30  1  0.708453  0.049020  0.566423  1
  Si  Si31  1  0.953210  0.291418  0.934881  1
  Si  Si32  1  0.049020  0.708453  0.433577  1
  W  W33  1  0.326265  0.326265  0.000000  1
  W  W34  1  0.174131  0.826941  0.248898  1
  W  W35  1  0.826941  0.174131  0.751102  1
