# generated using pymatgen
data_Tb3Lu3FeBi2
_symmetry_space_group_name_H-M   'P 1'
_cell_length_a   8.25470900
_cell_length_b   8.25471001
_cell_length_c   4.18211700
_cell_angle_alpha   90.00000000
_cell_angle_beta   90.00000000
_cell_angle_gamma   120.00000796
_symmetry_Int_Tables_number   1
_chemical_formula_structural   Tb3Lu3FeBi2
_chemical_formula_sum   'Tb3 Lu3 Fe1 Bi2'
_cell_volume   246.79159484
_cell_formula_units_Z   1
loop_
 _symmetry_equiv_pos_site_id
 _symmetry_equiv_pos_as_xyz
  1  'x, y, z'
loop_
 _atom_site_type_symbol
 _atom_site_label
 _atom_site_symmetry_multiplicity
 _atom_site_fract_x
 _atom_site_fract_y
 _atom_site_fract_z
 _atom_site_occupancy
  Tb  Tb0  1  0.000000  0.610211  0.500000  1
  Tb  Tb1  1  0.389789  0.389789  0.500000  1
  Tb  Tb2  1  0.610211  0.000000  0.500000  1
  Lu  Lu3  1  0.227071  0.000000  0.000000  1
  Lu  Lu4  1  0.772929  0.772929  0.000000  1
  Lu  Lu5  1  0.000000  0.227071  0.000000  1
  Fe  Fe6  1  0.000000  0.000000  0.500000  1
  Bi  Bi7  1  0.333333  0.666667  0.000000  1
  Bi  Bi8  1  0.666667  0.333333  0.000000  1
