# generated using pymatgen
data_Rb2Eu2(SiO3)3
_symmetry_space_group_name_H-M   'P 1'
_cell_length_a   7.67583000
_cell_length_b   6.84698180
_cell_length_c   12.48815051
_cell_angle_alpha   61.03743468
_cell_angle_beta   90.00000000
_cell_angle_gamma   90.00000000
_symmetry_Int_Tables_number   1
_chemical_formula_structural   Rb2Eu2(SiO3)3
_chemical_formula_sum   'Rb4 Eu4 Si6 O18'
_cell_volume   574.24744013
_cell_formula_units_Z   2
loop_
 _symmetry_equiv_pos_site_id
 _symmetry_equiv_pos_as_xyz
  1  'x, y, z'
loop_
 _atom_site_type_symbol
 _atom_site_label
 _atom_site_symmetry_multiplicity
 _atom_site_fract_x
 _atom_site_fract_y
 _atom_site_fract_z
 _atom_site_occupancy
  Rb  Rb0  1  0.417654  0.442350  0.771766  1
  Rb  Rb1  1  0.582346  0.442350  0.271766  1
  Rb  Rb2  1  0.658211  0.828526  0.902596  1
  Rb  Rb3  1  0.341789  0.828526  0.402596  1
  Eu  Eu4  1  0.834455  0.872770  0.588368  1
  Eu  Eu5  1  0.165545  0.872770  0.088368  1
  Eu  Eu6  1  0.932857  0.338769  0.854441  1
  Eu  Eu7  1  0.067143  0.338769  0.354441  1
  Si  Si8  1  0.582888  0.113058  0.095983  1
  Si  Si9  1  0.417112  0.113058  0.595983  1
  Si  Si10  1  0.266094  0.432089  0.045129  1
  Si  Si11  1  0.733906  0.432089  0.545129  1
  Si  Si12  1  0.149419  0.871388  0.816155  1
  Si  Si13  1  0.850581  0.871388  0.316155  1
  O  O14  1  0.811312  0.470710  0.654115  1
  O  O15  1  0.188688  0.470710  0.154115  1
  O  O16  1  0.470081  0.334942  0.084938  1
  O  O17  1  0.529919  0.334942  0.584938  1
  O  O18  1  0.458803  0.895507  0.139568  1
  O  O19  1  0.541197  0.895507  0.639568  1
  O  O20  1  0.044170  0.987051  0.884249  1
  O  O21  1  0.955830  0.987051  0.384249  1
  O  O22  1  0.841968  0.276187  0.504616  1
  O  O23  1  0.158032  0.276187  0.004616  1
  O  O24  1  0.677761  0.195396  0.965013  1
  O  O25  1  0.322239  0.195396  0.465013  1
  O  O26  1  0.023475  0.742894  0.765269  1
  O  O27  1  0.976525  0.742894  0.265269  1
  O  O28  1  0.291717  0.687386  0.920496  1
  O  O29  1  0.708283  0.687386  0.420496  1
  O  O30  1  0.724121  0.064876  0.208736  1
  O  O31  1  0.275879  0.064876  0.708736  1
