# generated using pymatgen
data_Th3In2GaRh3
_symmetry_space_group_name_H-M   'P 1'
_cell_length_a   7.61033700
_cell_length_b   7.55577801
_cell_length_c   4.03272000
_cell_angle_alpha   90.00000000
_cell_angle_beta   90.00000000
_cell_angle_gamma   120.23916517
_symmetry_Int_Tables_number   1
_chemical_formula_structural   Th3In2GaRh3
_chemical_formula_sum   'Th3 In2 Ga1 Rh3'
_cell_volume   200.33649999
_cell_formula_units_Z   1
loop_
 _symmetry_equiv_pos_site_id
 _symmetry_equiv_pos_as_xyz
  1  'x, y, z'
loop_
 _atom_site_type_symbol
 _atom_site_label
 _atom_site_symmetry_multiplicity
 _atom_site_fract_x
 _atom_site_fract_y
 _atom_site_fract_z
 _atom_site_occupancy
  Th  Th0  1  0.998867  0.406443  0.500000  1
  Th  Th1  1  0.592424  0.593557  0.500000  1
  Th  Th2  1  0.428849  0.000000  0.500000  1
  In  In3  1  0.007662  0.760879  0.000000  1
  In  In4  1  0.246782  0.239121  0.000000  1
  Ga  Ga5  1  0.748786  0.000000  0.000000  1
  Rh  Rh6  1  0.341989  0.669128  0.000000  1
  Rh  Rh7  1  0.672862  0.330872  0.000000  1
  Rh  Rh8  1  0.961780  0.000000  0.500000  1
