# generated using pymatgen
data_K2Pu2O7
_symmetry_space_group_name_H-M   'P 1'
_cell_length_a   6.77528304
_cell_length_b   7.11283399
_cell_length_c   8.13077311
_cell_angle_alpha   106.57064771
_cell_angle_beta   89.74917324
_cell_angle_gamma   99.76678219
_symmetry_Int_Tables_number   1
_chemical_formula_structural   K2Pu2O7
_chemical_formula_sum   'K4 Pu4 O14'
_cell_volume   369.71549165
_cell_formula_units_Z   2
loop_
 _symmetry_equiv_pos_site_id
 _symmetry_equiv_pos_as_xyz
  1  'x, y, z'
loop_
 _atom_site_type_symbol
 _atom_site_label
 _atom_site_symmetry_multiplicity
 _atom_site_fract_x
 _atom_site_fract_y
 _atom_site_fract_z
 _atom_site_occupancy
  K  K0  1  0.239121  0.481892  0.624320  1
  K  K1  1  0.263199  0.488120  0.118313  1
  K  K2  1  0.760879  0.518108  0.375680  1
  K  K3  1  0.736801  0.511880  0.881687  1
  Pu  Pu4  1  0.036852  0.994728  0.246335  1
  Pu  Pu5  1  0.963148  0.005272  0.753665  1
  Pu  Pu6  1  0.500000  0.000000  0.000000  1
  Pu  Pu7  1  0.500000  0.000000  0.500000  1
  O  O8  1  0.071805  0.269951  0.314610  1
  O  O9  1  0.199487  0.020534  0.546775  1
  O  O10  1  0.011334  0.280661  0.823127  1
  O  O11  1  0.199531  0.021677  0.966076  1
  O  O12  1  0.563395  0.278686  0.084842  1
  O  O13  1  0.436605  0.721314  0.915158  1
  O  O14  1  0.390437  0.978255  0.244000  1
  O  O15  1  0.560617  0.278059  0.554174  1
  O  O16  1  0.439383  0.721941  0.445826  1
  O  O17  1  0.800513  0.979466  0.453225  1
  O  O18  1  0.609563  0.021745  0.756000  1
  O  O19  1  0.928195  0.730049  0.685390  1
  O  O20  1  0.800469  0.978323  0.033924  1
  O  O21  1  0.988666  0.719339  0.176873  1
