# generated using pymatgen
data_Dy3YV2Pt2F28
_symmetry_space_group_name_H-M   'P 1'
_cell_length_a   5.53774901
_cell_length_b   8.87247408
_cell_length_c   11.89617429
_cell_angle_alpha   62.86470651
_cell_angle_beta   90.00487128
_cell_angle_gamma   90.00001271
_symmetry_Int_Tables_number   1
_chemical_formula_structural   Dy3YV2Pt2F28
_chemical_formula_sum   'Dy3 Y1 V2 Pt2 F28'
_cell_volume   520.16623699
_cell_formula_units_Z   1
loop_
 _symmetry_equiv_pos_site_id
 _symmetry_equiv_pos_as_xyz
  1  'x, y, z'
loop_
 _atom_site_type_symbol
 _atom_site_label
 _atom_site_symmetry_multiplicity
 _atom_site_fract_x
 _atom_site_fract_y
 _atom_site_fract_z
 _atom_site_occupancy
  Dy  Dy0  1  0.258477  0.188339  0.735774  1
  Dy  Dy1  1  0.240071  0.190878  0.228168  1
  Dy  Dy2  1  0.740060  0.809230  0.271791  1
  Y  Y3  1  0.758443  0.812075  0.764146  1
  V  V4  1  0.754940  0.275206  0.954272  1
  V  V5  1  0.254760  0.724483  0.545641  1
  Pt  Pt6  1  0.242929  0.729781  0.043403  1
  Pt  Pt7  1  0.743114  0.270538  0.456620  1
  F  F8  1  0.434784  0.700493  0.915643  1
  F  F9  1  0.936089  0.298978  0.584463  1
  F  F10  1  0.547027  0.291020  0.074892  1
  F  F11  1  0.047115  0.708719  0.424932  1
  F  F12  1  0.441597  0.281661  0.541174  1
  F  F13  1  0.940972  0.718070  0.959529  1
  F  F14  1  0.536402  0.717368  0.454355  1
  F  F15  1  0.036424  0.282468  0.045727  1
  F  F16  1  0.769393  0.508377  0.864578  1
  F  F17  1  0.269331  0.491188  0.635366  1
  F  F18  1  0.231445  0.481895  0.144365  1
  F  F19  1  0.731341  0.518411  0.355831  1
  F  F20  1  0.757556  0.045168  0.045615  1
  F  F21  1  0.257417  0.954618  0.454451  1
  F  F22  1  0.244543  0.978154  0.949738  1
  F  F23  1  0.744842  0.022216  0.549510  1
  F  F24  1  0.985329  0.725445  0.643827  1
  F  F25  1  0.485611  0.273910  0.856022  1
  F  F26  1  0.039586  0.266367  0.366995  1
  F  F27  1  0.539854  0.734056  0.132698  1
  F  F28  1  0.054901  0.753001  0.175264  1
  F  F29  1  0.554370  0.247637  0.324754  1
  F  F30  1  0.959855  0.257907  0.830974  1
  F  F31  1  0.459060  0.741394  0.669249  1
  F  F32  1  0.419769  0.971918  0.230973  1
  F  F33  1  0.919792  0.028170  0.269140  1
  F  F34  1  0.580921  0.029252  0.766745  1
  F  F35  1  0.081883  0.971609  0.733373  1
