# generated using pymatgen
data_Tb3Y2Re2C7
_symmetry_space_group_name_H-M   'P 1'
_cell_length_a   8.36713125
_cell_length_b   8.36400402
_cell_length_c   3.44403400
_cell_angle_alpha   90.00000000
_cell_angle_beta   90.00000000
_cell_angle_gamma   122.84609774
_symmetry_Int_Tables_number   1
_chemical_formula_structural   Tb3Y2Re2C7
_chemical_formula_sum   'Tb3 Y2 Re2 C7'
_cell_volume   202.49065927
_cell_formula_units_Z   1
loop_
 _symmetry_equiv_pos_site_id
 _symmetry_equiv_pos_as_xyz
  1  'x, y, z'
loop_
 _atom_site_type_symbol
 _atom_site_label
 _atom_site_symmetry_multiplicity
 _atom_site_fract_x
 _atom_site_fract_y
 _atom_site_fract_z
 _atom_site_occupancy
  Tb  Tb0  1  0.074644  0.333614  0.500000  1
  Tb  Tb1  1  0.925335  0.666419  0.500000  1
  Tb  Tb2  1  0.665902  0.925628  0.500000  1
  Y  Y3  1  0.499550  0.499687  0.000000  1
  Y  Y4  1  0.334702  0.075108  0.500000  1
  Re  Re5  1  0.713958  0.286196  0.000000  1
  Re  Re6  1  0.285832  0.714068  0.000000  1
  C  C7  1  0.628245  0.373015  0.500000  1
  C  C8  1  0.372176  0.627533  0.500000  1
  C  C9  1  0.000190  0.999636  0.000000  1
  C  C10  1  0.170124  0.168746  0.000000  1
  C  C11  1  0.830256  0.830585  0.000000  1
  C  C12  1  0.999622  0.499838  0.000000  1
  C  C13  1  0.499465  0.999927  0.000000  1
