# generated using pymatgen
data_Nd11Y(OsPd)2
_symmetry_space_group_name_H-M   'P 1'
_cell_length_a   6.51901636
_cell_length_b   7.45644061
_cell_length_c   9.84661388
_cell_angle_alpha   89.91878552
_cell_angle_beta   92.17860962
_cell_angle_gamma   90.46908884
_symmetry_Int_Tables_number   1
_chemical_formula_structural   Nd11Y(OsPd)2
_chemical_formula_sum   'Nd11 Y1 Os2 Pd2'
_cell_volume   478.26840231
_cell_formula_units_Z   1
loop_
 _symmetry_equiv_pos_site_id
 _symmetry_equiv_pos_as_xyz
  1  'x, y, z'
loop_
 _atom_site_type_symbol
 _atom_site_label
 _atom_site_symmetry_multiplicity
 _atom_site_fract_x
 _atom_site_fract_y
 _atom_site_fract_z
 _atom_site_occupancy
  Nd  Nd0  1  0.631759  0.038913  0.250468  1
  Nd  Nd1  1  0.370232  0.963054  0.749844  1
  Nd  Nd2  1  0.145702  0.470928  0.754003  1
  Nd  Nd3  1  0.855325  0.525662  0.246364  1
  Nd  Nd4  1  0.172814  0.191230  0.067825  1
  Nd  Nd5  1  0.832598  0.810637  0.933150  1
  Nd  Nd6  1  0.659172  0.329196  0.930473  1
  Nd  Nd7  1  0.832307  0.813184  0.563535  1
  Nd  Nd8  1  0.346587  0.668542  0.067281  1
  Nd  Nd9  1  0.165374  0.183358  0.437414  1
  Nd  Nd10  1  0.331709  0.675603  0.443762  1
  Y  Y11  1  0.660318  0.328703  0.558075  1
  Os  Os12  1  0.441489  0.380633  0.269706  1
  Os  Os13  1  0.561565  0.619412  0.736159  1
  Pd  Pd14  1  0.926201  0.117683  0.750350  1
  Pd  Pd15  1  0.066848  0.883262  0.241592  1
