# generated using pymatgen
data_Dy6Er3Tm(CoBi2)2
_symmetry_space_group_name_H-M   'P 1'
_cell_length_a   7.95311054
_cell_length_b   8.87637333
_cell_length_c   12.39660093
_cell_angle_alpha   90.02389315
_cell_angle_beta   89.96261937
_cell_angle_gamma   89.97998082
_symmetry_Int_Tables_number   1
_chemical_formula_structural   Dy6Er3Tm(CoBi2)2
_chemical_formula_sum   'Dy12 Er6 Tm2 Co4 Bi8'
_cell_volume   875.13497864
_cell_formula_units_Z   2
loop_
 _symmetry_equiv_pos_site_id
 _symmetry_equiv_pos_as_xyz
  1  'x, y, z'
loop_
 _atom_site_type_symbol
 _atom_site_label
 _atom_site_symmetry_multiplicity
 _atom_site_fract_x
 _atom_site_fract_y
 _atom_site_fract_z
 _atom_site_occupancy
  Dy  Dy0  1  0.847715  0.749885  0.801159  1
  Dy  Dy1  1  0.152285  0.250115  0.198841  1
  Dy  Dy2  1  0.347436  0.250038  0.699047  1
  Dy  Dy3  1  0.652564  0.749962  0.300953  1
  Dy  Dy4  1  0.379120  0.750002  0.688092  1
  Dy  Dy5  1  0.620880  0.249998  0.311908  1
  Dy  Dy6  1  0.879280  0.250270  0.812187  1
  Dy  Dy7  1  0.120720  0.749730  0.187813  1
  Dy  Dy8  1  0.950407  0.749996  0.502617  1
  Dy  Dy9  1  0.049593  0.250004  0.497383  1
  Dy  Dy10  1  0.450176  0.250252  0.997333  1
  Dy  Dy11  1  0.549824  0.749748  0.002667  1
  Er  Er12  1  0.674229  0.035344  0.563476  1
  Er  Er13  1  0.325771  0.964656  0.436524  1
  Er  Er14  1  0.174108  0.964795  0.936771  1
  Er  Er15  1  0.325731  0.535315  0.436493  1
  Er  Er16  1  0.825892  0.035205  0.063229  1
  Er  Er17  1  0.674269  0.464685  0.563507  1
  Tm  Tm18  1  0.827056  0.464632  0.063132  1
  Tm  Tm19  1  0.172944  0.535368  0.936868  1
  Co  Co20  1  0.560662  0.749985  0.507468  1
  Co  Co21  1  0.439338  0.250015  0.492532  1
  Co  Co22  1  0.060424  0.250545  0.992649  1
  Co  Co23  1  0.939576  0.749455  0.007351  1
  Bi  Bi24  1  0.568049  0.492599  0.826302  1
  Bi  Bi25  1  0.431951  0.507401  0.173698  1
  Bi  Bi26  1  0.068532  0.507456  0.673906  1
  Bi  Bi27  1  0.431587  0.992545  0.173775  1
  Bi  Bi28  1  0.931468  0.492544  0.326094  1
  Bi  Bi29  1  0.568413  0.007455  0.826225  1
  Bi  Bi30  1  0.931545  0.007450  0.326167  1
  Bi  Bi31  1  0.068455  0.992550  0.673833  1
