# generated using pymatgen
data_Ho2ZnP6(IrRh)6
_symmetry_space_group_name_H-M   'P 1'
_cell_length_a   9.63474700
_cell_length_b   9.63474668
_cell_length_c   3.94824900
_cell_angle_alpha   90.00000000
_cell_angle_beta   90.00000000
_cell_angle_gamma   119.99999859
_symmetry_Int_Tables_number   1
_chemical_formula_structural   Ho2ZnP6(IrRh)6
_chemical_formula_sum   'Ho2 Zn1 P6 Ir6 Rh6'
_cell_volume   317.40647885
_cell_formula_units_Z   1
loop_
 _symmetry_equiv_pos_site_id
 _symmetry_equiv_pos_as_xyz
  1  'x, y, z'
loop_
 _atom_site_type_symbol
 _atom_site_label
 _atom_site_symmetry_multiplicity
 _atom_site_fract_x
 _atom_site_fract_y
 _atom_site_fract_z
 _atom_site_occupancy
  Ho  Ho0  1  0.333333  0.666667  0.753070  1
  Ho  Ho1  1  0.666667  0.333333  0.246930  1
  Zn  Zn2  1  0.000000  0.000000  0.500000  1
  P  P3  1  0.403255  0.282694  0.748671  1
  P  P4  1  0.717306  0.120560  0.748671  1
  P  P5  1  0.879440  0.596745  0.748671  1
  P  P6  1  0.596745  0.717306  0.251329  1
  P  P7  1  0.282694  0.879440  0.251329  1
  P  P8  1  0.120560  0.403255  0.251329  1
  Ir  Ir9  1  0.454838  0.068102  0.749125  1
  Ir  Ir10  1  0.931898  0.386736  0.749125  1
  Ir  Ir11  1  0.613264  0.545162  0.749125  1
  Ir  Ir12  1  0.545162  0.931898  0.250875  1
  Ir  Ir13  1  0.068102  0.613264  0.250875  1
  Ir  Ir14  1  0.386736  0.454838  0.250875  1
  Rh  Rh15  1  0.160726  0.284147  0.753698  1
  Rh  Rh16  1  0.715853  0.876578  0.753698  1
  Rh  Rh17  1  0.123422  0.839274  0.753698  1
  Rh  Rh18  1  0.839274  0.715853  0.246302  1
  Rh  Rh19  1  0.284147  0.123422  0.246302  1
  Rh  Rh20  1  0.876578  0.160726  0.246302  1
