# generated using pymatgen
data_Tb7Ce(Er3Pb4)4
_symmetry_space_group_name_H-M   'P 1'
_cell_length_a   8.18365608
_cell_length_b   8.26269140
_cell_length_c   15.58352500
_cell_angle_alpha   89.97880885
_cell_angle_beta   89.94279282
_cell_angle_gamma   90.02570499
_symmetry_Int_Tables_number   1
_chemical_formula_structural   Tb7Ce(Er3Pb4)4
_chemical_formula_sum   'Tb7 Ce1 Er12 Pb16'
_cell_volume   1053.74205820
_cell_formula_units_Z   1
loop_
 _symmetry_equiv_pos_site_id
 _symmetry_equiv_pos_as_xyz
  1  'x, y, z'
loop_
 _atom_site_type_symbol
 _atom_site_label
 _atom_site_symmetry_multiplicity
 _atom_site_fract_x
 _atom_site_fract_y
 _atom_site_fract_z
 _atom_site_occupancy
  Tb  Tb0  1  0.034155  0.176235  0.598466  1
  Tb  Tb1  1  0.465775  0.676922  0.400563  1
  Tb  Tb2  1  0.966264  0.822929  0.099182  1
  Tb  Tb3  1  0.465369  0.677455  0.099983  1
  Tb  Tb4  1  0.965501  0.823665  0.400481  1
  Tb  Tb5  1  0.534449  0.322556  0.599406  1
  Tb  Tb6  1  0.035604  0.175578  0.900475  1
  Ce  Ce7  1  0.531258  0.321184  0.902744  1
  Er  Er8  1  0.373978  0.842005  0.878901  1
  Er  Er9  1  0.875085  0.657993  0.621295  1
  Er  Er10  1  0.625048  0.158066  0.378657  1
  Er  Er11  1  0.125649  0.342397  0.121794  1
  Er  Er12  1  0.625378  0.157996  0.121564  1
  Er  Er13  1  0.124946  0.341982  0.378495  1
  Er  Er14  1  0.375272  0.841425  0.620551  1
  Er  Er15  1  0.874720  0.659198  0.878488  1
  Er  Er16  1  0.207237  0.505595  0.748961  1
  Er  Er17  1  0.707466  0.995796  0.749452  1
  Er  Er18  1  0.793002  0.495462  0.250576  1
  Er  Er19  1  0.292759  0.004420  0.250082  1
  Pb  Pb20  1  0.284097  0.035557  0.043093  1
  Pb  Pb21  1  0.783866  0.464742  0.457270  1
  Pb  Pb22  1  0.716601  0.964583  0.542552  1
  Pb  Pb23  1  0.214462  0.536538  0.957355  1
  Pb  Pb24  1  0.717107  0.965713  0.956794  1
  Pb  Pb25  1  0.216436  0.534457  0.542720  1
  Pb  Pb26  1  0.283891  0.035224  0.456751  1
  Pb  Pb27  1  0.784896  0.465920  0.043496  1
  Pb  Pb28  1  0.570032  0.626500  0.750574  1
  Pb  Pb29  1  0.069909  0.873303  0.749749  1
  Pb  Pb30  1  0.430033  0.373402  0.250119  1
  Pb  Pb31  1  0.929878  0.126430  0.250003  1
  Pb  Pb32  1  0.344697  0.151932  0.749067  1
  Pb  Pb33  1  0.846065  0.346609  0.750226  1
  Pb  Pb34  1  0.654610  0.846748  0.250027  1
  Pb  Pb35  1  0.154506  0.653484  0.250084  1
