# generated using pymatgen
data_Sm2Er3Lu3(Si3Rh)4
_symmetry_space_group_name_H-M   'P 1'
_cell_length_a   8.14173100
_cell_length_b   8.14173222
_cell_length_c   7.87720200
_cell_angle_alpha   90.00000000
_cell_angle_beta   90.00000000
_cell_angle_gamma   119.99999910
_symmetry_Int_Tables_number   1
_chemical_formula_structural   Sm2Er3Lu3(Si3Rh)4
_chemical_formula_sum   'Sm2 Er3 Lu3 Si12 Rh4'
_cell_volume   452.20585596
_cell_formula_units_Z   1
loop_
 _symmetry_equiv_pos_site_id
 _symmetry_equiv_pos_as_xyz
  1  'x, y, z'
loop_
 _atom_site_type_symbol
 _atom_site_label
 _atom_site_symmetry_multiplicity
 _atom_site_fract_x
 _atom_site_fract_y
 _atom_site_fract_z
 _atom_site_occupancy
  Sm  Sm0  1  0.000000  0.000000  0.250000  1
  Sm  Sm1  1  0.000000  0.000000  0.750000  1
  Er  Er2  1  0.508069  0.491931  0.750000  1
  Er  Er3  1  0.983862  0.491931  0.750000  1
  Er  Er4  1  0.508069  0.016138  0.750000  1
  Lu  Lu5  1  0.491383  0.508617  0.250000  1
  Lu  Lu6  1  0.491383  0.982765  0.250000  1
  Lu  Lu7  1  0.017235  0.508617  0.250000  1
  Si  Si8  1  0.831662  0.168338  0.500459  1
  Si  Si9  1  0.831662  0.663324  0.500459  1
  Si  Si10  1  0.336676  0.168338  0.500459  1
  Si  Si11  1  0.831662  0.168338  0.999541  1
  Si  Si12  1  0.831662  0.663324  0.999541  1
  Si  Si13  1  0.336676  0.168338  0.999541  1
  Si  Si14  1  0.167939  0.832061  0.003490  1
  Si  Si15  1  0.664123  0.832061  0.003490  1
  Si  Si16  1  0.167939  0.335877  0.003490  1
  Si  Si17  1  0.167939  0.832061  0.496510  1
  Si  Si18  1  0.664123  0.832061  0.496510  1
  Si  Si19  1  0.167939  0.335877  0.496510  1
  Rh  Rh20  1  0.666667  0.333333  0.460324  1
  Rh  Rh21  1  0.666667  0.333333  0.039676  1
  Rh  Rh22  1  0.333333  0.666667  0.970668  1
  Rh  Rh23  1  0.333333  0.666667  0.529332  1
