# generated using pymatgen
data_TbNdGd3Ir2
_symmetry_space_group_name_H-M   'P 1'
_cell_length_a   6.56224036
_cell_length_b   7.10023786
_cell_length_c   8.85695000
_cell_angle_alpha   95.82051534
_cell_angle_beta   111.74381496
_cell_angle_gamma   90.00000060
_symmetry_Int_Tables_number   1
_chemical_formula_structural   TbNdGd3Ir2
_chemical_formula_sum   'Tb2 Nd2 Gd6 Ir4'
_cell_volume   381.02244217
_cell_formula_units_Z   2
loop_
 _symmetry_equiv_pos_site_id
 _symmetry_equiv_pos_as_xyz
  1  'x, y, z'
loop_
 _atom_site_type_symbol
 _atom_site_label
 _atom_site_symmetry_multiplicity
 _atom_site_fract_x
 _atom_site_fract_y
 _atom_site_fract_z
 _atom_site_occupancy
  Tb  Tb0  1  0.432802  0.750000  0.000000  1
  Tb  Tb1  1  0.566912  0.250000  0.000000  1
  Nd  Nd2  1  0.350784  0.188116  0.562242  1
  Nd  Nd3  1  0.788542  0.311884  0.437758  1
  Gd  Gd4  1  0.980038  0.917765  0.181531  1
  Gd  Gd5  1  0.798506  0.582235  0.818469  1
  Gd  Gd6  1  0.020323  0.081126  0.817528  1
  Gd  Gd7  1  0.202795  0.418874  0.182472  1
  Gd  Gd8  1  0.647048  0.811939  0.433743  1
  Gd  Gd9  1  0.213305  0.688061  0.566257  1
  Ir  Ir10  1  0.820603  0.574670  0.219562  1
  Ir  Ir11  1  0.601040  0.925330  0.780438  1
  Ir  Ir12  1  0.180916  0.429223  0.784527  1
  Ir  Ir13  1  0.396389  0.070777  0.215473  1
