# generated using pymatgen
data_Nd3Y3RuI10
_symmetry_space_group_name_H-M   'P 1'
_cell_length_a   7.85708783
_cell_length_b   9.87410074
_cell_length_c   9.92029553
_cell_angle_alpha   107.16021666
_cell_angle_beta   96.34310415
_cell_angle_gamma   104.86913961
_symmetry_Int_Tables_number   1
_chemical_formula_structural   Nd3Y3RuI10
_chemical_formula_sum   'Nd3 Y3 Ru1 I10'
_cell_volume   696.15132144
_cell_formula_units_Z   1
loop_
 _symmetry_equiv_pos_site_id
 _symmetry_equiv_pos_as_xyz
  1  'x, y, z'
loop_
 _atom_site_type_symbol
 _atom_site_label
 _atom_site_symmetry_multiplicity
 _atom_site_fract_x
 _atom_site_fract_y
 _atom_site_fract_z
 _atom_site_occupancy
  Nd  Nd0  1  0.115947  0.042199  0.760461  1
  Nd  Nd1  1  0.882720  0.956575  0.238709  1
  Nd  Nd2  1  0.968152  0.282725  0.083339  1
  Y  Y3  1  0.647690  0.871888  0.831773  1
  Y  Y4  1  0.352822  0.125568  0.168123  1
  Y  Y5  1  0.030784  0.722985  0.917587  1
  Ru  Ru6  1  0.999563  0.000684  0.000047  1
  I  I7  1  0.356342  0.446478  0.272673  1
  I  I8  1  0.655370  0.553995  0.731147  1
  I  I9  1  0.734745  0.910341  0.543583  1
  I  I10  1  0.087380  0.376586  0.817472  1
  I  I11  1  0.915836  0.628708  0.175727  1
  I  I12  1  0.448653  0.816754  0.087063  1
  I  I13  1  0.545357  0.179977  0.909554  1
  I  I14  1  0.773075  0.257579  0.348090  1
  I  I15  1  0.221482  0.738212  0.658169  1
  I  I16  1  0.264082  0.088745  0.456482  1
