# generated using pymatgen
data_Er4Al3V(WO6)4
_symmetry_space_group_name_H-M   'P 1'
_cell_length_a   5.16488013
_cell_length_b   7.30897461
_cell_length_c   10.90708640
_cell_angle_alpha   90.15203484
_cell_angle_beta   89.85607992
_cell_angle_gamma   90.02654941
_symmetry_Int_Tables_number   1
_chemical_formula_structural   Er4Al3V(WO6)4
_chemical_formula_sum   'Er4 Al3 V1 W4 O24'
_cell_volume   411.73947703
_cell_formula_units_Z   1
loop_
 _symmetry_equiv_pos_site_id
 _symmetry_equiv_pos_as_xyz
  1  'x, y, z'
loop_
 _atom_site_type_symbol
 _atom_site_label
 _atom_site_symmetry_multiplicity
 _atom_site_fract_x
 _atom_site_fract_y
 _atom_site_fract_z
 _atom_site_occupancy
  Er  Er0  1  0.546680  0.249423  0.050069  1
  Er  Er1  1  0.047816  0.751758  0.454661  1
  Er  Er2  1  0.953428  0.251007  0.541337  1
  Er  Er3  1  0.456031  0.753010  0.957169  1
  Al  Al4  1  0.046335  0.996313  0.135784  1
  Al  Al5  1  0.548085  0.497452  0.364292  1
  Al  Al6  1  0.455169  0.996869  0.635395  1
  V  V7  1  0.948996  0.498455  0.865368  1
  W  W8  1  0.056669  0.506426  0.146956  1
  W  W9  1  0.554230  0.006065  0.355646  1
  W  W10  1  0.443557  0.505923  0.640577  1
  W  W11  1  0.947706  0.007389  0.854981  1
  O  O12  1  0.762055  0.958926  0.024132  1
  O  O13  1  0.760434  0.545392  0.032336  1
  O  O14  1  0.170779  0.755105  0.118845  1
  O  O15  1  0.944837  0.250820  0.143711  1
  O  O16  1  0.381317  0.439057  0.216224  1
  O  O17  1  0.372578  0.063417  0.211994  1
  O  O18  1  0.875104  0.564993  0.290335  1
  O  O19  1  0.881051  0.939488  0.286614  1
  O  O20  1  0.442961  0.751506  0.356122  1
  O  O21  1  0.669948  0.254765  0.379980  1
  O  O22  1  0.265389  0.043486  0.475812  1
  O  O23  1  0.261672  0.461647  0.472843  1
  O  O24  1  0.739868  0.960945  0.522871  1
  O  O25  1  0.735116  0.543579  0.522310  1
  O  O26  1  0.327517  0.756086  0.616865  1
  O  O27  1  0.562383  0.251106  0.642436  1
  O  O28  1  0.116437  0.431883  0.701191  1
  O  O29  1  0.128433  0.066515  0.712003  1
  O  O30  1  0.606302  0.570750  0.787431  1
  O  O31  1  0.623596  0.937816  0.785880  1
  O  O32  1  0.069239  0.757124  0.855459  1
  O  O33  1  0.814413  0.249792  0.883789  1
  O  O34  1  0.234310  0.046233  0.976377  1
  O  O35  1  0.249558  0.459879  0.982207  1
