# generated using pymatgen
data_Er3TmInPt11
_symmetry_space_group_name_H-M   'P 1'
_cell_length_a   4.17370200
_cell_length_b   5.82063348
_cell_length_c   11.63887524
_cell_angle_alpha   87.89471687
_cell_angle_beta   90.00000000
_cell_angle_gamma   90.00000000
_symmetry_Int_Tables_number   1
_chemical_formula_structural   Er3TmInPt11
_chemical_formula_sum   'Er3 Tm1 In1 Pt11'
_cell_volume   282.55920504
_cell_formula_units_Z   1
loop_
 _symmetry_equiv_pos_site_id
 _symmetry_equiv_pos_as_xyz
  1  'x, y, z'
loop_
 _atom_site_type_symbol
 _atom_site_label
 _atom_site_symmetry_multiplicity
 _atom_site_fract_x
 _atom_site_fract_y
 _atom_site_fract_z
 _atom_site_occupancy
  Er  Er0  1  0.500000  0.753953  0.375972  1
  Er  Er1  1  0.500000  0.719967  0.862324  1
  Er  Er2  1  0.500000  0.280028  0.137678  1
  Tm  Tm3  1  0.500000  0.245984  0.624028  1
  In  In4  1  0.000000  0.000033  0.999980  1
  Pt  Pt5  1  0.000000  0.013061  0.249656  1
  Pt  Pt6  1  0.000000  0.987403  0.750106  1
  Pt  Pt7  1  0.000000  0.499972  0.999926  1
  Pt  Pt8  1  0.000000  0.499536  0.500302  1
  Pt  Pt9  1  0.000000  0.515168  0.250132  1
  Pt  Pt10  1  0.000000  0.484438  0.749650  1
  Pt  Pt11  1  0.500000  0.252662  0.377935  1
  Pt  Pt12  1  0.500000  0.230887  0.879649  1
  Pt  Pt13  1  0.500000  0.769139  0.120009  1
  Pt  Pt14  1  0.500000  0.747401  0.622391  1
  Pt  Pt15  1  0.000000  0.000368  0.500261  1
