# generated using pymatgen
data_Dy16Ho4Ir7Ru5
_symmetry_space_group_name_H-M   'P 1'
_cell_length_a   10.82592668
_cell_length_b   10.82592551
_cell_length_c   6.40853612
_cell_angle_alpha   89.95297200
_cell_angle_beta   89.95296987
_cell_angle_gamma   90.14729397
_symmetry_Int_Tables_number   1
_chemical_formula_structural   Dy16Ho4Ir7Ru5
_chemical_formula_sum   'Dy16 Ho4 Ir7 Ru5'
_cell_volume   751.08177476
_cell_formula_units_Z   1
loop_
 _symmetry_equiv_pos_site_id
 _symmetry_equiv_pos_as_xyz
  1  'x, y, z'
loop_
 _atom_site_type_symbol
 _atom_site_label
 _atom_site_symmetry_multiplicity
 _atom_site_fract_x
 _atom_site_fract_y
 _atom_site_fract_z
 _atom_site_occupancy
  Dy  Dy0  1  0.293263  0.086181  0.378846  1
  Dy  Dy1  1  0.292333  0.913222  0.878459  1
  Dy  Dy2  1  0.707406  0.086746  0.878703  1
  Dy  Dy3  1  0.707362  0.913490  0.377156  1
  Dy  Dy4  1  0.586098  0.793384  0.878511  1
  Dy  Dy5  1  0.587262  0.206859  0.378929  1
  Dy  Dy6  1  0.413306  0.792986  0.378797  1
  Dy  Dy7  1  0.413367  0.206783  0.877626  1
  Dy  Dy8  1  0.206616  0.413902  0.621489  1
  Dy  Dy9  1  0.207014  0.586694  0.121203  1
  Dy  Dy10  1  0.793141  0.412738  0.121071  1
  Dy  Dy11  1  0.793217  0.586633  0.622374  1
  Dy  Dy12  1  0.913819  0.706737  0.121154  1
  Dy  Dy13  1  0.913254  0.292594  0.621297  1
  Dy  Dy14  1  0.086778  0.707667  0.621541  1
  Dy  Dy15  1  0.086510  0.292638  0.122844  1
  Ho  Ho16  1  0.999705  0.001069  0.499787  1
  Ho  Ho17  1  0.998931  0.000295  0.000213  1
  Ho  Ho18  1  0.500261  0.500275  0.000619  1
  Ho  Ho19  1  0.499725  0.499739  0.499381  1
  Ir  Ir20  1  0.847283  0.847172  0.749780  1
  Ir  Ir21  1  0.152828  0.152717  0.750220  1
  Ir  Ir22  1  0.152560  0.847440  0.250000  1
  Ir  Ir23  1  0.651216  0.348784  0.750000  1
  Ir  Ir24  1  0.652874  0.652147  0.249575  1
  Ir  Ir25  1  0.347853  0.347126  0.250425  1
  Ir  Ir26  1  0.348091  0.651909  0.750000  1
  Ru  Ru27  1  0.848295  0.151705  0.250000  1
  Ru  Ru28  1  0.500496  0.000403  0.122817  1
  Ru  Ru29  1  0.499813  0.000275  0.622536  1
  Ru  Ru30  1  0.999725  0.500187  0.877464  1
  Ru  Ru31  1  0.999597  0.499504  0.377183  1
