# generated using pymatgen
data_Ti4AlPRh10
_symmetry_space_group_name_H-M   'P 1'
_cell_length_a   3.96824800
_cell_length_b   5.41535985
_cell_length_c   10.57165060
_cell_angle_alpha   90.15387481
_cell_angle_beta   90.00000000
_cell_angle_gamma   90.00000000
_symmetry_Int_Tables_number   1
_chemical_formula_structural   Ti4AlPRh10
_chemical_formula_sum   'Ti4 Al1 P1 Rh10'
_cell_volume   227.17856991
_cell_formula_units_Z   1
loop_
 _symmetry_equiv_pos_site_id
 _symmetry_equiv_pos_as_xyz
  1  'x, y, z'
loop_
 _atom_site_type_symbol
 _atom_site_label
 _atom_site_symmetry_multiplicity
 _atom_site_fract_x
 _atom_site_fract_y
 _atom_site_fract_z
 _atom_site_occupancy
  Ti  Ti0  1  0.500000  0.322706  0.138385  1
  Ti  Ti1  1  0.500000  0.677294  0.861615  1
  Ti  Ti2  1  0.500000  0.833882  0.356738  1
  Ti  Ti3  1  0.500000  0.166118  0.643262  1
  Al  Al4  1  0.000000  0.000000  0.000000  1
  P  P5  1  0.000000  0.500000  0.500000  1
  Rh  Rh6  1  0.000000  0.000000  0.500000  1
  Rh  Rh7  1  0.000000  0.500000  0.000000  1
  Rh  Rh8  1  0.000000  0.078999  0.244134  1
  Rh  Rh9  1  0.000000  0.921001  0.755866  1
  Rh  Rh10  1  0.000000  0.576478  0.263896  1
  Rh  Rh11  1  0.000000  0.423522  0.736104  1
  Rh  Rh12  1  0.500000  0.320733  0.398899  1
  Rh  Rh13  1  0.500000  0.679267  0.601101  1
  Rh  Rh14  1  0.500000  0.807783  0.110652  1
  Rh  Rh15  1  0.500000  0.192217  0.889348  1
