# generated using pymatgen
data_Sc2Be4Rh5
_symmetry_space_group_name_H-M   'P 1'
_cell_length_a   3.10146600
_cell_length_b   8.76997501
_cell_length_c   10.43982413
_cell_angle_alpha   89.99371193
_cell_angle_beta   90.00000000
_cell_angle_gamma   90.00000000
_symmetry_Int_Tables_number   1
_chemical_formula_structural   Sc2Be4Rh5
_chemical_formula_sum   'Sc4 Be8 Rh10'
_cell_volume   283.96091078
_cell_formula_units_Z   2
loop_
 _symmetry_equiv_pos_site_id
 _symmetry_equiv_pos_as_xyz
  1  'x, y, z'
loop_
 _atom_site_type_symbol
 _atom_site_label
 _atom_site_symmetry_multiplicity
 _atom_site_fract_x
 _atom_site_fract_y
 _atom_site_fract_z
 _atom_site_occupancy
  Sc  Sc0  1  0.500000  0.842202  0.179907  1
  Sc  Sc1  1  0.500000  0.157798  0.820093  1
  Sc  Sc2  1  0.500000  0.657797  0.679906  1
  Sc  Sc3  1  0.500000  0.342203  0.320094  1
  Be  Be4  1  0.500000  0.965835  0.595892  1
  Be  Be5  1  0.500000  0.034165  0.404108  1
  Be  Be6  1  0.500000  0.842975  0.903414  1
  Be  Be7  1  0.500000  0.157025  0.096586  1
  Be  Be8  1  0.500000  0.657031  0.403429  1
  Be  Be9  1  0.500000  0.342969  0.596571  1
  Be  Be10  1  0.500000  0.465795  0.904092  1
  Be  Be11  1  0.500000  0.534205  0.095908  1
  Rh  Rh12  1  0.000000  0.659363  0.957817  1
  Rh  Rh13  1  0.000000  0.340637  0.042183  1
  Rh  Rh14  1  0.000000  0.840779  0.457850  1
  Rh  Rh15  1  0.000000  0.159221  0.542150  1
  Rh  Rh16  1  0.000000  0.000000  0.000000  1
  Rh  Rh17  1  0.000000  0.401867  0.755702  1
  Rh  Rh18  1  0.000000  0.598133  0.244298  1
  Rh  Rh19  1  0.000000  0.500000  0.500000  1
  Rh  Rh20  1  0.000000  0.901984  0.744201  1
  Rh  Rh21  1  0.000000  0.098016  0.255799  1
