# generated using pymatgen
data_Tb3Pa(Ni2Hg)2
_symmetry_space_group_name_H-M   'P 1'
_cell_length_a   7.41153507
_cell_length_b   7.41153551
_cell_length_c   3.63087100
_cell_angle_alpha   90.00000000
_cell_angle_beta   90.00000000
_cell_angle_gamma   92.19505743
_symmetry_Int_Tables_number   1
_chemical_formula_structural   Tb3Pa(Ni2Hg)2
_chemical_formula_sum   'Tb3 Pa1 Ni4 Hg2'
_cell_volume   199.30050022
_cell_formula_units_Z   1
loop_
 _symmetry_equiv_pos_site_id
 _symmetry_equiv_pos_as_xyz
  1  'x, y, z'
loop_
 _atom_site_type_symbol
 _atom_site_label
 _atom_site_symmetry_multiplicity
 _atom_site_fract_x
 _atom_site_fract_y
 _atom_site_fract_z
 _atom_site_occupancy
  Tb  Tb0  1  0.324765  0.824765  0.500000  1
  Tb  Tb1  1  0.174688  0.326976  0.500000  1
  Tb  Tb2  1  0.826976  0.674688  0.500000  1
  Pa  Pa3  1  0.672353  0.172353  0.500000  1
  Ni  Ni4  1  0.110011  0.610011  0.000000  1
  Ni  Ni5  1  0.860390  0.360390  0.000000  1
  Ni  Ni6  1  0.629609  0.897102  0.000000  1
  Ni  Ni7  1  0.397102  0.129609  0.000000  1
  Hg  Hg8  1  0.007168  0.996938  0.000000  1
  Hg  Hg9  1  0.496938  0.507168  0.000000  1
