# generated using pymatgen
data_Dy8Tm2Ir3Os
_symmetry_space_group_name_H-M   'P 1'
_cell_length_a   6.46357111
_cell_length_b   7.22528760
_cell_length_c   8.46748156
_cell_angle_alpha   96.51595551
_cell_angle_beta   112.20032185
_cell_angle_gamma   89.99644520
_symmetry_Int_Tables_number   1
_chemical_formula_structural   Dy8Tm2Ir3Os
_chemical_formula_sum   'Dy8 Tm2 Ir3 Os1'
_cell_volume   363.36723579
_cell_formula_units_Z   1
loop_
 _symmetry_equiv_pos_site_id
 _symmetry_equiv_pos_as_xyz
  1  'x, y, z'
loop_
 _atom_site_type_symbol
 _atom_site_label
 _atom_site_symmetry_multiplicity
 _atom_site_fract_x
 _atom_site_fract_y
 _atom_site_fract_z
 _atom_site_occupancy
  Dy  Dy0  1  0.970752  0.917211  0.182290  1
  Dy  Dy1  1  0.789762  0.581428  0.820604  1
  Dy  Dy2  1  0.028900  0.081770  0.818419  1
  Dy  Dy3  1  0.210089  0.419077  0.182444  1
  Dy  Dy4  1  0.654158  0.815816  0.438452  1
  Dy  Dy5  1  0.210588  0.682892  0.558582  1
  Dy  Dy6  1  0.347483  0.183363  0.560536  1
  Dy  Dy7  1  0.786563  0.317643  0.438354  1
  Tm  Tm8  1  0.430264  0.749711  0.000692  1
  Tm  Tm9  1  0.572202  0.251408  0.000786  1
  Ir  Ir10  1  0.604690  0.928011  0.782110  1
  Ir  Ir11  1  0.177355  0.426401  0.782573  1
  Ir  Ir12  1  0.394381  0.072748  0.217481  1
  Os  Os13  1  0.822815  0.572522  0.216677  1
