# generated using pymatgen
data_Ho8Mg3Sc8Si16Ag
_symmetry_space_group_name_H-M   'P 1'
_cell_length_a   6.92323100
_cell_length_b   7.44301929
_cell_length_c   13.90183900
_cell_angle_alpha   90.00000000
_cell_angle_beta   90.00000000
_cell_angle_gamma   89.90652692
_symmetry_Int_Tables_number   1
_chemical_formula_structural   Ho8Mg3Sc8Si16Ag
_chemical_formula_sum   'Ho8 Mg3 Sc8 Si16 Ag1'
_cell_volume   716.35722250
_cell_formula_units_Z   1
loop_
 _symmetry_equiv_pos_site_id
 _symmetry_equiv_pos_as_xyz
  1  'x, y, z'
loop_
 _atom_site_type_symbol
 _atom_site_label
 _atom_site_symmetry_multiplicity
 _atom_site_fract_x
 _atom_site_fract_y
 _atom_site_fract_z
 _atom_site_occupancy
  Ho  Ho0  1  0.012262  0.177529  0.096717  1
  Ho  Ho1  1  0.988799  0.816734  0.902246  1
  Ho  Ho2  1  0.486479  0.677080  0.902813  1
  Ho  Ho3  1  0.988799  0.816734  0.597754  1
  Ho  Ho4  1  0.511701  0.321328  0.096221  1
  Ho  Ho5  1  0.012262  0.177529  0.403283  1
  Ho  Ho6  1  0.511701  0.321328  0.403779  1
  Ho  Ho7  1  0.486479  0.677080  0.597187  1
  Mg  Mg8  1  0.840924  0.495182  0.250000  1
  Mg  Mg9  1  0.341784  0.005314  0.250000  1
  Mg  Mg10  1  0.657094  0.996205  0.750000  1
  Sc  Sc11  1  0.327485  0.183171  0.626262  1
  Sc  Sc12  1  0.669887  0.820020  0.375107  1
  Sc  Sc13  1  0.169882  0.681162  0.374520  1
  Sc  Sc14  1  0.669887  0.820020  0.124893  1
  Sc  Sc15  1  0.833867  0.322075  0.626266  1
  Sc  Sc16  1  0.327485  0.183171  0.873738  1
  Sc  Sc17  1  0.833867  0.322075  0.873734  1
  Sc  Sc18  1  0.169882  0.681162  0.125480  1
  Si  Si19  1  0.031933  0.099909  0.750000  1
  Si  Si20  1  0.965369  0.896643  0.250000  1
  Si  Si21  1  0.465755  0.605386  0.250000  1
  Si  Si22  1  0.534749  0.395493  0.750000  1
  Si  Si23  1  0.282727  0.881377  0.750000  1
  Si  Si24  1  0.717204  0.120634  0.250000  1
  Si  Si25  1  0.218148  0.379822  0.250000  1
  Si  Si26  1  0.780582  0.620720  0.750000  1
  Si  Si27  1  0.161707  0.461222  0.531460  1
  Si  Si28  1  0.839779  0.536019  0.465321  1
  Si  Si29  1  0.340131  0.963291  0.466760  1
  Si  Si30  1  0.839779  0.536019  0.034679  1
  Si  Si31  1  0.661088  0.036045  0.535748  1
  Si  Si32  1  0.161707  0.461222  0.968540  1
  Si  Si33  1  0.661088  0.036045  0.964252  1
  Si  Si34  1  0.340131  0.963291  0.033240  1
  Ag  Ag35  1  0.157594  0.511961  0.750000  1
