# generated using pymatgen
data_Mn4V7SiOs4
_symmetry_space_group_name_H-M   'P 1'
_cell_length_a   5.89240000
_cell_length_b   4.16973800
_cell_length_c   8.35153800
_cell_angle_alpha   90.00010985
_cell_angle_beta   90.00120659
_cell_angle_gamma   89.99994335
_symmetry_Int_Tables_number   1
_chemical_formula_structural   Mn4V7SiOs4
_chemical_formula_sum   'Mn4 V7 Si1 Os4'
_cell_volume   205.19531927
_cell_formula_units_Z   1
loop_
 _symmetry_equiv_pos_site_id
 _symmetry_equiv_pos_as_xyz
  1  'x, y, z'
loop_
 _atom_site_type_symbol
 _atom_site_label
 _atom_site_symmetry_multiplicity
 _atom_site_fract_x
 _atom_site_fract_y
 _atom_site_fract_z
 _atom_site_occupancy
  Mn  Mn0  1  0.249214  0.250000  0.125210  1
  Mn  Mn1  1  0.750920  0.749999  0.373783  1
  Mn  Mn2  1  0.249637  0.250003  0.624887  1
  Mn  Mn3  1  0.750977  0.750001  0.876178  1
  V  V4  1  0.500148  0.750001  0.125005  1
  V  V5  1  0.000011  0.249999  0.374272  1
  V  V6  1  0.500142  0.250000  0.375242  1
  V  V7  1  0.499626  0.750000  0.624995  1
  V  V8  1  0.999301  0.750000  0.624975  1
  V  V9  1  0.500263  0.250001  0.874747  1
  V  V10  1  0.999907  0.250001  0.875728  1
  Si  Si11  1  0.000124  0.750001  0.124980  1
  Os  Os12  1  0.753430  0.250001  0.125067  1
  Os  Os13  1  0.248449  0.750000  0.373321  1
  Os  Os14  1  0.749363  0.250000  0.624970  1
  Os  Os15  1  0.248488  0.750001  0.876641  1
