# generated using pymatgen
data_CaTb2Nd7Ir6
_symmetry_space_group_name_H-M   'P 1'
_cell_length_a   11.19905196
_cell_length_b   11.22027300
_cell_length_c   6.51356098
_cell_angle_alpha   90.00000000
_cell_angle_beta   90.44894023
_cell_angle_gamma   90.00000000
_symmetry_Int_Tables_number   1
_chemical_formula_structural   CaTb2Nd7Ir6
_chemical_formula_sum   'Ca2 Tb4 Nd14 Ir12'
_cell_volume   818.44563141
_cell_formula_units_Z   2
loop_
 _symmetry_equiv_pos_site_id
 _symmetry_equiv_pos_as_xyz
  1  'x, y, z'
loop_
 _atom_site_type_symbol
 _atom_site_label
 _atom_site_symmetry_multiplicity
 _atom_site_fract_x
 _atom_site_fract_y
 _atom_site_fract_z
 _atom_site_occupancy
  Ca  Ca0  1  0.289510  0.086927  0.380023  1
  Ca  Ca1  1  0.289510  0.913073  0.880023  1
  Tb  Tb2  1  0.002419  0.001061  0.498116  1
  Tb  Tb3  1  0.002419  0.998939  0.998116  1
  Tb  Tb4  1  0.499661  0.499804  0.997278  1
  Tb  Tb5  1  0.499661  0.500196  0.497278  1
  Nd  Nd6  1  0.710673  0.087484  0.883110  1
  Nd  Nd7  1  0.710673  0.912516  0.383110  1
  Nd  Nd8  1  0.584919  0.791228  0.881338  1
  Nd  Nd9  1  0.584919  0.208772  0.381338  1
  Nd  Nd10  1  0.409922  0.793876  0.383523  1
  Nd  Nd11  1  0.409922  0.206124  0.883523  1
  Nd  Nd12  1  0.211020  0.411989  0.619179  1
  Nd  Nd13  1  0.211020  0.588011  0.119179  1
  Nd  Nd14  1  0.789878  0.411842  0.117205  1
  Nd  Nd15  1  0.789878  0.588158  0.617205  1
  Nd  Nd16  1  0.911533  0.710841  0.119876  1
  Nd  Nd17  1  0.911533  0.289159  0.619876  1
  Nd  Nd18  1  0.089354  0.711029  0.619762  1
  Nd  Nd19  1  0.089354  0.288971  0.119762  1
  Ir  Ir20  1  0.852654  0.149774  0.249560  1
  Ir  Ir21  1  0.852654  0.850226  0.749560  1
  Ir  Ir22  1  0.144441  0.155107  0.753418  1
  Ir  Ir23  1  0.144441  0.844893  0.253418  1
  Ir  Ir24  1  0.648407  0.349492  0.750007  1
  Ir  Ir25  1  0.648407  0.650508  0.250007  1
  Ir  Ir26  1  0.350419  0.354219  0.245684  1
  Ir  Ir27  1  0.350419  0.645781  0.745684  1
  Ir  Ir28  1  0.504691  0.000674  0.120889  1
  Ir  Ir29  1  0.504691  0.999326  0.620889  1
  Ir  Ir30  1  0.000500  0.500374  0.881032  1
  Ir  Ir31  1  0.000500  0.499626  0.381032  1
