# generated using pymatgen
data_Sc4Al18(NiIr)3
_symmetry_space_group_name_H-M   'P 1'
_cell_length_a   7.39166969
_cell_length_b   7.39138025
_cell_length_c   9.17655431
_cell_angle_alpha   89.90597065
_cell_angle_beta   89.95762873
_cell_angle_gamma   119.17810343
_symmetry_Int_Tables_number   1
_chemical_formula_structural   Sc4Al18(NiIr)3
_chemical_formula_sum   'Sc4 Al18 Ni3 Ir3'
_cell_volume   437.73842511
_cell_formula_units_Z   1
loop_
 _symmetry_equiv_pos_site_id
 _symmetry_equiv_pos_as_xyz
  1  'x, y, z'
loop_
 _atom_site_type_symbol
 _atom_site_label
 _atom_site_symmetry_multiplicity
 _atom_site_fract_x
 _atom_site_fract_y
 _atom_site_fract_z
 _atom_site_occupancy
  Sc  Sc0  1  0.993784  0.675416  0.250263  1
  Sc  Sc1  1  0.001574  0.320076  0.750007  1
  Sc  Sc2  1  0.679685  0.998239  0.250210  1
  Sc  Sc3  1  0.324473  0.006069  0.749896  1
  Al  Al4  1  0.132393  0.132023  0.249456  1
  Al  Al5  1  0.867812  0.867385  0.750663  1
  Al  Al6  1  0.994588  0.339670  0.075934  1
  Al  Al7  1  0.006821  0.662806  0.923373  1
  Al  Al8  1  0.008026  0.662213  0.577037  1
  Al  Al9  1  0.337844  0.992355  0.423051  1
  Al  Al10  1  0.002810  0.339522  0.423148  1
  Al  Al11  1  0.660615  0.997334  0.576975  1
  Al  Al12  1  0.660193  0.005291  0.924147  1
  Al  Al13  1  0.337044  0.993000  0.076730  1
  Al  Al14  1  0.332102  0.333124  0.555789  1
  Al  Al15  1  0.667014  0.667956  0.444354  1
  Al  Al16  1  0.665644  0.667408  0.054646  1
  Al  Al17  1  0.332346  0.334153  0.945487  1
  Al  Al18  1  0.341452  0.565658  0.249099  1
  Al  Al19  1  0.658183  0.442547  0.754452  1
  Al  Al20  1  0.557363  0.341706  0.245676  1
  Al  Al21  1  0.434301  0.658454  0.750415  1
  Ni  Ni22  1  0.670956  0.329160  0.000021  1
  Ni  Ni23  1  0.328541  0.671987  0.999386  1
  Ni  Ni24  1  0.330551  0.670926  0.499478  1
  Ir  Ir25  1  0.673220  0.326906  0.500145  1
  Ir  Ir26  1  0.999085  0.000108  0.000008  1
  Ir  Ir27  1  0.001581  0.998511  0.500155  1
