# generated using pymatgen
data_Tb5Tm15(Cd3Co)2
_symmetry_space_group_name_H-M   'P 1'
_cell_length_a   9.53385004
_cell_length_b   9.53385080
_cell_length_c   9.61885200
_cell_angle_alpha   90.00000000
_cell_angle_beta   90.00000000
_cell_angle_gamma   119.98935021
_symmetry_Int_Tables_number   1
_chemical_formula_structural   Tb5Tm15(Cd3Co)2
_chemical_formula_sum   'Tb5 Tm15 Cd6 Co2'
_cell_volume   757.24626164
_cell_formula_units_Z   1
loop_
 _symmetry_equiv_pos_site_id
 _symmetry_equiv_pos_as_xyz
  1  'x, y, z'
loop_
 _atom_site_type_symbol
 _atom_site_label
 _atom_site_symmetry_multiplicity
 _atom_site_fract_x
 _atom_site_fract_y
 _atom_site_fract_z
 _atom_site_occupancy
  Tb  Tb0  1  0.541451  0.084108  0.250000  1
  Tb  Tb1  1  0.915892  0.458549  0.250000  1
  Tb  Tb2  1  0.458089  0.541911  0.750000  1
  Tb  Tb3  1  0.458460  0.916918  0.750000  1
  Tb  Tb4  1  0.083082  0.541540  0.750000  1
  Tm  Tm5  1  0.000006  0.999994  0.499944  1
  Tm  Tm6  1  0.000006  0.999994  0.000056  1
  Tm  Tm7  1  0.541392  0.458608  0.250000  1
  Tm  Tm8  1  0.211894  0.788106  0.435547  1
  Tm  Tm9  1  0.212672  0.423477  0.435255  1
  Tm  Tm10  1  0.576523  0.787328  0.435255  1
  Tm  Tm11  1  0.788074  0.211926  0.564028  1
  Tm  Tm12  1  0.787420  0.575942  0.563734  1
  Tm  Tm13  1  0.424058  0.212580  0.563734  1
  Tm  Tm14  1  0.788074  0.211926  0.935972  1
  Tm  Tm15  1  0.787420  0.575942  0.936266  1
  Tm  Tm16  1  0.424058  0.212580  0.936266  1
  Tm  Tm17  1  0.211894  0.788106  0.064453  1
  Tm  Tm18  1  0.212672  0.423477  0.064745  1
  Tm  Tm19  1  0.576523  0.787328  0.064745  1
  Cd  Cd20  1  0.885744  0.114256  0.250000  1
  Cd  Cd21  1  0.884154  0.770630  0.250000  1
  Cd  Cd22  1  0.229370  0.115846  0.250000  1
  Cd  Cd23  1  0.113896  0.886104  0.750000  1
  Cd  Cd24  1  0.114373  0.227926  0.750000  1
  Cd  Cd25  1  0.772074  0.885627  0.750000  1
  Co  Co26  1  0.333669  0.666331  0.250000  1
  Co  Co27  1  0.667057  0.332943  0.750000  1
