# generated using pymatgen
data_Ho18Er2Ir11Ru
_symmetry_space_group_name_H-M   'P 1'
_cell_length_a   10.81190700
_cell_length_b   10.81187900
_cell_length_c   6.37064300
_cell_angle_alpha   90.00000000
_cell_angle_beta   90.00000000
_cell_angle_gamma   90.00054053
_symmetry_Int_Tables_number   1
_chemical_formula_structural   Ho18Er2Ir11Ru
_chemical_formula_sum   'Ho18 Er2 Ir11 Ru1'
_cell_volume   744.70924742
_cell_formula_units_Z   1
loop_
 _symmetry_equiv_pos_site_id
 _symmetry_equiv_pos_as_xyz
  1  'x, y, z'
loop_
 _atom_site_type_symbol
 _atom_site_label
 _atom_site_symmetry_multiplicity
 _atom_site_fract_x
 _atom_site_fract_y
 _atom_site_fract_z
 _atom_site_occupancy
  Ho  Ho0  1  0.292338  0.086952  0.376217  1
  Ho  Ho1  1  0.292664  0.912967  0.879200  1
  Ho  Ho2  1  0.707336  0.087033  0.879200  1
  Ho  Ho3  1  0.707662  0.913048  0.376217  1
  Ho  Ho4  1  0.587001  0.792549  0.879184  1
  Ho  Ho5  1  0.586922  0.207785  0.376217  1
  Ho  Ho6  1  0.413078  0.792215  0.376217  1
  Ho  Ho7  1  0.412999  0.207451  0.879184  1
  Ho  Ho8  1  0.209276  0.411934  0.622457  1
  Ho  Ho9  1  0.209258  0.587910  0.122096  1
  Ho  Ho10  1  0.790742  0.412090  0.122096  1
  Ho  Ho11  1  0.790724  0.588066  0.622457  1
  Ho  Ho12  1  0.912050  0.709142  0.122092  1
  Ho  Ho13  1  0.911891  0.290834  0.622448  1
  Ho  Ho14  1  0.088109  0.709166  0.622448  1
  Ho  Ho15  1  0.087950  0.290858  0.122092  1
  Ho  Ho16  1  0.000000  0.000000  0.499358  1
  Ho  Ho17  1  0.000000  0.000000  0.999312  1
  Er  Er18  1  0.500000  0.500000  0.999159  1
  Er  Er19  1  0.500000  0.500000  0.499511  1
  Ir  Ir20  1  0.846994  0.153774  0.250031  1
  Ir  Ir21  1  0.847040  0.846589  0.749765  1
  Ir  Ir22  1  0.152960  0.153411  0.749765  1
  Ir  Ir23  1  0.153006  0.846226  0.250031  1
  Ir  Ir24  1  0.653179  0.347260  0.749767  1
  Ir  Ir25  1  0.653546  0.652766  0.250020  1
  Ir  Ir26  1  0.346454  0.347234  0.250020  1
  Ir  Ir27  1  0.346821  0.652740  0.749767  1
  Ir  Ir28  1  0.500000  0.000000  0.622871  1
  Ir  Ir29  1  0.000000  0.500000  0.878580  1
  Ir  Ir30  1  0.000000  0.500000  0.378663  1
  Ru  Ru31  1  0.500000  0.000000  0.123555  1
