# generated using pymatgen
data_Ho2Si5Os3
_symmetry_space_group_name_H-M   'P 1'
_cell_length_a   8.11870299
_cell_length_b   8.11870248
_cell_length_c   5.78310654
_cell_angle_alpha   70.51636054
_cell_angle_beta   70.51636733
_cell_angle_gamma   93.95459754
_symmetry_Int_Tables_number   1
_chemical_formula_structural   Ho2Si5Os3
_chemical_formula_sum   'Ho4 Si10 Os6'
_cell_volume   331.74042606
_cell_formula_units_Z   2
loop_
 _symmetry_equiv_pos_site_id
 _symmetry_equiv_pos_as_xyz
  1  'x, y, z'
loop_
 _atom_site_type_symbol
 _atom_site_label
 _atom_site_symmetry_multiplicity
 _atom_site_fract_x
 _atom_site_fract_y
 _atom_site_fract_z
 _atom_site_occupancy
  Ho  Ho0  1  0.868541  0.601065  0.754381  1
  Ho  Ho1  1  0.398935  0.131459  0.745619  1
  Ho  Ho2  1  0.131459  0.398935  0.245619  1
  Ho  Ho3  1  0.601065  0.868541  0.254381  1
  Si  Si4  1  0.067947  0.261547  0.834016  1
  Si  Si5  1  0.738453  0.932053  0.665984  1
  Si  Si6  1  0.932053  0.738453  0.165984  1
  Si  Si7  1  0.261547  0.067947  0.334016  1
  Si  Si8  1  0.206267  0.793733  0.750000  1
  Si  Si9  1  0.793733  0.206267  0.250000  1
  Si  Si10  1  0.512825  0.487175  0.750000  1
  Si  Si11  1  0.487175  0.512825  0.250000  1
  Si  Si12  1  0.774662  0.225338  0.750000  1
  Si  Si13  1  0.225338  0.774662  0.250000  1
  Os  Os14  1  0.255816  0.544227  0.631148  1
  Os  Os15  1  0.455773  0.744184  0.868852  1
  Os  Os16  1  0.744184  0.455773  0.368852  1
  Os  Os17  1  0.544227  0.255816  0.131148  1
  Os  Os18  1  0.001886  0.998114  0.750000  1
  Os  Os19  1  0.998114  0.001886  0.250000  1
