# generated using pymatgen
data_HgPbF4
_symmetry_space_group_name_H-M   'P 1'
_cell_length_a   7.19174976
_cell_length_b   7.19175013
_cell_length_c   7.19175027
_cell_angle_alpha   131.48850713
_cell_angle_beta   131.48850824
_cell_angle_gamma   71.03808456
_symmetry_Int_Tables_number   1
_chemical_formula_structural   HgPbF4
_chemical_formula_sum   'Hg2 Pb2 F8'
_cell_volume   204.37577485
_cell_formula_units_Z   2
loop_
 _symmetry_equiv_pos_site_id
 _symmetry_equiv_pos_as_xyz
  1  'x, y, z'
loop_
 _atom_site_type_symbol
 _atom_site_label
 _atom_site_symmetry_multiplicity
 _atom_site_fract_x
 _atom_site_fract_y
 _atom_site_fract_z
 _atom_site_occupancy
  Hg  Hg0  1  0.500000  0.000000  0.500000  1
  Hg  Hg1  1  0.000000  0.500000  0.500000  1
  Pb  Pb2  1  0.250000  0.250000  0.000000  1
  Pb  Pb3  1  0.750000  0.750000  0.000000  1
  F  F4  1  0.662271  0.162271  0.074173  1
  F  F5  1  0.911902  0.411902  0.074173  1
  F  F6  1  0.162271  0.088098  0.500000  1
  F  F7  1  0.411902  0.337730  0.500000  1
  F  F8  1  0.588098  0.662271  0.500000  1
  F  F9  1  0.837729  0.911902  0.500000  1
  F  F10  1  0.088098  0.588098  0.925828  1
  F  F11  1  0.337730  0.837730  0.925828  1
