# generated using pymatgen
data_Ta3Nb4B8OsRu5
_symmetry_space_group_name_H-M   'P 1'
_cell_length_a   9.61693915
_cell_length_b   9.61641116
_cell_length_c   3.13134900
_cell_angle_alpha   90.00000000
_cell_angle_beta   90.00000000
_cell_angle_gamma   120.06743115
_symmetry_Int_Tables_number   1
_chemical_formula_structural   Ta3Nb4B8OsRu5
_chemical_formula_sum   'Ta3 Nb4 B8 Os1 Ru5'
_cell_volume   250.62044765
_cell_formula_units_Z   1
loop_
 _symmetry_equiv_pos_site_id
 _symmetry_equiv_pos_as_xyz
  1  'x, y, z'
loop_
 _atom_site_type_symbol
 _atom_site_label
 _atom_site_symmetry_multiplicity
 _atom_site_fract_x
 _atom_site_fract_y
 _atom_site_fract_z
 _atom_site_occupancy
  Ta  Ta0  1  0.276782  0.363420  0.000000  1
  Ta  Ta1  1  0.637150  0.913768  0.000000  1
  Ta  Ta2  1  0.085097  0.723105  0.000000  1
  Nb  Nb3  1  0.000631  0.999992  0.000000  1
  Nb  Nb4  1  0.724718  0.638436  0.000000  1
  Nb  Nb5  1  0.361384  0.087248  0.000000  1
  Nb  Nb6  1  0.913168  0.274257  0.000000  1
  B  B7  1  0.666660  0.333325  0.000000  1
  B  B8  1  0.333500  0.667410  0.000000  1
  B  B9  1  0.152831  0.933090  0.500000  1
  B  B10  1  0.065666  0.217687  0.500000  1
  B  B11  1  0.782075  0.847535  0.500000  1
  B  B12  1  0.846993  0.064722  0.500000  1
  B  B13  1  0.935625  0.782269  0.500000  1
  B  B14  1  0.218951  0.155223  0.500000  1
  Os  Os15  1  0.359614  0.845068  0.500000  1
  Ru  Ru16  1  0.153985  0.512799  0.500000  1
  Ru  Ru17  1  0.486041  0.640269  0.500000  1
  Ru  Ru18  1  0.638379  0.153288  0.500000  1
  Ru  Ru19  1  0.846839  0.485829  0.500000  1
  Ru  Ru20  1  0.513911  0.361260  0.500000  1
