# generated using pymatgen
data_TbDy3(LuGa5)2
_symmetry_space_group_name_H-M   'P 1'
_cell_length_a   6.05873606
_cell_length_b   9.57531410
_cell_length_c   11.53451700
_cell_angle_alpha   90.00000000
_cell_angle_beta   90.00000000
_cell_angle_gamma   89.98343987
_symmetry_Int_Tables_number   1
_chemical_formula_structural   TbDy3(LuGa5)2
_chemical_formula_sum   'Tb2 Dy6 Lu4 Ga20'
_cell_volume   669.16691150
_cell_formula_units_Z   2
loop_
 _symmetry_equiv_pos_site_id
 _symmetry_equiv_pos_as_xyz
  1  'x, y, z'
loop_
 _atom_site_type_symbol
 _atom_site_label
 _atom_site_symmetry_multiplicity
 _atom_site_fract_x
 _atom_site_fract_y
 _atom_site_fract_z
 _atom_site_occupancy
  Tb  Tb0  1  0.890698  0.506617  0.351135  1
  Tb  Tb1  1  0.609302  0.993383  0.851135  1
  Dy  Dy2  1  0.109322  0.006583  0.648831  1
  Dy  Dy3  1  0.390678  0.493417  0.148831  1
  Dy  Dy4  1  0.109303  0.493410  0.648996  1
  Dy  Dy5  1  0.390697  0.006590  0.148996  1
  Dy  Dy6  1  0.890737  0.993441  0.351104  1
  Dy  Dy7  1  0.609263  0.506559  0.851104  1
  Lu  Lu8  1  0.849636  0.749967  0.074272  1
  Lu  Lu9  1  0.650364  0.750033  0.574272  1
  Lu  Lu10  1  0.150249  0.250010  0.925757  1
  Lu  Lu11  1  0.349751  0.249990  0.425757  1
  Ga  Ga12  1  0.876404  0.053078  0.089528  1
  Ga  Ga13  1  0.623596  0.446922  0.589528  1
  Ga  Ga14  1  0.123625  0.553040  0.910551  1
  Ga  Ga15  1  0.376375  0.946960  0.410551  1
  Ga  Ga16  1  0.123424  0.946864  0.910602  1
  Ga  Ga17  1  0.376576  0.553136  0.410602  1
  Ga  Ga18  1  0.876365  0.446889  0.089278  1
  Ga  Ga19  1  0.623635  0.053111  0.589278  1
  Ga  Ga20  1  0.167116  0.750143  0.253905  1
  Ga  Ga21  1  0.332884  0.749857  0.753905  1
  Ga  Ga22  1  0.833177  0.250150  0.745933  1
  Ga  Ga23  1  0.666823  0.249850  0.245933  1
  Ga  Ga24  1  0.378829  0.749921  0.001503  1
  Ga  Ga25  1  0.121171  0.750079  0.501503  1
  Ga  Ga26  1  0.621061  0.250185  0.998696  1
  Ga  Ga27  1  0.878939  0.249815  0.498696  1
  Ga  Ga28  1  0.604026  0.750208  0.298704  1
  Ga  Ga29  1  0.895974  0.749792  0.798704  1
  Ga  Ga30  1  0.395690  0.250048  0.701206  1
  Ga  Ga31  1  0.104310  0.249952  0.201206  1
