# generated using pymatgen
data_Tb3Nd3Dy2(CdIr)2
_symmetry_space_group_name_H-M   'P 1'
_cell_length_a   9.76261337
_cell_length_b   9.75985006
_cell_length_c   9.75984939
_cell_angle_alpha   60.01873427
_cell_angle_beta   59.99062933
_cell_angle_gamma   59.99063498
_symmetry_Int_Tables_number   1
_chemical_formula_structural   Tb3Nd3Dy2(CdIr)2
_chemical_formula_sum   'Tb6 Nd6 Dy4 Cd4 Ir4'
_cell_volume   657.56286579
_cell_formula_units_Z   2
loop_
 _symmetry_equiv_pos_site_id
 _symmetry_equiv_pos_as_xyz
  1  'x, y, z'
loop_
 _atom_site_type_symbol
 _atom_site_label
 _atom_site_symmetry_multiplicity
 _atom_site_fract_x
 _atom_site_fract_y
 _atom_site_fract_z
 _atom_site_occupancy
  Tb  Tb0  1  0.347571  0.348159  0.348159  1
  Tb  Tb1  1  0.348159  0.347571  0.956110  1
  Tb  Tb2  1  0.348159  0.956110  0.347571  1
  Tb  Tb3  1  0.956110  0.348159  0.348159  1
  Tb  Tb4  1  0.812313  0.187687  0.187687  1
  Tb  Tb5  1  0.187687  0.812313  0.812313  1
  Nd  Nd6  1  0.940606  0.559394  0.559394  1
  Nd  Nd7  1  0.559394  0.940606  0.940606  1
  Nd  Nd8  1  0.559115  0.940885  0.559115  1
  Nd  Nd9  1  0.940885  0.559115  0.940885  1
  Nd  Nd10  1  0.559115  0.559115  0.940885  1
  Nd  Nd11  1  0.940885  0.940885  0.559115  1
  Dy  Dy12  1  0.188010  0.811990  0.188010  1
  Dy  Dy13  1  0.811990  0.188010  0.811990  1
  Dy  Dy14  1  0.188010  0.188010  0.811990  1
  Dy  Dy15  1  0.811990  0.811990  0.188010  1
  Cd  Cd16  1  0.579863  0.579642  0.579642  1
  Cd  Cd17  1  0.579642  0.579863  0.260852  1
  Cd  Cd18  1  0.579642  0.260852  0.579863  1
  Cd  Cd19  1  0.260852  0.579642  0.579642  1
  Ir  Ir20  1  0.141609  0.141012  0.141012  1
  Ir  Ir21  1  0.141012  0.141609  0.576367  1
  Ir  Ir22  1  0.141012  0.576367  0.141609  1
  Ir  Ir23  1  0.576367  0.141012  0.141012  1
