# generated using pymatgen
data_Ho2Tm2ReB12Rh
_symmetry_space_group_name_H-M   'P 1'
_cell_length_a   3.65373100
_cell_length_b   9.10084898
_cell_length_c   11.49533805
_cell_angle_alpha   90.40357737
_cell_angle_beta   90.00000000
_cell_angle_gamma   90.00000000
_symmetry_Int_Tables_number   1
_chemical_formula_structural   Ho2Tm2ReB12Rh
_chemical_formula_sum   'Ho4 Tm4 Re2 B24 Rh2'
_cell_volume   382.23411990
_cell_formula_units_Z   2
loop_
 _symmetry_equiv_pos_site_id
 _symmetry_equiv_pos_as_xyz
  1  'x, y, z'
loop_
 _atom_site_type_symbol
 _atom_site_label
 _atom_site_symmetry_multiplicity
 _atom_site_fract_x
 _atom_site_fract_y
 _atom_site_fract_z
 _atom_site_occupancy
  Ho  Ho0  1  0.500000  0.318177  0.411207  1
  Ho  Ho1  1  0.500000  0.681823  0.588793  1
  Ho  Ho2  1  0.500000  0.174291  0.917207  1
  Ho  Ho3  1  0.500000  0.825709  0.082793  1
  Tm  Tm4  1  0.500000  0.442452  0.126650  1
  Tm  Tm5  1  0.500000  0.557548  0.873350  1
  Tm  Tm6  1  0.500000  0.054444  0.628165  1
  Tm  Tm7  1  0.500000  0.945556  0.371835  1
  Re  Re8  1  0.500000  0.139165  0.180116  1
  Re  Re9  1  0.500000  0.860835  0.819884  1
  B  B10  1  0.000000  0.105763  0.471594  1
  B  B11  1  0.000000  0.894237  0.528406  1
  B  B12  1  0.000000  0.395774  0.971118  1
  B  B13  1  0.000000  0.604226  0.028882  1
  B  B14  1  0.000000  0.131628  0.315422  1
  B  B15  1  0.000000  0.868372  0.684578  1
  B  B16  1  0.000000  0.367985  0.816973  1
  B  B17  1  0.000000  0.632015  0.183027  1
  B  B18  1  0.000000  0.053166  0.067471  1
  B  B19  1  0.000000  0.946834  0.932529  1
  B  B20  1  0.000000  0.445340  0.565781  1
  B  B21  1  0.000000  0.554660  0.434219  1
  B  B22  1  0.000000  0.483333  0.287532  1
  B  B23  1  0.000000  0.516667  0.712468  1
  B  B24  1  0.000000  0.017346  0.786589  1
  B  B25  1  0.000000  0.982654  0.213411  1
  B  B26  1  0.000000  0.249351  0.081449  1
  B  B27  1  0.000000  0.750649  0.918551  1
  B  B28  1  0.000000  0.250194  0.578830  1
  B  B29  1  0.000000  0.749806  0.421170  1
  B  B30  1  0.000000  0.293438  0.235125  1
  B  B31  1  0.000000  0.706562  0.764875  1
  B  B32  1  0.000000  0.208336  0.734969  1
  B  B33  1  0.000000  0.791664  0.265031  1
  Rh  Rh34  1  0.500000  0.361767  0.679118  1
  Rh  Rh35  1  0.500000  0.638233  0.320882  1
