# generated using pymatgen
data_TbDy(FeSi2)2
_symmetry_space_group_name_H-M   'P 1'
_cell_length_a   3.95627400
_cell_length_b   4.29035682
_cell_length_c   7.96947532
_cell_angle_alpha   76.75984247
_cell_angle_beta   90.00000000
_cell_angle_gamma   90.00000000
_symmetry_Int_Tables_number   1
_chemical_formula_structural   TbDy(FeSi2)2
_chemical_formula_sum   'Tb1 Dy1 Fe2 Si4'
_cell_volume   131.67676633
_cell_formula_units_Z   1
loop_
 _symmetry_equiv_pos_site_id
 _symmetry_equiv_pos_as_xyz
  1  'x, y, z'
loop_
 _atom_site_type_symbol
 _atom_site_label
 _atom_site_symmetry_multiplicity
 _atom_site_fract_x
 _atom_site_fract_y
 _atom_site_fract_z
 _atom_site_occupancy
  Tb  Tb0  1  0.750000  0.402183  0.205248  1
  Dy  Dy1  1  0.250000  0.598636  0.794110  1
  Fe  Fe2  1  0.250000  0.883886  0.390546  1
  Fe  Fe3  1  0.750000  0.115433  0.609866  1
  Si  Si4  1  0.250000  0.959131  0.097286  1
  Si  Si5  1  0.750000  0.041313  0.902146  1
  Si  Si6  1  0.250000  0.329230  0.493133  1
  Si  Si7  1  0.750000  0.670188  0.507666  1
