# generated using pymatgen
data_Er3P2S
_symmetry_space_group_name_H-M   'P 1'
_cell_length_a   6.84127182
_cell_length_b   6.84127182
_cell_length_c   6.84127081
_cell_angle_alpha   146.51466165
_cell_angle_beta   132.13211282
_cell_angle_gamma   59.67731577
_symmetry_Int_Tables_number   1
_chemical_formula_structural   Er3P2S
_chemical_formula_sum   'Er3 P2 S1'
_cell_volume   129.83611819
_cell_formula_units_Z   1
loop_
 _symmetry_equiv_pos_site_id
 _symmetry_equiv_pos_as_xyz
  1  'x, y, z'
loop_
 _atom_site_type_symbol
 _atom_site_label
 _atom_site_symmetry_multiplicity
 _atom_site_fract_x
 _atom_site_fract_y
 _atom_site_fract_z
 _atom_site_occupancy
  Er  Er0  1  0.500000  0.000000  0.500000  1
  Er  Er1  1  0.172663  0.672663  0.500000  1
  Er  Er2  1  0.827337  0.327337  0.500000  1
  P  P3  1  0.664774  0.664774  0.000000  1
  P  P4  1  0.335226  0.335226  0.000000  1
  S  S5  1  0.000000  0.000000  0.000000  1
