# generated using pymatgen
data_Ce2Lu3AgPb3
_symmetry_space_group_name_H-M   'P 1'
_cell_length_a   9.39641200
_cell_length_b   9.39641157
_cell_length_c   6.35164500
_cell_angle_alpha   90.00000000
_cell_angle_beta   90.00000000
_cell_angle_gamma   120.00000151
_symmetry_Int_Tables_number   1
_chemical_formula_structural   Ce2Lu3AgPb3
_chemical_formula_sum   'Ce4 Lu6 Ag2 Pb6'
_cell_volume   485.66960412
_cell_formula_units_Z   2
loop_
 _symmetry_equiv_pos_site_id
 _symmetry_equiv_pos_as_xyz
  1  'x, y, z'
loop_
 _atom_site_type_symbol
 _atom_site_label
 _atom_site_symmetry_multiplicity
 _atom_site_fract_x
 _atom_site_fract_y
 _atom_site_fract_z
 _atom_site_occupancy
  Ce  Ce0  1  0.666667  0.333333  0.500000  1
  Ce  Ce1  1  0.333333  0.666667  0.500000  1
  Ce  Ce2  1  0.333333  0.666667  0.000000  1
  Ce  Ce3  1  0.666667  0.333333  0.000000  1
  Lu  Lu4  1  0.724744  0.724744  0.250000  1
  Lu  Lu5  1  0.275256  0.000000  0.250000  1
  Lu  Lu6  1  0.000000  0.275256  0.250000  1
  Lu  Lu7  1  0.275256  0.275256  0.750000  1
  Lu  Lu8  1  0.724744  0.000000  0.750000  1
  Lu  Lu9  1  0.000000  0.724744  0.750000  1
  Ag  Ag10  1  0.000000  0.000000  0.500000  1
  Ag  Ag11  1  0.000000  0.000000  0.000000  1
  Pb  Pb12  1  0.371266  0.371266  0.250000  1
  Pb  Pb13  1  0.628734  0.000000  0.250000  1
  Pb  Pb14  1  0.000000  0.628734  0.250000  1
  Pb  Pb15  1  0.628734  0.628734  0.750000  1
  Pb  Pb16  1  0.371266  0.000000  0.750000  1
  Pb  Pb17  1  0.000000  0.371266  0.750000  1
