# generated using pymatgen
data_Ba3Mg2Zn4Si4TeO20
_symmetry_space_group_name_H-M   'P 1'
_cell_length_a   9.97815498
_cell_length_b   9.97815513
_cell_length_c   5.20855900
_cell_angle_alpha   76.01574230
_cell_angle_beta   76.01574209
_cell_angle_gamma   71.62922245
_symmetry_Int_Tables_number   1
_chemical_formula_structural   Ba3Mg2Zn4Si4TeO20
_chemical_formula_sum   'Ba3 Mg2 Zn4 Si4 Te1 O20'
_cell_volume   469.79305924
_cell_formula_units_Z   1
loop_
 _symmetry_equiv_pos_site_id
 _symmetry_equiv_pos_as_xyz
  1  'x, y, z'
loop_
 _atom_site_type_symbol
 _atom_site_label
 _atom_site_symmetry_multiplicity
 _atom_site_fract_x
 _atom_site_fract_y
 _atom_site_fract_z
 _atom_site_occupancy
  Ba  Ba0  1  0.786481  0.786481  0.747352  1
  Ba  Ba1  1  0.213519  0.213519  0.252648  1
  Ba  Ba2  1  0.500000  0.500000  0.000000  1
  Mg  Mg3  1  0.153405  0.846595  0.500000  1
  Mg  Mg4  1  0.846595  0.153405  0.500000  1
  Zn  Zn5  1  0.364007  0.922980  0.827724  1
  Zn  Zn6  1  0.077020  0.635993  0.172276  1
  Zn  Zn7  1  0.635993  0.077020  0.172276  1
  Zn  Zn8  1  0.922980  0.364007  0.827724  1
  Si  Si9  1  0.518899  0.780902  0.342709  1
  Si  Si10  1  0.219098  0.481101  0.657291  1
  Si  Si11  1  0.481101  0.219098  0.657291  1
  Si  Si12  1  0.780902  0.518899  0.342709  1
  Te  Te13  1  0.000000  0.000000  0.000000  1
  O  O14  1  0.616651  0.884181  0.342151  1
  O  O15  1  0.115819  0.383349  0.657849  1
  O  O16  1  0.383349  0.115819  0.657849  1
  O  O17  1  0.884181  0.616651  0.342151  1
  O  O18  1  0.363621  0.816306  0.547813  1
  O  O19  1  0.183694  0.636379  0.452187  1
  O  O20  1  0.636379  0.183694  0.452187  1
  O  O21  1  0.816306  0.363621  0.547813  1
  O  O22  1  0.505538  0.776999  0.036736  1
  O  O23  1  0.223001  0.494462  0.963264  1
  O  O24  1  0.494462  0.223001  0.963264  1
  O  O25  1  0.776999  0.505538  0.036736  1
  O  O26  1  0.932627  0.932627  0.371778  1
  O  O27  1  0.067373  0.067373  0.628222  1
  O  O28  1  0.188909  0.952803  0.105149  1
  O  O29  1  0.047197  0.811091  0.894851  1
  O  O30  1  0.811091  0.047197  0.894851  1
  O  O31  1  0.952803  0.188909  0.105149  1
  O  O32  1  0.610114  0.610114  0.465418  1
  O  O33  1  0.389886  0.389886  0.534582  1
