# generated using pymatgen
data_Ta2FeSb(PO4)6
_symmetry_space_group_name_H-M   'P 1'
_cell_length_a   8.69971492
_cell_length_b   8.69971511
_cell_length_c   8.98285606
_cell_angle_alpha   61.03732254
_cell_angle_beta   61.03731975
_cell_angle_gamma   60.00000090
_symmetry_Int_Tables_number   1
_chemical_formula_structural   Ta2FeSb(PO4)6
_chemical_formula_sum   'Ta2 Fe1 Sb1 P6 O24'
_cell_volume   488.13933320
_cell_formula_units_Z   1
loop_
 _symmetry_equiv_pos_site_id
 _symmetry_equiv_pos_as_xyz
  1  'x, y, z'
loop_
 _atom_site_type_symbol
 _atom_site_label
 _atom_site_symmetry_multiplicity
 _atom_site_fract_x
 _atom_site_fract_y
 _atom_site_fract_z
 _atom_site_occupancy
  Ta  Ta0  1  0.143351  0.143351  0.569948  1
  Ta  Ta1  1  0.357470  0.357470  0.927590  1
  Fe  Fe2  1  0.859722  0.859722  0.420835  1
  Sb  Sb3  1  0.643590  0.643590  0.069231  1
  P  P4  1  0.752626  0.029140  0.746109  1
  P  P5  1  0.029140  0.472125  0.746109  1
  P  P6  1  0.472125  0.752626  0.746109  1
  P  P7  1  0.538516  0.253054  0.249389  1
  P  P8  1  0.959041  0.538516  0.249389  1
  P  P9  1  0.253054  0.959041  0.249389  1
  O  O10  1  0.292503  0.128135  0.081783  1
  O  O11  1  0.497578  0.292503  0.081783  1
  O  O12  1  0.926422  0.060088  0.719578  1
  O  O13  1  0.128135  0.497578  0.081783  1
  O  O14  1  0.581463  0.205595  0.783661  1
  O  O15  1  0.765260  0.006895  0.584859  1
  O  O16  1  0.060088  0.293912  0.719578  1
  O  O17  1  0.205595  0.429281  0.783661  1
  O  O18  1  0.429281  0.581463  0.783661  1
  O  O19  1  0.363109  0.226057  0.415100  1
  O  O20  1  0.713536  0.085761  0.266193  1
  O  O21  1  0.995734  0.363109  0.415100  1
  O  O22  1  0.006895  0.642986  0.584859  1
  O  O23  1  0.293912  0.926422  0.719578  1
  O  O24  1  0.642986  0.765260  0.584859  1
  O  O25  1  0.547500  0.434737  0.235152  1
  O  O26  1  0.782611  0.547500  0.235152  1
  O  O27  1  0.934510  0.713536  0.266193  1
  O  O28  1  0.226057  0.995734  0.415100  1
  O  O29  1  0.434737  0.782611  0.235152  1
  O  O30  1  0.857124  0.481782  0.922306  1
  O  O31  1  0.085761  0.934510  0.266193  1
  O  O32  1  0.481782  0.738787  0.922306  1
  O  O33  1  0.738787  0.857124  0.922306  1
