# generated using pymatgen
data_Tb16Dy4Rh11Au
_symmetry_space_group_name_H-M   'P 1'
_cell_length_a   10.93147501
_cell_length_b   10.93147511
_cell_length_c   6.37068100
_cell_angle_alpha   89.99791918
_cell_angle_beta   89.99791918
_cell_angle_gamma   90.00773617
_symmetry_Int_Tables_number   1
_chemical_formula_structural   Tb16Dy4Rh11Au
_chemical_formula_sum   'Tb16 Dy4 Rh11 Au1'
_cell_volume   761.27819551
_cell_formula_units_Z   1
loop_
 _symmetry_equiv_pos_site_id
 _symmetry_equiv_pos_as_xyz
  1  'x, y, z'
loop_
 _atom_site_type_symbol
 _atom_site_label
 _atom_site_symmetry_multiplicity
 _atom_site_fract_x
 _atom_site_fract_y
 _atom_site_fract_z
 _atom_site_occupancy
  Tb  Tb0  1  0.290705  0.091267  0.380220  1
  Tb  Tb1  1  0.289229  0.918683  0.878824  1
  Tb  Tb2  1  0.709592  0.090618  0.879376  1
  Tb  Tb3  1  0.710263  0.910599  0.380681  1
  Tb  Tb4  1  0.595409  0.794002  0.881047  1
  Tb  Tb5  1  0.590353  0.207124  0.377202  1
  Tb  Tb6  1  0.414599  0.794905  0.365904  1
  Tb  Tb7  1  0.410631  0.210874  0.877467  1
  Tb  Tb8  1  0.205998  0.404591  0.618952  1
  Tb  Tb9  1  0.205095  0.585401  0.134096  1
  Tb  Tb10  1  0.792876  0.409646  0.122797  1
  Tb  Tb11  1  0.789125  0.589369  0.622535  1
  Tb  Tb12  1  0.908733  0.709295  0.119780  1
  Tb  Tb13  1  0.909382  0.290408  0.620624  1
  Tb  Tb14  1  0.081317  0.710770  0.621176  1
  Tb  Tb15  1  0.089401  0.289737  0.119319  1
  Dy  Dy16  1  0.000469  0.001321  0.498660  1
  Dy  Dy17  1  0.998679  0.999531  0.001340  1
  Dy  Dy18  1  0.504837  0.496956  0.000763  1
  Dy  Dy19  1  0.503043  0.495163  0.499237  1
  Rh  Rh20  1  0.846032  0.153968  0.250000  1
  Rh  Rh21  1  0.847875  0.846344  0.748335  1
  Rh  Rh22  1  0.153657  0.152125  0.751664  1
  Rh  Rh23  1  0.154534  0.845466  0.250001  1
  Rh  Rh24  1  0.656234  0.343767  0.749999  1
  Rh  Rh25  1  0.651761  0.653183  0.249129  1
  Rh  Rh26  1  0.346817  0.348239  0.250872  1
  Rh  Rh27  1  0.499571  0.001376  0.121659  1
  Rh  Rh28  1  0.500467  0.999699  0.625826  1
  Rh  Rh29  1  0.000301  0.499533  0.874174  1
  Rh  Rh30  1  0.998625  0.500428  0.378341  1
  Au  Au31  1  0.344390  0.655609  0.750000  1
