# generated using pymatgen
data_YbNb8CuS16
_symmetry_space_group_name_H-M   'P 1'
_cell_length_a   6.75478100
_cell_length_b   6.75478130
_cell_length_c   13.20875300
_cell_angle_alpha   90.00000000
_cell_angle_beta   90.00000000
_cell_angle_gamma   120.00000343
_symmetry_Int_Tables_number   1
_chemical_formula_structural   YbNb8CuS16
_chemical_formula_sum   'Yb1 Nb8 Cu1 S16'
_cell_volume   521.93329394
_cell_formula_units_Z   1
loop_
 _symmetry_equiv_pos_site_id
 _symmetry_equiv_pos_as_xyz
  1  'x, y, z'
loop_
 _atom_site_type_symbol
 _atom_site_label
 _atom_site_symmetry_multiplicity
 _atom_site_fract_x
 _atom_site_fract_y
 _atom_site_fract_z
 _atom_site_occupancy
  Yb  Yb0  1  0.000000  0.000000  0.500000  1
  Nb  Nb1  1  0.988983  0.494491  0.231614  1
  Nb  Nb2  1  0.011017  0.505509  0.768386  1
  Nb  Nb3  1  0.494491  0.505509  0.768386  1
  Nb  Nb4  1  0.505509  0.011017  0.231614  1
  Nb  Nb5  1  0.000000  0.000000  0.770377  1
  Nb  Nb6  1  0.000000  0.000000  0.229623  1
  Nb  Nb7  1  0.505509  0.494491  0.231614  1
  Nb  Nb8  1  0.494491  0.988983  0.768386  1
  Cu  Cu9  1  0.000000  0.000000  0.000000  1
  S  S10  1  0.333333  0.666667  0.646201  1
  S  S11  1  0.666667  0.333333  0.112208  1
  S  S12  1  0.666667  0.333333  0.353799  1
  S  S13  1  0.333333  0.666667  0.887792  1
  S  S14  1  0.167044  0.334089  0.348842  1
  S  S15  1  0.830657  0.169343  0.885110  1
  S  S16  1  0.338686  0.169343  0.885110  1
  S  S17  1  0.665911  0.832956  0.348842  1
  S  S18  1  0.167044  0.832956  0.348842  1
  S  S19  1  0.830657  0.661314  0.885110  1
  S  S20  1  0.169343  0.338686  0.114890  1
  S  S21  1  0.832956  0.167044  0.651158  1
  S  S22  1  0.334089  0.167044  0.651158  1
  S  S23  1  0.661314  0.830657  0.114890  1
  S  S24  1  0.169343  0.830657  0.114890  1
  S  S25  1  0.832956  0.665911  0.651158  1
