# generated using pymatgen
data_TbYbPr5FeI12
_symmetry_space_group_name_H-M   'P 1'
_cell_length_a   10.12069758
_cell_length_b   10.02852071
_cell_length_c   10.01974528
_cell_angle_alpha   107.08554934
_cell_angle_beta   106.70957199
_cell_angle_gamma   107.19911861
_symmetry_Int_Tables_number   1
_chemical_formula_structural   TbYbPr5FeI12
_chemical_formula_sum   'Tb1 Yb1 Pr5 Fe1 I12'
_cell_volume   846.96554340
_cell_formula_units_Z   1
loop_
 _symmetry_equiv_pos_site_id
 _symmetry_equiv_pos_as_xyz
  1  'x, y, z'
loop_
 _atom_site_type_symbol
 _atom_site_label
 _atom_site_symmetry_multiplicity
 _atom_site_fract_x
 _atom_site_fract_y
 _atom_site_fract_z
 _atom_site_occupancy
  Tb  Tb0  1  0.701291  0.973935  0.901921  1
  Yb  Yb1  1  0.499703  0.500598  0.500268  1
  Pr  Pr2  1  0.094038  0.292762  0.024918  1
  Pr  Pr3  1  0.024471  0.095735  0.292034  1
  Pr  Pr4  1  0.308067  0.026023  0.100399  1
  Pr  Pr5  1  0.902326  0.706624  0.974004  1
  Pr  Pr6  1  0.974528  0.904112  0.707323  1
  Fe  Fe7  1  0.999324  0.999134  0.999426  1
  I  I8  1  0.458937  0.383955  0.158436  1
  I  I9  1  0.160557  0.461362  0.384069  1
  I  I10  1  0.381537  0.158991  0.460975  1
  I  I11  1  0.541675  0.625145  0.843007  1
  I  I12  1  0.838778  0.538369  0.615855  1
  I  I13  1  0.618946  0.845896  0.548373  1
  I  I14  1  0.770578  0.308810  0.925660  1
  I  I15  1  0.926617  0.773397  0.317481  1
  I  I16  1  0.320457  0.927303  0.773856  1
  I  I17  1  0.223087  0.681033  0.072035  1
  I  I18  1  0.072989  0.226435  0.682360  1
  I  I19  1  0.682093  0.070380  0.217600  1
