# generated using pymatgen
data_ErTh7(Si3Pd)4
_symmetry_space_group_name_H-M   'P 1'
_cell_length_a   8.23875200
_cell_length_b   8.23875241
_cell_length_c   8.47363300
_cell_angle_alpha   90.00000000
_cell_angle_beta   90.00000000
_cell_angle_gamma   119.99999836
_symmetry_Int_Tables_number   1
_chemical_formula_structural   ErTh7(Si3Pd)4
_chemical_formula_sum   'Er1 Th7 Si12 Pd4'
_cell_volume   498.10760332
_cell_formula_units_Z   1
loop_
 _symmetry_equiv_pos_site_id
 _symmetry_equiv_pos_as_xyz
  1  'x, y, z'
loop_
 _atom_site_type_symbol
 _atom_site_label
 _atom_site_symmetry_multiplicity
 _atom_site_fract_x
 _atom_site_fract_y
 _atom_site_fract_z
 _atom_site_occupancy
  Er  Er0  1  0.000000  0.000000  0.750000  1
  Th  Th1  1  0.500719  0.001439  0.250000  1
  Th  Th2  1  0.499375  0.998749  0.750000  1
  Th  Th3  1  0.998561  0.499281  0.250000  1
  Th  Th4  1  0.001251  0.500625  0.750000  1
  Th  Th5  1  0.500719  0.499281  0.250000  1
  Th  Th6  1  0.499375  0.500625  0.750000  1
  Th  Th7  1  0.000000  0.000000  0.250000  1
  Si  Si8  1  0.165179  0.330358  0.997537  1
  Si  Si9  1  0.834875  0.669750  0.994917  1
  Si  Si10  1  0.669642  0.834821  0.997537  1
  Si  Si11  1  0.834875  0.669750  0.505083  1
  Si  Si12  1  0.330250  0.165125  0.994917  1
  Si  Si13  1  0.165179  0.330358  0.502463  1
  Si  Si14  1  0.165179  0.834821  0.997537  1
  Si  Si15  1  0.330250  0.165125  0.505083  1
  Si  Si16  1  0.834875  0.165125  0.994917  1
  Si  Si17  1  0.669642  0.834821  0.502463  1
  Si  Si18  1  0.834875  0.165125  0.505083  1
  Si  Si19  1  0.165179  0.834821  0.502463  1
  Pd  Pd20  1  0.333333  0.666667  0.003316  1
  Pd  Pd21  1  0.666667  0.333333  0.999539  1
  Pd  Pd22  1  0.666667  0.333333  0.500461  1
  Pd  Pd23  1  0.333333  0.666667  0.496684  1
