# generated using pymatgen
data_La7Tb(YbIr2)2
_symmetry_space_group_name_H-M   'P 1'
_cell_length_a   6.72363644
_cell_length_b   7.41909578
_cell_length_c   8.98632400
_cell_angle_alpha   96.05076115
_cell_angle_beta   111.96893608
_cell_angle_gamma   90.00000015
_symmetry_Int_Tables_number   1
_chemical_formula_structural   La7Tb(YbIr2)2
_chemical_formula_sum   'La7 Tb1 Yb2 Ir4'
_cell_volume   413.02327797
_cell_formula_units_Z   1
loop_
 _symmetry_equiv_pos_site_id
 _symmetry_equiv_pos_as_xyz
  1  'x, y, z'
loop_
 _atom_site_type_symbol
 _atom_site_label
 _atom_site_symmetry_multiplicity
 _atom_site_fract_x
 _atom_site_fract_y
 _atom_site_fract_z
 _atom_site_occupancy
  La  La0  1  0.014632  0.087163  0.819592  1
  La  La1  1  0.195040  0.412837  0.180408  1
  La  La2  1  0.651186  0.818126  0.432170  1
  La  La3  1  0.219016  0.681874  0.567830  1
  La  La4  1  0.347659  0.182289  0.566713  1
  La  La5  1  0.780947  0.317711  0.433287  1
  La  La6  1  0.440228  0.750000  0.000000  1
  Tb  Tb7  1  0.567463  0.250000  0.000000  1
  Yb  Yb8  1  0.984056  0.917510  0.181808  1
  Yb  Yb9  1  0.802248  0.582490  0.818192  1
  Ir  Ir10  1  0.819387  0.568735  0.226876  1
  Ir  Ir11  1  0.592510  0.931265  0.773124  1
  Ir  Ir12  1  0.185629  0.423709  0.785629  1
  Ir  Ir13  1  0.400000  0.076291  0.214371  1
