# generated using pymatgen
data_Zr10GaAg(BiPb)3
_symmetry_space_group_name_H-M   'P 1'
_cell_length_a   8.88329400
_cell_length_b   8.88329286
_cell_length_c   5.99096000
_cell_angle_alpha   89.99997182
_cell_angle_beta   89.99996797
_cell_angle_gamma   120.00052614
_symmetry_Int_Tables_number   1
_chemical_formula_structural   Zr10GaAg(BiPb)3
_chemical_formula_sum   'Zr10 Ga1 Ag1 Bi3 Pb3'
_cell_volume   409.42349833
_cell_formula_units_Z   1
loop_
 _symmetry_equiv_pos_site_id
 _symmetry_equiv_pos_as_xyz
  1  'x, y, z'
loop_
 _atom_site_type_symbol
 _atom_site_label
 _atom_site_symmetry_multiplicity
 _atom_site_fract_x
 _atom_site_fract_y
 _atom_site_fract_z
 _atom_site_occupancy
  Zr  Zr0  1  0.666666  0.333338  0.002365  1
  Zr  Zr1  1  0.333336  0.666664  0.002365  1
  Zr  Zr2  1  0.333336  0.666665  0.498108  1
  Zr  Zr3  1  0.666667  0.333338  0.498108  1
  Zr  Zr4  1  0.731952  0.731953  0.763293  1
  Zr  Zr5  1  0.268043  0.000000  0.763306  1
  Zr  Zr6  1  0.000002  0.268042  0.763306  1
  Zr  Zr7  1  0.272010  0.272010  0.236927  1
  Zr  Zr8  1  0.727987  0.000002  0.236935  1
  Zr  Zr9  1  0.000000  0.727986  0.236935  1
  Ga  Ga10  1  0.999996  0.999996  0.004102  1
  Ag  Ag11  1  0.000002  0.000002  0.494035  1
  Bi  Bi12  1  0.386652  0.386654  0.744373  1
  Bi  Bi13  1  0.613347  0.000000  0.744375  1
  Bi  Bi14  1  0.999999  0.613344  0.744375  1
  Pb  Pb15  1  0.616954  0.616954  0.255695  1
  Pb  Pb16  1  0.383048  0.999999  0.255699  1
  Pb  Pb17  1  0.000001  0.383052  0.255699  1
