# generated using pymatgen
data_Hf3TiAs4
_symmetry_space_group_name_H-M   'P 1'
_cell_length_a   3.76441100
_cell_length_b   3.76441113
_cell_length_c   12.63303800
_cell_angle_alpha   90.00000000
_cell_angle_beta   90.00000000
_cell_angle_gamma   119.99999003
_symmetry_Int_Tables_number   1
_chemical_formula_structural   Hf3TiAs4
_chemical_formula_sum   'Hf3 Ti1 As4'
_cell_volume   155.03600216
_cell_formula_units_Z   1
loop_
 _symmetry_equiv_pos_site_id
 _symmetry_equiv_pos_as_xyz
  1  'x, y, z'
loop_
 _atom_site_type_symbol
 _atom_site_label
 _atom_site_symmetry_multiplicity
 _atom_site_fract_x
 _atom_site_fract_y
 _atom_site_fract_z
 _atom_site_occupancy
  Hf  Hf0  1  0.333333  0.666667  0.124415  1
  Hf  Hf1  1  0.666667  0.333333  0.610711  1
  Hf  Hf2  1  0.666667  0.333333  0.881968  1
  Ti  Ti3  1  0.333333  0.666667  0.384970  1
  As  As4  1  0.000000  0.000000  0.002979  1
  As  As5  1  0.000000  0.000000  0.489760  1
  As  As6  1  0.333333  0.666667  0.746516  1
  As  As7  1  0.666667  0.333333  0.258682  1
