# generated using pymatgen
data_Tb4ErIn3S
_symmetry_space_group_name_H-M   'P 1'
_cell_length_a   9.00766900
_cell_length_b   9.00766859
_cell_length_c   6.56051200
_cell_angle_alpha   90.00000000
_cell_angle_beta   90.00000000
_cell_angle_gamma   119.99999783
_symmetry_Int_Tables_number   1
_chemical_formula_structural   Tb4ErIn3S
_chemical_formula_sum   'Tb8 Er2 In6 S2'
_cell_volume   460.99179300
_cell_formula_units_Z   2
loop_
 _symmetry_equiv_pos_site_id
 _symmetry_equiv_pos_as_xyz
  1  'x, y, z'
loop_
 _atom_site_type_symbol
 _atom_site_label
 _atom_site_symmetry_multiplicity
 _atom_site_fract_x
 _atom_site_fract_y
 _atom_site_fract_z
 _atom_site_occupancy
  Tb  Tb0  1  0.755193  0.755193  0.250633  1
  Tb  Tb1  1  0.000000  0.755193  0.749367  1
  Tb  Tb2  1  0.755193  0.000000  0.749367  1
  Tb  Tb3  1  0.244807  0.244807  0.749367  1
  Tb  Tb4  1  0.000000  0.244807  0.250633  1
  Tb  Tb5  1  0.244807  0.000000  0.250633  1
  Tb  Tb6  1  0.333333  0.666667  0.000000  1
  Tb  Tb7  1  0.666667  0.333333  0.000000  1
  Er  Er8  1  0.333333  0.666667  0.500000  1
  Er  Er9  1  0.666667  0.333333  0.500000  1
  In  In10  1  0.400774  0.000000  0.748027  1
  In  In11  1  0.000000  0.599226  0.251973  1
  In  In12  1  0.599226  0.000000  0.251973  1
  In  In13  1  0.000000  0.400774  0.748027  1
  In  In14  1  0.400774  0.400774  0.251973  1
  In  In15  1  0.599226  0.599226  0.748027  1
  S  S16  1  0.000000  0.000000  0.500000  1
  S  S17  1  0.000000  0.000000  0.000000  1
