# generated using pymatgen
data_DyTm5Sc4Si5As
_symmetry_space_group_name_H-M   'P 1'
_cell_length_a   8.22435000
_cell_length_b   8.22435076
_cell_length_c   5.96065100
_cell_angle_alpha   90.00000000
_cell_angle_beta   90.00000000
_cell_angle_gamma   120.15452697
_symmetry_Int_Tables_number   1
_chemical_formula_structural   DyTm5Sc4Si5As
_chemical_formula_sum   'Dy1 Tm5 Sc4 Si5 As1'
_cell_volume   348.61749591
_cell_formula_units_Z   1
loop_
 _symmetry_equiv_pos_site_id
 _symmetry_equiv_pos_as_xyz
  1  'x, y, z'
loop_
 _atom_site_type_symbol
 _atom_site_label
 _atom_site_symmetry_multiplicity
 _atom_site_fract_x
 _atom_site_fract_y
 _atom_site_fract_z
 _atom_site_occupancy
  Dy  Dy0  1  0.753364  0.753364  0.500000  1
  Tm  Tm1  1  0.246046  0.999731  0.500000  1
  Tm  Tm2  1  0.999731  0.246046  0.500000  1
  Tm  Tm3  1  0.245548  0.245548  0.000000  1
  Tm  Tm4  1  0.755105  0.004109  0.000000  1
  Tm  Tm5  1  0.004109  0.755105  0.000000  1
  Sc  Sc6  1  0.667366  0.330464  0.251864  1
  Sc  Sc7  1  0.330464  0.667366  0.251864  1
  Sc  Sc8  1  0.330464  0.667366  0.748136  1
  Sc  Sc9  1  0.667366  0.330464  0.748136  1
  Si  Si10  1  0.393986  0.393986  0.500000  1
  Si  Si11  1  0.601923  0.999195  0.500000  1
  Si  Si12  1  0.999195  0.601923  0.500000  1
  Si  Si13  1  0.398025  0.000611  0.000000  1
  Si  Si14  1  0.000611  0.398025  0.000000  1
  As  As15  1  0.606750  0.606750  0.000000  1
