# generated using pymatgen
data_GdEr(SeO4)3
_symmetry_space_group_name_H-M   'P 1'
_cell_length_a   10.03658356
_cell_length_b   10.03658346
_cell_length_c   10.03658301
_cell_angle_alpha   57.68245235
_cell_angle_beta   57.68245456
_cell_angle_gamma   57.68245437
_symmetry_Int_Tables_number   1
_chemical_formula_structural   GdEr(SeO4)3
_chemical_formula_sum   'Gd2 Er2 Se6 O24'
_cell_volume   676.82628330
_cell_formula_units_Z   2
loop_
 _symmetry_equiv_pos_site_id
 _symmetry_equiv_pos_as_xyz
  1  'x, y, z'
loop_
 _atom_site_type_symbol
 _atom_site_label
 _atom_site_symmetry_multiplicity
 _atom_site_fract_x
 _atom_site_fract_y
 _atom_site_fract_z
 _atom_site_occupancy
  Gd  Gd0  1  0.356229  0.356229  0.356229  1
  Gd  Gd1  1  0.643771  0.643771  0.643771  1
  Er  Er2  1  0.144526  0.144526  0.144526  1
  Er  Er3  1  0.855474  0.855474  0.855474  1
  Se  Se4  1  0.035904  0.463709  0.753862  1
  Se  Se5  1  0.463709  0.753862  0.035904  1
  Se  Se6  1  0.753862  0.035904  0.463709  1
  Se  Se7  1  0.964096  0.536291  0.246138  1
  Se  Se8  1  0.246138  0.964096  0.536291  1
  Se  Se9  1  0.536291  0.246138  0.964096  1
  O  O10  1  0.224798  0.994449  0.367871  1
  O  O11  1  0.367871  0.224798  0.994449  1
  O  O12  1  0.994449  0.367871  0.224798  1
  O  O13  1  0.775202  0.005551  0.632129  1
  O  O14  1  0.632129  0.775202  0.005551  1
  O  O15  1  0.005551  0.632129  0.775202  1
  O  O16  1  0.268962  0.129864  0.510331  1
  O  O17  1  0.510331  0.268962  0.129864  1
  O  O18  1  0.129864  0.510331  0.268962  1
  O  O19  1  0.731038  0.870136  0.489669  1
  O  O20  1  0.064697  0.293905  0.921786  1
  O  O21  1  0.293905  0.921786  0.064697  1
  O  O22  1  0.921786  0.064697  0.293905  1
  O  O23  1  0.935303  0.706095  0.078214  1
  O  O24  1  0.706095  0.078214  0.935303  1
  O  O25  1  0.078214  0.935303  0.706095  1
  O  O26  1  0.205750  0.437092  0.585121  1
  O  O27  1  0.437092  0.585121  0.205750  1
  O  O28  1  0.585121  0.205750  0.437092  1
  O  O29  1  0.794250  0.562908  0.414879  1
  O  O30  1  0.562908  0.414879  0.794250  1
  O  O31  1  0.414879  0.794250  0.562908  1
  O  O32  1  0.870136  0.489669  0.731038  1
  O  O33  1  0.489669  0.731038  0.870136  1
