# generated using pymatgen
data_Ta3TiSi2(B2Ru5)2
_symmetry_space_group_name_H-M   'P 1'
_cell_length_a   9.23886433
_cell_length_b   9.23886433
_cell_length_c   2.96863700
_cell_angle_alpha   90.00000000
_cell_angle_beta   90.00000000
_cell_angle_gamma   89.73164394
_symmetry_Int_Tables_number   1
_chemical_formula_structural   Ta3TiSi2(B2Ru5)2
_chemical_formula_sum   'Ta3 Ti1 Si2 B4 Ru10'
_cell_volume   253.39002373
_cell_formula_units_Z   1
loop_
 _symmetry_equiv_pos_site_id
 _symmetry_equiv_pos_as_xyz
  1  'x, y, z'
loop_
 _atom_site_type_symbol
 _atom_site_label
 _atom_site_symmetry_multiplicity
 _atom_site_fract_x
 _atom_site_fract_y
 _atom_site_fract_z
 _atom_site_occupancy
  Ta  Ta0  1  0.175121  0.324879  0.000000  1
  Ta  Ta1  1  0.323660  0.822967  0.000000  1
  Ta  Ta2  1  0.677033  0.176340  0.000000  1
  Ti  Ti3  1  0.823612  0.676388  0.000000  1
  Si  Si4  1  0.501099  0.500593  0.000000  1
  Si  Si5  1  0.999407  0.998901  0.000000  1
  B  B6  1  0.626669  0.873331  0.000000  1
  B  B7  1  0.374743  0.125257  0.000000  1
  B  B8  1  0.123614  0.624703  0.000000  1
  B  B9  1  0.875297  0.376386  0.000000  1
  Ru  Ru10  1  0.568509  0.710573  0.500000  1
  Ru  Ru11  1  0.432601  0.289091  0.500000  1
  Ru  Ru12  1  0.068713  0.789542  0.500000  1
  Ru  Ru13  1  0.932841  0.210933  0.500000  1
  Ru  Ru14  1  0.289067  0.567159  0.500000  1
  Ru  Ru15  1  0.710458  0.431287  0.500000  1
  Ru  Ru16  1  0.210909  0.067399  0.500000  1
  Ru  Ru17  1  0.789427  0.931491  0.500000  1
  Ru  Ru18  1  0.500484  0.999516  0.500000  1
  Ru  Ru19  1  0.996734  0.503266  0.500000  1
