# generated using pymatgen
data_Tb4Dy2Mn3(Co5P4)3
_symmetry_space_group_name_H-M   'P 1'
_cell_length_a   3.70915400
_cell_length_b   10.57944716
_cell_length_c   12.19262618
_cell_angle_alpha   90.01974169
_cell_angle_beta   90.00030485
_cell_angle_gamma   89.99996828
_symmetry_Int_Tables_number   1
_chemical_formula_structural   Tb4Dy2Mn3(Co5P4)3
_chemical_formula_sum   'Tb4 Dy2 Mn3 Co15 P12'
_cell_volume   478.44836168
_cell_formula_units_Z   1
loop_
 _symmetry_equiv_pos_site_id
 _symmetry_equiv_pos_as_xyz
  1  'x, y, z'
loop_
 _atom_site_type_symbol
 _atom_site_label
 _atom_site_symmetry_multiplicity
 _atom_site_fract_x
 _atom_site_fract_y
 _atom_site_fract_z
 _atom_site_occupancy
  Tb  Tb0  1  0.000003  0.499993  0.523565  1
  Tb  Tb1  1  0.500004  0.000141  0.477440  1
  Tb  Tb2  1  0.500005  0.818510  0.204745  1
  Tb  Tb3  1  0.000014  0.680700  0.795935  1
  Dy  Dy4  1  0.500004  0.181575  0.204905  1
  Dy  Dy5  1  0.000013  0.319307  0.795800  1
  Mn  Mn6  1  0.499981  0.499476  0.154123  1
  Mn  Mn7  1  0.999769  0.999712  0.841350  1
  Mn  Mn8  1  0.000033  0.499495  0.989010  1
  Co  Co9  1  0.500006  0.499649  0.700094  1
  Co  Co10  1  0.000003  0.000507  0.297537  1
  Co  Co11  1  0.500002  0.000415  0.013029  1
  Co  Co12  1  0.500034  0.330002  0.994433  1
  Co  Co13  1  0.500034  0.669475  0.994416  1
  Co  Co14  1  0.000009  0.164946  0.004606  1
  Co  Co15  1  0.000008  0.835470  0.004671  1
  Co  Co16  1  0.500003  0.295947  0.430532  1
  Co  Co17  1  0.500003  0.704136  0.430573  1
  Co  Co18  1  0.000004  0.203527  0.570182  1
  Co  Co19  1  0.000004  0.796657  0.570096  1
  Co  Co20  1  0.499985  0.880204  0.709676  1
  Co  Co21  1  0.499986  0.120231  0.709842  1
  Co  Co22  1  0.000003  0.620974  0.291516  1
  Co  Co23  1  0.000003  0.378729  0.291448  1
  P  P24  1  0.500061  0.499509  0.883066  1
  P  P25  1  0.000006  0.000503  0.116877  1
  P  P26  1  0.500005  0.500091  0.346000  1
  P  P27  1  0.999998  0.000060  0.655590  1
  P  P28  1  0.500003  0.309854  0.616601  1
  P  P29  1  0.500003  0.690138  0.616334  1
  P  P30  1  0.000003  0.189569  0.384229  1
  P  P31  1  0.000003  0.810693  0.384459  1
  P  P32  1  0.499994  0.847704  0.893090  1
  P  P33  1  0.499994  0.152821  0.892727  1
  P  P34  1  0.000009  0.655050  0.105447  1
  P  P35  1  0.000008  0.344228  0.106055  1
