# generated using pymatgen
data_Hf20Co3NiP12
_symmetry_space_group_name_H-M   'P 1'
_cell_length_a   3.59698300
_cell_length_b   10.20260684
_cell_length_c   17.02239540
_cell_angle_alpha   90.04654824
_cell_angle_beta   90.00000000
_cell_angle_gamma   90.00000000
_symmetry_Int_Tables_number   1
_chemical_formula_structural   Hf20Co3NiP12
_chemical_formula_sum   'Hf20 Co3 Ni1 P12'
_cell_volume   624.69793112
_cell_formula_units_Z   1
loop_
 _symmetry_equiv_pos_site_id
 _symmetry_equiv_pos_as_xyz
  1  'x, y, z'
loop_
 _atom_site_type_symbol
 _atom_site_label
 _atom_site_symmetry_multiplicity
 _atom_site_fract_x
 _atom_site_fract_y
 _atom_site_fract_z
 _atom_site_occupancy
  Hf  Hf0  1  0.250000  0.119923  0.476914  1
  Hf  Hf1  1  0.750000  0.877829  0.523515  1
  Hf  Hf2  1  0.750000  0.621773  0.023387  1
  Hf  Hf3  1  0.250000  0.378272  0.976494  1
  Hf  Hf4  1  0.250000  0.061414  0.075879  1
  Hf  Hf5  1  0.750000  0.938575  0.924331  1
  Hf  Hf6  1  0.750000  0.563924  0.423880  1
  Hf  Hf7  1  0.250000  0.438700  0.576234  1
  Hf  Hf8  1  0.250000  0.489458  0.271773  1
  Hf  Hf9  1  0.750000  0.511771  0.727235  1
  Hf  Hf10  1  0.750000  0.988382  0.227162  1
  Hf  Hf11  1  0.250000  0.011571  0.772979  1
  Hf  Hf12  1  0.250000  0.814975  0.368528  1
  Hf  Hf13  1  0.750000  0.184629  0.631825  1
  Hf  Hf14  1  0.750000  0.315068  0.130864  1
  Hf  Hf15  1  0.250000  0.684535  0.868442  1
  Hf  Hf16  1  0.250000  0.753374  0.168107  1
  Hf  Hf17  1  0.750000  0.246494  0.831910  1
  Hf  Hf18  1  0.750000  0.251941  0.330584  1
  Hf  Hf19  1  0.250000  0.747188  0.668065  1
  Co  Co20  1  0.750000  0.632425  0.588729  1
  Co  Co21  1  0.750000  0.867314  0.087651  1
  Co  Co22  1  0.250000  0.132651  0.911693  1
  Ni  Ni23  1  0.250000  0.367936  0.414386  1
  P  P24  1  0.250000  0.810113  0.009578  1
  P  P25  1  0.750000  0.189507  0.990081  1
  P  P26  1  0.750000  0.309499  0.490293  1
  P  P27  1  0.250000  0.688963  0.509897  1
  P  P28  1  0.250000  0.505692  0.116303  1
  P  P29  1  0.750000  0.494165  0.883619  1
  P  P30  1  0.750000  0.006957  0.383454  1
  P  P31  1  0.250000  0.994264  0.616373  1
  P  P32  1  0.250000  0.186434  0.217738  1
  P  P33  1  0.750000  0.814179  0.782518  1
  P  P34  1  0.750000  0.685656  0.281899  1
  P  P35  1  0.250000  0.314448  0.717676  1
