# generated using pymatgen
data_Y5Th5(Sn3N)2
_symmetry_space_group_name_H-M   'P 1'
_cell_length_a   9.13691272
_cell_length_b   9.17987566
_cell_length_c   6.43318000
_cell_angle_alpha   90.00000000
_cell_angle_beta   90.00000000
_cell_angle_gamma   120.15566064
_symmetry_Int_Tables_number   1
_chemical_formula_structural   Y5Th5(Sn3N)2
_chemical_formula_sum   'Y5 Th5 Sn6 N2'
_cell_volume   466.56189091
_cell_formula_units_Z   1
loop_
 _symmetry_equiv_pos_site_id
 _symmetry_equiv_pos_as_xyz
  1  'x, y, z'
loop_
 _atom_site_type_symbol
 _atom_site_label
 _atom_site_symmetry_multiplicity
 _atom_site_fract_x
 _atom_site_fract_y
 _atom_site_fract_z
 _atom_site_occupancy
  Y  Y0  1  0.666007  0.332352  0.999202  1
  Y  Y1  1  0.333993  0.666346  0.999202  1
  Y  Y2  1  0.333993  0.666346  0.500798  1
  Y  Y3  1  0.666007  0.332352  0.500798  1
  Y  Y4  1  0.000000  0.775809  0.250000  1
  Th  Th5  1  0.777197  0.776965  0.750000  1
  Th  Th6  1  0.222803  0.999768  0.750000  1
  Th  Th7  1  0.000000  0.226072  0.750000  1
  Th  Th8  1  0.223564  0.222949  0.250000  1
  Th  Th9  1  0.776436  0.999385  0.250000  1
  Sn  Sn10  1  0.405464  0.405294  0.750000  1
  Sn  Sn11  1  0.594536  0.999831  0.750000  1
  Sn  Sn12  1  0.000000  0.594102  0.750000  1
  Sn  Sn13  1  0.599991  0.596082  0.250000  1
  Sn  Sn14  1  0.400009  0.996091  0.250000  1
  Sn  Sn15  1  0.000000  0.407712  0.250000  1
  N  N16  1  0.000000  0.001273  0.999713  1
  N  N17  1  0.000000  0.001273  0.500287  1
