# generated using pymatgen
data_TbYReB6
_symmetry_space_group_name_H-M   'P 1'
_cell_length_a   3.68789500
_cell_length_b   9.18962000
_cell_length_c   11.57575400
_cell_angle_alpha   90.00000000
_cell_angle_beta   90.00000000
_cell_angle_gamma   90.00000000
_symmetry_Int_Tables_number   1
_chemical_formula_structural   TbYReB6
_chemical_formula_sum   'Tb4 Y4 Re4 B24'
_cell_volume   392.30639682
_cell_formula_units_Z   4
loop_
 _symmetry_equiv_pos_site_id
 _symmetry_equiv_pos_as_xyz
  1  'x, y, z'
loop_
 _atom_site_type_symbol
 _atom_site_label
 _atom_site_symmetry_multiplicity
 _atom_site_fract_x
 _atom_site_fract_y
 _atom_site_fract_z
 _atom_site_occupancy
  Tb  Tb0  1  0.000000  0.823510  0.085974  1
  Tb  Tb1  1  0.000000  0.176490  0.914026  1
  Tb  Tb2  1  0.000000  0.323510  0.414026  1
  Tb  Tb3  1  0.000000  0.676490  0.585974  1
  Y  Y4  1  0.000000  0.442916  0.129676  1
  Y  Y5  1  0.000000  0.557084  0.870324  1
  Y  Y6  1  0.000000  0.942916  0.370324  1
  Y  Y7  1  0.000000  0.057084  0.629676  1
  Re  Re8  1  0.000000  0.138226  0.179127  1
  Re  Re9  1  0.000000  0.861774  0.820873  1
  Re  Re10  1  0.000000  0.638226  0.320873  1
  Re  Re11  1  0.000000  0.361774  0.679127  1
  B  B12  1  0.500000  0.053403  0.067431  1
  B  B13  1  0.500000  0.946597  0.932570  1
  B  B14  1  0.500000  0.553403  0.432569  1
  B  B15  1  0.500000  0.446597  0.567430  1
  B  B16  1  0.500000  0.248338  0.081904  1
  B  B17  1  0.500000  0.751662  0.918096  1
  B  B18  1  0.500000  0.748338  0.418096  1
  B  B19  1  0.500000  0.251662  0.581904  1
  B  B20  1  0.500000  0.291396  0.234314  1
  B  B21  1  0.500000  0.708604  0.765686  1
  B  B22  1  0.500000  0.791396  0.265686  1
  B  B23  1  0.500000  0.208604  0.734314  1
  B  B24  1  0.500000  0.130595  0.314023  1
  B  B25  1  0.500000  0.869405  0.685977  1
  B  B26  1  0.500000  0.630595  0.185977  1
  B  B27  1  0.500000  0.369405  0.814023  1
  B  B28  1  0.500000  0.482357  0.288175  1
  B  B29  1  0.500000  0.517643  0.711825  1
  B  B30  1  0.500000  0.982357  0.211825  1
  B  B31  1  0.500000  0.017643  0.788175  1
  B  B32  1  0.500000  0.100292  0.471894  1
  B  B33  1  0.500000  0.899708  0.528106  1
  B  B34  1  0.500000  0.600292  0.028106  1
  B  B35  1  0.500000  0.399708  0.971894  1
