# generated using pymatgen
data_SmHo11(Si3Au)4
_symmetry_space_group_name_H-M   'P 1'
_cell_length_a   4.20095500
_cell_length_b   10.93503241
_cell_length_c   12.32241400
_cell_angle_alpha   89.98437011
_cell_angle_beta   90.00000000
_cell_angle_gamma   90.00000000
_symmetry_Int_Tables_number   1
_chemical_formula_structural   SmHo11(Si3Au)4
_chemical_formula_sum   'Sm1 Ho11 Si12 Au4'
_cell_volume   566.06184633
_cell_formula_units_Z   1
loop_
 _symmetry_equiv_pos_site_id
 _symmetry_equiv_pos_as_xyz
  1  'x, y, z'
loop_
 _atom_site_type_symbol
 _atom_site_label
 _atom_site_symmetry_multiplicity
 _atom_site_fract_x
 _atom_site_fract_y
 _atom_site_fract_z
 _atom_site_occupancy
  Sm  Sm0  1  0.750000  0.163319  0.696267  1
  Ho  Ho1  1  0.250000  0.875194  0.020721  1
  Ho  Ho2  1  0.250000  0.624610  0.519767  1
  Ho  Ho3  1  0.750000  0.124389  0.980965  1
  Ho  Ho4  1  0.750000  0.375902  0.479256  1
  Ho  Ho5  1  0.250000  0.922735  0.601679  1
  Ho  Ho6  1  0.250000  0.576371  0.101938  1
  Ho  Ho7  1  0.750000  0.075660  0.397075  1
  Ho  Ho8  1  0.750000  0.424357  0.899426  1
  Ho  Ho9  1  0.250000  0.664126  0.803095  1
  Ho  Ho10  1  0.250000  0.835968  0.302895  1
  Ho  Ho11  1  0.750000  0.336193  0.197150  1
  Si  Si12  1  0.250000  0.026132  0.828215  1
  Si  Si13  1  0.250000  0.472855  0.326119  1
  Si  Si14  1  0.750000  0.972409  0.173741  1
  Si  Si15  1  0.750000  0.527011  0.673756  1
  Si  Si16  1  0.250000  0.249043  0.848806  1
  Si  Si17  1  0.250000  0.252244  0.345919  1
  Si  Si18  1  0.750000  0.751712  0.152932  1
  Si  Si19  1  0.750000  0.747674  0.652663  1
  Si  Si20  1  0.250000  0.183540  0.531373  1
  Si  Si21  1  0.250000  0.316572  0.036118  1
  Si  Si22  1  0.750000  0.816275  0.464668  1
  Si  Si23  1  0.750000  0.684240  0.964942  1
  Au  Au24  1  0.250000  0.392651  0.682661  1
  Au  Au25  1  0.250000  0.109787  0.182459  1
  Au  Au26  1  0.750000  0.609800  0.317639  1
  Au  Au27  1  0.750000  0.889230  0.817754  1
