# generated using pymatgen
data_DyVFe(PRh)3
_symmetry_space_group_name_H-M   'P 1'
_cell_length_a   3.81655900
_cell_length_b   10.71083700
_cell_length_c   12.47008800
_cell_angle_alpha   90.00000000
_cell_angle_beta   90.00000000
_cell_angle_gamma   90.00000000
_symmetry_Int_Tables_number   1
_chemical_formula_structural   DyVFe(PRh)3
_chemical_formula_sum   'Dy4 V4 Fe4 P12 Rh12'
_cell_volume   509.75900794
_cell_formula_units_Z   4
loop_
 _symmetry_equiv_pos_site_id
 _symmetry_equiv_pos_as_xyz
  1  'x, y, z'
loop_
 _atom_site_type_symbol
 _atom_site_label
 _atom_site_symmetry_multiplicity
 _atom_site_fract_x
 _atom_site_fract_y
 _atom_site_fract_z
 _atom_site_occupancy
  Dy  Dy0  1  0.250000  0.580974  0.709890  1
  Dy  Dy1  1  0.250000  0.919026  0.209890  1
  Dy  Dy2  1  0.750000  0.419026  0.290110  1
  Dy  Dy3  1  0.750000  0.080974  0.790110  1
  V  V4  1  0.250000  0.698833  0.989367  1
  V  V5  1  0.250000  0.801167  0.489367  1
  V  V6  1  0.750000  0.301167  0.010633  1
  V  V7  1  0.750000  0.198833  0.510633  1
  Fe  Fe8  1  0.250000  0.462757  0.936460  1
  Fe  Fe9  1  0.250000  0.037243  0.436460  1
  Fe  Fe10  1  0.750000  0.537243  0.063540  1
  Fe  Fe11  1  0.750000  0.962757  0.563540  1
  P  P12  1  0.250000  0.426612  0.106529  1
  P  P13  1  0.250000  0.073388  0.606529  1
  P  P14  1  0.750000  0.573388  0.893471  1
  P  P15  1  0.750000  0.926612  0.393471  1
  P  P16  1  0.250000  0.270095  0.870874  1
  P  P17  1  0.250000  0.229905  0.370874  1
  P  P18  1  0.750000  0.729905  0.129126  1
  P  P19  1  0.750000  0.770095  0.629126  1
  P  P20  1  0.250000  0.601390  0.391496  1
  P  P21  1  0.250000  0.898610  0.891496  1
  P  P22  1  0.750000  0.398610  0.608504  1
  P  P23  1  0.750000  0.101390  0.108504  1
  Rh  Rh24  1  0.250000  0.404616  0.484547  1
  Rh  Rh25  1  0.250000  0.095384  0.984547  1
  Rh  Rh26  1  0.750000  0.595384  0.515453  1
  Rh  Rh27  1  0.750000  0.904616  0.015453  1
  Rh  Rh28  1  0.250000  0.229124  0.176668  1
  Rh  Rh29  1  0.250000  0.270876  0.676668  1
  Rh  Rh30  1  0.750000  0.770876  0.823332  1
  Rh  Rh31  1  0.750000  0.729124  0.323332  1
  Rh  Rh32  1  0.250000  0.884928  0.699407  1
  Rh  Rh33  1  0.250000  0.615072  0.199407  1
  Rh  Rh34  1  0.750000  0.115072  0.300593  1
  Rh  Rh35  1  0.750000  0.384928  0.800593  1
