# generated using pymatgen
data_AgHF2
_symmetry_space_group_name_H-M   'P 1'
_cell_length_a   4.98367165
_cell_length_b   4.98367128
_cell_length_c   4.98367120
_cell_angle_alpha   111.26741286
_cell_angle_beta   111.26741338
_cell_angle_gamma   105.93564571
_symmetry_Int_Tables_number   1
_chemical_formula_structural   AgHF2
_chemical_formula_sum   'Ag2 H2 F4'
_cell_volume   95.01542339
_cell_formula_units_Z   2
loop_
 _symmetry_equiv_pos_site_id
 _symmetry_equiv_pos_as_xyz
  1  'x, y, z'
loop_
 _atom_site_type_symbol
 _atom_site_label
 _atom_site_symmetry_multiplicity
 _atom_site_fract_x
 _atom_site_fract_y
 _atom_site_fract_z
 _atom_site_occupancy
  Ag  Ag0  1  0.250000  0.250000  0.000000  1
  Ag  Ag1  1  0.750000  0.750000  0.000000  1
  H  H2  1  0.499999  0.000000  0.499999  1
  H  H3  1  0.000000  0.499999  0.499999  1
  F  F4  1  0.854965  0.354966  0.209929  1
  F  F5  1  0.354965  0.145035  0.499999  1
  F  F6  1  0.645035  0.854965  0.499999  1
  F  F7  1  0.145035  0.645036  0.790071  1
