# generated using pymatgen
data_CaLa2U(Co3Si5)2
_symmetry_space_group_name_H-M   'P 1'
_cell_length_a   7.98845971
_cell_length_b   7.96468045
_cell_length_c   7.96468199
_cell_angle_alpha   138.83163985
_cell_angle_beta   105.30702556
_cell_angle_gamma   88.99694552
_symmetry_Int_Tables_number   1
_chemical_formula_structural   CaLa2U(Co3Si5)2
_chemical_formula_sum   'Ca1 La2 U1 Co6 Si10'
_cell_volume   308.36672509
_cell_formula_units_Z   1
loop_
 _symmetry_equiv_pos_site_id
 _symmetry_equiv_pos_as_xyz
  1  'x, y, z'
loop_
 _atom_site_type_symbol
 _atom_site_label
 _atom_site_symmetry_multiplicity
 _atom_site_fract_x
 _atom_site_fract_y
 _atom_site_fract_z
 _atom_site_occupancy
  Ca  Ca0  1  0.867782  0.631799  0.235983  1
  La  La1  1  0.131464  0.365235  0.766229  1
  La  La2  1  0.604040  0.869817  0.734224  1
  U  U3  1  0.398833  0.133397  0.265436  1
  Co  Co4  1  0.003963  0.248778  0.249928  1
  Co  Co5  1  0.743351  0.134247  0.609105  1
  Co  Co6  1  0.520994  0.639155  0.881840  1
  Co  Co7  1  0.472921  0.359446  0.113474  1
  Co  Co8  1  0.003963  0.754035  0.755186  1
  Co  Co9  1  0.256852  0.866485  0.390365  1
  Si  Si10  1  0.052261  0.899384  0.152877  1
  Si  Si11  1  0.951251  0.103753  0.847499  1
  Si  Si12  1  0.252670  0.601721  0.650950  1
  Si  Si13  1  0.747625  0.396967  0.350658  1
  Si  Si14  1  0.227850  0.976888  0.749383  1
  Si  Si15  1  0.765954  0.514142  0.747092  1
  Si  Si16  1  0.765954  0.018863  0.251812  1
  Si  Si17  1  0.502210  0.258224  0.753011  1
  Si  Si18  1  0.502210  0.749199  0.243986  1
  Si  Si19  1  0.227850  0.478467  0.250962  1
