# generated using pymatgen
data_Tb3Mg(AlPt)4
_symmetry_space_group_name_H-M   'P 1'
_cell_length_a   4.36455800
_cell_length_b   6.87781793
_cell_length_c   7.73764985
_cell_angle_alpha   92.50021322
_cell_angle_beta   90.00000000
_cell_angle_gamma   90.00000000
_symmetry_Int_Tables_number   1
_chemical_formula_structural   Tb3Mg(AlPt)4
_chemical_formula_sum   'Tb3 Mg1 Al4 Pt4'
_cell_volume   232.05257776
_cell_formula_units_Z   1
loop_
 _symmetry_equiv_pos_site_id
 _symmetry_equiv_pos_as_xyz
  1  'x, y, z'
loop_
 _atom_site_type_symbol
 _atom_site_label
 _atom_site_symmetry_multiplicity
 _atom_site_fract_x
 _atom_site_fract_y
 _atom_site_fract_z
 _atom_site_occupancy
  Tb  Tb0  1  0.250000  0.527716  0.816335  1
  Tb  Tb1  1  0.750000  0.975849  0.330849  1
  Tb  Tb2  1  0.750000  0.468678  0.179753  1
  Mg  Mg3  1  0.250000  0.026727  0.677856  1
  Al  Al4  1  0.250000  0.138263  0.055024  1
  Al  Al5  1  0.250000  0.648754  0.439594  1
  Al  Al6  1  0.750000  0.859829  0.935216  1
  Al  Al7  1  0.750000  0.356434  0.564900  1
  Pt  Pt8  1  0.250000  0.274487  0.384976  1
  Pt  Pt9  1  0.250000  0.774910  0.124270  1
  Pt  Pt10  1  0.750000  0.729338  0.618746  1
  Pt  Pt11  1  0.750000  0.219015  0.872481  1
