# generated using pymatgen
data_DyEr2Al12Ir3Ru
_symmetry_space_group_name_H-M   'P 1'
_cell_length_a   8.81908413
_cell_length_b   8.81908463
_cell_length_c   9.47480800
_cell_angle_alpha   90.00000000
_cell_angle_beta   90.00000000
_cell_angle_gamma   120.07973484
_symmetry_Int_Tables_number   1
_chemical_formula_structural   DyEr2Al12Ir3Ru
_chemical_formula_sum   'Dy2 Er4 Al24 Ir6 Ru2'
_cell_volume   637.67375930
_cell_formula_units_Z   2
loop_
 _symmetry_equiv_pos_site_id
 _symmetry_equiv_pos_as_xyz
  1  'x, y, z'
loop_
 _atom_site_type_symbol
 _atom_site_label
 _atom_site_symmetry_multiplicity
 _atom_site_fract_x
 _atom_site_fract_y
 _atom_site_fract_z
 _atom_site_occupancy
  Dy  Dy0  1  0.807726  0.615191  0.750000  1
  Dy  Dy1  1  0.384809  0.192274  0.750000  1
  Er  Er2  1  0.193423  0.806577  0.250000  1
  Er  Er3  1  0.193605  0.386866  0.250000  1
  Er  Er4  1  0.613134  0.806395  0.250000  1
  Er  Er5  1  0.807097  0.192903  0.750000  1
  Al  Al6  1  0.562027  0.437973  0.250000  1
  Al  Al7  1  0.562099  0.124123  0.250000  1
  Al  Al8  1  0.875877  0.437901  0.250000  1
  Al  Al9  1  0.437739  0.562261  0.750000  1
  Al  Al10  1  0.438219  0.875769  0.750000  1
  Al  Al11  1  0.124231  0.561781  0.750000  1
  Al  Al12  1  0.326092  0.163043  0.423411  1
  Al  Al13  1  0.837099  0.162901  0.423483  1
  Al  Al14  1  0.836957  0.673908  0.423411  1
  Al  Al15  1  0.673826  0.837174  0.576043  1
  Al  Al16  1  0.163080  0.836920  0.576147  1
  Al  Al17  1  0.162826  0.326174  0.576043  1
  Al  Al18  1  0.673826  0.837174  0.923957  1
  Al  Al19  1  0.163080  0.836920  0.923853  1
  Al  Al20  1  0.162826  0.326174  0.923957  1
  Al  Al21  1  0.326092  0.163043  0.076589  1
  Al  Al22  1  0.837099  0.162901  0.076517  1
  Al  Al23  1  0.836957  0.673908  0.076589  1
  Al  Al24  1  0.666736  0.333264  0.529824  1
  Al  Al25  1  0.333488  0.666512  0.469832  1
  Al  Al26  1  0.333488  0.666512  0.030168  1
  Al  Al27  1  0.666736  0.333264  0.970176  1
  Al  Al28  1  0.999880  0.000120  0.250000  1
  Al  Al29  1  0.999662  0.000338  0.750000  1
  Ir  Ir30  1  0.499856  0.500144  0.499647  1
  Ir  Ir31  1  0.499998  0.999713  0.499749  1
  Ir  Ir32  1  0.000287  0.500002  0.499749  1
  Ir  Ir33  1  0.499856  0.500144  0.000353  1
  Ir  Ir34  1  0.499998  0.999713  0.000251  1
  Ir  Ir35  1  0.000287  0.500002  0.000251  1
  Ru  Ru36  1  0.999991  0.000009  0.499701  1
  Ru  Ru37  1  0.999991  0.000009  0.000299  1
