# generated using pymatgen
data_DyPa(Al5Os)4
_symmetry_space_group_name_H-M   'P 1'
_cell_length_a   6.86372043
_cell_length_b   6.86372013
_cell_length_c   9.15589700
_cell_angle_alpha   90.00000000
_cell_angle_beta   90.00000000
_cell_angle_gamma   97.16329129
_symmetry_Int_Tables_number   1
_chemical_formula_structural   DyPa(Al5Os)4
_chemical_formula_sum   'Dy1 Pa1 Al20 Os4'
_cell_volume   427.97361619
_cell_formula_units_Z   1
loop_
 _symmetry_equiv_pos_site_id
 _symmetry_equiv_pos_as_xyz
  1  'x, y, z'
loop_
 _atom_site_type_symbol
 _atom_site_label
 _atom_site_symmetry_multiplicity
 _atom_site_fract_x
 _atom_site_fract_y
 _atom_site_fract_z
 _atom_site_occupancy
  Dy  Dy0  1  0.131857  0.868143  0.250000  1
  Pa  Pa1  1  0.872421  0.127579  0.750000  1
  Al  Al2  1  0.516719  0.781367  0.750000  1
  Al  Al3  1  0.782072  0.518208  0.250000  1
  Al  Al4  1  0.481792  0.217928  0.250000  1
  Al  Al5  1  0.218633  0.483281  0.750000  1
  Al  Al6  1  0.622654  0.377346  0.953796  1
  Al  Al7  1  0.375267  0.624733  0.046493  1
  Al  Al8  1  0.622654  0.377346  0.546204  1
  Al  Al9  1  0.375267  0.624733  0.453507  1
  Al  Al10  1  0.410840  0.146502  0.750000  1
  Al  Al11  1  0.149064  0.418497  0.250000  1
  Al  Al12  1  0.581503  0.850936  0.250000  1
  Al  Al13  1  0.853498  0.589160  0.750000  1
  Al  Al14  1  0.844373  0.155627  0.396689  1
  Al  Al15  1  0.153774  0.846226  0.601033  1
  Al  Al16  1  0.844373  0.155627  0.103311  1
  Al  Al17  1  0.153774  0.846226  0.898967  1
  Al  Al18  1  0.778523  0.776271  0.001573  1
  Al  Al19  1  0.778523  0.776271  0.498427  1
  Al  Al20  1  0.223729  0.221477  0.001573  1
  Al  Al21  1  0.223729  0.221477  0.498427  1
  Os  Os22  1  0.503296  0.000816  0.998156  1
  Os  Os23  1  0.999184  0.496704  0.998156  1
  Os  Os24  1  0.503296  0.000816  0.501844  1
  Os  Os25  1  0.999184  0.496704  0.501844  1
