# generated using pymatgen
data_Dy7Ho4ErIr4
_symmetry_space_group_name_H-M   'P 1'
_cell_length_a   6.37322028
_cell_length_b   7.23805603
_cell_length_c   9.21050335
_cell_angle_alpha   89.99375557
_cell_angle_beta   90.06228423
_cell_angle_gamma   90.05679079
_symmetry_Int_Tables_number   1
_chemical_formula_structural   Dy7Ho4ErIr4
_chemical_formula_sum   'Dy7 Ho4 Er1 Ir4'
_cell_volume   424.87752844
_cell_formula_units_Z   1
loop_
 _symmetry_equiv_pos_site_id
 _symmetry_equiv_pos_as_xyz
  1  'x, y, z'
loop_
 _atom_site_type_symbol
 _atom_site_label
 _atom_site_symmetry_multiplicity
 _atom_site_fract_x
 _atom_site_fract_y
 _atom_site_fract_z
 _atom_site_occupancy
  Dy  Dy0  1  0.328375  0.677132  0.062351  1
  Dy  Dy1  1  0.171524  0.176906  0.437089  1
  Dy  Dy2  1  0.671466  0.323121  0.562716  1
  Dy  Dy3  1  0.868651  0.534504  0.249865  1
  Dy  Dy4  1  0.631373  0.034565  0.249608  1
  Dy  Dy5  1  0.131235  0.465604  0.750212  1
  Dy  Dy6  1  0.368679  0.965336  0.750212  1
  Ho  Ho7  1  0.828736  0.823214  0.937242  1
  Ho  Ho8  1  0.671366  0.322899  0.937632  1
  Ho  Ho9  1  0.828617  0.823024  0.562933  1
  Ho  Ho10  1  0.328677  0.676941  0.437280  1
  Er  Er11  1  0.171070  0.176762  0.062605  1
  Ir  Ir12  1  0.046921  0.882711  0.249884  1
  Ir  Ir13  1  0.452536  0.382334  0.249268  1
  Ir  Ir14  1  0.953059  0.117274  0.751196  1
  Ir  Ir15  1  0.547715  0.617673  0.749908  1
