# generated using pymatgen
data_SmPu2(CdAu)3
_symmetry_space_group_name_H-M   'P 1'
_cell_length_a   7.93071849
_cell_length_b   7.93071853
_cell_length_c   3.97332700
_cell_angle_alpha   90.00000000
_cell_angle_beta   90.00000000
_cell_angle_gamma   120.39458918
_symmetry_Int_Tables_number   1
_chemical_formula_structural   SmPu2(CdAu)3
_chemical_formula_sum   'Sm1 Pu2 Cd3 Au3'
_cell_volume   215.56062103
_cell_formula_units_Z   1
loop_
 _symmetry_equiv_pos_site_id
 _symmetry_equiv_pos_as_xyz
  1  'x, y, z'
loop_
 _atom_site_type_symbol
 _atom_site_label
 _atom_site_symmetry_multiplicity
 _atom_site_fract_x
 _atom_site_fract_y
 _atom_site_fract_z
 _atom_site_occupancy
  Sm  Sm0  1  0.406477  0.406477  0.000000  1
  Pu  Pu1  1  0.595406  0.001209  0.000000  1
  Pu  Pu2  1  0.001209  0.595406  0.000000  1
  Cd  Cd3  1  0.258689  0.999025  0.500000  1
  Cd  Cd4  1  0.999025  0.258689  0.500000  1
  Cd  Cd5  1  0.740537  0.740537  0.500000  1
  Au  Au6  1  0.332696  0.666446  0.500000  1
  Au  Au7  1  0.666446  0.332696  0.500000  1
  Au  Au8  1  0.999514  0.999514  0.000000  1
