# generated using pymatgen
data_Fe3(ClO)2
_symmetry_space_group_name_H-M   'P 1'
_cell_length_a   6.31904100
_cell_length_b   6.05578368
_cell_length_c   6.26088400
_cell_angle_alpha   63.87090153
_cell_angle_beta   90.00000000
_cell_angle_gamma   90.00000000
_symmetry_Int_Tables_number   1
_chemical_formula_structural   Fe3(ClO)2
_chemical_formula_sum   'Fe6 Cl4 O4'
_cell_volume   215.09917016
_cell_formula_units_Z   2
loop_
 _symmetry_equiv_pos_site_id
 _symmetry_equiv_pos_as_xyz
  1  'x, y, z'
loop_
 _atom_site_type_symbol
 _atom_site_label
 _atom_site_symmetry_multiplicity
 _atom_site_fract_x
 _atom_site_fract_y
 _atom_site_fract_z
 _atom_site_occupancy
  Fe  Fe0  1  0.868233  0.432243  0.224007  1
  Fe  Fe1  1  0.368233  0.567757  0.275993  1
  Fe  Fe2  1  0.131767  0.567757  0.775993  1
  Fe  Fe3  1  0.631767  0.432243  0.724007  1
  Fe  Fe4  1  0.500000  0.000000  0.500000  1
  Fe  Fe5  1  0.000000  0.000000  0.000000  1
  Cl  Cl6  1  0.633709  0.808984  0.934031  1
  Cl  Cl7  1  0.133709  0.191016  0.565969  1
  Cl  Cl8  1  0.866291  0.808984  0.434031  1
  Cl  Cl9  1  0.366291  0.191016  0.065969  1
  O  O10  1  0.616051  0.328956  0.438913  1
  O  O11  1  0.116051  0.671044  0.061087  1
  O  O12  1  0.383949  0.671044  0.561087  1
  O  O13  1  0.883949  0.328956  0.938913  1
