# generated using pymatgen
data_Ho9In(Co2Au)2
_symmetry_space_group_name_H-M   'P 1'
_cell_length_a   8.52747078
_cell_length_b   8.52537527
_cell_length_c   8.52790643
_cell_angle_alpha   129.27050853
_cell_angle_beta   129.17709596
_cell_angle_gamma   74.65708642
_symmetry_Int_Tables_number   1
_chemical_formula_structural   Ho9In(Co2Au)2
_chemical_formula_sum   'Ho9 In1 Co4 Au2'
_cell_volume   362.49310117
_cell_formula_units_Z   1
loop_
 _symmetry_equiv_pos_site_id
 _symmetry_equiv_pos_as_xyz
  1  'x, y, z'
loop_
 _atom_site_type_symbol
 _atom_site_label
 _atom_site_symmetry_multiplicity
 _atom_site_fract_x
 _atom_site_fract_y
 _atom_site_fract_z
 _atom_site_occupancy
  Ho  Ho0  1  0.705563  0.548601  0.518411  1
  Ho  Ho1  1  0.451145  0.969597  0.156885  1
  Ho  Ho2  1  0.812675  0.294376  0.843257  1
  Ho  Ho3  1  0.548855  0.030403  0.843115  1
  Ho  Ho4  1  0.030196  0.186975  0.481372  1
  Ho  Ho5  1  0.294437  0.451399  0.481589  1
  Ho  Ho6  1  0.187325  0.705624  0.156743  1
  Ho  Ho7  1  0.969804  0.813025  0.518628  1
  Ho  Ho8  1  0.500000  0.500000  0.000000  1
  In  In9  1  0.000000  0.000000  0.000000  1
  Co  Co10  1  0.123649  0.621243  0.744868  1
  Co  Co11  1  0.876351  0.378757  0.255132  1
  Co  Co12  1  0.621903  0.876653  0.498592  1
  Co  Co13  1  0.378097  0.123347  0.501408  1
  Au  Au14  1  0.259999  0.260050  0.000039  1
  Au  Au15  1  0.740001  0.739950  0.999961  1
