# generated using pymatgen
data_Lu8Tc11Ge16Mo
_symmetry_space_group_name_H-M   'P 1'
_cell_length_a   6.89934462
_cell_length_b   6.94095221
_cell_length_c   12.79517101
_cell_angle_alpha   89.84114842
_cell_angle_beta   89.99384089
_cell_angle_gamma   89.33785539
_symmetry_Int_Tables_number   1
_chemical_formula_structural   Lu8Tc11Ge16Mo
_chemical_formula_sum   'Lu8 Tc11 Ge16 Mo1'
_cell_volume   612.69214866
_cell_formula_units_Z   1
loop_
 _symmetry_equiv_pos_site_id
 _symmetry_equiv_pos_as_xyz
  1  'x, y, z'
loop_
 _atom_site_type_symbol
 _atom_site_label
 _atom_site_symmetry_multiplicity
 _atom_site_fract_x
 _atom_site_fract_y
 _atom_site_fract_z
 _atom_site_occupancy
  Lu  Lu0  1  0.485895  0.672920  0.588703  1
  Lu  Lu1  1  0.981442  0.823198  0.911261  1
  Lu  Lu2  1  0.518056  0.323677  0.088328  1
  Lu  Lu3  1  0.014664  0.173542  0.409656  1
  Lu  Lu4  1  0.515381  0.334822  0.408147  1
  Lu  Lu5  1  0.014289  0.163052  0.092300  1
  Lu  Lu6  1  0.488998  0.667930  0.909679  1
  Lu  Lu7  1  0.983407  0.835311  0.592534  1
  Tc  Tc8  1  0.673497  0.142912  0.621126  1
  Tc  Tc9  1  0.199187  0.365400  0.877631  1
  Tc  Tc10  1  0.310365  0.861036  0.125060  1
  Tc  Tc11  1  0.804318  0.635274  0.374829  1
  Tc  Tc12  1  0.335643  0.853264  0.371337  1
  Tc  Tc13  1  0.831931  0.640547  0.125260  1
  Tc  Tc14  1  0.658877  0.142562  0.878062  1
  Tc  Tc15  1  0.834987  0.516042  0.751487  1
  Tc  Tc16  1  0.323303  0.995465  0.748102  1
  Tc  Tc17  1  0.170607  0.489751  0.250768  1
  Tc  Tc18  1  0.671880  0.009962  0.247561  1
  Ge  Ge19  1  0.674534  0.950140  0.448238  1
  Ge  Ge20  1  0.174361  0.550185  0.051754  1
  Ge  Ge21  1  0.320968  0.047738  0.949166  1
  Ge  Ge22  1  0.832521  0.448324  0.551602  1
  Ge  Ge23  1  0.331040  0.049334  0.546397  1
  Ge  Ge24  1  0.840268  0.438150  0.948229  1
  Ge  Ge25  1  0.663781  0.941607  0.050796  1
  Ge  Ge26  1  0.163636  0.558819  0.449054  1
  Ge  Ge27  1  0.487013  0.364211  0.745937  1
  Ge  Ge28  1  0.974102  0.148250  0.760781  1
  Ge  Ge29  1  0.520192  0.640595  0.240311  1
  Ge  Ge30  1  0.020101  0.852802  0.259286  1
  Ge  Ge31  1  0.681616  0.857627  0.749991  1
  Ge  Ge32  1  0.188150  0.653683  0.749845  1
  Ge  Ge33  1  0.316586  0.149184  0.250439  1
  Ge  Ge34  1  0.815513  0.350053  0.248886  1
  Mo  Mo35  1  0.178893  0.352631  0.627455  1
