# generated using pymatgen
data_YbY2PaOs8
_symmetry_space_group_name_H-M   'P 1'
_cell_length_a   5.33367900
_cell_length_b   5.33367831
_cell_length_c   8.83254800
_cell_angle_alpha   90.00000000
_cell_angle_beta   90.00000000
_cell_angle_gamma   119.99999809
_symmetry_Int_Tables_number   1
_chemical_formula_structural   YbY2PaOs8
_chemical_formula_sum   'Yb1 Y2 Pa1 Os8'
_cell_volume   217.60573625
_cell_formula_units_Z   1
loop_
 _symmetry_equiv_pos_site_id
 _symmetry_equiv_pos_as_xyz
  1  'x, y, z'
loop_
 _atom_site_type_symbol
 _atom_site_label
 _atom_site_symmetry_multiplicity
 _atom_site_fract_x
 _atom_site_fract_y
 _atom_site_fract_z
 _atom_site_occupancy
  Yb  Yb0  1  0.333333  0.666667  0.065264  1
  Y  Y1  1  0.333333  0.666667  0.428745  1
  Y  Y2  1  0.666667  0.333333  0.563879  1
  Pa  Pa3  1  0.666667  0.333333  0.934629  1
  Os  Os4  1  0.000000  0.000000  0.502051  1
  Os  Os5  1  0.000000  0.000000  0.004544  1
  Os  Os6  1  0.828503  0.171497  0.249866  1
  Os  Os7  1  0.828503  0.657005  0.249866  1
  Os  Os8  1  0.342995  0.171497  0.249866  1
  Os  Os9  1  0.172203  0.827797  0.750430  1
  Os  Os10  1  0.172203  0.344407  0.750430  1
  Os  Os11  1  0.655593  0.827797  0.750430  1
