# generated using pymatgen
data_Li3AgSe2
_symmetry_space_group_name_H-M   'P 1'
_cell_length_a   10.48073643
_cell_length_b   10.48073587
_cell_length_c   10.48073600
_cell_angle_alpha   109.47122283
_cell_angle_beta   109.47122174
_cell_angle_gamma   109.47121789
_symmetry_Int_Tables_number   1
_chemical_formula_structural   Li3AgSe2
_chemical_formula_sum   'Li24 Ag8 Se16'
_cell_volume   886.24431725
_cell_formula_units_Z   8
loop_
 _symmetry_equiv_pos_site_id
 _symmetry_equiv_pos_as_xyz
  1  'x, y, z'
loop_
 _atom_site_type_symbol
 _atom_site_label
 _atom_site_symmetry_multiplicity
 _atom_site_fract_x
 _atom_site_fract_y
 _atom_site_fract_z
 _atom_site_occupancy
  Li  Li0  1  0.744949  0.985306  0.988210  1
  Li  Li1  1  0.002904  0.514694  0.259643  1
  Li  Li2  1  0.740357  0.997096  0.485306  1
  Li  Li3  1  0.759643  0.244949  0.256739  1
  Li  Li4  1  0.488210  0.502904  0.243261  1
  Li  Li5  1  0.011790  0.255051  0.014694  1
  Li  Li6  1  0.014694  0.011790  0.255051  1
  Li  Li7  1  0.485306  0.740357  0.997096  1
  Li  Li8  1  0.743261  0.240357  0.755051  1
  Li  Li9  1  0.756739  0.511790  0.497096  1
  Li  Li10  1  0.502904  0.243261  0.488210  1
  Li  Li11  1  0.755051  0.743261  0.240357  1
  Li  Li12  1  0.497096  0.756739  0.511790  1
  Li  Li13  1  0.244949  0.256739  0.759643  1
  Li  Li14  1  0.243261  0.488210  0.502904  1
  Li  Li15  1  0.256739  0.759643  0.244949  1
  Li  Li16  1  0.985306  0.988210  0.744949  1
  Li  Li17  1  0.514694  0.259643  0.002904  1
  Li  Li18  1  0.511790  0.497096  0.756739  1
  Li  Li19  1  0.988210  0.744949  0.985306  1
  Li  Li20  1  0.259643  0.002904  0.514694  1
  Li  Li21  1  0.240357  0.755051  0.743261  1
  Li  Li22  1  0.997096  0.485306  0.740357  1
  Li  Li23  1  0.255051  0.014694  0.011790  1
  Ag  Ag24  1  0.762196  0.500000  0.000000  1
  Ag  Ag25  1  0.500000  0.000000  0.237804  1
  Ag  Ag26  1  0.262196  0.262196  0.262196  1
  Ag  Ag27  1  0.237804  0.500000  0.000000  1
  Ag  Ag28  1  0.500000  0.000000  0.762196  1
  Ag  Ag29  1  0.000000  0.237804  0.500000  1
  Ag  Ag30  1  0.737804  0.737804  0.737804  1
  Ag  Ag31  1  0.000000  0.762196  0.500000  1
  Se  Se32  1  0.750000  0.984267  0.234267  1
  Se  Se33  1  0.000000  0.000000  0.000000  1
  Se  Se34  1  0.500000  0.000000  0.500000  1
  Se  Se35  1  0.500000  0.500000  0.000000  1
  Se  Se36  1  0.515733  0.265733  0.250000  1
  Se  Se37  1  0.015733  0.765733  0.250000  1
  Se  Se38  1  0.250000  0.515733  0.265733  1
  Se  Se39  1  0.265733  0.250000  0.515733  1
  Se  Se40  1  0.234267  0.750000  0.984267  1
  Se  Se41  1  0.734267  0.750000  0.484267  1
  Se  Se42  1  0.765733  0.250000  0.015733  1
  Se  Se43  1  0.750000  0.484267  0.734267  1
  Se  Se44  1  0.000000  0.500000  0.500000  1
  Se  Se45  1  0.984267  0.234267  0.750000  1
  Se  Se46  1  0.484267  0.734267  0.750000  1
  Se  Se47  1  0.250000  0.015733  0.765733  1
