# generated using pymatgen
data_Hf3Al2PtC
_symmetry_space_group_name_H-M   'P 1'
_cell_length_a   8.60049666
_cell_length_b   8.60060023
_cell_length_c   8.60048901
_cell_angle_alpha   59.99975086
_cell_angle_beta   59.99969907
_cell_angle_gamma   59.99974046
_symmetry_Int_Tables_number   1
_chemical_formula_structural   Hf3Al2PtC
_chemical_formula_sum   'Hf12 Al8 Pt4 C4'
_cell_volume   449.83970191
_cell_formula_units_Z   4
loop_
 _symmetry_equiv_pos_site_id
 _symmetry_equiv_pos_as_xyz
  1  'x, y, z'
loop_
 _atom_site_type_symbol
 _atom_site_label
 _atom_site_symmetry_multiplicity
 _atom_site_fract_x
 _atom_site_fract_y
 _atom_site_fract_z
 _atom_site_occupancy
  Hf  Hf0  1  0.559821  0.940178  0.559821  1
  Hf  Hf1  1  0.309814  0.690176  0.690194  1
  Hf  Hf2  1  0.690190  0.309817  0.309815  1
  Hf  Hf3  1  0.309810  0.690188  0.309811  1
  Hf  Hf4  1  0.690193  0.690176  0.309815  1
  Hf  Hf5  1  0.309814  0.309818  0.690191  1
  Hf  Hf6  1  0.559807  0.559824  0.940185  1
  Hf  Hf7  1  0.940186  0.559823  0.559805  1
  Hf  Hf8  1  0.559810  0.940182  0.940185  1
  Hf  Hf9  1  0.940185  0.940181  0.559810  1
  Hf  Hf10  1  0.690179  0.309822  0.690179  1
  Hf  Hf11  1  0.940189  0.559812  0.940189  1
  Al  Al12  1  0.918603  0.918619  0.918603  1
  Al  Al13  1  0.005850  0.331375  0.331398  1
  Al  Al14  1  0.331398  0.005821  0.331399  1
  Al  Al15  1  0.331399  0.331373  0.005852  1
  Al  Al16  1  0.918602  0.244179  0.918601  1
  Al  Al17  1  0.918601  0.918627  0.244148  1
  Al  Al18  1  0.244148  0.918626  0.918602  1
  Al  Al19  1  0.331397  0.331381  0.331397  1
  Pt  Pt20  1  0.125000  0.125000  0.125000  1
  Pt  Pt21  1  0.625000  0.125000  0.125000  1
  Pt  Pt22  1  0.125001  0.625000  0.125000  1
  Pt  Pt23  1  0.125000  0.125000  0.625000  1
  C  C24  1  0.625000  0.625000  0.625000  1
  C  C25  1  0.125000  0.625000  0.625000  1
  C  C26  1  0.625000  0.125000  0.625000  1
  C  C27  1  0.625000  0.625001  0.124999  1
