# generated using pymatgen
data_TbDy2In3Ga2Pt
_symmetry_space_group_name_H-M   'P 1'
_cell_length_a   7.26756200
_cell_length_b   7.26838670
_cell_length_c   4.43038600
_cell_angle_alpha   90.00000000
_cell_angle_beta   90.00000000
_cell_angle_gamma   119.99625582
_symmetry_Int_Tables_number   1
_chemical_formula_structural   TbDy2In3Ga2Pt
_chemical_formula_sum   'Tb1 Dy2 In3 Ga2 Pt1'
_cell_volume   202.68207988
_cell_formula_units_Z   1
loop_
 _symmetry_equiv_pos_site_id
 _symmetry_equiv_pos_as_xyz
  1  'x, y, z'
loop_
 _atom_site_type_symbol
 _atom_site_label
 _atom_site_symmetry_multiplicity
 _atom_site_fract_x
 _atom_site_fract_y
 _atom_site_fract_z
 _atom_site_occupancy
  Tb  Tb0  1  0.590849  0.000000  0.500000  1
  Dy  Dy1  1  0.409028  0.409040  0.500000  1
  Dy  Dy2  1  0.999988  0.590960  0.500000  1
  In  In3  1  0.749681  0.749626  0.000000  1
  In  In4  1  0.000056  0.250374  0.000000  1
  In  In5  1  0.250269  0.000000  0.000000  1
  Ga  Ga6  1  0.333253  0.666551  0.000000  1
  Ga  Ga7  1  0.666704  0.333449  0.000000  1
  Pt  Pt8  1  0.000171  0.000000  0.500000  1
