# generated using pymatgen
data_TbYb(Ni2As)4
_symmetry_space_group_name_H-M   'P 1'
_cell_length_a   7.25093330
_cell_length_b   7.25093330
_cell_length_c   3.76166100
_cell_angle_alpha   90.00000000
_cell_angle_beta   90.00000000
_cell_angle_gamma   90.10926678
_symmetry_Int_Tables_number   1
_chemical_formula_structural   TbYb(Ni2As)4
_chemical_formula_sum   'Tb1 Yb1 Ni8 As4'
_cell_volume   197.77285574
_cell_formula_units_Z   1
loop_
 _symmetry_equiv_pos_site_id
 _symmetry_equiv_pos_as_xyz
  1  'x, y, z'
loop_
 _atom_site_type_symbol
 _atom_site_label
 _atom_site_symmetry_multiplicity
 _atom_site_fract_x
 _atom_site_fract_y
 _atom_site_fract_z
 _atom_site_occupancy
  Tb  Tb0  1  0.500000  0.500000  0.000000  1
  Yb  Yb1  1  0.000000  0.000000  0.500000  1
  Ni  Ni2  1  0.589182  0.152873  0.500000  1
  Ni  Ni3  1  0.410818  0.847127  0.500000  1
  Ni  Ni4  1  0.087783  0.345092  0.000000  1
  Ni  Ni5  1  0.912217  0.654908  0.000000  1
  Ni  Ni6  1  0.152873  0.589182  0.500000  1
  Ni  Ni7  1  0.847127  0.410818  0.500000  1
  Ni  Ni8  1  0.345092  0.087783  0.000000  1
  Ni  Ni9  1  0.654908  0.912217  0.000000  1
  As  As10  1  0.718345  0.718345  0.500000  1
  As  As11  1  0.281655  0.281655  0.500000  1
  As  As12  1  0.218001  0.781999  0.000000  1
  As  As13  1  0.781999  0.218001  0.000000  1
