# generated using pymatgen
data_BaLa(Sn2Rh)2
_symmetry_space_group_name_H-M   'P 1'
_cell_length_a   9.07267757
_cell_length_b   9.07267751
_cell_length_c   9.85793200
_cell_angle_alpha   90.00000000
_cell_angle_beta   90.00000000
_cell_angle_gamma   148.85220152
_symmetry_Int_Tables_number   1
_chemical_formula_structural   BaLa(Sn2Rh)2
_chemical_formula_sum   'Ba2 La2 Sn8 Rh4'
_cell_volume   419.71564170
_cell_formula_units_Z   2
loop_
 _symmetry_equiv_pos_site_id
 _symmetry_equiv_pos_as_xyz
  1  'x, y, z'
loop_
 _atom_site_type_symbol
 _atom_site_label
 _atom_site_symmetry_multiplicity
 _atom_site_fract_x
 _atom_site_fract_y
 _atom_site_fract_z
 _atom_site_occupancy
  Ba  Ba0  1  0.500000  0.500000  0.500000  1
  Ba  Ba1  1  0.500000  0.500000  0.000000  1
  La  La2  1  0.295194  0.704806  0.250000  1
  La  La3  1  0.704806  0.295194  0.750000  1
  Sn  Sn4  1  0.904765  0.095235  0.750000  1
  Sn  Sn5  1  0.919427  0.080573  0.250000  1
  Sn  Sn6  1  0.095235  0.904765  0.250000  1
  Sn  Sn7  1  0.080573  0.919427  0.750000  1
  Sn  Sn8  1  0.697762  0.302238  0.409253  1
  Sn  Sn9  1  0.302238  0.697762  0.590747  1
  Sn  Sn10  1  0.302238  0.697762  0.909253  1
  Sn  Sn11  1  0.697762  0.302238  0.090747  1
  Rh  Rh12  1  0.153834  0.846166  0.501024  1
  Rh  Rh13  1  0.846166  0.153834  0.001024  1
  Rh  Rh14  1  0.153834  0.846166  0.998976  1
  Rh  Rh15  1  0.846166  0.153834  0.498976  1
