# generated using pymatgen
data_Hf10Sn5Sb2
_symmetry_space_group_name_H-M   'P 1'
_cell_length_a   5.88100726
_cell_length_b   8.59332825
_cell_length_c   8.58682500
_cell_angle_alpha   120.02505625
_cell_angle_beta   89.91744036
_cell_angle_gamma   90.16495961
_symmetry_Int_Tables_number   1
_chemical_formula_structural   Hf10Sn5Sb2
_chemical_formula_sum   'Hf10 Sn5 Sb2'
_cell_volume   375.72046728
_cell_formula_units_Z   1
loop_
 _symmetry_equiv_pos_site_id
 _symmetry_equiv_pos_as_xyz
  1  'x, y, z'
loop_
 _atom_site_type_symbol
 _atom_site_label
 _atom_site_symmetry_multiplicity
 _atom_site_fract_x
 _atom_site_fract_y
 _atom_site_fract_z
 _atom_site_occupancy
  Hf  Hf0  1  0.499928  0.334390  0.667715  1
  Hf  Hf1  1  0.499928  0.666675  0.332285  1
  Hf  Hf2  1  0.000778  0.666821  0.333331  1
  Hf  Hf3  1  0.000778  0.333491  0.666669  1
  Hf  Hf4  1  0.775711  0.267882  0.000000  1
  Hf  Hf5  1  0.775868  0.733504  0.733699  1
  Hf  Hf6  1  0.775868  0.999804  0.266301  1
  Hf  Hf7  1  0.225642  0.731531  0.000000  1
  Hf  Hf8  1  0.223046  0.266820  0.267040  1
  Hf  Hf9  1  0.223046  0.999781  0.732960  1
  Sn  Sn10  1  0.741597  0.388873  0.388863  1
  Sn  Sn11  1  0.741597  0.000010  0.611137  1
  Sn  Sn12  1  0.257766  0.386927  0.000000  1
  Sn  Sn13  1  0.257322  0.611550  0.610923  1
  Sn  Sn14  1  0.257322  0.000627  0.389077  1
  Sb  Sb15  1  0.744796  0.610902  0.000000  1
  Sb  Sb16  1  0.499003  0.000416  0.000000  1
