# generated using pymatgen
data_GdLu2Zn3Si2Pd
_symmetry_space_group_name_H-M   'P 1'
_cell_length_a   6.79859563
_cell_length_b   6.77069558
_cell_length_c   4.25606900
_cell_angle_alpha   90.00000000
_cell_angle_beta   90.00000000
_cell_angle_gamma   119.86433916
_symmetry_Int_Tables_number   1
_chemical_formula_structural   GdLu2Zn3Si2Pd
_chemical_formula_sum   'Gd1 Lu2 Zn3 Si2 Pd1'
_cell_volume   169.89627362
_cell_formula_units_Z   1
loop_
 _symmetry_equiv_pos_site_id
 _symmetry_equiv_pos_as_xyz
  1  'x, y, z'
loop_
 _atom_site_type_symbol
 _atom_site_label
 _atom_site_symmetry_multiplicity
 _atom_site_fract_x
 _atom_site_fract_y
 _atom_site_fract_z
 _atom_site_occupancy
  Gd  Gd0  1  0.000000  0.418991  0.000000  1
  Lu  Lu1  1  0.583307  0.584015  0.000000  1
  Lu  Lu2  1  0.416693  0.000709  0.000000  1
  Zn  Zn3  1  0.243976  0.242694  0.500000  1
  Zn  Zn4  1  0.756024  0.998719  0.500000  1
  Zn  Zn5  1  0.000000  0.758893  0.500000  1
  Si  Si6  1  0.337671  0.669562  0.500000  1
  Si  Si7  1  0.662329  0.331890  0.500000  1
  Pd  Pd8  1  0.000000  0.994527  0.000000  1
