# generated using pymatgen
data_Pr8Nd8Cd4Os3Pt
_symmetry_space_group_name_H-M   'P 1'
_cell_length_a   9.96403481
_cell_length_b   10.02597649
_cell_length_c   10.05196100
_cell_angle_alpha   59.91422625
_cell_angle_beta   59.70765746
_cell_angle_gamma   59.70647369
_symmetry_Int_Tables_number   1
_chemical_formula_structural   Pr8Nd8Cd4Os3Pt
_chemical_formula_sum   'Pr8 Nd8 Cd4 Os3 Pt1'
_cell_volume   706.44886744
_cell_formula_units_Z   1
loop_
 _symmetry_equiv_pos_site_id
 _symmetry_equiv_pos_as_xyz
  1  'x, y, z'
loop_
 _atom_site_type_symbol
 _atom_site_label
 _atom_site_symmetry_multiplicity
 _atom_site_fract_x
 _atom_site_fract_y
 _atom_site_fract_z
 _atom_site_occupancy
  Pr  Pr0  1  0.191265  0.191017  0.808859  1
  Pr  Pr1  1  0.814105  0.803810  0.191042  1
  Pr  Pr2  1  0.939967  0.559379  0.559154  1
  Pr  Pr3  1  0.556803  0.940181  0.940146  1
  Pr  Pr4  1  0.556803  0.940181  0.562870  1
  Pr  Pr5  1  0.939967  0.559379  0.941498  1
  Pr  Pr6  1  0.556702  0.563783  0.939758  1
  Pr  Pr7  1  0.940157  0.942466  0.558688  1
  Nd  Nd8  1  0.343393  0.349482  0.349104  1
  Nd  Nd9  1  0.343393  0.349482  0.958022  1
  Nd  Nd10  1  0.342878  0.957417  0.349853  1
  Nd  Nd11  1  0.963430  0.344330  0.346120  1
  Nd  Nd12  1  0.813160  0.191353  0.191747  1
  Nd  Nd13  1  0.190655  0.808855  0.809271  1
  Nd  Nd14  1  0.190655  0.808855  0.191219  1
  Nd  Nd15  1  0.813160  0.191353  0.803740  1
  Cd  Cd16  1  0.579036  0.579145  0.579852  1
  Cd  Cd17  1  0.579036  0.579145  0.261966  1
  Cd  Cd18  1  0.579456  0.261298  0.579623  1
  Cd  Cd19  1  0.261062  0.579667  0.579636  1
  Os  Os20  1  0.142398  0.138292  0.138321  1
  Os  Os21  1  0.142398  0.138292  0.580988  1
  Os  Os22  1  0.143913  0.580391  0.137848  1
  Pt  Pt23  1  0.576204  0.142448  0.140674  1
