# generated using pymatgen
data_CeEr7(Si3Pt)4
_symmetry_space_group_name_H-M   'P 1'
_cell_length_a   8.12089300
_cell_length_b   8.12089306
_cell_length_c   8.11570300
_cell_angle_alpha   90.00000000
_cell_angle_beta   90.00000000
_cell_angle_gamma   119.99999567
_symmetry_Int_Tables_number   1
_chemical_formula_structural   CeEr7(Si3Pt)4
_chemical_formula_sum   'Ce1 Er7 Si12 Pt4'
_cell_volume   463.51562204
_cell_formula_units_Z   1
loop_
 _symmetry_equiv_pos_site_id
 _symmetry_equiv_pos_as_xyz
  1  'x, y, z'
loop_
 _atom_site_type_symbol
 _atom_site_label
 _atom_site_symmetry_multiplicity
 _atom_site_fract_x
 _atom_site_fract_y
 _atom_site_fract_z
 _atom_site_occupancy
  Ce  Ce0  1  0.000000  0.000000  0.250000  1
  Er  Er1  1  0.000000  0.000000  0.750000  1
  Er  Er2  1  0.499730  0.500270  0.250000  1
  Er  Er3  1  0.499730  0.999460  0.250000  1
  Er  Er4  1  0.000540  0.500270  0.250000  1
  Er  Er5  1  0.501089  0.498911  0.750000  1
  Er  Er6  1  0.997821  0.498911  0.750000  1
  Er  Er7  1  0.501089  0.002179  0.750000  1
  Si  Si8  1  0.834507  0.165493  0.500984  1
  Si  Si9  1  0.834507  0.669013  0.500984  1
  Si  Si10  1  0.330987  0.165493  0.500984  1
  Si  Si11  1  0.834507  0.165493  0.999016  1
  Si  Si12  1  0.834507  0.669013  0.999016  1
  Si  Si13  1  0.330987  0.165493  0.999016  1
  Si  Si14  1  0.165673  0.834327  0.998396  1
  Si  Si15  1  0.668655  0.834327  0.998396  1
  Si  Si16  1  0.165673  0.331345  0.998396  1
  Si  Si17  1  0.165673  0.834327  0.501604  1
  Si  Si18  1  0.668655  0.834327  0.501604  1
  Si  Si19  1  0.165673  0.331345  0.501604  1
  Pt  Pt20  1  0.666667  0.333333  0.500423  1
  Pt  Pt21  1  0.666667  0.333333  0.999577  1
  Pt  Pt22  1  0.333333  0.666667  0.997032  1
  Pt  Pt23  1  0.333333  0.666667  0.502968  1
