# generated using pymatgen
data_Tb2Y3Ho(Al8Ga)2
_symmetry_space_group_name_H-M   'P 1'
_cell_length_a   14.50156565
_cell_length_b   14.49859725
_cell_length_c   14.49859818
_cell_angle_alpha   24.64033561
_cell_angle_beta   24.65491304
_cell_angle_gamma   24.65492216
_symmetry_Int_Tables_number   1
_chemical_formula_structural   Tb2Y3Ho(Al8Ga)2
_chemical_formula_sum   'Tb2 Y3 Ho1 Al16 Ga2'
_cell_volume   466.30390241
_cell_formula_units_Z   1
loop_
 _symmetry_equiv_pos_site_id
 _symmetry_equiv_pos_as_xyz
  1  'x, y, z'
loop_
 _atom_site_type_symbol
 _atom_site_label
 _atom_site_symmetry_multiplicity
 _atom_site_fract_x
 _atom_site_fract_y
 _atom_site_fract_z
 _atom_site_occupancy
  Tb  Tb0  1  0.001797  0.999832  0.999832  1
  Tb  Tb1  1  0.501831  0.499960  0.499961  1
  Y  Y2  1  0.109415  0.108025  0.108026  1
  Y  Y3  1  0.890055  0.891657  0.891657  1
  Y  Y4  1  0.389705  0.391492  0.391492  1
  Ho  Ho5  1  0.609525  0.607857  0.607855  1
  Al  Al6  1  0.366763  0.369810  0.928744  1
  Al  Al7  1  0.866094  0.869320  0.429216  1
  Al  Al8  1  0.366763  0.928744  0.369810  1
  Al  Al9  1  0.866094  0.429216  0.869320  1
  Al  Al10  1  0.574208  0.130385  0.130385  1
  Al  Al11  1  0.074343  0.630313  0.630313  1
  Al  Al12  1  0.131982  0.130197  0.573589  1
  Al  Al13  1  0.631877  0.630106  0.073807  1
  Al  Al14  1  0.131983  0.573589  0.130197  1
  Al  Al15  1  0.631877  0.073807  0.630106  1
  Al  Al16  1  0.501254  0.499480  0.998198  1
  Al  Al17  1  0.000811  0.999076  0.499916  1
  Al  Al18  1  0.501255  0.998198  0.499480  1
  Al  Al19  1  0.000811  0.499916  0.999076  1
  Al  Al20  1  0.999282  0.500063  0.500063  1
  Al  Al21  1  0.501055  0.999616  0.999616  1
  Ga  Ga22  1  0.925332  0.370024  0.370024  1
  Ga  Ga23  1  0.425888  0.869314  0.869314  1
