# generated using pymatgen
data_MgTa3(CuRh3)2
_symmetry_space_group_name_H-M   'P 1'
_cell_length_a   4.16134102
_cell_length_b   6.88446600
_cell_length_c   12.49528007
_cell_angle_alpha   90.00000000
_cell_angle_beta   89.98893079
_cell_angle_gamma   90.00000000
_symmetry_Int_Tables_number   1
_chemical_formula_structural   MgTa3(CuRh3)2
_chemical_formula_sum   'Mg2 Ta6 Cu4 Rh12'
_cell_volume   357.97240809
_cell_formula_units_Z   2
loop_
 _symmetry_equiv_pos_site_id
 _symmetry_equiv_pos_as_xyz
  1  'x, y, z'
loop_
 _atom_site_type_symbol
 _atom_site_label
 _atom_site_symmetry_multiplicity
 _atom_site_fract_x
 _atom_site_fract_y
 _atom_site_fract_z
 _atom_site_occupancy
  Mg  Mg0  1  0.000121  0.000000  0.000802  1
  Mg  Mg1  1  0.499985  0.499999  0.165917  1
  Ta  Ta2  1  0.000293  0.499999  0.989477  1
  Ta  Ta3  1  0.499706  0.000000  0.177112  1
  Ta  Ta4  1  0.999747  0.499999  0.344590  1
  Ta  Ta5  1  0.499981  0.000000  0.501440  1
  Ta  Ta6  1  0.999515  0.499999  0.665363  1
  Ta  Ta7  1  0.500322  0.000000  0.821969  1
  Cu  Cu8  1  0.999296  0.000000  0.333389  1
  Cu  Cu9  1  0.501066  0.499999  0.501245  1
  Cu  Cu10  1  0.998203  0.000000  0.665096  1
  Cu  Cu11  1  0.502564  0.499999  0.833620  1
  Rh  Rh12  1  0.500048  0.246243  0.998161  1
  Rh  Rh13  1  0.500048  0.753757  0.998161  1
  Rh  Rh14  1  0.999876  0.253664  0.168493  1
  Rh  Rh15  1  0.999876  0.746336  0.168493  1
  Rh  Rh16  1  0.499579  0.252540  0.336540  1
  Rh  Rh17  1  0.499579  0.747460  0.336540  1
  Rh  Rh18  1  0.000107  0.247939  0.501800  1
  Rh  Rh19  1  0.000107  0.752061  0.501800  1
  Rh  Rh20  1  0.499385  0.252345  0.664911  1
  Rh  Rh21  1  0.499385  0.747655  0.664911  1
  Rh  Rh22  1  0.000603  0.247277  0.830084  1
  Rh  Rh23  1  0.000603  0.752723  0.830084  1
