# generated using pymatgen
data_Ac2CrN3
_symmetry_space_group_name_H-M   'P 1'
_cell_length_a   6.39864806
_cell_length_b   6.39864834
_cell_length_c   12.54588000
_cell_angle_alpha   90.00000000
_cell_angle_beta   90.00000000
_cell_angle_gamma   127.30809791
_symmetry_Int_Tables_number   1
_chemical_formula_structural   Ac2CrN3
_chemical_formula_sum   'Ac8 Cr4 N12'
_cell_volume   408.56064900
_cell_formula_units_Z   4
loop_
 _symmetry_equiv_pos_site_id
 _symmetry_equiv_pos_as_xyz
  1  'x, y, z'
loop_
 _atom_site_type_symbol
 _atom_site_label
 _atom_site_symmetry_multiplicity
 _atom_site_fract_x
 _atom_site_fract_y
 _atom_site_fract_z
 _atom_site_occupancy
  Ac  Ac0  1  0.563217  0.436783  0.643488  1
  Ac  Ac1  1  0.436783  0.563217  0.356512  1
  Ac  Ac2  1  0.936783  0.063217  0.143488  1
  Ac  Ac3  1  0.063217  0.936783  0.856512  1
  Ac  Ac4  1  0.858915  0.141085  0.574933  1
  Ac  Ac5  1  0.141085  0.858915  0.425067  1
  Ac  Ac6  1  0.641085  0.358915  0.074933  1
  Ac  Ac7  1  0.358915  0.641085  0.925067  1
  Cr  Cr8  1  0.742367  0.257633  0.837382  1
  Cr  Cr9  1  0.257633  0.742367  0.162618  1
  Cr  Cr10  1  0.757633  0.242367  0.337382  1
  Cr  Cr11  1  0.242367  0.757633  0.662618  1
  N  N12  1  0.845652  0.154348  0.955051  1
  N  N13  1  0.154348  0.845652  0.044949  1
  N  N14  1  0.654348  0.345652  0.455051  1
  N  N15  1  0.345652  0.654348  0.544949  1
  N  N16  1  0.576920  0.423080  0.869209  1
  N  N17  1  0.423080  0.576920  0.130791  1
  N  N18  1  0.923080  0.076920  0.369209  1
  N  N19  1  0.076920  0.923080  0.630791  1
  N  N20  1  0.509221  0.990779  0.750000  1
  N  N21  1  0.990779  0.509221  0.250000  1
  N  N22  1  0.490779  0.009221  0.250000  1
  N  N23  1  0.009221  0.490779  0.750000  1
