# generated using pymatgen
data_TmBe4(NbRu2)5
_symmetry_space_group_name_H-M   'P 1'
_cell_length_a   9.43747200
_cell_length_b   9.43747178
_cell_length_c   3.20759900
_cell_angle_alpha   90.00000000
_cell_angle_beta   90.00000000
_cell_angle_gamma   89.92187697
_symmetry_Int_Tables_number   1
_chemical_formula_structural   TmBe4(NbRu2)5
_chemical_formula_sum   'Tm1 Be4 Nb5 Ru10'
_cell_volume   285.68734820
_cell_formula_units_Z   1
loop_
 _symmetry_equiv_pos_site_id
 _symmetry_equiv_pos_as_xyz
  1  'x, y, z'
loop_
 _atom_site_type_symbol
 _atom_site_label
 _atom_site_symmetry_multiplicity
 _atom_site_fract_x
 _atom_site_fract_y
 _atom_site_fract_z
 _atom_site_occupancy
  Tm  Tm0  1  0.826109  0.673891  0.000000  1
  Be  Be1  1  0.618661  0.881339  0.000000  1
  Be  Be2  1  0.377017  0.122983  0.000000  1
  Be  Be3  1  0.124408  0.619674  0.000000  1
  Be  Be4  1  0.880326  0.375592  0.000000  1
  Nb  Nb5  1  0.174163  0.325837  0.000000  1
  Nb  Nb6  1  0.326475  0.825500  0.000000  1
  Nb  Nb7  1  0.674500  0.173525  0.000000  1
  Nb  Nb8  1  0.501336  0.500007  0.000000  1
  Nb  Nb9  1  0.999993  0.998664  0.000000  1
  Ru  Ru10  1  0.558838  0.716067  0.500000  1
  Ru  Ru11  1  0.423978  0.289966  0.500000  1
  Ru  Ru12  1  0.084578  0.790033  0.500000  1
  Ru  Ru13  1  0.928666  0.209944  0.500000  1
  Ru  Ru14  1  0.290056  0.571334  0.500000  1
  Ru  Ru15  1  0.709967  0.415422  0.500000  1
  Ru  Ru16  1  0.210034  0.076022  0.500000  1
  Ru  Ru17  1  0.783933  0.941162  0.500000  1
  Ru  Ru18  1  0.496656  0.003344  0.500000  1
  Ru  Ru19  1  0.010305  0.489695  0.500000  1
