# generated using pymatgen
data_Nd3HoIn3Au10
_symmetry_space_group_name_H-M   'P 1'
_cell_length_a   8.67571167
_cell_length_b   8.67562330
_cell_length_c   10.39404100
_cell_angle_alpha   90.00000000
_cell_angle_beta   90.00000000
_cell_angle_gamma   107.89904444
_symmetry_Int_Tables_number   1
_chemical_formula_structural   Nd3HoIn3Au10
_chemical_formula_sum   'Nd6 Ho2 In6 Au20'
_cell_volume   744.46526753
_cell_formula_units_Z   2
loop_
 _symmetry_equiv_pos_site_id
 _symmetry_equiv_pos_as_xyz
  1  'x, y, z'
loop_
 _atom_site_type_symbol
 _atom_site_label
 _atom_site_symmetry_multiplicity
 _atom_site_fract_x
 _atom_site_fract_y
 _atom_site_fract_z
 _atom_site_occupancy
  Nd  Nd0  1  0.800899  0.801301  0.300022  1
  Nd  Nd1  1  0.300899  0.301301  0.199978  1
  Nd  Nd2  1  0.799593  0.200407  0.499996  1
  Nd  Nd3  1  0.299593  0.700407  0.000004  1
  Nd  Nd4  1  0.698674  0.699102  0.800020  1
  Nd  Nd5  1  0.198674  0.199102  0.699980  1
  Ho  Ho6  1  0.698259  0.301743  0.999998  1
  Ho  Ho7  1  0.198259  0.801743  0.500002  1
  In  In8  1  0.517849  0.019060  0.249207  1
  In  In9  1  0.980916  0.482187  0.750795  1
  In  In10  1  0.003475  0.996524  0.000000  1
  In  In11  1  0.017849  0.519060  0.250793  1
  In  In12  1  0.480916  0.982187  0.749205  1
  In  In13  1  0.503475  0.496524  0.500000  1
  Au  Au14  1  0.158113  0.435500  0.476608  1
  Au  Au15  1  0.904951  0.904421  0.596046  1
  Au  Au16  1  0.564499  0.841883  0.523397  1
  Au  Au17  1  0.888124  0.171683  0.206679  1
  Au  Au18  1  0.388124  0.671683  0.293321  1
  Au  Au19  1  0.668143  0.386215  0.286370  1
  Au  Au20  1  0.404951  0.404421  0.903954  1
  Au  Au21  1  0.928201  0.649379  0.020539  1
  Au  Au22  1  0.328310  0.611879  0.706679  1
  Au  Au23  1  0.350625  0.071795  0.979471  1
  Au  Au24  1  0.595578  0.595048  0.096044  1
  Au  Au25  1  0.658113  0.935500  0.023392  1
  Au  Au26  1  0.095578  0.095048  0.403956  1
  Au  Au27  1  0.613791  0.331872  0.713628  1
  Au  Au28  1  0.113791  0.831872  0.786372  1
  Au  Au29  1  0.064499  0.341883  0.976603  1
  Au  Au30  1  0.850625  0.571795  0.520529  1
  Au  Au31  1  0.168143  0.886215  0.213630  1
  Au  Au32  1  0.428201  0.149379  0.479461  1
  Au  Au33  1  0.828310  0.111879  0.793321  1
