# generated using pymatgen
data_NaIrCl18
_symmetry_space_group_name_H-M   'P 1'
_cell_length_a   8.87908712
_cell_length_b   8.87908591
_cell_length_c   8.87908613
_cell_angle_alpha   94.89802315
_cell_angle_beta   94.89803399
_cell_angle_gamma   94.89802912
_symmetry_Int_Tables_number   1
_chemical_formula_structural   NaIrCl18
_chemical_formula_sum   'Na1 Ir1 Cl18'
_cell_volume   691.87311222
_cell_formula_units_Z   1
loop_
 _symmetry_equiv_pos_site_id
 _symmetry_equiv_pos_as_xyz
  1  'x, y, z'
loop_
 _atom_site_type_symbol
 _atom_site_label
 _atom_site_symmetry_multiplicity
 _atom_site_fract_x
 _atom_site_fract_y
 _atom_site_fract_z
 _atom_site_occupancy
  Na  Na0  1  0.500000  0.500000  0.500000  1
  Ir  Ir1  1  0.000000  0.000000  0.000000  1
  Cl  Cl2  1  0.263034  0.006919  0.020625  1
  Cl  Cl3  1  0.020625  0.263034  0.006919  1
  Cl  Cl4  1  0.006919  0.020625  0.263034  1
  Cl  Cl5  1  0.736966  0.993081  0.979375  1
  Cl  Cl6  1  0.979375  0.736966  0.993081  1
  Cl  Cl7  1  0.993081  0.979375  0.736966  1
  Cl  Cl8  1  0.631626  0.241247  0.111130  1
  Cl  Cl9  1  0.111130  0.631626  0.241247  1
  Cl  Cl10  1  0.241247  0.111130  0.631626  1
  Cl  Cl11  1  0.368374  0.758753  0.888870  1
  Cl  Cl12  1  0.888870  0.368374  0.758753  1
  Cl  Cl13  1  0.758753  0.888870  0.368374  1
  Cl  Cl14  1  0.438837  0.188260  0.544411  1
  Cl  Cl15  1  0.544411  0.438837  0.188260  1
  Cl  Cl16  1  0.188260  0.544411  0.438837  1
  Cl  Cl17  1  0.561163  0.811740  0.455589  1
  Cl  Cl18  1  0.455589  0.561163  0.811740  1
  Cl  Cl19  1  0.811740  0.455589  0.561163  1
