# generated using pymatgen
data_Lu12Fe2TcAgHg
_symmetry_space_group_name_H-M   'P 1'
_cell_length_a   8.12143785
_cell_length_b   8.12229652
_cell_length_c   8.12143777
_cell_angle_alpha   109.98129457
_cell_angle_beta   107.32011886
_cell_angle_gamma   111.13103772
_symmetry_Int_Tables_number   1
_chemical_formula_structural   Lu12Fe2TcAgHg
_chemical_formula_sum   'Lu12 Fe2 Tc1 Ag1 Hg1'
_cell_volume   411.95043125
_cell_formula_units_Z   1
loop_
 _symmetry_equiv_pos_site_id
 _symmetry_equiv_pos_as_xyz
  1  'x, y, z'
loop_
 _atom_site_type_symbol
 _atom_site_label
 _atom_site_symmetry_multiplicity
 _atom_site_fract_x
 _atom_site_fract_y
 _atom_site_fract_z
 _atom_site_occupancy
  Lu  Lu0  1  0.310722  0.308595  0.619332  1
  Lu  Lu1  1  0.689278  0.691405  0.380668  1
  Lu  Lu2  1  0.689263  0.308595  0.997872  1
  Lu  Lu3  1  0.310737  0.691405  0.002128  1
  Lu  Lu4  1  0.192076  0.437483  0.245407  1
  Lu  Lu5  1  0.807924  0.562517  0.754593  1
  Lu  Lu6  1  0.192125  0.946703  0.754579  1
  Lu  Lu7  1  0.952396  0.190948  0.761504  1
  Lu  Lu8  1  0.807875  0.053297  0.245421  1
  Lu  Lu9  1  0.047604  0.809052  0.238496  1
  Lu  Lu10  1  0.429442  0.190948  0.238551  1
  Lu  Lu11  1  0.570558  0.809052  0.761449  1
  Fe  Fe12  1  0.380471  0.379939  0.999468  1
  Fe  Fe13  1  0.619529  0.620061  0.000532  1
  Tc  Tc14  1  0.000000  0.000000  0.000000  1
  Ag  Ag15  1  0.000000  0.500000  0.500000  1
  Hg  Hg16  1  0.500000  0.000000  0.500000  1
