# generated using pymatgen
data_SrLa2Hg(Pt2O7)2
_symmetry_space_group_name_H-M   'P 1'
_cell_length_a   7.41262400
_cell_length_b   7.56256266
_cell_length_c   7.50568393
_cell_angle_alpha   59.74900116
_cell_angle_beta   59.35955095
_cell_angle_gamma   59.32859647
_symmetry_Int_Tables_number   1
_chemical_formula_structural   SrLa2Hg(Pt2O7)2
_chemical_formula_sum   'Sr1 La2 Hg1 Pt4 O14'
_cell_volume   293.98461992
_cell_formula_units_Z   1
loop_
 _symmetry_equiv_pos_site_id
 _symmetry_equiv_pos_as_xyz
  1  'x, y, z'
loop_
 _atom_site_type_symbol
 _atom_site_label
 _atom_site_symmetry_multiplicity
 _atom_site_fract_x
 _atom_site_fract_y
 _atom_site_fract_z
 _atom_site_occupancy
  Sr  Sr0  1  0.125000  0.125000  0.625000  1
  La  La1  1  0.125000  0.125000  0.125000  1
  La  La2  1  0.125000  0.625000  0.125000  1
  Hg  Hg3  1  0.625000  0.125000  0.125000  1
  Pt  Pt4  1  0.625000  0.625000  0.125000  1
  Pt  Pt5  1  0.625000  0.625000  0.625000  1
  Pt  Pt6  1  0.625000  0.125000  0.625000  1
  Pt  Pt7  1  0.125000  0.625000  0.625000  1
  O  O8  1  0.707316  0.301977  0.300483  1
  O  O9  1  0.707316  0.690224  0.300483  1
  O  O10  1  0.289749  0.708878  0.292496  1
  O  O11  1  0.971080  0.004155  0.020612  1
  O  O12  1  0.701330  0.302432  0.693806  1
  O  O13  1  0.959292  0.547423  0.538974  1
  O  O14  1  0.290708  0.702577  0.711026  1
  O  O15  1  0.548670  0.947568  0.556194  1
  O  O16  1  0.278920  0.245845  0.229388  1
  O  O17  1  0.960251  0.541122  0.957504  1
  O  O18  1  0.542684  0.559776  0.949517  1
  O  O19  1  0.959292  0.954310  0.538974  1
  O  O20  1  0.542684  0.948023  0.949517  1
  O  O21  1  0.290708  0.295690  0.711026  1
