# generated using pymatgen
data_Y7ZrGaPd24
_symmetry_space_group_name_H-M   'P 1'
_cell_length_a   8.33707095
_cell_length_b   8.33707097
_cell_length_c   8.33707088
_cell_angle_alpha   89.80129043
_cell_angle_beta   90.19870797
_cell_angle_gamma   90.19870868
_symmetry_Int_Tables_number   1
_chemical_formula_structural   Y7ZrGaPd24
_chemical_formula_sum   'Y7 Zr1 Ga1 Pd24'
_cell_volume   579.47228854
_cell_formula_units_Z   1
loop_
 _symmetry_equiv_pos_site_id
 _symmetry_equiv_pos_as_xyz
  1  'x, y, z'
loop_
 _atom_site_type_symbol
 _atom_site_label
 _atom_site_symmetry_multiplicity
 _atom_site_fract_x
 _atom_site_fract_y
 _atom_site_fract_z
 _atom_site_occupancy
  Y  Y0  1  0.250630  0.252089  0.252089  1
  Y  Y1  1  0.748639  0.748414  0.748414  1
  Y  Y2  1  0.747911  0.749370  0.252089  1
  Y  Y3  1  0.747911  0.252089  0.749370  1
  Y  Y4  1  0.251586  0.251361  0.748414  1
  Y  Y5  1  0.251586  0.748414  0.251361  1
  Y  Y6  1  0.252604  0.747396  0.747396  1
  Zr  Zr7  1  0.745273  0.254727  0.254727  1
  Ga  Ga8  1  0.002857  0.997143  0.997143  1
  Pd  Pd9  1  0.259587  0.498290  0.000441  1
  Pd  Pd10  1  0.740264  0.496627  0.006070  1
  Pd  Pd11  1  0.993930  0.259736  0.496627  1
  Pd  Pd12  1  0.503373  0.259736  0.006070  1
  Pd  Pd13  1  0.999559  0.740413  0.498290  1
  Pd  Pd14  1  0.501710  0.740413  0.000441  1
  Pd  Pd15  1  0.503373  0.006070  0.259736  1
  Pd  Pd16  1  0.259587  0.000441  0.498290  1
  Pd  Pd17  1  0.501710  0.000441  0.740413  1
  Pd  Pd18  1  0.740264  0.006070  0.496627  1
  Pd  Pd19  1  0.993930  0.496627  0.259736  1
  Pd  Pd20  1  0.999559  0.498290  0.740413  1
  Pd  Pd21  1  0.252429  0.498999  0.498999  1
  Pd  Pd22  1  0.746648  0.496402  0.496402  1
  Pd  Pd23  1  0.503598  0.253352  0.496402  1
  Pd  Pd24  1  0.501001  0.747571  0.498999  1
  Pd  Pd25  1  0.503598  0.496402  0.253352  1
  Pd  Pd26  1  0.501001  0.498999  0.747571  1
  Pd  Pd27  1  0.293202  0.999846  0.999846  1
  Pd  Pd28  1  0.711940  0.004783  0.004783  1
  Pd  Pd29  1  0.995217  0.288060  0.004783  1
  Pd  Pd30  1  0.000154  0.706798  0.999846  1
  Pd  Pd31  1  0.995217  0.004783  0.288060  1
  Pd  Pd32  1  0.000154  0.999846  0.706798  1
