# generated using pymatgen
data_Fe2CuCl8
_symmetry_space_group_name_H-M   'P 1'
_cell_length_a   7.82942000
_cell_length_b   7.12550250
_cell_length_c   12.98141500
_cell_angle_alpha   84.07171804
_cell_angle_beta   90.00000000
_cell_angle_gamma   90.00000000
_symmetry_Int_Tables_number   1
_chemical_formula_structural   Fe2CuCl8
_chemical_formula_sum   'Fe4 Cu2 Cl16'
_cell_volume   720.34121287
_cell_formula_units_Z   2
loop_
 _symmetry_equiv_pos_site_id
 _symmetry_equiv_pos_as_xyz
  1  'x, y, z'
loop_
 _atom_site_type_symbol
 _atom_site_label
 _atom_site_symmetry_multiplicity
 _atom_site_fract_x
 _atom_site_fract_y
 _atom_site_fract_z
 _atom_site_occupancy
  Fe  Fe0  1  0.741351  0.811847  0.179026  1
  Fe  Fe1  1  0.758649  0.811847  0.679026  1
  Fe  Fe2  1  0.258649  0.188153  0.820974  1
  Fe  Fe3  1  0.241351  0.188153  0.320974  1
  Cu  Cu4  1  0.500000  0.000000  0.500000  1
  Cu  Cu5  1  0.000000  0.000000  0.000000  1
  Cl  Cl6  1  0.734443  0.103030  0.585677  1
  Cl  Cl7  1  0.234443  0.896970  0.914323  1
  Cl  Cl8  1  0.988164  0.716716  0.103681  1
  Cl  Cl9  1  0.488164  0.283284  0.396319  1
  Cl  Cl10  1  0.011836  0.283284  0.896319  1
  Cl  Cl11  1  0.511836  0.716716  0.603681  1
  Cl  Cl12  1  0.268648  0.165976  0.156578  1
  Cl  Cl13  1  0.768648  0.834024  0.343422  1
  Cl  Cl14  1  0.731352  0.834024  0.843422  1
  Cl  Cl15  1  0.231352  0.165976  0.656578  1
  Cl  Cl16  1  0.524060  0.651404  0.138722  1
  Cl  Cl17  1  0.024060  0.348596  0.361278  1
  Cl  Cl18  1  0.475940  0.348596  0.861278  1
  Cl  Cl19  1  0.975940  0.651404  0.638722  1
  Cl  Cl20  1  0.765557  0.103030  0.085677  1
  Cl  Cl21  1  0.265557  0.896970  0.414323  1
