# generated using pymatgen
data_DyTh3(Pd3Pt)3
_symmetry_space_group_name_H-M   'P 1'
_cell_length_a   5.91699000
_cell_length_b   5.92873364
_cell_length_c   9.77230000
_cell_angle_alpha   90.18987060
_cell_angle_beta   90.00000000
_cell_angle_gamma   119.93449725
_symmetry_Int_Tables_number   1
_chemical_formula_structural   DyTh3(Pd3Pt)3
_chemical_formula_sum   'Dy1 Th3 Pd9 Pt3'
_cell_volume   297.07992055
_cell_formula_units_Z   1
loop_
 _symmetry_equiv_pos_site_id
 _symmetry_equiv_pos_as_xyz
  1  'x, y, z'
loop_
 _atom_site_type_symbol
 _atom_site_label
 _atom_site_symmetry_multiplicity
 _atom_site_fract_x
 _atom_site_fract_y
 _atom_site_fract_z
 _atom_site_occupancy
  Dy  Dy0  1  0.000000  0.000000  0.500000  1
  Th  Th1  1  0.000000  0.000000  0.000000  1
  Th  Th2  1  0.333349  0.666699  0.254372  1
  Th  Th3  1  0.666651  0.333301  0.745628  1
  Pd  Pd4  1  0.500000  0.500000  0.500000  1
  Pd  Pd5  1  0.000000  0.500000  0.500000  1
  Pd  Pd6  1  0.500000  0.000000  0.000000  1
  Pd  Pd7  1  0.825895  0.651791  0.250095  1
  Pd  Pd8  1  0.348334  0.174204  0.251221  1
  Pd  Pd9  1  0.825870  0.174204  0.251221  1
  Pd  Pd10  1  0.174105  0.348209  0.749905  1
  Pd  Pd11  1  0.651666  0.825796  0.748779  1
  Pd  Pd12  1  0.174130  0.825796  0.748779  1
  Pt  Pt13  1  0.500000  0.000000  0.500000  1
  Pt  Pt14  1  0.500000  0.500000  0.000000  1
  Pt  Pt15  1  0.000000  0.500000  0.000000  1
