# generated using pymatgen
data_Ce2Th(InRh)3
_symmetry_space_group_name_H-M   'P 1'
_cell_length_a   7.70735100
_cell_length_b   7.60590781
_cell_length_c   4.01460500
_cell_angle_alpha   90.00000000
_cell_angle_beta   90.00000000
_cell_angle_gamma   120.44218347
_symmetry_Int_Tables_number   1
_chemical_formula_structural   Ce2Th(InRh)3
_chemical_formula_sum   'Ce2 Th1 In3 Rh3'
_cell_volume   202.89775926
_cell_formula_units_Z   1
loop_
 _symmetry_equiv_pos_site_id
 _symmetry_equiv_pos_as_xyz
  1  'x, y, z'
loop_
 _atom_site_type_symbol
 _atom_site_label
 _atom_site_symmetry_multiplicity
 _atom_site_fract_x
 _atom_site_fract_y
 _atom_site_fract_z
 _atom_site_occupancy
  Ce  Ce0  1  0.001269  0.411625  0.500000  1
  Ce  Ce1  1  0.589643  0.588375  0.500000  1
  Th  Th2  1  0.413479  0.000000  0.500000  1
  In  In3  1  0.754510  0.000000  0.000000  1
  In  In4  1  0.994415  0.743363  0.000000  1
  In  In5  1  0.251052  0.256637  0.000000  1
  Rh  Rh6  1  0.332987  0.674537  0.000000  1
  Rh  Rh7  1  0.658451  0.325463  0.000000  1
  Rh  Rh8  1  0.004194  0.000000  0.500000  1
