# generated using pymatgen
data_Dy20Ir10RuRh
_symmetry_space_group_name_H-M   'P 1'
_cell_length_a   10.84581600
_cell_length_b   10.84581600
_cell_length_c   6.39359000
_cell_angle_alpha   90.00000000
_cell_angle_beta   90.00000000
_cell_angle_gamma   90.00000000
_symmetry_Int_Tables_number   1
_chemical_formula_structural   Dy20Ir10RuRh
_chemical_formula_sum   'Dy20 Ir10 Ru1 Rh1'
_cell_volume   752.08901876
_cell_formula_units_Z   1
loop_
 _symmetry_equiv_pos_site_id
 _symmetry_equiv_pos_as_xyz
  1  'x, y, z'
loop_
 _atom_site_type_symbol
 _atom_site_label
 _atom_site_symmetry_multiplicity
 _atom_site_fract_x
 _atom_site_fract_y
 _atom_site_fract_z
 _atom_site_occupancy
  Dy  Dy0  1  0.292458  0.087443  0.377318  1
  Dy  Dy1  1  0.292719  0.912475  0.880151  1
  Dy  Dy2  1  0.707281  0.087525  0.880151  1
  Dy  Dy3  1  0.707542  0.912557  0.377318  1
  Dy  Dy4  1  0.587525  0.792719  0.880151  1
  Dy  Dy5  1  0.587443  0.207542  0.377318  1
  Dy  Dy6  1  0.412557  0.792458  0.377318  1
  Dy  Dy7  1  0.412475  0.207281  0.880151  1
  Dy  Dy8  1  0.209163  0.411448  0.620534  1
  Dy  Dy9  1  0.209285  0.588523  0.121632  1
  Dy  Dy10  1  0.790715  0.411477  0.121632  1
  Dy  Dy11  1  0.790837  0.588552  0.620534  1
  Dy  Dy12  1  0.911477  0.709285  0.121632  1
  Dy  Dy13  1  0.911448  0.290837  0.620534  1
  Dy  Dy14  1  0.088552  0.709163  0.620534  1
  Dy  Dy15  1  0.088523  0.290715  0.121632  1
  Dy  Dy16  1  0.000000  0.000000  0.499320  1
  Dy  Dy17  1  0.000000  0.000000  0.999306  1
  Dy  Dy18  1  0.500000  0.500000  0.999306  1
  Dy  Dy19  1  0.500000  0.500000  0.499320  1
  Ir  Ir20  1  0.847144  0.153945  0.250211  1
  Ir  Ir21  1  0.847304  0.846300  0.750039  1
  Ir  Ir22  1  0.152696  0.153700  0.750039  1
  Ir  Ir23  1  0.152856  0.846055  0.250211  1
  Ir  Ir24  1  0.653700  0.347304  0.750039  1
  Ir  Ir25  1  0.653945  0.652856  0.250211  1
  Ir  Ir26  1  0.346055  0.347144  0.250211  1
  Ir  Ir27  1  0.346300  0.652696  0.750039  1
  Ir  Ir28  1  0.500000  0.000000  0.624210  1
  Ir  Ir29  1  0.000000  0.500000  0.377099  1
  Ru  Ru30  1  0.500000  0.000000  0.124875  1
  Rh  Rh31  1  0.000000  0.500000  0.877025  1
