# generated using pymatgen
data_Sm5Lu3(Si3Au)4
_symmetry_space_group_name_H-M   'P 1'
_cell_length_a   8.21970100
_cell_length_b   8.21970136
_cell_length_c   8.34933900
_cell_angle_alpha   90.00000000
_cell_angle_beta   90.00000000
_cell_angle_gamma   120.00000259
_symmetry_Int_Tables_number   1
_chemical_formula_structural   Sm5Lu3(Si3Au)4
_chemical_formula_sum   'Sm5 Lu3 Si12 Au4'
_cell_volume   488.53397683
_cell_formula_units_Z   1
loop_
 _symmetry_equiv_pos_site_id
 _symmetry_equiv_pos_as_xyz
  1  'x, y, z'
loop_
 _atom_site_type_symbol
 _atom_site_label
 _atom_site_symmetry_multiplicity
 _atom_site_fract_x
 _atom_site_fract_y
 _atom_site_fract_z
 _atom_site_occupancy
  Sm  Sm0  1  0.000000  0.000000  0.250000  1
  Sm  Sm1  1  0.000000  0.000000  0.750000  1
  Sm  Sm2  1  0.499125  0.500875  0.250000  1
  Sm  Sm3  1  0.499125  0.998251  0.250000  1
  Sm  Sm4  1  0.001749  0.500875  0.250000  1
  Lu  Lu5  1  0.502479  0.497521  0.750000  1
  Lu  Lu6  1  0.995043  0.497521  0.750000  1
  Lu  Lu7  1  0.502479  0.004957  0.750000  1
  Si  Si8  1  0.835847  0.164153  0.503043  1
  Si  Si9  1  0.835847  0.671695  0.503043  1
  Si  Si10  1  0.328305  0.164153  0.503043  1
  Si  Si11  1  0.835847  0.164153  0.996957  1
  Si  Si12  1  0.835847  0.671695  0.996957  1
  Si  Si13  1  0.328305  0.164153  0.996957  1
  Si  Si14  1  0.164471  0.835529  0.999014  1
  Si  Si15  1  0.671058  0.835529  0.999014  1
  Si  Si16  1  0.164471  0.328942  0.999014  1
  Si  Si17  1  0.164471  0.835529  0.500986  1
  Si  Si18  1  0.671058  0.835529  0.500986  1
  Si  Si19  1  0.164471  0.328942  0.500986  1
  Au  Au20  1  0.666667  0.333333  0.513505  1
  Au  Au21  1  0.666667  0.333333  0.986495  1
  Au  Au22  1  0.333333  0.666667  0.975155  1
  Au  Au23  1  0.333333  0.666667  0.524845  1
