# generated using pymatgen
data_Dy10Y10Si15Pt
_symmetry_space_group_name_H-M   'P 1'
_cell_length_a   7.40569602
_cell_length_b   7.73071251
_cell_length_c   14.65731100
_cell_angle_alpha   90.00000000
_cell_angle_beta   90.00000000
_cell_angle_gamma   90.09076789
_symmetry_Int_Tables_number   1
_chemical_formula_structural   Dy10Y10Si15Pt
_chemical_formula_sum   'Dy10 Y10 Si15 Pt1'
_cell_volume   839.14915630
_cell_formula_units_Z   1
loop_
 _symmetry_equiv_pos_site_id
 _symmetry_equiv_pos_as_xyz
  1  'x, y, z'
loop_
 _atom_site_type_symbol
 _atom_site_label
 _atom_site_symmetry_multiplicity
 _atom_site_fract_x
 _atom_site_fract_y
 _atom_site_fract_z
 _atom_site_occupancy
  Dy  Dy0  1  0.679708  0.179044  0.622845  1
  Dy  Dy1  1  0.187037  0.323358  0.876719  1
  Dy  Dy2  1  0.317741  0.820226  0.123228  1
  Dy  Dy3  1  0.817499  0.678023  0.376527  1
  Dy  Dy4  1  0.317741  0.820226  0.376772  1
  Dy  Dy5  1  0.817499  0.678023  0.123473  1
  Dy  Dy6  1  0.679708  0.179044  0.877155  1
  Dy  Dy7  1  0.187037  0.323358  0.623281  1
  Dy  Dy8  1  0.843844  0.508669  0.750000  1
  Dy  Dy9  1  0.356139  0.984660  0.750000  1
  Y  Y10  1  0.525298  0.681992  0.594140  1
  Y  Y11  1  0.027054  0.817670  0.904246  1
  Y  Y12  1  0.473200  0.316058  0.097541  1
  Y  Y13  1  0.973117  0.182961  0.402463  1
  Y  Y14  1  0.473200  0.316058  0.402459  1
  Y  Y15  1  0.973117  0.182961  0.097537  1
  Y  Y16  1  0.525298  0.681992  0.905860  1
  Y  Y17  1  0.027054  0.817670  0.595754  1
  Y  Y18  1  0.148421  0.486216  0.250000  1
  Y  Y19  1  0.648718  0.012662  0.250000  1
  Si  Si20  1  0.646354  0.971692  0.458924  1
  Si  Si21  1  0.146059  0.527961  0.040314  1
  Si  Si22  1  0.351890  0.026104  0.960414  1
  Si  Si23  1  0.852352  0.472455  0.539709  1
  Si  Si24  1  0.351890  0.026104  0.539586  1
  Si  Si25  1  0.852352  0.472455  0.960291  1
  Si  Si26  1  0.646354  0.971692  0.041076  1
  Si  Si27  1  0.146059  0.527961  0.459686  1
  Si  Si28  1  0.979730  0.102030  0.750000  1
  Si  Si29  1  0.521855  0.603475  0.250000  1
  Si  Si30  1  0.021864  0.895255  0.250000  1
  Si  Si31  1  0.741632  0.875892  0.750000  1
  Si  Si32  1  0.229326  0.631219  0.750000  1
  Si  Si33  1  0.266757  0.126737  0.250000  1
  Si  Si34  1  0.766146  0.373323  0.250000  1
  Pt  Pt35  1  0.480949  0.404774  0.750000  1
