# generated using pymatgen
data_EuGe7Sb5Pt4
_symmetry_space_group_name_H-M   'P 1'
_cell_length_a   7.83784312
_cell_length_b   7.83784356
_cell_length_c   7.87800166
_cell_angle_alpha   108.77620020
_cell_angle_beta   109.49757340
_cell_angle_gamma   109.93789233
_symmetry_Int_Tables_number   1
_chemical_formula_structural   EuGe7Sb5Pt4
_chemical_formula_sum   'Eu1 Ge7 Sb5 Pt4'
_cell_volume   373.44888254
_cell_formula_units_Z   1
loop_
 _symmetry_equiv_pos_site_id
 _symmetry_equiv_pos_as_xyz
  1  'x, y, z'
loop_
 _atom_site_type_symbol
 _atom_site_label
 _atom_site_symmetry_multiplicity
 _atom_site_fract_x
 _atom_site_fract_y
 _atom_site_fract_z
 _atom_site_occupancy
  Eu  Eu0  1  0.002940  0.963851  0.966791  1
  Ge  Ge1  1  0.847810  0.659917  0.507727  1
  Ge  Ge2  1  0.159874  0.365121  0.524995  1
  Ge  Ge3  1  0.808700  0.153049  0.664647  1
  Ge  Ge4  1  0.511598  0.855946  0.664647  1
  Ge  Ge5  1  0.143024  0.643948  0.786971  1
  Ge  Ge6  1  0.351958  0.195505  0.837227  1
  Ge  Ge7  1  0.641723  0.485269  0.837227  1
  Sb  Sb8  1  0.338506  0.483340  0.142896  1
  Sb  Sb9  1  0.659556  0.804389  0.142896  1
  Sb  Sb10  1  0.851696  0.355137  0.206834  1
  Sb  Sb11  1  0.513675  0.163922  0.358867  1
  Sb  Sb12  1  0.194946  0.845193  0.358867  1
  Pt  Pt13  1  0.480879  0.993727  0.983884  1
  Pt  Pt14  1  0.990157  0.503005  0.983884  1
  Pt  Pt15  1  0.000631  0.013492  0.515820  1
  Pt  Pt16  1  0.502328  0.515189  0.515820  1
