# generated using pymatgen
data_SmCoPH2
_symmetry_space_group_name_H-M   'P 1'
_cell_length_a   3.96431200
_cell_length_b   3.96431022
_cell_length_c   8.27261600
_cell_angle_alpha   90.00000000
_cell_angle_beta   90.00000000
_cell_angle_gamma   119.99998147
_symmetry_Int_Tables_number   1
_chemical_formula_structural   SmCoPH2
_chemical_formula_sum   'Sm2 Co2 P2 H4'
_cell_volume   112.59238989
_cell_formula_units_Z   2
loop_
 _symmetry_equiv_pos_site_id
 _symmetry_equiv_pos_as_xyz
  1  'x, y, z'
loop_
 _atom_site_type_symbol
 _atom_site_label
 _atom_site_symmetry_multiplicity
 _atom_site_fract_x
 _atom_site_fract_y
 _atom_site_fract_z
 _atom_site_occupancy
  Sm  Sm0  1  0.000000  0.000000  0.000000  1
  Sm  Sm1  1  0.000000  0.000000  0.500000  1
  Co  Co2  1  0.666667  0.333333  0.250000  1
  Co  Co3  1  0.333333  0.666667  0.750000  1
  P  P4  1  0.333333  0.666667  0.250000  1
  P  P5  1  0.666667  0.333333  0.750000  1
  H  H6  1  0.333333  0.666667  0.942255  1
  H  H7  1  0.666667  0.333333  0.057745  1
  H  H8  1  0.333333  0.666667  0.557745  1
  H  H9  1  0.666667  0.333333  0.442255  1
