# generated using pymatgen
data_Li2MgU2FeO8
_symmetry_space_group_name_H-M   'P 1'
_cell_length_a   5.14628800
_cell_length_b   6.17927310
_cell_length_c   10.75798854
_cell_angle_alpha   90.12525095
_cell_angle_beta   90.00000000
_cell_angle_gamma   90.00000000
_symmetry_Int_Tables_number   1
_chemical_formula_structural   Li2MgU2FeO8
_chemical_formula_sum   'Li4 Mg2 U4 Fe2 O16'
_cell_volume   342.10665013
_cell_formula_units_Z   2
loop_
 _symmetry_equiv_pos_site_id
 _symmetry_equiv_pos_as_xyz
  1  'x, y, z'
loop_
 _atom_site_type_symbol
 _atom_site_label
 _atom_site_symmetry_multiplicity
 _atom_site_fract_x
 _atom_site_fract_y
 _atom_site_fract_z
 _atom_site_occupancy
  Li  Li0  1  0.544749  0.751326  0.920414  1
  Li  Li1  1  0.044749  0.248674  0.579586  1
  Li  Li2  1  0.455251  0.248674  0.079586  1
  Li  Li3  1  0.955251  0.751326  0.420414  1
  Mg  Mg4  1  0.500000  0.000000  0.500000  1
  Mg  Mg5  1  0.000000  0.000000  0.000000  1
  U  U6  1  0.984174  0.750800  0.731956  1
  U  U7  1  0.484174  0.249200  0.768044  1
  U  U8  1  0.015826  0.249200  0.268044  1
  U  U9  1  0.515826  0.750800  0.231956  1
  Fe  Fe10  1  0.500000  0.500000  0.500000  1
  Fe  Fe11  1  0.000000  0.500000  0.000000  1
  O  O12  1  0.184725  0.758936  0.900891  1
  O  O13  1  0.252653  0.252154  0.425938  1
  O  O14  1  0.247347  0.252154  0.925938  1
  O  O15  1  0.752653  0.747846  0.074062  1
  O  O16  1  0.258632  0.010904  0.161690  1
  O  O17  1  0.758632  0.989096  0.338310  1
  O  O18  1  0.734258  0.513664  0.834718  1
  O  O19  1  0.234258  0.486336  0.665282  1
  O  O20  1  0.741368  0.989096  0.838310  1
  O  O21  1  0.241368  0.010904  0.661690  1
  O  O22  1  0.265742  0.486336  0.165282  1
  O  O23  1  0.765742  0.513664  0.334718  1
  O  O24  1  0.815275  0.241064  0.099109  1
  O  O25  1  0.315275  0.758936  0.400891  1
  O  O26  1  0.747347  0.747846  0.574062  1
  O  O27  1  0.684725  0.241064  0.599109  1
