# generated using pymatgen
data_Ba4In13Pd9
_symmetry_space_group_name_H-M   'P 1'
_cell_length_a   12.72735002
_cell_length_b   12.72769727
_cell_length_c   4.53431800
_cell_angle_alpha   90.00000000
_cell_angle_beta   90.00000000
_cell_angle_gamma   120.00092436
_symmetry_Int_Tables_number   1
_chemical_formula_structural   Ba4In13Pd9
_chemical_formula_sum   'Ba4 In13 Pd9'
_cell_volume   636.10145109
_cell_formula_units_Z   1
loop_
 _symmetry_equiv_pos_site_id
 _symmetry_equiv_pos_as_xyz
  1  'x, y, z'
loop_
 _atom_site_type_symbol
 _atom_site_label
 _atom_site_symmetry_multiplicity
 _atom_site_fract_x
 _atom_site_fract_y
 _atom_site_fract_z
 _atom_site_occupancy
  Ba  Ba0  1  0.204238  0.795803  0.500000  1
  Ba  Ba1  1  0.591607  0.795803  0.500000  1
  Ba  Ba2  1  0.204237  0.408434  0.500000  1
  Ba  Ba3  1  0.666564  0.333281  0.000000  1
  In  In4  1  0.951279  0.289054  0.000000  1
  In  In5  1  0.710980  0.662250  0.000000  1
  In  In6  1  0.951280  0.662224  0.000000  1
  In  In7  1  0.337715  0.048706  0.000000  1
  In  In8  1  0.163625  0.081812  0.500000  1
  In  In9  1  0.918194  0.836369  0.500000  1
  In  In10  1  0.710980  0.048730  0.000000  1
  In  In11  1  0.532889  0.065738  0.500000  1
  In  In12  1  0.918195  0.081824  0.500000  1
  In  In13  1  0.337715  0.289008  0.000000  1
  In  In14  1  0.532889  0.467151  0.500000  1
  In  In15  1  0.934257  0.467129  0.500000  1
  In  In16  1  0.333405  0.666703  0.000000  1
  Pd  Pd17  1  0.457596  0.542403  0.000000  1
  Pd  Pd18  1  0.844679  0.922341  0.000000  1
  Pd  Pd19  1  0.457596  0.915192  0.000000  1
  Pd  Pd20  1  0.077635  0.155305  0.000000  1
  Pd  Pd21  1  0.077636  0.922330  0.000000  1
  Pd  Pd22  1  0.792464  0.584925  0.500000  1
  Pd  Pd23  1  0.084869  0.542435  0.000000  1
  Pd  Pd24  1  0.792465  0.207539  0.500000  1
  Pd  Pd25  1  0.415018  0.207508  0.500000  1
