# generated using pymatgen
data_Tb2Pr2BeSi5
_symmetry_space_group_name_H-M   'P 1'
_cell_length_a   3.91419300
_cell_length_b   4.34498433
_cell_length_c   12.41776470
_cell_angle_alpha   100.07576179
_cell_angle_beta   90.00000000
_cell_angle_gamma   90.00000000
_symmetry_Int_Tables_number   1
_chemical_formula_structural   Tb2Pr2BeSi5
_chemical_formula_sum   'Tb2 Pr2 Be1 Si5'
_cell_volume   207.93312753
_cell_formula_units_Z   1
loop_
 _symmetry_equiv_pos_site_id
 _symmetry_equiv_pos_as_xyz
  1  'x, y, z'
loop_
 _atom_site_type_symbol
 _atom_site_label
 _atom_site_symmetry_multiplicity
 _atom_site_fract_x
 _atom_site_fract_y
 _atom_site_fract_z
 _atom_site_occupancy
  Tb  Tb0  1  0.750000  0.702742  0.405485  1
  Tb  Tb1  1  0.250000  0.297385  0.594767  1
  Pr  Pr2  1  0.750000  0.429438  0.858875  1
  Pr  Pr3  1  0.250000  0.571320  0.142640  1
  Be  Be4  1  0.750000  0.022757  0.045514  1
  Si  Si5  1  0.250000  0.980492  0.960982  1
  Si  Si6  1  0.750000  0.114643  0.229288  1
  Si  Si7  1  0.250000  0.882658  0.765315  1
  Si  Si8  1  0.750000  0.823365  0.646730  1
  Si  Si9  1  0.250000  0.175202  0.350402  1
