# generated using pymatgen
data_BaAlCuPt3
_symmetry_space_group_name_H-M   'P 1'
_cell_length_a   5.74598100
_cell_length_b   5.74598254
_cell_length_c   3.98806400
_cell_angle_alpha   90.00000000
_cell_angle_beta   90.00000000
_cell_angle_gamma   119.99999692
_symmetry_Int_Tables_number   1
_chemical_formula_structural   BaAlCuPt3
_chemical_formula_sum   'Ba1 Al1 Cu1 Pt3'
_cell_volume   114.03055856
_cell_formula_units_Z   1
loop_
 _symmetry_equiv_pos_site_id
 _symmetry_equiv_pos_as_xyz
  1  'x, y, z'
loop_
 _atom_site_type_symbol
 _atom_site_label
 _atom_site_symmetry_multiplicity
 _atom_site_fract_x
 _atom_site_fract_y
 _atom_site_fract_z
 _atom_site_occupancy
  Ba  Ba0  1  0.000000  0.000000  0.000000  1
  Al  Al1  1  0.333333  0.666667  0.000000  1
  Cu  Cu2  1  0.666667  0.333333  0.000000  1
  Pt  Pt3  1  0.500527  0.001054  0.500000  1
  Pt  Pt4  1  0.998946  0.499473  0.500000  1
  Pt  Pt5  1  0.500527  0.499473  0.500000  1
