# generated using pymatgen
data_Pr10Sn3Bi3S2
_symmetry_space_group_name_H-M   'P 1'
_cell_length_a   9.54733100
_cell_length_b   9.54733109
_cell_length_c   6.86490600
_cell_angle_alpha   90.00000000
_cell_angle_beta   90.00000000
_cell_angle_gamma   120.00000315
_symmetry_Int_Tables_number   1
_chemical_formula_structural   Pr10Sn3Bi3S2
_chemical_formula_sum   'Pr10 Sn3 Bi3 S2'
_cell_volume   541.91250902
_cell_formula_units_Z   1
loop_
 _symmetry_equiv_pos_site_id
 _symmetry_equiv_pos_as_xyz
  1  'x, y, z'
loop_
 _atom_site_type_symbol
 _atom_site_label
 _atom_site_symmetry_multiplicity
 _atom_site_fract_x
 _atom_site_fract_y
 _atom_site_fract_z
 _atom_site_occupancy
  Pr  Pr0  1  0.666667  0.333333  0.003404  1
  Pr  Pr1  1  0.333333  0.666667  0.003404  1
  Pr  Pr2  1  0.333333  0.666667  0.496596  1
  Pr  Pr3  1  0.666667  0.333333  0.496596  1
  Pr  Pr4  1  0.755555  0.755555  0.750000  1
  Pr  Pr5  1  0.244445  0.000000  0.750000  1
  Pr  Pr6  1  0.000000  0.244445  0.750000  1
  Pr  Pr7  1  0.244699  0.244699  0.250000  1
  Pr  Pr8  1  0.755301  0.000000  0.250000  1
  Pr  Pr9  1  0.000000  0.755301  0.250000  1
  Sn  Sn10  1  0.603753  0.603753  0.250000  1
  Sn  Sn11  1  0.396247  0.000000  0.250000  1
  Sn  Sn12  1  0.000000  0.396247  0.250000  1
  Bi  Bi13  1  0.395992  0.395992  0.750000  1
  Bi  Bi14  1  0.604008  0.000000  0.750000  1
  Bi  Bi15  1  0.000000  0.604008  0.750000  1
  S  S16  1  0.000000  0.000000  0.999380  1
  S  S17  1  0.000000  0.000000  0.500620  1
