# generated using pymatgen
data_Sm3Ti(P3Rh4)2
_symmetry_space_group_name_H-M   'P 1'
_cell_length_a   3.94813500
_cell_length_b   11.25793300
_cell_length_c   12.93568200
_cell_angle_alpha   90.00000000
_cell_angle_beta   90.00000000
_cell_angle_gamma   90.00000000
_symmetry_Int_Tables_number   1
_chemical_formula_structural   Sm3Ti(P3Rh4)2
_chemical_formula_sum   'Sm6 Ti2 P12 Rh16'
_cell_volume   574.96311484
_cell_formula_units_Z   2
loop_
 _symmetry_equiv_pos_site_id
 _symmetry_equiv_pos_as_xyz
  1  'x, y, z'
loop_
 _atom_site_type_symbol
 _atom_site_label
 _atom_site_symmetry_multiplicity
 _atom_site_fract_x
 _atom_site_fract_y
 _atom_site_fract_z
 _atom_site_occupancy
  Sm  Sm0  1  0.000000  0.500000  0.520328  1
  Sm  Sm1  1  0.500000  0.000000  0.479672  1
  Sm  Sm2  1  0.500000  0.818387  0.201727  1
  Sm  Sm3  1  0.500000  0.181613  0.201727  1
  Sm  Sm4  1  0.000000  0.681613  0.798273  1
  Sm  Sm5  1  0.000000  0.318387  0.798273  1
  Ti  Ti6  1  0.500000  0.500000  0.155903  1
  Ti  Ti7  1  0.000000  0.000000  0.844097  1
  P  P8  1  0.500000  0.500000  0.879906  1
  P  P9  1  0.000000  0.000000  0.120094  1
  P  P10  1  0.500000  0.500000  0.347867  1
  P  P11  1  0.000000  0.000000  0.652133  1
  P  P12  1  0.500000  0.311525  0.616185  1
  P  P13  1  0.500000  0.688475  0.616185  1
  P  P14  1  0.000000  0.188475  0.383815  1
  P  P15  1  0.000000  0.811525  0.383815  1
  P  P16  1  0.500000  0.846234  0.889453  1
  P  P17  1  0.500000  0.153766  0.889453  1
  P  P18  1  0.000000  0.653766  0.110547  1
  P  P19  1  0.000000  0.346234  0.110547  1
  Rh  Rh20  1  0.500000  0.500000  0.699793  1
  Rh  Rh21  1  0.000000  0.000000  0.300207  1
  Rh  Rh22  1  0.000000  0.500000  0.986060  1
  Rh  Rh23  1  0.500000  0.000000  0.013940  1
  Rh  Rh24  1  0.500000  0.332165  0.992399  1
  Rh  Rh25  1  0.500000  0.667835  0.992399  1
  Rh  Rh26  1  0.000000  0.167835  0.007601  1
  Rh  Rh27  1  0.000000  0.832165  0.007601  1
  Rh  Rh28  1  0.500000  0.292006  0.431136  1
  Rh  Rh29  1  0.500000  0.707994  0.431136  1
  Rh  Rh30  1  0.000000  0.207994  0.568864  1
  Rh  Rh31  1  0.000000  0.792006  0.568864  1
  Rh  Rh32  1  0.500000  0.875578  0.708411  1
  Rh  Rh33  1  0.500000  0.124422  0.708411  1
  Rh  Rh34  1  0.000000  0.624422  0.291589  1
  Rh  Rh35  1  0.000000  0.375578  0.291589  1
