# generated using pymatgen
data_TbTm5Fe7Co16
_symmetry_space_group_name_H-M   'P 1'
_cell_length_a   8.35704538
_cell_length_b   8.34488723
_cell_length_c   8.34488687
_cell_angle_alpha   60.09641733
_cell_angle_beta   59.95179544
_cell_angle_gamma   59.95179583
_symmetry_Int_Tables_number   1
_chemical_formula_structural   TbTm5Fe7Co16
_chemical_formula_sum   'Tb1 Tm5 Fe7 Co16'
_cell_volume   411.50666155
_cell_formula_units_Z   1
loop_
 _symmetry_equiv_pos_site_id
 _symmetry_equiv_pos_as_xyz
  1  'x, y, z'
loop_
 _atom_site_type_symbol
 _atom_site_label
 _atom_site_symmetry_multiplicity
 _atom_site_fract_x
 _atom_site_fract_y
 _atom_site_fract_z
 _atom_site_occupancy
  Tb  Tb0  1  0.710126  0.289874  0.289874  1
  Tm  Tm1  1  0.288327  0.711673  0.711673  1
  Tm  Tm2  1  0.287276  0.712724  0.288011  1
  Tm  Tm3  1  0.287276  0.288011  0.712724  1
  Tm  Tm4  1  0.711989  0.288011  0.712724  1
  Tm  Tm5  1  0.711989  0.712724  0.288011  1
  Fe  Fe6  1  0.499995  0.000005  0.000005  1
  Fe  Fe7  1  0.999995  0.500005  0.500005  1
  Fe  Fe8  1  0.000789  0.500555  0.999211  1
  Fe  Fe9  1  0.000789  0.999211  0.500555  1
  Fe  Fe10  1  0.499445  0.999211  0.500555  1
  Fe  Fe11  1  0.499445  0.500555  0.999211  1
  Fe  Fe12  1  0.000226  0.999774  0.999774  1
  Co  Co13  1  0.322868  0.323492  0.323492  1
  Co  Co14  1  0.323586  0.323430  0.029399  1
  Co  Co15  1  0.030150  0.323492  0.323492  1
  Co  Co16  1  0.323586  0.029399  0.323430  1
  Co  Co17  1  0.676570  0.676414  0.676414  1
  Co  Co18  1  0.676508  0.677132  0.969850  1
  Co  Co19  1  0.676508  0.969850  0.677132  1
  Co  Co20  1  0.970601  0.676414  0.676414  1
  Co  Co21  1  0.124005  0.122296  0.122296  1
  Co  Co22  1  0.122785  0.122701  0.631729  1
  Co  Co23  1  0.631403  0.122296  0.122296  1
  Co  Co24  1  0.122785  0.631729  0.122701  1
  Co  Co25  1  0.877299  0.877215  0.877215  1
  Co  Co26  1  0.877704  0.875995  0.368597  1
  Co  Co27  1  0.877704  0.368597  0.875995  1
  Co  Co28  1  0.368271  0.877215  0.877215  1
