# generated using pymatgen
data_Y2Ga4CoNi
_symmetry_space_group_name_H-M   'P 1'
_cell_length_a   5.47556799
_cell_length_b   5.47556807
_cell_length_c   6.75013300
_cell_angle_alpha   90.00000000
_cell_angle_beta   90.00000000
_cell_angle_gamma   136.38915758
_symmetry_Int_Tables_number   1
_chemical_formula_structural   Y2Ga4CoNi
_chemical_formula_sum   'Y2 Ga4 Co1 Ni1'
_cell_volume   139.59393017
_cell_formula_units_Z   1
loop_
 _symmetry_equiv_pos_site_id
 _symmetry_equiv_pos_as_xyz
  1  'x, y, z'
loop_
 _atom_site_type_symbol
 _atom_site_label
 _atom_site_symmetry_multiplicity
 _atom_site_fract_x
 _atom_site_fract_y
 _atom_site_fract_z
 _atom_site_occupancy
  Y  Y0  1  0.933646  0.066354  0.750000  1
  Y  Y1  1  0.068078  0.931922  0.250000  1
  Ga  Ga2  1  0.649619  0.350381  0.945725  1
  Ga  Ga3  1  0.649619  0.350381  0.554275  1
  Ga  Ga4  1  0.350110  0.649890  0.054058  1
  Ga  Ga5  1  0.350110  0.649890  0.445942  1
  Co  Co6  1  0.210662  0.789338  0.750000  1
  Ni  Ni7  1  0.788157  0.211843  0.250000  1
