# generated using pymatgen
data_Tc3Te4Cl
_symmetry_space_group_name_H-M   'P 1'
_cell_length_a   12.39914300
_cell_length_b   7.05298851
_cell_length_c   11.71490918
_cell_angle_alpha   66.98830831
_cell_angle_beta   90.00000000
_cell_angle_gamma   90.00000000
_symmetry_Int_Tables_number   1
_chemical_formula_structural   Tc3Te4Cl
_chemical_formula_sum   'Tc12 Te16 Cl4'
_cell_volume   942.95773066
_cell_formula_units_Z   4
loop_
 _symmetry_equiv_pos_site_id
 _symmetry_equiv_pos_as_xyz
  1  'x, y, z'
loop_
 _atom_site_type_symbol
 _atom_site_label
 _atom_site_symmetry_multiplicity
 _atom_site_fract_x
 _atom_site_fract_y
 _atom_site_fract_z
 _atom_site_occupancy
  Tc  Tc0  1  0.581431  0.017474  0.356713  1
  Tc  Tc1  1  0.918569  0.017474  0.856713  1
  Tc  Tc2  1  0.418569  0.982526  0.643287  1
  Tc  Tc3  1  0.081431  0.982526  0.143287  1
  Tc  Tc4  1  0.367155  0.978542  0.421269  1
  Tc  Tc5  1  0.132845  0.978542  0.921269  1
  Tc  Tc6  1  0.632845  0.021458  0.578731  1
  Tc  Tc7  1  0.867155  0.021458  0.078731  1
  Tc  Tc8  1  0.513425  0.711202  0.563565  1
  Tc  Tc9  1  0.986575  0.711202  0.063565  1
  Tc  Tc10  1  0.486575  0.288798  0.436435  1
  Tc  Tc11  1  0.013425  0.288798  0.936435  1
  Te  Te12  1  0.459315  0.719808  0.329482  1
  Te  Te13  1  0.040685  0.719808  0.829482  1
  Te  Te14  1  0.540685  0.280192  0.670518  1
  Te  Te15  1  0.959315  0.280192  0.170518  1
  Te  Te16  1  0.305379  0.666578  0.632293  1
  Te  Te17  1  0.194621  0.666578  0.132293  1
  Te  Te18  1  0.694621  0.333422  0.367707  1
  Te  Te19  1  0.805379  0.333422  0.867707  1
  Te  Te20  1  0.435143  0.287197  0.212626  1
  Te  Te21  1  0.064857  0.287197  0.712626  1
  Te  Te22  1  0.564857  0.712803  0.787374  1
  Te  Te23  1  0.935143  0.712803  0.287374  1
  Te  Te24  1  0.723462  0.743291  0.504709  1
  Te  Te25  1  0.776538  0.743291  0.004709  1
  Te  Te26  1  0.276538  0.256709  0.495291  1
  Te  Te27  1  0.223462  0.256709  0.995291  1
  Cl  Cl28  1  0.179510  0.940264  0.342418  1
  Cl  Cl29  1  0.320490  0.940264  0.842418  1
  Cl  Cl30  1  0.820490  0.059736  0.657582  1
  Cl  Cl31  1  0.679510  0.059736  0.157582  1
