# generated using pymatgen
data_SrHo2(Al3Pd2)3
_symmetry_space_group_name_H-M   'P 1'
_cell_length_a   4.19760700
_cell_length_b   9.50988060
_cell_length_c   9.50919461
_cell_angle_alpha   120.00240868
_cell_angle_beta   90.00000000
_cell_angle_gamma   90.00000000
_symmetry_Int_Tables_number   1
_chemical_formula_structural   SrHo2(Al3Pd2)3
_chemical_formula_sum   'Sr1 Ho2 Al9 Pd6'
_cell_volume   328.73100359
_cell_formula_units_Z   1
loop_
 _symmetry_equiv_pos_site_id
 _symmetry_equiv_pos_as_xyz
  1  'x, y, z'
loop_
 _atom_site_type_symbol
 _atom_site_label
 _atom_site_symmetry_multiplicity
 _atom_site_fract_x
 _atom_site_fract_y
 _atom_site_fract_z
 _atom_site_occupancy
  Sr  Sr0  1  0.000000  0.999984  0.000000  1
  Ho  Ho1  1  0.500000  0.333556  0.667116  1
  Ho  Ho2  1  0.500000  0.666441  0.332884  1
  Al  Al3  1  0.500000  0.309063  0.000000  1
  Al  Al4  1  0.500000  0.690980  0.690999  1
  Al  Al5  1  0.500000  0.999981  0.309001  1
  Al  Al6  1  0.500000  0.690918  0.000000  1
  Al  Al7  1  0.500000  0.309013  0.308999  1
  Al  Al8  1  0.500000  0.000013  0.691001  1
  Al  Al9  1  0.000000  0.499991  0.000000  1
  Al  Al10  1  0.000000  0.500002  0.499998  1
  Al  Al11  1  0.000000  0.000003  0.500002  1
  Pd  Pd12  1  0.000000  0.188513  0.377023  1
  Pd  Pd13  1  0.000000  0.188286  0.811611  1
  Pd  Pd14  1  0.000000  0.623298  0.811604  1
  Pd  Pd15  1  0.000000  0.811490  0.622977  1
  Pd  Pd16  1  0.000000  0.376674  0.188389  1
  Pd  Pd17  1  0.000000  0.811696  0.188396  1
