# generated using pymatgen
data_Hf8Ir3PdO2
_symmetry_space_group_name_H-M   'P 1'
_cell_length_a   8.75597410
_cell_length_b   8.75595738
_cell_length_c   8.75728300
_cell_angle_alpha   59.99498326
_cell_angle_beta   59.99498818
_cell_angle_gamma   60.11400566
_symmetry_Int_Tables_number   1
_chemical_formula_structural   Hf8Ir3PdO2
_chemical_formula_sum   'Hf16 Ir6 Pd2 O4'
_cell_volume   475.11890094
_cell_formula_units_Z   2
loop_
 _symmetry_equiv_pos_site_id
 _symmetry_equiv_pos_as_xyz
  1  'x, y, z'
loop_
 _atom_site_type_symbol
 _atom_site_label
 _atom_site_symmetry_multiplicity
 _atom_site_fract_x
 _atom_site_fract_y
 _atom_site_fract_z
 _atom_site_occupancy
  Hf  Hf0  1  0.125790  0.622146  0.626032  1
  Hf  Hf1  1  0.622146  0.125790  0.626032  1
  Hf  Hf2  1  0.626976  0.626976  0.116954  1
  Hf  Hf3  1  0.626976  0.626976  0.629094  1
  Hf  Hf4  1  0.818251  0.818251  0.181749  1
  Hf  Hf5  1  0.184758  0.184758  0.815242  1
  Hf  Hf6  1  0.815599  0.184234  0.816518  1
  Hf  Hf7  1  0.184234  0.815600  0.183648  1
  Hf  Hf8  1  0.184234  0.815599  0.816518  1
  Hf  Hf9  1  0.815599  0.184234  0.183649  1
  Hf  Hf10  1  0.435152  0.435153  0.064848  1
  Hf  Hf11  1  0.061694  0.061694  0.438306  1
  Hf  Hf12  1  0.435277  0.066667  0.435918  1
  Hf  Hf13  1  0.066667  0.435277  0.062138  1
  Hf  Hf14  1  0.066667  0.435277  0.435918  1
  Hf  Hf15  1  0.435277  0.066667  0.062138  1
  Ir  Ir16  1  0.403578  0.403578  0.790436  1
  Ir  Ir17  1  0.403578  0.403578  0.402407  1
  Ir  Ir18  1  0.463145  0.847853  0.844501  1
  Ir  Ir19  1  0.847853  0.463146  0.844501  1
  Ir  Ir20  1  0.847258  0.847257  0.463725  1
  Ir  Ir21  1  0.847257  0.847257  0.841760  1
  Pd  Pd22  1  0.774694  0.410598  0.407354  1
  Pd  Pd23  1  0.410598  0.774693  0.407354  1
  O  O24  1  0.622977  0.124423  0.126300  1
  O  O25  1  0.124423  0.622977  0.126300  1
  O  O26  1  0.124671  0.124671  0.624310  1
  O  O27  1  0.124671  0.124671  0.126349  1
