# generated using pymatgen
data_Ho5Er3Tc2(OsC4)2
_symmetry_space_group_name_H-M   'P 1'
_cell_length_a   5.07467900
_cell_length_b   6.49729633
_cell_length_c   9.76126906
_cell_angle_alpha   89.69433476
_cell_angle_beta   90.00000000
_cell_angle_gamma   90.00000000
_symmetry_Int_Tables_number   1
_chemical_formula_structural   Ho5Er3Tc2(OsC4)2
_chemical_formula_sum   'Ho5 Er3 Tc2 Os2 C8'
_cell_volume   321.84098905
_cell_formula_units_Z   1
loop_
 _symmetry_equiv_pos_site_id
 _symmetry_equiv_pos_as_xyz
  1  'x, y, z'
loop_
 _atom_site_type_symbol
 _atom_site_label
 _atom_site_symmetry_multiplicity
 _atom_site_fract_x
 _atom_site_fract_y
 _atom_site_fract_z
 _atom_site_occupancy
  Ho  Ho0  1  0.250000  0.178724  0.944196  1
  Ho  Ho1  1  0.250000  0.530650  0.216962  1
  Ho  Ho2  1  0.750000  0.469521  0.783029  1
  Ho  Ho3  1  0.750000  0.971115  0.714820  1
  Ho  Ho4  1  0.250000  0.028662  0.285301  1
  Er  Er5  1  0.250000  0.678972  0.555872  1
  Er  Er6  1  0.750000  0.321163  0.444049  1
  Er  Er7  1  0.750000  0.821958  0.056244  1
  Tc  Tc8  1  0.250000  0.721430  0.866274  1
  Tc  Tc9  1  0.750000  0.278480  0.133883  1
  Os  Os10  1  0.750000  0.777163  0.366064  1
  Os  Os11  1  0.250000  0.222783  0.633753  1
  C  C12  1  0.250000  0.455826  0.757898  1
  C  C13  1  0.750000  0.544403  0.241697  1
  C  C14  1  0.750000  0.043249  0.259138  1
  C  C15  1  0.250000  0.956478  0.740668  1
  C  C16  1  0.250000  0.823833  0.052543  1
  C  C17  1  0.750000  0.175595  0.947717  1
  C  C18  1  0.750000  0.674404  0.552648  1
  C  C19  1  0.250000  0.325592  0.447244  1
