# generated using pymatgen
data_Ca4SiGePd28
_symmetry_space_group_name_H-M   'P 1'
_cell_length_a   8.96741300
_cell_length_b   8.96741300
_cell_length_c   7.09428800
_cell_angle_alpha   90.00000000
_cell_angle_beta   90.00000000
_cell_angle_gamma   90.00000000
_symmetry_Int_Tables_number   1
_chemical_formula_structural   Ca4SiGePd28
_chemical_formula_sum   'Ca4 Si1 Ge1 Pd28'
_cell_volume   570.48359338
_cell_formula_units_Z   1
loop_
 _symmetry_equiv_pos_site_id
 _symmetry_equiv_pos_as_xyz
  1  'x, y, z'
loop_
 _atom_site_type_symbol
 _atom_site_label
 _atom_site_symmetry_multiplicity
 _atom_site_fract_x
 _atom_site_fract_y
 _atom_site_fract_z
 _atom_site_occupancy
  Ca  Ca0  1  0.500000  0.000000  0.938812  1
  Ca  Ca1  1  0.000000  0.500000  0.061091  1
  Ca  Ca2  1  0.000000  0.000000  0.500032  1
  Ca  Ca3  1  0.500000  0.500000  0.500032  1
  Si  Si4  1  0.000000  0.500000  0.551560  1
  Ge  Ge5  1  0.500000  0.000000  0.449566  1
  Pd  Pd6  1  0.329051  0.829051  0.621322  1
  Pd  Pd7  1  0.329051  0.170949  0.621322  1
  Pd  Pd8  1  0.670949  0.829051  0.621322  1
  Pd  Pd9  1  0.670949  0.170949  0.621322  1
  Pd  Pd10  1  0.165601  0.665601  0.382578  1
  Pd  Pd11  1  0.165601  0.334399  0.382578  1
  Pd  Pd12  1  0.834399  0.665601  0.382578  1
  Pd  Pd13  1  0.834399  0.334399  0.382578  1
  Pd  Pd14  1  0.500000  0.765852  0.253381  1
  Pd  Pd15  1  0.500000  0.234148  0.253381  1
  Pd  Pd16  1  0.265852  0.000000  0.253381  1
  Pd  Pd17  1  0.734148  0.000000  0.253381  1
  Pd  Pd18  1  0.000000  0.729451  0.742118  1
  Pd  Pd19  1  0.000000  0.270549  0.742118  1
  Pd  Pd20  1  0.229451  0.500000  0.742118  1
  Pd  Pd21  1  0.770549  0.500000  0.742118  1
  Pd  Pd22  1  0.500000  0.349217  0.857057  1
  Pd  Pd23  1  0.500000  0.650783  0.857057  1
  Pd  Pd24  1  0.849217  0.000000  0.857057  1
  Pd  Pd25  1  0.150783  0.000000  0.857057  1
  Pd  Pd26  1  0.000000  0.151888  0.143250  1
  Pd  Pd27  1  0.000000  0.848112  0.143250  1
  Pd  Pd28  1  0.651888  0.500000  0.143250  1
  Pd  Pd29  1  0.348112  0.500000  0.143250  1
  Pd  Pd30  1  0.249556  0.749556  0.000020  1
  Pd  Pd31  1  0.249556  0.250444  0.000020  1
  Pd  Pd32  1  0.750444  0.749556  0.000020  1
  Pd  Pd33  1  0.750444  0.250444  0.000020  1
