# generated using pymatgen
data_LuHg4S2Cl5
_symmetry_space_group_name_H-M   'P 1'
_cell_length_a   8.27136547
_cell_length_b   10.33262900
_cell_length_c   9.05061330
_cell_angle_alpha   90.00000000
_cell_angle_beta   113.07827717
_cell_angle_gamma   90.00000000
_symmetry_Int_Tables_number   1
_chemical_formula_structural   LuHg4S2Cl5
_chemical_formula_sum   'Lu2 Hg8 S4 Cl10'
_cell_volume   711.60633542
_cell_formula_units_Z   2
loop_
 _symmetry_equiv_pos_site_id
 _symmetry_equiv_pos_as_xyz
  1  'x, y, z'
loop_
 _atom_site_type_symbol
 _atom_site_label
 _atom_site_symmetry_multiplicity
 _atom_site_fract_x
 _atom_site_fract_y
 _atom_site_fract_z
 _atom_site_occupancy
  Lu  Lu0  1  0.500085  0.430474  0.503479  1
  Lu  Lu1  1  0.499915  0.930474  0.496521  1
  Hg  Hg2  1  0.926281  0.182479  0.329476  1
  Hg  Hg3  1  0.073719  0.682479  0.670524  1
  Hg  Hg4  1  0.950845  0.668074  0.356459  1
  Hg  Hg5  1  0.049155  0.168074  0.643541  1
  Hg  Hg6  1  0.496686  0.181800  0.985724  1
  Hg  Hg7  1  0.503314  0.681800  0.014276  1
  Hg  Hg8  1  0.808063  0.432418  0.015330  1
  Hg  Hg9  1  0.191937  0.932418  0.984670  1
  S  S10  1  0.802196  0.197701  0.027734  1
  S  S11  1  0.197804  0.697701  0.972266  1
  S  S12  1  0.191677  0.164831  0.944726  1
  S  S13  1  0.808323  0.664831  0.055274  1
  Cl  Cl14  1  0.828822  0.925209  0.680974  1
  Cl  Cl15  1  0.171178  0.425209  0.319026  1
  Cl  Cl16  1  0.831208  0.437537  0.698687  1
  Cl  Cl17  1  0.168792  0.937537  0.301313  1
  Cl  Cl18  1  0.413141  0.455549  0.750875  1
  Cl  Cl19  1  0.586859  0.955549  0.249125  1
  Cl  Cl20  1  0.591602  0.397711  0.265731  1
  Cl  Cl21  1  0.408398  0.897711  0.734269  1
  Cl  Cl22  1  0.496983  0.179817  0.549252  1
  Cl  Cl23  1  0.503017  0.679817  0.450748  1
