# generated using pymatgen
data_TbY6Co4Tc2Sn23
_symmetry_space_group_name_H-M   'P 1'
_cell_length_a   9.76929423
_cell_length_b   9.76929286
_cell_length_c   10.02387403
_cell_angle_alpha   89.92629404
_cell_angle_beta   90.07370485
_cell_angle_gamma   119.52311689
_symmetry_Int_Tables_number   1
_chemical_formula_structural   TbY6Co4Tc2Sn23
_chemical_formula_sum   'Tb1 Y6 Co4 Tc2 Sn23'
_cell_volume   832.45167231
_cell_formula_units_Z   1
loop_
 _symmetry_equiv_pos_site_id
 _symmetry_equiv_pos_as_xyz
  1  'x, y, z'
loop_
 _atom_site_type_symbol
 _atom_site_label
 _atom_site_symmetry_multiplicity
 _atom_site_fract_x
 _atom_site_fract_y
 _atom_site_fract_z
 _atom_site_occupancy
  Tb  Tb0  1  0.000000  0.000000  0.000000  1
  Y  Y1  1  0.480514  0.519486  0.307058  1
  Y  Y2  1  0.519486  0.480514  0.692942  1
  Y  Y3  1  0.482451  0.960059  0.305385  1
  Y  Y4  1  0.517549  0.039941  0.694615  1
  Y  Y5  1  0.039941  0.517549  0.305385  1
  Y  Y6  1  0.960059  0.482451  0.694615  1
  Co  Co7  1  0.829852  0.660052  0.198010  1
  Co  Co8  1  0.170148  0.339948  0.801990  1
  Co  Co9  1  0.339948  0.170148  0.198010  1
  Co  Co10  1  0.660052  0.829852  0.801990  1
  Tc  Tc11  1  0.835019  0.164981  0.202675  1
  Tc  Tc12  1  0.164981  0.835019  0.797325  1
  Sn  Sn13  1  0.347452  0.001090  0.004154  1
  Sn  Sn14  1  0.652548  0.998910  0.995846  1
  Sn  Sn15  1  0.001090  0.347452  0.995846  1
  Sn  Sn16  1  0.998910  0.652548  0.004154  1
  Sn  Sn17  1  0.651748  0.651748  0.000000  1
  Sn  Sn18  1  0.348252  0.348252  0.000000  1
  Sn  Sn19  1  0.333517  0.666483  0.816620  1
  Sn  Sn20  1  0.666483  0.333517  0.183380  1
  Sn  Sn21  1  0.000000  0.000000  0.500000  1
  Sn  Sn22  1  0.780226  0.219774  0.460041  1
  Sn  Sn23  1  0.219774  0.780226  0.539959  1
  Sn  Sn24  1  0.782412  0.565116  0.452549  1
  Sn  Sn25  1  0.217588  0.434884  0.547451  1
  Sn  Sn26  1  0.434884  0.217588  0.452549  1
  Sn  Sn27  1  0.565116  0.782412  0.547451  1
  Sn  Sn28  1  0.333329  0.666671  0.118865  1
  Sn  Sn29  1  0.666671  0.333329  0.881135  1
  Sn  Sn30  1  0.116900  0.883100  0.272869  1
  Sn  Sn31  1  0.883100  0.116900  0.727131  1
  Sn  Sn32  1  0.127955  0.238420  0.270255  1
  Sn  Sn33  1  0.872045  0.761580  0.729745  1
  Sn  Sn34  1  0.761580  0.872045  0.270255  1
  Sn  Sn35  1  0.238420  0.127955  0.729745  1
