# generated using pymatgen
data_YHo2Sn3Ir2Ru
_symmetry_space_group_name_H-M   'P 1'
_cell_length_a   7.59685973
_cell_length_b   7.59685883
_cell_length_c   3.83275600
_cell_angle_alpha   90.00000000
_cell_angle_beta   90.00000000
_cell_angle_gamma   120.38881333
_symmetry_Int_Tables_number   1
_chemical_formula_structural   YHo2Sn3Ir2Ru
_chemical_formula_sum   'Y1 Ho2 Sn3 Ir2 Ru1'
_cell_volume   190.80733235
_cell_formula_units_Z   1
loop_
 _symmetry_equiv_pos_site_id
 _symmetry_equiv_pos_as_xyz
  1  'x, y, z'
loop_
 _atom_site_type_symbol
 _atom_site_label
 _atom_site_symmetry_multiplicity
 _atom_site_fract_x
 _atom_site_fract_y
 _atom_site_fract_z
 _atom_site_occupancy
  Y  Y0  1  0.406702  0.406702  0.500000  1
  Ho  Ho1  1  0.593086  0.000021  0.500000  1
  Ho  Ho2  1  0.000021  0.593086  0.500000  1
  Sn  Sn3  1  0.738952  0.738952  0.000000  1
  Sn  Sn4  1  0.260351  0.000181  0.000000  1
  Sn  Sn5  1  0.000181  0.260351  0.000000  1
  Ir  Ir6  1  0.669951  0.332553  0.000000  1
  Ir  Ir7  1  0.332553  0.669951  0.000000  1
  Ru  Ru8  1  0.998202  0.998202  0.500000  1
