# generated using pymatgen
data_Nd2Cu(SeO3)4
_symmetry_space_group_name_H-M   'P 1'
_cell_length_a   7.11496600
_cell_length_b   8.30503313
_cell_length_c   10.87224852
_cell_angle_alpha   70.29093181
_cell_angle_beta   90.00000000
_cell_angle_gamma   90.00000000
_symmetry_Int_Tables_number   1
_chemical_formula_structural   Nd2Cu(SeO3)4
_chemical_formula_sum   'Nd4 Cu2 Se8 O24'
_cell_volume   604.80544090
_cell_formula_units_Z   2
loop_
 _symmetry_equiv_pos_site_id
 _symmetry_equiv_pos_as_xyz
  1  'x, y, z'
loop_
 _atom_site_type_symbol
 _atom_site_label
 _atom_site_symmetry_multiplicity
 _atom_site_fract_x
 _atom_site_fract_y
 _atom_site_fract_z
 _atom_site_occupancy
  Nd  Nd0  1  0.841747  0.741774  0.410698  1
  Nd  Nd1  1  0.341747  0.758226  0.589302  1
  Nd  Nd2  1  0.158253  0.258226  0.589302  1
  Nd  Nd3  1  0.658253  0.241774  0.410698  1
  Cu  Cu4  1  0.000000  0.000000  0.000000  1
  Cu  Cu5  1  0.500000  0.500000  0.000000  1
  Se  Se6  1  0.825223  0.864235  0.682001  1
  Se  Se7  1  0.163126  0.376692  0.869263  1
  Se  Se8  1  0.674777  0.364235  0.682001  1
  Se  Se9  1  0.336874  0.876692  0.869263  1
  Se  Se10  1  0.325223  0.635765  0.317999  1
  Se  Se11  1  0.174777  0.135765  0.317999  1
  Se  Se12  1  0.836874  0.623308  0.130737  1
  Se  Se13  1  0.663126  0.123308  0.130737  1
  O  O14  1  0.715744  0.030314  0.294238  1
  O  O15  1  0.840894  0.410690  0.554588  1
  O  O16  1  0.159106  0.589310  0.445412  1
  O  O17  1  0.502963  0.287393  0.602383  1
  O  O18  1  0.215744  0.469686  0.705762  1
  O  O19  1  0.784256  0.530314  0.294238  1
  O  O20  1  0.659106  0.910690  0.554588  1
  O  O21  1  0.885844  0.821540  0.148798  1
  O  O22  1  0.114542  0.930649  0.335906  1
  O  O23  1  0.284256  0.969686  0.705762  1
  O  O24  1  0.122720  0.824716  0.948584  1
  O  O25  1  0.377280  0.324716  0.948584  1
  O  O26  1  0.885458  0.069351  0.664094  1
  O  O27  1  0.114156  0.178460  0.851202  1
  O  O28  1  0.385844  0.678460  0.851202  1
  O  O29  1  0.340894  0.089310  0.445412  1
  O  O30  1  0.614156  0.321540  0.148798  1
  O  O31  1  0.497037  0.712607  0.397617  1
  O  O32  1  0.002963  0.212607  0.397617  1
  O  O33  1  0.997037  0.787393  0.602383  1
  O  O34  1  0.614542  0.569351  0.664094  1
  O  O35  1  0.622720  0.675284  0.051416  1
  O  O36  1  0.877280  0.175284  0.051416  1
  O  O37  1  0.385458  0.430649  0.335906  1
