# generated using pymatgen
data_HoErNp2(NiAs)4
_symmetry_space_group_name_H-M   'P 1'
_cell_length_a   4.06678500
_cell_length_b   4.06678428
_cell_length_c   15.20987300
_cell_angle_alpha   90.00000000
_cell_angle_beta   90.00000000
_cell_angle_gamma   120.00001400
_symmetry_Int_Tables_number   1
_chemical_formula_structural   HoErNp2(NiAs)4
_chemical_formula_sum   'Ho1 Er1 Np2 Ni4 As4'
_cell_volume   217.85047300
_cell_formula_units_Z   1
loop_
 _symmetry_equiv_pos_site_id
 _symmetry_equiv_pos_as_xyz
  1  'x, y, z'
loop_
 _atom_site_type_symbol
 _atom_site_label
 _atom_site_symmetry_multiplicity
 _atom_site_fract_x
 _atom_site_fract_y
 _atom_site_fract_z
 _atom_site_occupancy
  Ho  Ho0  1  0.000000  0.000000  0.250000  1
  Er  Er1  1  0.000000  0.000000  0.750000  1
  Np  Np2  1  0.000000  0.000000  0.999999  1
  Np  Np3  1  0.000000  0.000000  0.500001  1
  Ni  Ni4  1  0.333333  0.666667  0.136862  1
  Ni  Ni5  1  0.666667  0.333333  0.863135  1
  Ni  Ni6  1  0.666667  0.333333  0.636865  1
  Ni  Ni7  1  0.333333  0.666667  0.363138  1
  As  As8  1  0.333333  0.666667  0.620323  1
  As  As9  1  0.666667  0.333333  0.379679  1
  As  As10  1  0.666667  0.333333  0.120321  1
  As  As11  1  0.333333  0.666667  0.879677  1
