# generated using pymatgen
data_Er6TiAl23(CoRu3)2
_symmetry_space_group_name_H-M   'P 1'
_cell_length_a   8.77901400
_cell_length_b   8.77901474
_cell_length_c   9.50813100
_cell_angle_alpha   90.00000000
_cell_angle_beta   90.00000000
_cell_angle_gamma   119.99999721
_symmetry_Int_Tables_number   1
_chemical_formula_structural   Er6TiAl23(CoRu3)2
_chemical_formula_sum   'Er6 Ti1 Al23 Co2 Ru6'
_cell_volume   634.62521048
_cell_formula_units_Z   1
loop_
 _symmetry_equiv_pos_site_id
 _symmetry_equiv_pos_as_xyz
  1  'x, y, z'
loop_
 _atom_site_type_symbol
 _atom_site_label
 _atom_site_symmetry_multiplicity
 _atom_site_fract_x
 _atom_site_fract_y
 _atom_site_fract_z
 _atom_site_occupancy
  Er  Er0  1  0.195125  0.390250  0.250153  1
  Er  Er1  1  0.805443  0.610884  0.749167  1
  Er  Er2  1  0.609750  0.804875  0.250153  1
  Er  Er3  1  0.389116  0.194557  0.749167  1
  Er  Er4  1  0.195125  0.804875  0.250153  1
  Er  Er5  1  0.805443  0.194557  0.749167  1
  Ti  Ti6  1  0.333333  0.666667  0.995939  1
  Al  Al7  1  0.666667  0.333333  0.982631  1
  Al  Al8  1  0.666667  0.333333  0.518395  1
  Al  Al9  1  0.333333  0.666667  0.481350  1
  Al  Al10  1  0.159290  0.318578  0.575617  1
  Al  Al11  1  0.840292  0.680584  0.423895  1
  Al  Al12  1  0.681422  0.840710  0.575617  1
  Al  Al13  1  0.840307  0.680616  0.078071  1
  Al  Al14  1  0.319416  0.159708  0.423895  1
  Al  Al15  1  0.156086  0.312171  0.924107  1
  Al  Al16  1  0.159290  0.840710  0.575617  1
  Al  Al17  1  0.319384  0.159693  0.078071  1
  Al  Al18  1  0.840292  0.159708  0.423895  1
  Al  Al19  1  0.687829  0.843914  0.924107  1
  Al  Al20  1  0.840307  0.159693  0.078071  1
  Al  Al21  1  0.156086  0.843914  0.924107  1
  Al  Al22  1  0.561680  0.123361  0.252302  1
  Al  Al23  1  0.439927  0.879852  0.749617  1
  Al  Al24  1  0.876639  0.438320  0.252302  1
  Al  Al25  1  0.120148  0.560073  0.749617  1
  Al  Al26  1  0.561680  0.438320  0.252302  1
  Al  Al27  1  0.439927  0.560073  0.749617  1
  Al  Al28  1  0.000000  0.000000  0.249839  1
  Al  Al29  1  0.000000  0.000000  0.749032  1
  Co  Co30  1  0.000000  0.000000  0.000368  1
  Co  Co31  1  0.000000  0.000000  0.498626  1
  Ru  Ru32  1  0.497996  0.995991  0.002437  1
  Ru  Ru33  1  0.004009  0.502004  0.002437  1
  Ru  Ru34  1  0.499836  0.999672  0.502575  1
  Ru  Ru35  1  0.497996  0.502004  0.002437  1
  Ru  Ru36  1  0.000328  0.500164  0.502575  1
  Ru  Ru37  1  0.499836  0.500164  0.502575  1
