# generated using pymatgen
data_YHo2In3Ag2Rh
_symmetry_space_group_name_H-M   'P 1'
_cell_length_a   7.77474944
_cell_length_b   7.75788187
_cell_length_c   3.93795100
_cell_angle_alpha   90.00000000
_cell_angle_beta   90.00000000
_cell_angle_gamma   119.98105242
_symmetry_Int_Tables_number   1
_chemical_formula_structural   YHo2In3Ag2Rh
_chemical_formula_sum   'Y1 Ho2 In3 Ag2 Rh1'
_cell_volume   205.73746814
_cell_formula_units_Z   1
loop_
 _symmetry_equiv_pos_site_id
 _symmetry_equiv_pos_as_xyz
  1  'x, y, z'
loop_
 _atom_site_type_symbol
 _atom_site_label
 _atom_site_symmetry_multiplicity
 _atom_site_fract_x
 _atom_site_fract_y
 _atom_site_fract_z
 _atom_site_occupancy
  Y  Y0  1  0.974510  0.396859  0.500000  1
  Ho  Ho1  1  0.603520  0.576721  0.500000  1
  Ho  Ho2  1  0.423191  0.026845  0.500000  1
  In  In3  1  0.264029  0.263517  0.000000  1
  In  In4  1  0.999731  0.736538  0.000000  1
  In  In5  1  0.736189  0.999835  0.000000  1
  Ag  Ag6  1  0.334306  0.667392  0.000000  1
  Ag  Ag7  1  0.000060  0.999512  0.500000  1
  Rh  Rh8  1  0.664465  0.332781  0.000000  1
