# generated using pymatgen
data_Li8HoTm7Sn5Sb3
_symmetry_space_group_name_H-M   'P 1'
_cell_length_a   9.33842500
_cell_length_b   9.33842501
_cell_length_c   7.08234300
_cell_angle_alpha   90.00000000
_cell_angle_beta   90.00000000
_cell_angle_gamma   120.00000352
_symmetry_Int_Tables_number   1
_chemical_formula_structural   Li8HoTm7Sn5Sb3
_chemical_formula_sum   'Li8 Ho1 Tm7 Sn5 Sb3'
_cell_volume   534.87813243
_cell_formula_units_Z   1
loop_
 _symmetry_equiv_pos_site_id
 _symmetry_equiv_pos_as_xyz
  1  'x, y, z'
loop_
 _atom_site_type_symbol
 _atom_site_label
 _atom_site_symmetry_multiplicity
 _atom_site_fract_x
 _atom_site_fract_y
 _atom_site_fract_z
 _atom_site_occupancy
  Li  Li0  1  0.166499  0.332999  0.284290  1
  Li  Li1  1  0.166499  0.833501  0.284290  1
  Li  Li2  1  0.667001  0.833501  0.284290  1
  Li  Li3  1  0.833116  0.666230  0.785958  1
  Li  Li4  1  0.833116  0.166884  0.785958  1
  Li  Li5  1  0.333770  0.166884  0.785958  1
  Li  Li6  1  0.333333  0.666667  0.675732  1
  Li  Li7  1  0.666667  0.333333  0.179246  1
  Ho  Ho8  1  0.000000  0.000000  0.004473  1
  Tm  Tm9  1  0.512485  0.024969  0.490456  1
  Tm  Tm10  1  0.512485  0.487515  0.490456  1
  Tm  Tm11  1  0.975031  0.487515  0.490456  1
  Tm  Tm12  1  0.489536  0.979074  0.996331  1
  Tm  Tm13  1  0.489536  0.510464  0.996331  1
  Tm  Tm14  1  0.020926  0.510464  0.996331  1
  Tm  Tm15  1  0.000000  0.000000  0.497479  1
  Sn  Sn16  1  0.832948  0.665895  0.232180  1
  Sn  Sn17  1  0.832948  0.167052  0.232180  1
  Sn  Sn18  1  0.334105  0.167052  0.232180  1
  Sn  Sn19  1  0.333333  0.666667  0.259509  1
  Sn  Sn20  1  0.666667  0.333333  0.759492  1
  Sb  Sb21  1  0.166871  0.333743  0.732798  1
  Sb  Sb22  1  0.166871  0.833129  0.732798  1
  Sb  Sb23  1  0.666257  0.833129  0.732798  1
