# generated using pymatgen
data_Tm12Zn2Ni3Os
_symmetry_space_group_name_H-M   'P 1'
_cell_length_a   8.20366342
_cell_length_b   8.20366350
_cell_length_c   8.20366248
_cell_angle_alpha   105.95895193
_cell_angle_beta   110.26393968
_cell_angle_gamma   112.25356109
_symmetry_Int_Tables_number   1
_chemical_formula_structural   Tm12Zn2Ni3Os
_chemical_formula_sum   'Tm12 Zn2 Ni3 Os1'
_cell_volume   423.68742137
_cell_formula_units_Z   1
loop_
 _symmetry_equiv_pos_site_id
 _symmetry_equiv_pos_as_xyz
  1  'x, y, z'
loop_
 _atom_site_type_symbol
 _atom_site_label
 _atom_site_symmetry_multiplicity
 _atom_site_fract_x
 _atom_site_fract_y
 _atom_site_fract_z
 _atom_site_occupancy
  Tm  Tm0  1  0.691743  0.254242  0.945985  1
  Tm  Tm1  1  0.306894  0.737185  0.044079  1
  Tm  Tm2  1  0.691743  0.745758  0.437501  1
  Tm  Tm3  1  0.306894  0.262815  0.569709  1
  Tm  Tm4  1  0.807427  0.135187  0.324703  1
  Tm  Tm5  1  0.807427  0.482724  0.672240  1
  Tm  Tm6  1  0.189516  0.864813  0.672240  1
  Tm  Tm7  1  0.189516  0.517276  0.324703  1
  Tm  Tm8  1  0.600799  0.778089  0.822711  1
  Tm  Tm9  1  0.960784  0.776822  0.183962  1
  Tm  Tm10  1  0.044622  0.221911  0.822711  1
  Tm  Tm11  1  0.407141  0.223178  0.183962  1
  Zn  Zn12  1  0.508763  0.500000  0.008763  1
  Zn  Zn13  1  0.494877  0.000000  0.494877  1
  Ni  Ni14  1  0.157997  0.500000  0.657997  1
  Ni  Ni15  1  0.000345  0.118530  0.118874  1
  Ni  Ni16  1  0.000345  0.881470  0.881815  1
  Os  Os17  1  0.833167  0.500000  0.333167  1
