# generated using pymatgen
data_Tb6Co14Tc(NiP4)3
_symmetry_space_group_name_H-M   'P 1'
_cell_length_a   3.73118700
_cell_length_b   10.50372800
_cell_length_c   12.25106800
_cell_angle_alpha   90.00000000
_cell_angle_beta   90.00000000
_cell_angle_gamma   90.00000000
_symmetry_Int_Tables_number   1
_chemical_formula_structural   Tb6Co14Tc(NiP4)3
_chemical_formula_sum   'Tb6 Co14 Tc1 Ni3 P12'
_cell_volume   480.13618011
_cell_formula_units_Z   1
loop_
 _symmetry_equiv_pos_site_id
 _symmetry_equiv_pos_as_xyz
  1  'x, y, z'
loop_
 _atom_site_type_symbol
 _atom_site_label
 _atom_site_symmetry_multiplicity
 _atom_site_fract_x
 _atom_site_fract_y
 _atom_site_fract_z
 _atom_site_occupancy
  Tb  Tb0  1  0.000000  0.500000  0.522913  1
  Tb  Tb1  1  0.500000  0.000000  0.478654  1
  Tb  Tb2  1  0.500000  0.815464  0.206495  1
  Tb  Tb3  1  0.500000  0.184536  0.206495  1
  Tb  Tb4  1  0.000000  0.683946  0.795147  1
  Tb  Tb5  1  0.000000  0.316054  0.795147  1
  Co  Co6  1  0.000000  0.500000  0.987706  1
  Co  Co7  1  0.500000  0.000000  0.016038  1
  Co  Co8  1  0.500000  0.332393  0.992021  1
  Co  Co9  1  0.500000  0.667607  0.992021  1
  Co  Co10  1  0.000000  0.166148  0.005008  1
  Co  Co11  1  0.000000  0.833852  0.005008  1
  Co  Co12  1  0.500000  0.298521  0.430298  1
  Co  Co13  1  0.500000  0.701479  0.430298  1
  Co  Co14  1  0.000000  0.201893  0.569170  1
  Co  Co15  1  0.000000  0.798107  0.569170  1
  Co  Co16  1  0.500000  0.880013  0.710427  1
  Co  Co17  1  0.500000  0.119987  0.710427  1
  Co  Co18  1  0.000000  0.620392  0.291070  1
  Co  Co19  1  0.000000  0.379608  0.291070  1
  Tc  Tc20  1  0.500000  0.500000  0.156544  1
  Ni  Ni21  1  0.000000  0.000000  0.838388  1
  Ni  Ni22  1  0.500000  0.500000  0.702867  1
  Ni  Ni23  1  0.000000  0.000000  0.296134  1
  P  P24  1  0.500000  0.500000  0.882504  1
  P  P25  1  0.000000  0.000000  0.116476  1
  P  P26  1  0.500000  0.500000  0.348174  1
  P  P27  1  0.000000  0.000000  0.653788  1
  P  P28  1  0.500000  0.309667  0.615599  1
  P  P29  1  0.500000  0.690333  0.615599  1
  P  P30  1  0.000000  0.190108  0.385180  1
  P  P31  1  0.000000  0.809892  0.385180  1
  P  P32  1  0.500000  0.848558  0.893832  1
  P  P33  1  0.500000  0.151442  0.893832  1
  P  P34  1  0.000000  0.655250  0.105662  1
  P  P35  1  0.000000  0.344750  0.105662  1
