# generated using pymatgen
data_La7ThZn8Ir5Rh3
_symmetry_space_group_name_H-M   'P 1'
_cell_length_a   4.04360700
_cell_length_b   7.49784769
_cell_length_c   16.73804338
_cell_angle_alpha   89.90568344
_cell_angle_beta   90.00000000
_cell_angle_gamma   90.00000000
_symmetry_Int_Tables_number   1
_chemical_formula_structural   La7ThZn8Ir5Rh3
_chemical_formula_sum   'La7 Th1 Zn8 Ir5 Rh3'
_cell_volume   507.46915994
_cell_formula_units_Z   1
loop_
 _symmetry_equiv_pos_site_id
 _symmetry_equiv_pos_as_xyz
  1  'x, y, z'
loop_
 _atom_site_type_symbol
 _atom_site_label
 _atom_site_symmetry_multiplicity
 _atom_site_fract_x
 _atom_site_fract_y
 _atom_site_fract_z
 _atom_site_occupancy
  La  La0  1  0.250000  0.052185  0.717300  1
  La  La1  1  0.250000  0.549870  0.783580  1
  La  La2  1  0.250000  0.671471  0.561453  1
  La  La3  1  0.750000  0.828005  0.059486  1
  La  La4  1  0.250000  0.172631  0.939178  1
  La  La5  1  0.750000  0.450986  0.215702  1
  La  La6  1  0.750000  0.948613  0.283799  1
  Th  Th7  1  0.750000  0.327345  0.440778  1
  Zn  Zn8  1  0.250000  0.122236  0.149193  1
  Zn  Zn9  1  0.250000  0.991724  0.439638  1
  Zn  Zn10  1  0.750000  0.877315  0.850860  1
  Zn  Zn11  1  0.750000  0.000502  0.558730  1
  Zn  Zn12  1  0.250000  0.499635  0.058688  1
  Zn  Zn13  1  0.750000  0.375534  0.649026  1
  Zn  Zn14  1  0.750000  0.503537  0.940638  1
  Zn  Zn15  1  0.250000  0.619853  0.349540  1
  Ir  Ir16  1  0.750000  0.258793  0.812916  1
  Ir  Ir17  1  0.250000  0.248383  0.321714  1
  Ir  Ir18  1  0.250000  0.742964  0.933692  1
  Ir  Ir19  1  0.250000  0.246759  0.559997  1
  Ir  Ir20  1  0.250000  0.746416  0.186677  1
  Rh  Rh21  1  0.750000  0.746056  0.436375  1
  Rh  Rh22  1  0.750000  0.260420  0.065965  1
  Rh  Rh23  1  0.750000  0.758766  0.685075  1
