# generated using pymatgen
data_Ce5Fe3(P3Ru4)4
_symmetry_space_group_name_H-M   'P 1'
_cell_length_a   12.57795500
_cell_length_b   12.57795513
_cell_length_c   3.89920500
_cell_angle_alpha   90.00000000
_cell_angle_beta   90.00000000
_cell_angle_gamma   119.99999702
_symmetry_Int_Tables_number   1
_chemical_formula_structural   Ce5Fe3(P3Ru4)4
_chemical_formula_sum   'Ce5 Fe3 P12 Ru16'
_cell_volume   534.22817808
_cell_formula_units_Z   1
loop_
 _symmetry_equiv_pos_site_id
 _symmetry_equiv_pos_as_xyz
  1  'x, y, z'
loop_
 _atom_site_type_symbol
 _atom_site_label
 _atom_site_symmetry_multiplicity
 _atom_site_fract_x
 _atom_site_fract_y
 _atom_site_fract_z
 _atom_site_occupancy
  Ce  Ce0  1  0.183125  0.183125  0.500000  1
  Ce  Ce1  1  0.816875  0.000000  0.500000  1
  Ce  Ce2  1  0.000000  0.816875  0.500000  1
  Ce  Ce3  1  0.333333  0.666667  0.000000  1
  Ce  Ce4  1  0.666667  0.333333  0.000000  1
  Fe  Fe5  1  0.716779  0.716779  0.500000  1
  Fe  Fe6  1  0.283221  0.000000  0.500000  1
  Fe  Fe7  1  0.000000  0.283221  0.500000  1
  P  P8  1  0.811438  0.811438  0.000000  1
  P  P9  1  0.188562  0.000000  0.000000  1
  P  P10  1  0.000000  0.188562  0.000000  1
  P  P11  1  0.162250  0.470987  0.500000  1
  P  P12  1  0.529013  0.691263  0.500000  1
  P  P13  1  0.308737  0.837750  0.500000  1
  P  P14  1  0.691263  0.529013  0.500000  1
  P  P15  1  0.837750  0.308737  0.500000  1
  P  P16  1  0.470987  0.162250  0.500000  1
  P  P17  1  0.375046  0.375046  0.000000  1
  P  P18  1  0.624954  0.000000  0.000000  1
  P  P19  1  0.000000  0.624954  0.000000  1
  Ru  Ru20  1  0.558347  0.558347  0.000000  1
  Ru  Ru21  1  0.441653  0.000000  0.000000  1
  Ru  Ru22  1  0.000000  0.441653  0.000000  1
  Ru  Ru23  1  0.181480  0.374574  0.000000  1
  Ru  Ru24  1  0.625426  0.806906  0.000000  1
  Ru  Ru25  1  0.193094  0.818520  0.000000  1
  Ru  Ru26  1  0.806906  0.625426  0.000000  1
  Ru  Ru27  1  0.818520  0.193094  0.000000  1
  Ru  Ru28  1  0.374574  0.181480  0.000000  1
  Ru  Ru29  1  0.364419  0.491195  0.500000  1
  Ru  Ru30  1  0.508805  0.873224  0.500000  1
  Ru  Ru31  1  0.126776  0.635581  0.500000  1
  Ru  Ru32  1  0.873224  0.508805  0.500000  1
  Ru  Ru33  1  0.635581  0.126776  0.500000  1
  Ru  Ru34  1  0.491195  0.364419  0.500000  1
  Ru  Ru35  1  0.000000  0.000000  0.000000  1
