# generated using pymatgen
data_Tb7TmHf11Si16Os
_symmetry_space_group_name_H-M   'P 1'
_cell_length_a   7.25505667
_cell_length_b   7.25476577
_cell_length_c   13.27090175
_cell_angle_alpha   89.90309379
_cell_angle_beta   90.14955336
_cell_angle_gamma   90.01640473
_symmetry_Int_Tables_number   1
_chemical_formula_structural   Tb7TmHf11Si16Os
_chemical_formula_sum   'Tb7 Tm1 Hf11 Si16 Os1'
_cell_volume   698.49374317
_cell_formula_units_Z   1
loop_
 _symmetry_equiv_pos_site_id
 _symmetry_equiv_pos_as_xyz
  1  'x, y, z'
loop_
 _atom_site_type_symbol
 _atom_site_label
 _atom_site_symmetry_multiplicity
 _atom_site_fract_x
 _atom_site_fract_y
 _atom_site_fract_z
 _atom_site_occupancy
  Tb  Tb0  1  0.005451  0.654475  0.717359  1
  Tb  Tb1  1  0.155405  0.494235  0.464853  1
  Tb  Tb2  1  0.502052  0.846686  0.032833  1
  Tb  Tb3  1  0.846621  0.501797  0.967599  1
  Tb  Tb4  1  0.494293  0.155793  0.534729  1
  Tb  Tb5  1  0.343866  0.998492  0.788326  1
  Tb  Tb6  1  0.654906  0.005746  0.282534  1
  Tm  Tm7  1  0.999614  0.344423  0.211535  1
  Hf  Hf8  1  0.824843  0.824486  0.499756  1
  Hf  Hf9  1  0.323618  0.674572  0.247831  1
  Hf  Hf10  1  0.675192  0.324234  0.752131  1
  Hf  Hf11  1  0.146276  0.997921  0.371420  1
  Hf  Hf12  1  0.853194  0.004549  0.878862  1
  Hf  Hf13  1  0.502934  0.647179  0.625260  1
  Hf  Hf14  1  0.351556  0.496678  0.877382  1
  Hf  Hf15  1  0.496885  0.351695  0.122982  1
  Hf  Hf16  1  0.647314  0.502310  0.374247  1
  Hf  Hf17  1  0.997837  0.147092  0.628078  1
  Hf  Hf18  1  0.004327  0.853498  0.121523  1
  Si  Si19  1  0.358801  0.295919  0.314682  1
  Si  Si20  1  0.639216  0.705003  0.818253  1
  Si  Si21  1  0.205355  0.861494  0.566672  1
  Si  Si22  1  0.136381  0.793757  0.931152  1
  Si  Si23  1  0.795401  0.137898  0.069733  1
  Si  Si24  1  0.861446  0.205607  0.432988  1
  Si  Si25  1  0.295529  0.360295  0.684938  1
  Si  Si26  1  0.705967  0.638342  0.181667  1
  Si  Si27  1  0.291887  0.055432  0.180087  1
  Si  Si28  1  0.704318  0.950264  0.686169  1
  Si  Si29  1  0.449136  0.796153  0.434663  1
  Si  Si30  1  0.205683  0.546569  0.064826  1
  Si  Si31  1  0.548250  0.206753  0.935728  1
  Si  Si32  1  0.796204  0.449136  0.565140  1
  Si  Si33  1  0.054531  0.292660  0.819908  1
  Si  Si34  1  0.950677  0.702855  0.313356  1
  Os  Os35  1  0.175039  0.176007  0.000795  1
