# generated using pymatgen
data_Sr6Mn(CoO4)3
_symmetry_space_group_name_H-M   'P 1'
_cell_length_a   6.64785022
_cell_length_b   6.63927055
_cell_length_c   6.66870343
_cell_angle_alpha   92.95190635
_cell_angle_beta   92.84177230
_cell_angle_gamma   92.94458242
_symmetry_Int_Tables_number   1
_chemical_formula_structural   Sr6Mn(CoO4)3
_chemical_formula_sum   'Sr6 Mn1 Co3 O12'
_cell_volume   293.15437900
_cell_formula_units_Z   1
loop_
 _symmetry_equiv_pos_site_id
 _symmetry_equiv_pos_as_xyz
  1  'x, y, z'
loop_
 _atom_site_type_symbol
 _atom_site_label
 _atom_site_symmetry_multiplicity
 _atom_site_fract_x
 _atom_site_fract_y
 _atom_site_fract_z
 _atom_site_occupancy
  Sr  Sr0  1  0.886827  0.253230  0.612497  1
  Sr  Sr1  1  0.251637  0.612953  0.886156  1
  Sr  Sr2  1  0.612006  0.884831  0.250877  1
  Sr  Sr3  1  0.748725  0.387645  0.113008  1
  Sr  Sr4  1  0.387375  0.115113  0.746996  1
  Sr  Sr5  1  0.113745  0.749222  0.387855  1
  Mn  Mn6  1  0.999221  0.999021  0.001167  1
  Co  Co7  1  0.746235  0.750880  0.749389  1
  Co  Co8  1  0.500818  0.498488  0.500390  1
  Co  Co9  1  0.253574  0.256604  0.244031  1
  O  O10  1  0.226827  0.413275  0.541239  1
  O  O11  1  0.409488  0.536474  0.222552  1
  O  O12  1  0.540976  0.224710  0.415164  1
  O  O13  1  0.912643  0.721993  0.044424  1
  O  O14  1  0.719746  0.038281  0.912599  1
  O  O15  1  0.039805  0.907720  0.722900  1
  O  O16  1  0.774587  0.584314  0.458705  1
  O  O17  1  0.590467  0.461334  0.777148  1
  O  O18  1  0.461137  0.774210  0.587201  1
  O  O19  1  0.087054  0.278409  0.957303  1
  O  O20  1  0.278723  0.961502  0.090323  1
  O  O21  1  0.958384  0.089794  0.278077  1
