# generated using pymatgen
data_CaTbSmZn11
_symmetry_space_group_name_H-M   'P 1'
_cell_length_a   8.24739848
_cell_length_b   8.24739718
_cell_length_c   8.24739737
_cell_angle_alpha   148.38092598
_cell_angle_beta   115.50639225
_cell_angle_gamma   73.61058040
_symmetry_Int_Tables_number   1
_chemical_formula_structural   CaTbSmZn11
_chemical_formula_sum   'Ca1 Tb1 Sm1 Zn11'
_cell_volume   261.17307297
_cell_formula_units_Z   1
loop_
 _symmetry_equiv_pos_site_id
 _symmetry_equiv_pos_as_xyz
  1  'x, y, z'
loop_
 _atom_site_type_symbol
 _atom_site_label
 _atom_site_symmetry_multiplicity
 _atom_site_fract_x
 _atom_site_fract_y
 _atom_site_fract_z
 _atom_site_occupancy
  Ca  Ca0  1  0.999991  0.999991  0.000000  1
  Tb  Tb1  1  0.701942  0.701942  0.000000  1
  Sm  Sm2  1  0.297824  0.297824  0.000000  1
  Zn  Zn3  1  0.500034  0.000034  0.500000  1
  Zn  Zn4  1  0.679960  0.500293  0.179667  1
  Zn  Zn5  1  0.320626  0.500293  0.820333  1
  Zn  Zn6  1  0.694798  0.338036  0.356762  1
  Zn  Zn7  1  0.305747  0.661610  0.644137  1
  Zn  Zn8  1  0.981274  0.338036  0.643238  1
  Zn  Zn9  1  0.017474  0.661610  0.355863  1
  Zn  Zn10  1  0.421977  0.137257  0.284720  1
  Zn  Zn11  1  0.579104  0.862908  0.716197  1
  Zn  Zn12  1  0.852537  0.137257  0.715280  1
  Zn  Zn13  1  0.146712  0.862908  0.283803  1
