# generated using pymatgen
data_Ho8Tm4InCo4Os
_symmetry_space_group_name_H-M   'P 1'
_cell_length_a   8.21857074
_cell_length_b   8.21857022
_cell_length_c   8.21857032
_cell_angle_alpha   111.52266594
_cell_angle_beta   110.75818460
_cell_angle_gamma   106.18299137
_symmetry_Int_Tables_number   1
_chemical_formula_structural   Ho8Tm4InCo4Os
_chemical_formula_sum   'Ho8 Tm4 In1 Co4 Os1'
_cell_volume   426.26548865
_cell_formula_units_Z   1
loop_
 _symmetry_equiv_pos_site_id
 _symmetry_equiv_pos_as_xyz
  1  'x, y, z'
loop_
 _atom_site_type_symbol
 _atom_site_label
 _atom_site_symmetry_multiplicity
 _atom_site_fract_x
 _atom_site_fract_y
 _atom_site_fract_z
 _atom_site_occupancy
  Ho  Ho0  1  0.417749  0.223252  0.194496  1
  Ho  Ho1  1  0.582251  0.776748  0.805504  1
  Ho  Ho2  1  0.028756  0.223252  0.805504  1
  Ho  Ho3  1  0.971244  0.776748  0.194496  1
  Ho  Ho4  1  0.181950  0.278247  0.460196  1
  Ho  Ho5  1  0.818050  0.721753  0.539804  1
  Ho  Ho6  1  0.181950  0.721753  0.903703  1
  Ho  Ho7  1  0.818050  0.278247  0.096297  1
  Tm  Tm8  1  0.315100  0.621466  0.306365  1
  Tm  Tm9  1  0.684900  0.378534  0.693635  1
  Tm  Tm10  1  0.315100  0.008734  0.693635  1
  Tm  Tm11  1  0.684900  0.991266  0.306365  1
  In  In12  1  0.500000  0.500000  0.000000  1
  Co  Co13  1  0.375287  0.000000  0.375287  1
  Co  Co14  1  0.624713  0.000000  0.624713  1
  Co  Co15  1  0.111942  0.611942  0.500000  1
  Co  Co16  1  0.888058  0.388058  0.500000  1
  Os  Os17  1  0.000000  0.000000  0.000000  1
