# generated using pymatgen
data_Er10In8CoAu3
_symmetry_space_group_name_H-M   'P 1'
_cell_length_a   3.59355500
_cell_length_b   8.17030549
_cell_length_c   18.22996897
_cell_angle_alpha   90.12550594
_cell_angle_beta   90.00000000
_cell_angle_gamma   90.00000000
_symmetry_Int_Tables_number   1
_chemical_formula_structural   Er10In8CoAu3
_chemical_formula_sum   'Er10 In8 Co1 Au3'
_cell_volume   535.23866478
_cell_formula_units_Z   1
loop_
 _symmetry_equiv_pos_site_id
 _symmetry_equiv_pos_as_xyz
  1  'x, y, z'
loop_
 _atom_site_type_symbol
 _atom_site_label
 _atom_site_symmetry_multiplicity
 _atom_site_fract_x
 _atom_site_fract_y
 _atom_site_fract_z
 _atom_site_occupancy
  Er  Er0  1  0.000000  0.879736  0.082482  1
  Er  Er1  1  0.000000  0.732128  0.282253  1
  Er  Er2  1  0.000000  0.738100  0.783173  1
  Er  Er3  1  0.000000  0.388633  0.409663  1
  Er  Er4  1  0.000000  0.119575  0.922053  1
  Er  Er5  1  0.000000  0.237324  0.715509  1
  Er  Er6  1  0.000000  0.497533  0.002259  1
  Er  Er7  1  0.000000  0.282184  0.225413  1
  Er  Er8  1  0.000000  0.621501  0.577481  1
  Er  Er9  1  0.000000  0.998061  0.497533  1
  In  In10  1  0.500000  0.210110  0.069953  1
  In  In11  1  0.500000  0.418770  0.853542  1
  In  In12  1  0.500000  0.574813  0.151521  1
  In  In13  1  0.500000  0.082221  0.351750  1
  In  In14  1  0.500000  0.919760  0.645776  1
  In  In15  1  0.500000  0.788300  0.935549  1
  In  In16  1  0.500000  0.705549  0.428727  1
  In  In17  1  0.500000  0.292923  0.561781  1
  Co  Co18  1  0.500000  0.478716  0.304574  1
  Au  Au19  1  0.500000  0.975615  0.199971  1
  Au  Au20  1  0.500000  0.029712  0.803528  1
  Au  Au21  1  0.500000  0.528737  0.695511  1
