# generated using pymatgen
data_HoEr3Tm4(WO6)4
_symmetry_space_group_name_H-M   'P 1'
_cell_length_a   5.35347000
_cell_length_b   7.64694348
_cell_length_c   11.37206424
_cell_angle_alpha   75.35962367
_cell_angle_beta   90.00000000
_cell_angle_gamma   90.00000000
_symmetry_Int_Tables_number   1
_chemical_formula_structural   HoEr3Tm4(WO6)4
_chemical_formula_sum   'Ho1 Er3 Tm4 W4 O24'
_cell_volume   450.43028201
_cell_formula_units_Z   1
loop_
 _symmetry_equiv_pos_site_id
 _symmetry_equiv_pos_as_xyz
  1  'x, y, z'
loop_
 _atom_site_type_symbol
 _atom_site_label
 _atom_site_symmetry_multiplicity
 _atom_site_fract_x
 _atom_site_fract_y
 _atom_site_fract_z
 _atom_site_occupancy
  Ho  Ho0  1  0.315898  0.500000  0.250000  1
  Er  Er1  1  0.740082  0.000000  0.750000  1
  Er  Er2  1  0.259936  0.000000  0.250000  1
  Er  Er3  1  0.683879  0.500000  0.750000  1
  Tm  Tm4  1  0.184826  0.795008  0.578728  1
  Tm  Tm5  1  0.815142  0.795159  0.078639  1
  Tm  Tm6  1  0.184826  0.204992  0.921272  1
  Tm  Tm7  1  0.815142  0.204841  0.421361  1
  W  W8  1  0.255227  0.722932  0.885949  1
  W  W9  1  0.744780  0.723039  0.386195  1
  W  W10  1  0.255227  0.277068  0.614051  1
  W  W11  1  0.744780  0.276961  0.113805  1
  O  O12  1  0.042376  0.940832  0.896074  1
  O  O13  1  0.534962  0.847512  0.931720  1
  O  O14  1  0.957673  0.940824  0.396129  1
  O  O15  1  0.459721  0.790506  0.726475  1
  O  O16  1  0.464978  0.847504  0.431717  1
  O  O17  1  0.980602  0.710821  0.770443  1
  O  O18  1  0.540504  0.790806  0.226462  1
  O  O19  1  0.852954  0.634014  0.550118  1
  O  O20  1  0.361792  0.487612  0.886644  1
  O  O21  1  0.018883  0.711277  0.270422  1
  O  O22  1  0.361792  0.512388  0.613356  1
  O  O23  1  0.852954  0.365986  0.949882  1
  O  O24  1  0.146775  0.634090  0.049885  1
  O  O25  1  0.638908  0.487540  0.386901  1
  O  O26  1  0.980602  0.289179  0.729557  1
  O  O27  1  0.638908  0.512460  0.113099  1
  O  O28  1  0.146775  0.365910  0.450115  1
  O  O29  1  0.459721  0.209494  0.773525  1
  O  O30  1  0.018883  0.288723  0.229578  1
  O  O31  1  0.534962  0.152488  0.568280  1
  O  O32  1  0.540504  0.209194  0.273538  1
  O  O33  1  0.042376  0.059168  0.603926  1
  O  O34  1  0.464978  0.152496  0.068283  1
  O  O35  1  0.957673  0.059176  0.103871  1
