# generated using pymatgen
data_Sc2Ta3Co9As7
_symmetry_space_group_name_H-M   'P 1'
_cell_length_a   3.74939900
_cell_length_b   9.50904379
_cell_length_c   9.50904300
_cell_angle_alpha   119.99999379
_cell_angle_beta   90.00000000
_cell_angle_gamma   90.00000000
_symmetry_Int_Tables_number   1
_chemical_formula_structural   Sc2Ta3Co9As7
_chemical_formula_sum   'Sc2 Ta3 Co9 As7'
_cell_volume   293.60670999
_cell_formula_units_Z   1
loop_
 _symmetry_equiv_pos_site_id
 _symmetry_equiv_pos_as_xyz
  1  'x, y, z'
loop_
 _atom_site_type_symbol
 _atom_site_label
 _atom_site_symmetry_multiplicity
 _atom_site_fract_x
 _atom_site_fract_y
 _atom_site_fract_z
 _atom_site_occupancy
  Sc  Sc0  1  0.000000  0.666667  0.333333  1
  Sc  Sc1  1  0.500000  0.333333  0.666667  1
  Ta  Ta2  1  0.500000  0.772911  0.897620  1
  Ta  Ta3  1  0.500000  0.124710  0.227089  1
  Ta  Ta4  1  0.500000  0.102380  0.875290  1
  Co  Co5  1  0.000000  0.570618  0.934800  1
  Co  Co6  1  0.000000  0.364182  0.429382  1
  Co  Co7  1  0.000000  0.065200  0.635818  1
  Co  Co8  1  0.000000  0.878320  0.161693  1
  Co  Co9  1  0.000000  0.283374  0.121680  1
  Co  Co10  1  0.000000  0.838307  0.716626  1
  Co  Co11  1  0.500000  0.947522  0.385137  1
  Co  Co12  1  0.500000  0.437614  0.052478  1
  Co  Co13  1  0.500000  0.614863  0.562386  1
  As  As14  1  0.000000  0.000000  0.000000  1
  As  As15  1  0.500000  0.707981  0.130960  1
  As  As16  1  0.500000  0.422979  0.292019  1
  As  As17  1  0.500000  0.869040  0.577021  1
  As  As18  1  0.000000  0.574352  0.690559  1
  As  As19  1  0.000000  0.116207  0.425648  1
  As  As20  1  0.000000  0.309441  0.883793  1
