# generated using pymatgen
data_Ce4Sn2IrPd2Rh
_symmetry_space_group_name_H-M   'P 1'
_cell_length_a   7.75399239
_cell_length_b   7.75399225
_cell_length_c   3.78166700
_cell_angle_alpha   90.00000000
_cell_angle_beta   90.00000000
_cell_angle_gamma   90.39224003
_symmetry_Int_Tables_number   1
_chemical_formula_structural   Ce4Sn2IrPd2Rh
_chemical_formula_sum   'Ce4 Sn2 Ir1 Pd2 Rh1'
_cell_volume   227.36511980
_cell_formula_units_Z   1
loop_
 _symmetry_equiv_pos_site_id
 _symmetry_equiv_pos_as_xyz
  1  'x, y, z'
loop_
 _atom_site_type_symbol
 _atom_site_label
 _atom_site_symmetry_multiplicity
 _atom_site_fract_x
 _atom_site_fract_y
 _atom_site_fract_z
 _atom_site_occupancy
  Ce  Ce0  1  0.681591  0.181591  0.500000  1
  Ce  Ce1  1  0.318805  0.818805  0.500000  1
  Ce  Ce2  1  0.169948  0.333453  0.500000  1
  Ce  Ce3  1  0.833453  0.669948  0.500000  1
  Sn  Sn4  1  0.000347  0.001278  0.000000  1
  Sn  Sn5  1  0.501278  0.500347  0.000000  1
  Ir  Ir6  1  0.130124  0.630124  0.000000  1
  Pd  Pd7  1  0.629169  0.871676  0.000000  1
  Pd  Pd8  1  0.371676  0.129169  0.000000  1
  Rh  Rh9  1  0.863609  0.363609  0.000000  1
