# generated using pymatgen
data_Dy8Er3TmRu4
_symmetry_space_group_name_H-M   'P 1'
_cell_length_a   6.29060600
_cell_length_b   7.29259813
_cell_length_c   9.13854149
_cell_angle_alpha   90.00258591
_cell_angle_beta   90.00812608
_cell_angle_gamma   89.98886007
_symmetry_Int_Tables_number   1
_chemical_formula_structural   Dy8Er3TmRu4
_chemical_formula_sum   'Dy8 Er3 Tm1 Ru4'
_cell_volume   419.22931279
_cell_formula_units_Z   1
loop_
 _symmetry_equiv_pos_site_id
 _symmetry_equiv_pos_as_xyz
  1  'x, y, z'
loop_
 _atom_site_type_symbol
 _atom_site_label
 _atom_site_symmetry_multiplicity
 _atom_site_fract_x
 _atom_site_fract_y
 _atom_site_fract_z
 _atom_site_occupancy
  Dy  Dy0  1  0.169118  0.176720  0.435439  1
  Dy  Dy1  1  0.669083  0.323270  0.564063  1
  Dy  Dy2  1  0.831064  0.823040  0.935708  1
  Dy  Dy3  1  0.668815  0.323306  0.936055  1
  Dy  Dy4  1  0.866839  0.540047  0.250095  1
  Dy  Dy5  1  0.633170  0.039252  0.249971  1
  Dy  Dy6  1  0.134140  0.460864  0.750021  1
  Dy  Dy7  1  0.366048  0.960031  0.749945  1
  Er  Er8  1  0.831013  0.823061  0.564348  1
  Er  Er9  1  0.330975  0.676820  0.435120  1
  Er  Er10  1  0.169150  0.176643  0.064603  1
  Tm  Tm11  1  0.330681  0.676908  0.065158  1
  Ru  Ru12  1  0.041287  0.884015  0.250332  1
  Ru  Ru13  1  0.458576  0.384961  0.249510  1
  Ru  Ru14  1  0.959664  0.115101  0.750342  1
  Ru  Ru15  1  0.540378  0.615962  0.749290  1
