# generated using pymatgen
data_HoLuThCo11B4
_symmetry_space_group_name_H-M   'P 1'
_cell_length_a   5.03595100
_cell_length_b   5.03518409
_cell_length_c   9.84229600
_cell_angle_alpha   89.99974348
_cell_angle_beta   90.00016114
_cell_angle_gamma   120.00672061
_symmetry_Int_Tables_number   1
_chemical_formula_structural   HoLuThCo11B4
_chemical_formula_sum   'Ho1 Lu1 Th1 Co11 B4'
_cell_volume   216.11976557
_cell_formula_units_Z   1
loop_
 _symmetry_equiv_pos_site_id
 _symmetry_equiv_pos_as_xyz
  1  'x, y, z'
loop_
 _atom_site_type_symbol
 _atom_site_label
 _atom_site_symmetry_multiplicity
 _atom_site_fract_x
 _atom_site_fract_y
 _atom_site_fract_z
 _atom_site_occupancy
  Ho  Ho0  1  0.999992  0.000005  0.344775  1
  Lu  Lu1  1  0.000005  0.999979  0.655694  1
  Th  Th2  1  0.000010  0.000016  0.999067  1
  Co  Co3  1  0.333903  0.667923  0.999777  1
  Co  Co4  1  0.666064  0.332087  0.999777  1
  Co  Co5  1  0.499989  0.999977  0.500875  1
  Co  Co6  1  0.499983  0.500006  0.500904  1
  Co  Co7  1  0.000017  0.500002  0.500870  1
  Co  Co8  1  0.499956  0.999938  0.205422  1
  Co  Co9  1  0.499958  0.500041  0.205244  1
  Co  Co10  1  0.000053  0.500038  0.205212  1
  Co  Co11  1  0.499974  0.999935  0.793673  1
  Co  Co12  1  0.499960  0.500028  0.793911  1
  Co  Co13  1  0.000060  0.500018  0.793880  1
  B  B14  1  0.333288  0.666523  0.350766  1
  B  B15  1  0.666696  0.333487  0.350759  1
  B  B16  1  0.666748  0.333404  0.649704  1
  B  B17  1  0.333243  0.666592  0.649694  1
