# generated using pymatgen
data_U2Ta2NbSi4
_symmetry_space_group_name_H-M   'P 1'
_cell_length_a   7.03137135
_cell_length_b   7.03377043
_cell_length_c   12.98844931
_cell_angle_alpha   89.96159791
_cell_angle_beta   89.96574714
_cell_angle_gamma   90.01087075
_symmetry_Int_Tables_number   1
_chemical_formula_structural   U2Ta2NbSi4
_chemical_formula_sum   'U8 Ta8 Nb4 Si16'
_cell_volume   642.37014003
_cell_formula_units_Z   4
loop_
 _symmetry_equiv_pos_site_id
 _symmetry_equiv_pos_as_xyz
  1  'x, y, z'
loop_
 _atom_site_type_symbol
 _atom_site_label
 _atom_site_symmetry_multiplicity
 _atom_site_fract_x
 _atom_site_fract_y
 _atom_site_fract_z
 _atom_site_occupancy
  U  U0  1  0.994132  0.332189  0.218997  1
  U  U1  1  0.005922  0.667826  0.719157  1
  U  U2  1  0.167990  0.494027  0.469122  1
  U  U3  1  0.505308  0.832102  0.030759  1
  U  U4  1  0.831437  0.506189  0.968948  1
  U  U5  1  0.494732  0.168259  0.530927  1
  U  U6  1  0.331711  0.994473  0.780993  1
  U  U7  1  0.668297  0.005380  0.280934  1
  Ta  Ta8  1  0.168410  0.168542  0.999734  1
  Ta  Ta9  1  0.831575  0.831485  0.500141  1
  Ta  Ta10  1  0.331293  0.668735  0.250161  1
  Ta  Ta11  1  0.668440  0.331722  0.750259  1
  Ta  Ta12  1  0.155802  0.998583  0.374350  1
  Ta  Ta13  1  0.843880  0.000770  0.874025  1
  Ta  Ta14  1  0.501151  0.656562  0.624424  1
  Ta  Ta15  1  0.343885  0.499226  0.875675  1
  Nb  Nb16  1  0.499065  0.343921  0.123970  1
  Nb  Nb17  1  0.655703  0.500634  0.375981  1
  Nb  Nb18  1  0.999626  0.156507  0.626008  1
  Nb  Nb19  1  0.000901  0.843676  0.125514  1
  Si  Si20  1  0.297159  0.039374  0.184873  1
  Si  Si21  1  0.702683  0.960355  0.684817  1
  Si  Si22  1  0.460419  0.797352  0.434824  1
  Si  Si23  1  0.202699  0.539300  0.065098  1
  Si  Si24  1  0.539671  0.202372  0.934517  1
  Si  Si25  1  0.797457  0.460709  0.565477  1
  Si  Si26  1  0.039523  0.297684  0.815606  1
  Si  Si27  1  0.960705  0.702498  0.315449  1
  Si  Si28  1  0.369828  0.293181  0.315901  1
  Si  Si29  1  0.629615  0.706576  0.816162  1
  Si  Si30  1  0.206840  0.870421  0.565794  1
  Si  Si31  1  0.129604  0.793351  0.933747  1
  Si  Si32  1  0.793918  0.129659  0.065384  1
  Si  Si33  1  0.870402  0.205756  0.434076  1
  Si  Si34  1  0.294600  0.370529  0.684061  1
  Si  Si35  1  0.705616  0.630075  0.184139  1
