# generated using pymatgen
data_Ba4Ca2ReTcN8
_symmetry_space_group_name_H-M   'P 1'
_cell_length_a   10.90740048
_cell_length_b   10.54129508
_cell_length_c   8.07333487
_cell_angle_alpha   70.31774502
_cell_angle_beta   65.50136742
_cell_angle_gamma   44.18088234
_symmetry_Int_Tables_number   1
_chemical_formula_structural   Ba4Ca2ReTcN8
_chemical_formula_sum   'Ba8 Ca4 Re2 Tc2 N16'
_cell_volume   587.54560272
_cell_formula_units_Z   2
loop_
 _symmetry_equiv_pos_site_id
 _symmetry_equiv_pos_as_xyz
  1  'x, y, z'
loop_
 _atom_site_type_symbol
 _atom_site_label
 _atom_site_symmetry_multiplicity
 _atom_site_fract_x
 _atom_site_fract_y
 _atom_site_fract_z
 _atom_site_occupancy
  Ba  Ba0  1  0.572685  0.927315  0.927315  1
  Ba  Ba1  1  0.927315  0.572685  0.572685  1
  Ba  Ba2  1  0.321493  0.678507  0.678507  1
  Ba  Ba3  1  0.108278  0.108278  0.891722  1
  Ba  Ba4  1  0.134810  0.134810  0.365190  1
  Ba  Ba5  1  0.365190  0.365190  0.134810  1
  Ba  Ba6  1  0.678507  0.321493  0.321493  1
  Ba  Ba7  1  0.891722  0.891722  0.108278  1
  Ca  Ca8  1  0.339942  0.339942  0.660058  1
  Ca  Ca9  1  0.913562  0.913562  0.586438  1
  Ca  Ca10  1  0.660058  0.660058  0.339942  1
  Ca  Ca11  1  0.586438  0.586438  0.913562  1
  Re  Re12  1  0.493309  0.006691  0.493309  1
  Re  Re13  1  0.006691  0.493309  0.006691  1
  Tc  Tc14  1  0.756344  0.243656  0.756344  1
  Tc  Tc15  1  0.243656  0.756344  0.243656  1
  N  N16  1  0.008114  0.656170  0.825111  1
  N  N17  1  0.706494  0.278291  0.998393  1
  N  N18  1  0.656170  0.008114  0.510603  1
  N  N19  1  0.510603  0.825111  0.656170  1
  N  N20  1  0.240969  0.591615  0.422323  1
  N  N21  1  0.745095  0.422323  0.591615  1
  N  N22  1  0.998393  0.016824  0.706494  1
  N  N23  1  0.546794  0.967401  0.255555  1
  N  N24  1  0.422323  0.745095  0.240969  1
  N  N25  1  0.967401  0.546794  0.230249  1
  N  N26  1  0.278291  0.706494  0.016824  1
  N  N27  1  0.825111  0.510603  0.008114  1
  N  N28  1  0.230249  0.255555  0.967401  1
  N  N29  1  0.591615  0.240969  0.745095  1
  N  N30  1  0.255555  0.230249  0.546794  1
  N  N31  1  0.016824  0.998393  0.278291  1
