# generated using pymatgen
data_Ce2Cu7Pt5
_symmetry_space_group_name_H-M   'P 1'
_cell_length_a   5.06843000
_cell_length_b   8.25253786
_cell_length_c   10.65266063
_cell_angle_alpha   90.55707034
_cell_angle_beta   90.00000000
_cell_angle_gamma   90.00000000
_symmetry_Int_Tables_number   1
_chemical_formula_structural   Ce2Cu7Pt5
_chemical_formula_sum   'Ce4 Cu14 Pt10'
_cell_volume   445.55214866
_cell_formula_units_Z   2
loop_
 _symmetry_equiv_pos_site_id
 _symmetry_equiv_pos_as_xyz
  1  'x, y, z'
loop_
 _atom_site_type_symbol
 _atom_site_label
 _atom_site_symmetry_multiplicity
 _atom_site_fract_x
 _atom_site_fract_y
 _atom_site_fract_z
 _atom_site_occupancy
  Ce  Ce0  1  0.250000  0.261691  0.552108  1
  Ce  Ce1  1  0.750000  0.738309  0.447892  1
  Ce  Ce2  1  0.250000  0.752773  0.925902  1
  Ce  Ce3  1  0.750000  0.247227  0.074098  1
  Cu  Cu4  1  0.508731  0.057553  0.306724  1
  Cu  Cu5  1  0.008731  0.942447  0.693276  1
  Cu  Cu6  1  0.993080  0.575598  0.194588  1
  Cu  Cu7  1  0.493080  0.424402  0.805412  1
  Cu  Cu8  1  0.491269  0.942447  0.693276  1
  Cu  Cu9  1  0.991269  0.057553  0.306724  1
  Cu  Cu10  1  0.006920  0.424402  0.805412  1
  Cu  Cu11  1  0.506920  0.575598  0.194588  1
  Cu  Cu12  1  0.750000  0.182466  0.760618  1
  Cu  Cu13  1  0.250000  0.817534  0.239382  1
  Cu  Cu14  1  0.750000  0.949142  0.902245  1
  Cu  Cu15  1  0.250000  0.050858  0.097755  1
  Cu  Cu16  1  0.750000  0.432406  0.604370  1
  Cu  Cu17  1  0.250000  0.567594  0.395630  1
  Pt  Pt18  1  0.250000  0.890224  0.479613  1
  Pt  Pt19  1  0.750000  0.109776  0.520387  1
  Pt  Pt20  1  0.250000  0.405863  0.016152  1
  Pt  Pt21  1  0.750000  0.594137  0.983848  1
  Pt  Pt22  1  0.750000  0.384205  0.363799  1
  Pt  Pt23  1  0.250000  0.615795  0.636201  1
  Pt  Pt24  1  0.750000  0.866619  0.139880  1
  Pt  Pt25  1  0.250000  0.133381  0.860120  1
  Pt  Pt26  1  0.750000  0.688114  0.742249  1
  Pt  Pt27  1  0.250000  0.311886  0.257751  1
