# generated using pymatgen
data_BaSr3(Al2Au5)4
_symmetry_space_group_name_H-M   'P 1'
_cell_length_a   7.27566800
_cell_length_b   8.97974247
_cell_length_c   10.11753584
_cell_angle_alpha   89.89968261
_cell_angle_beta   90.00000000
_cell_angle_gamma   90.00000000
_symmetry_Int_Tables_number   1
_chemical_formula_structural   BaSr3(Al2Au5)4
_chemical_formula_sum   'Ba1 Sr3 Al8 Au20'
_cell_volume   661.01427896
_cell_formula_units_Z   1
loop_
 _symmetry_equiv_pos_site_id
 _symmetry_equiv_pos_as_xyz
  1  'x, y, z'
loop_
 _atom_site_type_symbol
 _atom_site_label
 _atom_site_symmetry_multiplicity
 _atom_site_fract_x
 _atom_site_fract_y
 _atom_site_fract_z
 _atom_site_occupancy
  Ba  Ba0  1  0.750000  0.247455  0.626083  1
  Sr  Sr1  1  0.250000  0.252614  0.127251  1
  Sr  Sr2  1  0.250000  0.752509  0.372628  1
  Sr  Sr3  1  0.750000  0.747310  0.872686  1
  Al  Al4  1  0.250000  0.050057  0.617282  1
  Al  Al5  1  0.250000  0.549927  0.881974  1
  Al  Al6  1  0.750000  0.947806  0.381680  1
  Al  Al7  1  0.750000  0.449828  0.118803  1
  Al  Al8  1  0.250000  0.350590  0.484175  1
  Al  Al9  1  0.250000  0.851036  0.016114  1
  Al  Al10  1  0.750000  0.649307  0.514834  1
  Al  Al11  1  0.750000  0.148250  0.985872  1
  Au  Au12  1  0.057021  0.104594  0.395832  1
  Au  Au13  1  0.444183  0.609674  0.101380  1
  Au  Au14  1  0.553419  0.889289  0.599886  1
  Au  Au15  1  0.946811  0.391929  0.903569  1
  Au  Au16  1  0.946581  0.889289  0.599886  1
  Au  Au17  1  0.553189  0.391929  0.903569  1
  Au  Au18  1  0.442979  0.104594  0.395832  1
  Au  Au19  1  0.055817  0.609674  0.101380  1
  Au  Au20  1  0.039176  0.057445  0.867027  1
  Au  Au21  1  0.460077  0.560339  0.634168  1
  Au  Au22  1  0.537471  0.942109  0.135845  1
  Au  Au23  1  0.966943  0.444893  0.361653  1
  Au  Au24  1  0.962529  0.942109  0.135845  1
  Au  Au25  1  0.533057  0.444893  0.361653  1
  Au  Au26  1  0.460824  0.057445  0.867027  1
  Au  Au27  1  0.039923  0.560339  0.634168  1
  Au  Au28  1  0.250000  0.300606  0.734295  1
  Au  Au29  1  0.250000  0.801086  0.767335  1
  Au  Au30  1  0.750000  0.700188  0.265175  1
  Au  Au31  1  0.750000  0.200884  0.235095  1
