# generated using pymatgen
data_TbLu2Mg3AgSn2
_symmetry_space_group_name_H-M   'P 1'
_cell_length_a   7.47162520
_cell_length_b   7.47162470
_cell_length_c   4.48742100
_cell_angle_alpha   90.00000000
_cell_angle_beta   90.00000000
_cell_angle_gamma   120.42859264
_symmetry_Int_Tables_number   1
_chemical_formula_structural   TbLu2Mg3AgSn2
_chemical_formula_sum   'Tb1 Lu2 Mg3 Ag1 Sn2'
_cell_volume   216.00594456
_cell_formula_units_Z   1
loop_
 _symmetry_equiv_pos_site_id
 _symmetry_equiv_pos_as_xyz
  1  'x, y, z'
loop_
 _atom_site_type_symbol
 _atom_site_label
 _atom_site_symmetry_multiplicity
 _atom_site_fract_x
 _atom_site_fract_y
 _atom_site_fract_z
 _atom_site_occupancy
  Tb  Tb0  1  0.417691  0.417691  0.500000  1
  Lu  Lu1  1  0.584591  0.001092  0.500000  1
  Lu  Lu2  1  0.001092  0.584591  0.500000  1
  Mg  Mg3  1  0.763038  0.763038  0.000000  1
  Mg  Mg4  1  0.236618  0.999860  0.000000  1
  Mg  Mg5  1  0.999860  0.236618  0.000000  1
  Ag  Ag6  1  0.996018  0.996018  0.500000  1
  Sn  Sn7  1  0.669345  0.331747  0.000000  1
  Sn  Sn8  1  0.331747  0.669345  0.000000  1
