# generated using pymatgen
data_Cs6Ho(AsI6)3
_symmetry_space_group_name_H-M   'P 1'
_cell_length_a   8.48286086
_cell_length_b   8.48722702
_cell_length_c   21.21942270
_cell_angle_alpha   89.22331947
_cell_angle_beta   89.23581289
_cell_angle_gamma   119.90782383
_symmetry_Int_Tables_number   1
_chemical_formula_structural   Cs6Ho(AsI6)3
_chemical_formula_sum   'Cs6 Ho1 As3 I18'
_cell_volume   1323.78766483
_cell_formula_units_Z   1
loop_
 _symmetry_equiv_pos_site_id
 _symmetry_equiv_pos_as_xyz
  1  'x, y, z'
loop_
 _atom_site_type_symbol
 _atom_site_label
 _atom_site_symmetry_multiplicity
 _atom_site_fract_x
 _atom_site_fract_y
 _atom_site_fract_z
 _atom_site_occupancy
  Cs  Cs0  1  0.996830  0.004171  0.752723  1
  Cs  Cs1  1  0.663548  0.326627  0.075202  1
  Cs  Cs2  1  0.003640  0.996361  0.249754  1
  Cs  Cs3  1  0.327365  0.664273  0.573960  1
  Cs  Cs4  1  0.334744  0.671772  0.926021  1
  Cs  Cs5  1  0.672191  0.335561  0.421590  1
  Ho  Ho6  1  0.674886  0.344749  0.842295  1
  As  As7  1  0.654933  0.324830  0.654697  1
  As  As8  1  0.344308  0.674420  0.341495  1
  As  As9  1  0.325246  0.655443  0.157763  1
  I  I10  1  0.632881  0.806661  0.081190  1
  I  I11  1  0.347233  0.182891  0.923669  1
  I  I12  1  0.502452  0.010481  0.754889  1
  I  I13  1  0.194528  0.843456  0.412564  1
  I  I14  1  0.854717  0.186021  0.915753  1
  I  I15  1  0.807090  0.633867  0.579603  1
  I  I16  1  0.805472  0.156733  0.586354  1
  I  I17  1  0.330458  0.159669  0.591791  1
  I  I18  1  0.495002  0.984694  0.243644  1
  I  I19  1  0.987959  0.496596  0.740053  1
  I  I20  1  0.156815  0.804477  0.088033  1
  I  I21  1  0.015596  0.505336  0.258874  1
  I  I22  1  0.503047  0.497250  0.747362  1
  I  I23  1  0.851332  0.690054  0.909432  1
  I  I24  1  0.160047  0.332055  0.093655  1
  I  I25  1  0.669668  0.840490  0.407198  1
  I  I26  1  0.495298  0.505213  0.251233  1
  I  I27  1  0.192713  0.365849  0.419202  1
