# generated using pymatgen
data_LaY14Ho(InRh)4
_symmetry_space_group_name_H-M   'P 1'
_cell_length_a   9.72152455
_cell_length_b   9.72885217
_cell_length_c   9.72121927
_cell_angle_alpha   59.93344012
_cell_angle_beta   59.93226443
_cell_angle_gamma   59.93268645
_symmetry_Int_Tables_number   1
_chemical_formula_structural   LaY14Ho(InRh)4
_chemical_formula_sum   'La1 Y14 Ho1 In4 Rh4'
_cell_volume   649.14127152
_cell_formula_units_Z   1
loop_
 _symmetry_equiv_pos_site_id
 _symmetry_equiv_pos_as_xyz
  1  'x, y, z'
loop_
 _atom_site_type_symbol
 _atom_site_label
 _atom_site_symmetry_multiplicity
 _atom_site_fract_x
 _atom_site_fract_y
 _atom_site_fract_z
 _atom_site_occupancy
  La  La0  1  0.599321  0.205085  0.599311  1
  Y  Y1  1  0.187332  0.187417  0.813887  1
  Y  Y2  1  0.602632  0.603004  0.195696  1
  Y  Y3  1  0.438644  0.058625  0.438647  1
  Y  Y4  1  0.439746  0.440598  0.058847  1
  Y  Y5  1  0.813113  0.188058  0.813092  1
  Y  Y6  1  0.189421  0.811159  0.189422  1
  Y  Y7  1  0.437634  0.060136  0.062376  1
  Y  Y8  1  0.189803  0.810866  0.811760  1
  Y  Y9  1  0.060061  0.439191  0.060058  1
  Y  Y10  1  0.811760  0.810864  0.189800  1
  Y  Y11  1  0.195694  0.603010  0.602631  1
  Y  Y12  1  0.058851  0.440606  0.439739  1
  Y  Y13  1  0.062380  0.060135  0.437625  1
  Y  Y14  1  0.813891  0.187410  0.187323  1
  Ho  Ho15  1  0.599046  0.599374  0.599044  1
  In  In16  1  0.835775  0.830433  0.835830  1
  In  In17  1  0.833217  0.828972  0.501085  1
  In  In18  1  0.501080  0.828965  0.833236  1
  In  In19  1  0.832417  0.500636  0.832414  1
  Rh  Rh20  1  0.393359  0.819449  0.393359  1
  Rh  Rh21  1  0.389883  0.395822  0.389884  1
  Rh  Rh22  1  0.823203  0.395095  0.391736  1
  Rh  Rh23  1  0.391736  0.395093  0.823197  1
