# generated using pymatgen
data_K4Ti3Rh5Se16
_symmetry_space_group_name_H-M   'P 1'
_cell_length_a   6.16892221
_cell_length_b   7.40000200
_cell_length_c   16.17329139
_cell_angle_alpha   90.00000000
_cell_angle_beta   89.73141409
_cell_angle_gamma   90.00000000
_symmetry_Int_Tables_number   1
_chemical_formula_structural   K4Ti3Rh5Se16
_chemical_formula_sum   'K4 Ti3 Rh5 Se16'
_cell_volume   738.30323356
_cell_formula_units_Z   1
loop_
 _symmetry_equiv_pos_site_id
 _symmetry_equiv_pos_as_xyz
  1  'x, y, z'
loop_
 _atom_site_type_symbol
 _atom_site_label
 _atom_site_symmetry_multiplicity
 _atom_site_fract_x
 _atom_site_fract_y
 _atom_site_fract_z
 _atom_site_occupancy
  K  K0  1  0.369064  0.000000  0.998040  1
  K  K1  1  0.627731  0.500000  0.503602  1
  K  K2  1  0.033451  0.000000  0.497770  1
  K  K3  1  0.000493  0.500000  0.002290  1
  Ti  Ti4  1  0.072520  0.000000  0.754648  1
  Ti  Ti5  1  0.938245  0.500000  0.249246  1
  Ti  Ti6  1  0.927995  0.500000  0.745040  1
  Rh  Rh7  1  0.006111  0.000000  0.253879  1
  Rh  Rh8  1  0.514206  0.258363  0.248642  1
  Rh  Rh9  1  0.500781  0.749849  0.749966  1
  Rh  Rh10  1  0.514206  0.741637  0.248642  1
  Rh  Rh11  1  0.500781  0.250151  0.749966  1
  Se  Se12  1  0.834625  0.244720  0.343953  1
  Se  Se13  1  0.836567  0.760398  0.658041  1
  Se  Se14  1  0.165886  0.752519  0.166521  1
  Se  Se15  1  0.164860  0.260061  0.841465  1
  Se  Se16  1  0.165886  0.247481  0.166521  1
  Se  Se17  1  0.164860  0.739939  0.841465  1
  Se  Se18  1  0.834625  0.755280  0.343953  1
  Se  Se19  1  0.836567  0.239602  0.658041  1
  Se  Se20  1  0.674691  0.000000  0.167598  1
  Se  Se21  1  0.686861  0.000000  0.830104  1
  Se  Se22  1  0.317479  0.500000  0.331644  1
  Se  Se23  1  0.314122  0.500000  0.669846  1
  Se  Se24  1  0.358771  0.000000  0.330047  1
  Se  Se25  1  0.374825  0.000000  0.654152  1
  Se  Se26  1  0.636099  0.500000  0.148678  1
  Se  Se27  1  0.627692  0.500000  0.846239  1
