# generated using pymatgen
data_CaTh3(AuBr6)4
_symmetry_space_group_name_H-M   'P 1'
_cell_length_a   8.51391413
_cell_length_b   10.44976656
_cell_length_c   14.55002300
_cell_angle_alpha   102.50114883
_cell_angle_beta   96.84086084
_cell_angle_gamma   113.21348034
_symmetry_Int_Tables_number   1
_chemical_formula_structural   CaTh3(AuBr6)4
_chemical_formula_sum   'Ca1 Th3 Au4 Br24'
_cell_volume   1130.93905098
_cell_formula_units_Z   1
loop_
 _symmetry_equiv_pos_site_id
 _symmetry_equiv_pos_as_xyz
  1  'x, y, z'
loop_
 _atom_site_type_symbol
 _atom_site_label
 _atom_site_symmetry_multiplicity
 _atom_site_fract_x
 _atom_site_fract_y
 _atom_site_fract_z
 _atom_site_occupancy
  Ca  Ca0  1  0.017849  0.688762  0.128999  1
  Th  Th1  1  0.569458  0.903212  0.624556  1
  Th  Th2  1  0.422011  0.086940  0.374255  1
  Th  Th3  1  0.985544  0.322473  0.873375  1
  Au  Au4  1  0.298846  0.627251  0.764574  1
  Au  Au5  1  0.702238  0.373755  0.236198  1
  Au  Au6  1  0.501732  0.501885  0.501176  1
  Au  Au7  1  0.997539  0.995765  0.998136  1
  Br  Br8  1  0.621982  0.727814  0.752219  1
  Br  Br9  1  0.385162  0.270056  0.244200  1
  Br  Br10  1  0.294836  0.862171  0.740969  1
  Br  Br11  1  0.707705  0.144805  0.258842  1
  Br  Br12  1  0.972442  0.530560  0.767478  1
  Br  Br13  1  0.017833  0.473728  0.235187  1
  Br  Br14  1  0.309107  0.396339  0.792677  1
  Br  Br15  1  0.686523  0.594454  0.208422  1
  Br  Br16  1  0.702560  0.374521  0.503561  1
  Br  Br17  1  0.293868  0.623238  0.494217  1
  Br  Br18  1  0.756038  0.744648  0.517332  1
  Br  Br19  1  0.247427  0.260007  0.483717  1
  Br  Br20  1  0.793046  0.112020  0.979276  1
  Br  Br21  1  0.207174  0.887939  0.019012  1
  Br  Br22  1  0.765060  0.791945  0.035879  1
  Br  Br23  1  0.228734  0.202529  0.959075  1
  Br  Br24  1  0.625067  0.190308  0.737407  1
  Br  Br25  1  0.385677  0.812319  0.264609  1
  Br  Br26  1  0.942183  0.052807  0.724331  1
  Br  Br27  1  0.059722  0.956282  0.279074  1
  Br  Br28  1  0.722986  0.055674  0.486775  1
  Br  Br29  1  0.276247  0.947155  0.518508  1
  Br  Br30  1  0.763427  0.426935  0.969734  1
  Br  Br31  1  0.239978  0.561698  0.026230  1
