# generated using pymatgen
data_Ho3Zn3RuAu2
_symmetry_space_group_name_H-M   'P 1'
_cell_length_a   7.40749800
_cell_length_b   7.40749761
_cell_length_c   3.85305600
_cell_angle_alpha   90.00000000
_cell_angle_beta   90.00000000
_cell_angle_gamma   119.99999399
_symmetry_Int_Tables_number   1
_chemical_formula_structural   Ho3Zn3RuAu2
_chemical_formula_sum   'Ho3 Zn3 Ru1 Au2'
_cell_volume   183.09607823
_cell_formula_units_Z   1
loop_
 _symmetry_equiv_pos_site_id
 _symmetry_equiv_pos_as_xyz
  1  'x, y, z'
loop_
 _atom_site_type_symbol
 _atom_site_label
 _atom_site_symmetry_multiplicity
 _atom_site_fract_x
 _atom_site_fract_y
 _atom_site_fract_z
 _atom_site_occupancy
  Ho  Ho0  1  0.419700  0.396219  0.000000  1
  Ho  Ho1  1  0.603781  0.023481  0.000000  1
  Ho  Ho2  1  0.976519  0.580300  0.000000  1
  Zn  Zn3  1  0.742454  0.729684  0.500000  1
  Zn  Zn4  1  0.270316  0.012770  0.500000  1
  Zn  Zn5  1  0.987230  0.257546  0.500000  1
  Ru  Ru6  1  0.666667  0.333333  0.500000  1
  Au  Au7  1  0.000000  0.000000  0.000000  1
  Au  Au8  1  0.333333  0.666667  0.500000  1
