# generated using pymatgen
data_Pr6GaSi5Rh12
_symmetry_space_group_name_H-M   'P 1'
_cell_length_a   5.68481200
_cell_length_b   5.68482080
_cell_length_c   15.22306500
_cell_angle_alpha   89.99931465
_cell_angle_beta   90.00153197
_cell_angle_gamma   120.00006516
_symmetry_Int_Tables_number   1
_chemical_formula_structural   Pr6GaSi5Rh12
_chemical_formula_sum   'Pr6 Ga1 Si5 Rh12'
_cell_volume   426.05467462
_cell_formula_units_Z   1
loop_
 _symmetry_equiv_pos_site_id
 _symmetry_equiv_pos_as_xyz
  1  'x, y, z'
loop_
 _atom_site_type_symbol
 _atom_site_label
 _atom_site_symmetry_multiplicity
 _atom_site_fract_x
 _atom_site_fract_y
 _atom_site_fract_z
 _atom_site_occupancy
  Pr  Pr0  1  0.666658  0.333331  0.961683  1
  Pr  Pr1  1  0.666670  0.333331  0.537788  1
  Pr  Pr2  1  0.333342  0.666669  0.038317  1
  Pr  Pr3  1  0.666676  0.333339  0.749994  1
  Pr  Pr4  1  0.333330  0.666669  0.462212  1
  Pr  Pr5  1  0.333324  0.666661  0.250006  1
  Ga  Ga6  1  0.000000  0.000000  0.500000  1
  Si  Si7  1  0.666680  0.333338  0.248149  1
  Si  Si8  1  0.999999  0.999987  0.249248  1
  Si  Si9  1  0.000001  0.000013  0.750752  1
  Si  Si10  1  0.333320  0.666662  0.751851  1
  Si  Si11  1  0.000000  0.000000  0.000000  1
  Rh  Rh12  1  0.165385  0.330778  0.866679  1
  Rh  Rh13  1  0.166569  0.333152  0.636670  1
  Rh  Rh14  1  0.669233  0.834629  0.866665  1
  Rh  Rh15  1  0.333159  0.166583  0.363331  1
  Rh  Rh16  1  0.833431  0.666848  0.363330  1
  Rh  Rh17  1  0.833424  0.166562  0.363328  1
  Rh  Rh18  1  0.834618  0.165377  0.133329  1
  Rh  Rh19  1  0.330767  0.165371  0.133335  1
  Rh  Rh20  1  0.666841  0.833417  0.636669  1
  Rh  Rh21  1  0.166576  0.833438  0.636672  1
  Rh  Rh22  1  0.834615  0.669222  0.133321  1
  Rh  Rh23  1  0.165382  0.834623  0.866671  1
