# generated using pymatgen
data_La5P12Ir4Ru15
_symmetry_space_group_name_H-M   'P 1'
_cell_length_a   12.72394000
_cell_length_b   12.72393976
_cell_length_c   4.02878400
_cell_angle_alpha   90.00000000
_cell_angle_beta   90.00000000
_cell_angle_gamma   120.00000062
_symmetry_Int_Tables_number   1
_chemical_formula_structural   La5P12Ir4Ru15
_chemical_formula_sum   'La5 P12 Ir4 Ru15'
_cell_volume   564.86911470
_cell_formula_units_Z   1
loop_
 _symmetry_equiv_pos_site_id
 _symmetry_equiv_pos_as_xyz
  1  'x, y, z'
loop_
 _atom_site_type_symbol
 _atom_site_label
 _atom_site_symmetry_multiplicity
 _atom_site_fract_x
 _atom_site_fract_y
 _atom_site_fract_z
 _atom_site_occupancy
  La  La0  1  0.333333  0.666667  0.000000  1
  La  La1  1  0.666667  0.333333  0.000000  1
  La  La2  1  0.813407  0.999180  0.500000  1
  La  La3  1  0.000820  0.814226  0.500000  1
  La  La4  1  0.185774  0.186593  0.500000  1
  P  P5  1  0.187059  0.998134  0.000000  1
  P  P6  1  0.001866  0.188926  0.000000  1
  P  P7  1  0.811074  0.812941  0.000000  1
  P  P8  1  0.170483  0.475411  0.500000  1
  P  P9  1  0.524589  0.695072  0.500000  1
  P  P10  1  0.304928  0.829517  0.500000  1
  P  P11  1  0.688790  0.521545  0.500000  1
  P  P12  1  0.832754  0.311210  0.500000  1
  P  P13  1  0.478455  0.167246  0.500000  1
  P  P14  1  0.622124  0.996271  0.000000  1
  P  P15  1  0.003729  0.625853  0.000000  1
  P  P16  1  0.374147  0.377876  0.000000  1
  Ir  Ir17  1  0.808894  0.624054  0.000000  1
  Ir  Ir18  1  0.815160  0.191106  0.000000  1
  Ir  Ir19  1  0.375946  0.184840  0.000000  1
  Ir  Ir20  1  0.000000  0.000000  0.000000  1
  Ru  Ru21  1  0.448503  0.005578  0.000000  1
  Ru  Ru22  1  0.994422  0.442925  0.000000  1
  Ru  Ru23  1  0.557075  0.551497  0.000000  1
  Ru  Ru24  1  0.367248  0.489753  0.500000  1
  Ru  Ru25  1  0.510247  0.877495  0.500000  1
  Ru  Ru26  1  0.122505  0.632752  0.500000  1
  Ru  Ru27  1  0.872559  0.510295  0.500000  1
  Ru  Ru28  1  0.637735  0.127441  0.500000  1
  Ru  Ru29  1  0.489705  0.362265  0.500000  1
  Ru  Ru30  1  0.181979  0.379060  0.000000  1
  Ru  Ru31  1  0.620940  0.802921  0.000000  1
  Ru  Ru32  1  0.197079  0.818021  0.000000  1
  Ru  Ru33  1  0.286725  0.001676  0.500000  1
  Ru  Ru34  1  0.998324  0.285050  0.500000  1
  Ru  Ru35  1  0.714950  0.713275  0.500000  1
