# generated using pymatgen
data_Ho6Ta4Ga12Os7
_symmetry_space_group_name_H-M   'P 1'
_cell_length_a   9.02216344
_cell_length_b   9.02216433
_cell_length_c   9.02216300
_cell_angle_alpha   59.99999389
_cell_angle_beta   59.99999062
_cell_angle_gamma   59.99999702
_symmetry_Int_Tables_number   1
_chemical_formula_structural   Ho6Ta4Ga12Os7
_chemical_formula_sum   'Ho6 Ta4 Ga12 Os7'
_cell_volume   519.29845956
_cell_formula_units_Z   1
loop_
 _symmetry_equiv_pos_site_id
 _symmetry_equiv_pos_as_xyz
  1  'x, y, z'
loop_
 _atom_site_type_symbol
 _atom_site_label
 _atom_site_symmetry_multiplicity
 _atom_site_fract_x
 _atom_site_fract_y
 _atom_site_fract_z
 _atom_site_occupancy
  Ho  Ho0  1  0.709009  0.709009  0.290991  1
  Ho  Ho1  1  0.290991  0.709009  0.290991  1
  Ho  Ho2  1  0.709009  0.290991  0.290991  1
  Ho  Ho3  1  0.290991  0.290991  0.709009  1
  Ho  Ho4  1  0.709009  0.290991  0.709009  1
  Ho  Ho5  1  0.290991  0.709009  0.709009  1
  Ta  Ta6  1  0.878030  0.878030  0.365910  1
  Ta  Ta7  1  0.878030  0.365910  0.878030  1
  Ta  Ta8  1  0.365910  0.878030  0.878030  1
  Ta  Ta9  1  0.878030  0.878030  0.878030  1
  Ga  Ga10  1  0.119649  0.119649  0.641053  1
  Ga  Ga11  1  0.119649  0.641053  0.119649  1
  Ga  Ga12  1  0.641053  0.119649  0.119649  1
  Ga  Ga13  1  0.119649  0.119649  0.119649  1
  Ga  Ga14  1  0.662167  0.662167  0.013498  1
  Ga  Ga15  1  0.662167  0.013498  0.662167  1
  Ga  Ga16  1  0.013498  0.662167  0.662167  1
  Ga  Ga17  1  0.662167  0.662167  0.662167  1
  Ga  Ga18  1  0.335638  0.335638  0.993088  1
  Ga  Ga19  1  0.335638  0.993088  0.335638  1
  Ga  Ga20  1  0.993088  0.335638  0.335638  1
  Ga  Ga21  1  0.335638  0.335638  0.335638  1
  Os  Os22  1  0.000000  0.000000  0.000000  1
  Os  Os23  1  0.995309  0.995309  0.504691  1
  Os  Os24  1  0.504691  0.995309  0.504691  1
  Os  Os25  1  0.995309  0.504691  0.504691  1
  Os  Os26  1  0.504691  0.504691  0.995309  1
  Os  Os27  1  0.995309  0.504691  0.995309  1
  Os  Os28  1  0.504691  0.995309  0.995309  1
