# generated using pymatgen
data_Tb4Ho6RuRh3
_symmetry_space_group_name_H-M   'P 1'
_cell_length_a   6.40972841
_cell_length_b   7.20171829
_cell_length_c   8.60520085
_cell_angle_alpha   96.82216024
_cell_angle_beta   112.08725366
_cell_angle_gamma   90.01742170
_symmetry_Int_Tables_number   1
_chemical_formula_structural   Tb4Ho6RuRh3
_chemical_formula_sum   'Tb4 Ho6 Ru1 Rh3'
_cell_volume   365.03081533
_cell_formula_units_Z   1
loop_
 _symmetry_equiv_pos_site_id
 _symmetry_equiv_pos_as_xyz
  1  'x, y, z'
loop_
 _atom_site_type_symbol
 _atom_site_label
 _atom_site_symmetry_multiplicity
 _atom_site_fract_x
 _atom_site_fract_y
 _atom_site_fract_z
 _atom_site_occupancy
  Tb  Tb0  1  0.981336  0.918575  0.189615  1
  Tb  Tb1  1  0.790365  0.582444  0.811304  1
  Tb  Tb2  1  0.022370  0.082276  0.813409  1
  Tb  Tb3  1  0.211456  0.415564  0.189837  1
  Ho  Ho4  1  0.642704  0.814632  0.434472  1
  Ho  Ho5  1  0.207647  0.686890  0.563980  1
  Ho  Ho6  1  0.357423  0.186698  0.562099  1
  Ho  Ho7  1  0.789428  0.312002  0.435046  1
  Ho  Ho8  1  0.422576  0.751832  0.001197  1
  Ho  Ho9  1  0.577107  0.249311  0.000561  1
  Ru  Ru10  1  0.400154  0.074536  0.220536  1
  Rh  Rh11  1  0.819863  0.574628  0.222841  1
  Rh  Rh12  1  0.596489  0.924563  0.778426  1
  Rh  Rh13  1  0.181083  0.426049  0.776676  1
