# generated using pymatgen
data_Er5(InSb)2
_symmetry_space_group_name_H-M   'P 1'
_cell_length_a   8.74965833
_cell_length_b   8.74965874
_cell_length_c   8.05411500
_cell_angle_alpha   90.00000000
_cell_angle_beta   90.00000000
_cell_angle_gamma   125.15297898
_symmetry_Int_Tables_number   1
_chemical_formula_structural   Er5(InSb)2
_chemical_formula_sum   'Er10 In4 Sb4'
_cell_volume   504.13901885
_cell_formula_units_Z   2
loop_
 _symmetry_equiv_pos_site_id
 _symmetry_equiv_pos_as_xyz
  1  'x, y, z'
loop_
 _atom_site_type_symbol
 _atom_site_label
 _atom_site_symmetry_multiplicity
 _atom_site_fract_x
 _atom_site_fract_y
 _atom_site_fract_z
 _atom_site_occupancy
  Er  Er0  1  0.030700  0.305328  0.334931  1
  Er  Er1  1  0.969300  0.694672  0.665069  1
  Er  Er2  1  0.469300  0.194672  0.834931  1
  Er  Er3  1  0.805328  0.530700  0.165069  1
  Er  Er4  1  0.530700  0.805328  0.165069  1
  Er  Er5  1  0.194672  0.469300  0.834931  1
  Er  Er6  1  0.694672  0.969300  0.665069  1
  Er  Er7  1  0.305328  0.030700  0.334931  1
  Er  Er8  1  0.000000  0.000000  0.000000  1
  Er  Er9  1  0.500000  0.500000  0.500000  1
  In  In10  1  0.369199  0.369199  0.130229  1
  In  In11  1  0.630801  0.630801  0.869771  1
  In  In12  1  0.130801  0.130801  0.630229  1
  In  In13  1  0.869199  0.869199  0.369771  1
  Sb  Sb14  1  0.796862  0.203138  0.000000  1
  Sb  Sb15  1  0.203138  0.796862  0.000000  1
  Sb  Sb16  1  0.703138  0.296862  0.500000  1
  Sb  Sb17  1  0.296862  0.703138  0.500000  1
