# generated using pymatgen
data_SmEuHo4(Co3P2)6
_symmetry_space_group_name_H-M   'P 1'
_cell_length_a   3.71306900
_cell_length_b   10.55618600
_cell_length_c   12.18985700
_cell_angle_alpha   90.00000000
_cell_angle_beta   90.00000000
_cell_angle_gamma   90.00000000
_symmetry_Int_Tables_number   1
_chemical_formula_structural   SmEuHo4(Co3P2)6
_chemical_formula_sum   'Sm1 Eu1 Ho4 Co18 P12'
_cell_volume   477.79176986
_cell_formula_units_Z   1
loop_
 _symmetry_equiv_pos_site_id
 _symmetry_equiv_pos_as_xyz
  1  'x, y, z'
loop_
 _atom_site_type_symbol
 _atom_site_label
 _atom_site_symmetry_multiplicity
 _atom_site_fract_x
 _atom_site_fract_y
 _atom_site_fract_z
 _atom_site_occupancy
  Sm  Sm0  1  0.500000  0.000000  0.477757  1
  Eu  Eu1  1  0.000000  0.500000  0.523242  1
  Ho  Ho2  1  0.500000  0.817463  0.204524  1
  Ho  Ho3  1  0.500000  0.182537  0.204524  1
  Ho  Ho4  1  0.000000  0.682723  0.795226  1
  Ho  Ho5  1  0.000000  0.317277  0.795226  1
  Co  Co6  1  0.000000  0.500000  0.985988  1
  Co  Co7  1  0.500000  0.000000  0.014226  1
  Co  Co8  1  0.500000  0.295055  0.429214  1
  Co  Co9  1  0.500000  0.704945  0.429214  1
  Co  Co10  1  0.000000  0.201831  0.570687  1
  Co  Co11  1  0.000000  0.798169  0.570687  1
  Co  Co12  1  0.500000  0.879456  0.712047  1
  Co  Co13  1  0.500000  0.120544  0.712047  1
  Co  Co14  1  0.000000  0.620871  0.287798  1
  Co  Co15  1  0.000000  0.379129  0.287798  1
  Co  Co16  1  0.500000  0.333347  0.994160  1
  Co  Co17  1  0.500000  0.666653  0.994160  1
  Co  Co18  1  0.000000  0.166608  0.005760  1
  Co  Co19  1  0.000000  0.833392  0.005760  1
  Co  Co20  1  0.500000  0.500000  0.156693  1
  Co  Co21  1  0.000000  0.000000  0.843256  1
  Co  Co22  1  0.500000  0.500000  0.704576  1
  Co  Co23  1  0.000000  0.000000  0.295853  1
  P  P24  1  0.500000  0.307215  0.617119  1
  P  P25  1  0.500000  0.692785  0.617119  1
  P  P26  1  0.000000  0.191452  0.382675  1
  P  P27  1  0.000000  0.808548  0.382675  1
  P  P28  1  0.500000  0.500000  0.882832  1
  P  P29  1  0.000000  0.000000  0.117373  1
  P  P30  1  0.500000  0.847030  0.894175  1
  P  P31  1  0.500000  0.152970  0.894175  1
  P  P32  1  0.000000  0.653122  0.105814  1
  P  P33  1  0.000000  0.346878  0.105814  1
  P  P34  1  0.500000  0.500000  0.340130  1
  P  P35  1  0.000000  0.000000  0.659677  1
