# generated using pymatgen
data_Cs2Ag2SnSe4
_symmetry_space_group_name_H-M   'P 1'
_cell_length_a   14.79819482
_cell_length_b   13.11900249
_cell_length_c   8.34480992
_cell_angle_alpha   84.03397773
_cell_angle_beta   61.85121633
_cell_angle_gamma   34.11480992
_symmetry_Int_Tables_number   1
_chemical_formula_structural   Cs2Ag2SnSe4
_chemical_formula_sum   'Cs4 Ag4 Sn2 Se8'
_cell_volume   652.82907228
_cell_formula_units_Z   2
loop_
 _symmetry_equiv_pos_site_id
 _symmetry_equiv_pos_as_xyz
  1  'x, y, z'
loop_
 _atom_site_type_symbol
 _atom_site_label
 _atom_site_symmetry_multiplicity
 _atom_site_fract_x
 _atom_site_fract_y
 _atom_site_fract_z
 _atom_site_occupancy
  Cs  Cs0  1  0.181486  0.181486  0.818514  1
  Cs  Cs1  1  0.068514  0.068514  0.431486  1
  Cs  Cs2  1  0.818514  0.818514  0.181486  1
  Cs  Cs3  1  0.431486  0.431486  0.068514  1
  Ag  Ag4  1  0.439541  0.439541  0.560459  1
  Ag  Ag5  1  0.689541  0.689541  0.810459  1
  Ag  Ag6  1  0.810459  0.810459  0.689541  1
  Ag  Ag7  1  0.560459  0.560459  0.439541  1
  Sn  Sn8  1  0.250000  0.250000  0.250000  1
  Sn  Sn9  1  0.000000  0.000000  0.000000  1
  Se  Se10  1  0.047742  0.834878  0.747302  1
  Se  Se11  1  0.879924  0.502698  0.415122  1
  Se  Se12  1  0.747302  0.370076  0.047742  1
  Se  Se13  1  0.502698  0.879924  0.202258  1
  Se  Se14  1  0.415122  0.202258  0.879924  1
  Se  Se15  1  0.202258  0.415122  0.502698  1
  Se  Se16  1  0.370076  0.747302  0.834878  1
  Se  Se17  1  0.834878  0.047742  0.370076  1
