# generated using pymatgen
data_Pr4Lu2Ga3Ge
_symmetry_space_group_name_H-M   'P 1'
_cell_length_a   7.70877889
_cell_length_b   7.70877889
_cell_length_c   4.54600300
_cell_angle_alpha   90.00000000
_cell_angle_beta   90.00000000
_cell_angle_gamma   90.20956791
_symmetry_Int_Tables_number   1
_chemical_formula_structural   Pr4Lu2Ga3Ge
_chemical_formula_sum   'Pr4 Lu2 Ga3 Ge1'
_cell_volume   270.14565770
_cell_formula_units_Z   1
loop_
 _symmetry_equiv_pos_site_id
 _symmetry_equiv_pos_as_xyz
  1  'x, y, z'
loop_
 _atom_site_type_symbol
 _atom_site_label
 _atom_site_symmetry_multiplicity
 _atom_site_fract_x
 _atom_site_fract_y
 _atom_site_fract_z
 _atom_site_occupancy
  Pr  Pr0  1  0.325289  0.175201  0.500001  1
  Pr  Pr1  1  0.822675  0.322674  0.500001  1
  Pr  Pr2  1  0.175461  0.675462  0.500001  1
  Pr  Pr3  1  0.675202  0.825290  0.500001  1
  Lu  Lu4  1  0.998168  0.000098  0.000000  1
  Lu  Lu5  1  0.500097  0.498167  0.000000  1
  Ga  Ga6  1  0.120579  0.380107  0.000000  1
  Ga  Ga7  1  0.880107  0.620578  0.000000  1
  Ga  Ga8  1  0.380033  0.880033  0.000000  1
  Ge  Ge9  1  0.622390  0.122391  0.000000  1
