# generated using pymatgen
data_Ti6Ga3CuO2
_symmetry_space_group_name_H-M   'P 1'
_cell_length_a   6.84924238
_cell_length_b   6.84475140
_cell_length_c   6.84180800
_cell_angle_alpha   90.00000000
_cell_angle_beta   90.00000000
_cell_angle_gamma   90.53255200
_symmetry_Int_Tables_number   1
_chemical_formula_structural   Ti6Ga3CuO2
_chemical_formula_sum   'Ti12 Ga6 Cu2 O4'
_cell_volume   320.73941793
_cell_formula_units_Z   2
loop_
 _symmetry_equiv_pos_site_id
 _symmetry_equiv_pos_as_xyz
  1  'x, y, z'
loop_
 _atom_site_type_symbol
 _atom_site_label
 _atom_site_symmetry_multiplicity
 _atom_site_fract_x
 _atom_site_fract_y
 _atom_site_fract_z
 _atom_site_occupancy
  Ti  Ti0  1  0.791520  0.960289  0.373884  1
  Ti  Ti1  1  0.708480  0.039711  0.873884  1
  Ti  Ti2  1  0.210177  0.457189  0.123418  1
  Ti  Ti3  1  0.289823  0.542811  0.623418  1
  Ti  Ti4  1  0.957348  0.375048  0.790890  1
  Ti  Ti5  1  0.040648  0.876882  0.710709  1
  Ti  Ti6  1  0.459352  0.123118  0.210709  1
  Ti  Ti7  1  0.542652  0.624952  0.290890  1
  Ti  Ti8  1  0.375174  0.789438  0.959360  1
  Ti  Ti9  1  0.875216  0.708572  0.042097  1
  Ti  Ti10  1  0.124826  0.210562  0.459360  1
  Ti  Ti11  1  0.624784  0.291428  0.542097  1
  Ga  Ga12  1  0.822539  0.319332  0.178588  1
  Ga  Ga13  1  0.677461  0.680668  0.678588  1
  Ga  Ga14  1  0.562232  0.420987  0.927049  1
  Ga  Ga15  1  0.419166  0.935065  0.571521  1
  Ga  Ga16  1  0.937768  0.579013  0.427049  1
  Ga  Ga17  1  0.080834  0.064935  0.071521  1
  Cu  Cu18  1  0.180842  0.822158  0.321890  1
  Cu  Cu19  1  0.319158  0.177842  0.821890  1
  O  O20  1  0.876572  0.125051  0.625109  1
  O  O21  1  0.623428  0.874949  0.125109  1
  O  O22  1  0.126030  0.624848  0.875483  1
  O  O23  1  0.373970  0.375152  0.375483  1
