# generated using pymatgen
data_Er3ScSb10
_symmetry_space_group_name_H-M   'P 1'
_cell_length_a   4.19881800
_cell_length_b   13.08045226
_cell_length_c   14.38326254
_cell_angle_alpha   78.67174710
_cell_angle_beta   90.00000000
_cell_angle_gamma   90.00000000
_symmetry_Int_Tables_number   1
_chemical_formula_structural   Er3ScSb10
_chemical_formula_sum   'Er6 Sc2 Sb20'
_cell_volume   774.57370925
_cell_formula_units_Z   2
loop_
 _symmetry_equiv_pos_site_id
 _symmetry_equiv_pos_as_xyz
  1  'x, y, z'
loop_
 _atom_site_type_symbol
 _atom_site_label
 _atom_site_symmetry_multiplicity
 _atom_site_fract_x
 _atom_site_fract_y
 _atom_site_fract_z
 _atom_site_occupancy
  Er  Er0  1  0.250000  0.660650  0.856608  1
  Er  Er1  1  0.750000  0.339350  0.143392  1
  Er  Er2  1  0.250000  0.668240  0.575640  1
  Er  Er3  1  0.750000  0.331760  0.424360  1
  Er  Er4  1  0.250000  0.952750  0.358255  1
  Er  Er5  1  0.750000  0.047250  0.641745  1
  Sc  Sc6  1  0.250000  0.395116  0.770035  1
  Sc  Sc7  1  0.750000  0.604884  0.229965  1
  Sb  Sb8  1  0.250000  0.146596  0.778524  1
  Sb  Sb9  1  0.750000  0.853404  0.221476  1
  Sb  Sb10  1  0.250000  0.144049  0.483526  1
  Sb  Sb11  1  0.750000  0.855951  0.516474  1
  Sb  Sb12  1  0.250000  0.153499  0.169167  1
  Sb  Sb13  1  0.750000  0.846501  0.830833  1
  Sb  Sb14  1  0.250000  0.421196  0.971667  1
  Sb  Sb15  1  0.750000  0.578804  0.028333  1
  Sb  Sb16  1  0.750000  0.029997  0.912258  1
  Sb  Sb17  1  0.250000  0.970003  0.087742  1
  Sb  Sb18  1  0.750000  0.139086  0.322031  1
  Sb  Sb19  1  0.250000  0.860914  0.677969  1
  Sb  Sb20  1  0.750000  0.280125  0.932721  1
  Sb  Sb21  1  0.250000  0.719875  0.067279  1
  Sb  Sb22  1  0.750000  0.287472  0.656168  1
  Sb  Sb23  1  0.250000  0.712528  0.343832  1
  Sb  Sb24  1  0.750000  0.570543  0.735541  1
  Sb  Sb25  1  0.250000  0.429457  0.264459  1
  Sb  Sb26  1  0.750000  0.570830  0.444411  1
  Sb  Sb27  1  0.250000  0.429170  0.555589  1
