# generated using pymatgen
data_Tm4Al5Ga13Ir5Pt
_symmetry_space_group_name_H-M   'P 1'
_cell_length_a   7.57646660
_cell_length_b   7.57431364
_cell_length_c   9.48012726
_cell_angle_alpha   90.06704607
_cell_angle_beta   89.92285658
_cell_angle_gamma   119.81688754
_symmetry_Int_Tables_number   1
_chemical_formula_structural   Tm4Al5Ga13Ir5Pt
_chemical_formula_sum   'Tm4 Al5 Ga13 Ir5 Pt1'
_cell_volume   472.01165319
_cell_formula_units_Z   1
loop_
 _symmetry_equiv_pos_site_id
 _symmetry_equiv_pos_as_xyz
  1  'x, y, z'
loop_
 _atom_site_type_symbol
 _atom_site_label
 _atom_site_symmetry_multiplicity
 _atom_site_fract_x
 _atom_site_fract_y
 _atom_site_fract_z
 _atom_site_occupancy
  Tm  Tm0  1  0.998978  0.668230  0.252098  1
  Tm  Tm1  1  0.998901  0.329829  0.749589  1
  Tm  Tm2  1  0.672691  0.000562  0.251986  1
  Tm  Tm3  1  0.329659  0.999097  0.745136  1
  Al  Al4  1  0.331654  0.998323  0.074818  1
  Al  Al5  1  0.331086  0.331035  0.554975  1
  Al  Al6  1  0.668427  0.668199  0.444885  1
  Al  Al7  1  0.668430  0.671528  0.057348  1
  Al  Al8  1  0.328433  0.332217  0.942020  1
  Ga  Ga9  1  0.127132  0.123450  0.250210  1
  Ga  Ga10  1  0.874923  0.874956  0.750655  1
  Ga  Ga11  1  0.002175  0.334886  0.081869  1
  Ga  Ga12  1  0.005463  0.669565  0.919436  1
  Ga  Ga13  1  0.000184  0.664635  0.580447  1
  Ga  Ga14  1  0.335295  0.998509  0.416959  1
  Ga  Ga15  1  0.000331  0.335120  0.419695  1
  Ga  Ga16  1  0.665031  0.000248  0.580632  1
  Ga  Ga17  1  0.663875  0.997938  0.919364  1
  Ga  Ga18  1  0.348390  0.553238  0.251037  1
  Ga  Ga19  1  0.653643  0.451445  0.748134  1
  Ga  Ga20  1  0.547512  0.344988  0.252693  1
  Ga  Ga21  1  0.447774  0.651300  0.750649  1
  Ir  Ir22  1  0.331060  0.672317  0.001927  1
  Ir  Ir23  1  0.330185  0.669519  0.501190  1
  Ir  Ir24  1  0.670214  0.329869  0.500476  1
  Ir  Ir25  1  0.002446  0.000192  0.000604  1
  Ir  Ir26  1  0.999459  0.000085  0.500404  1
  Pt  Pt27  1  0.666648  0.328722  0.000758  1
