# generated using pymatgen
data_ErFe2CuNi2P3
_symmetry_space_group_name_H-M   'P 1'
_cell_length_a   3.71920200
_cell_length_b   10.27879200
_cell_length_c   11.93632300
_cell_angle_alpha   90.00000000
_cell_angle_beta   90.00000000
_cell_angle_gamma   90.00000000
_symmetry_Int_Tables_number   1
_chemical_formula_structural   ErFe2CuNi2P3
_chemical_formula_sum   'Er4 Fe8 Cu4 Ni8 P12'
_cell_volume   456.31254326
_cell_formula_units_Z   4
loop_
 _symmetry_equiv_pos_site_id
 _symmetry_equiv_pos_as_xyz
  1  'x, y, z'
loop_
 _atom_site_type_symbol
 _atom_site_label
 _atom_site_symmetry_multiplicity
 _atom_site_fract_x
 _atom_site_fract_y
 _atom_site_fract_z
 _atom_site_occupancy
  Er  Er0  1  0.250000  0.575238  0.706230  1
  Er  Er1  1  0.250000  0.924762  0.206230  1
  Er  Er2  1  0.750000  0.424762  0.293770  1
  Er  Er3  1  0.750000  0.075238  0.793770  1
  Fe  Fe4  1  0.250000  0.868712  0.703619  1
  Fe  Fe5  1  0.250000  0.631288  0.203619  1
  Fe  Fe6  1  0.750000  0.131288  0.296381  1
  Fe  Fe7  1  0.750000  0.368712  0.796381  1
  Fe  Fe8  1  0.250000  0.458739  0.932894  1
  Fe  Fe9  1  0.250000  0.041261  0.432894  1
  Fe  Fe10  1  0.750000  0.541261  0.067106  1
  Fe  Fe11  1  0.750000  0.958739  0.567106  1
  Cu  Cu12  1  0.250000  0.709519  0.992237  1
  Cu  Cu13  1  0.250000  0.790481  0.492237  1
  Cu  Cu14  1  0.750000  0.290481  0.007763  1
  Cu  Cu15  1  0.750000  0.209519  0.507763  1
  Ni  Ni16  1  0.250000  0.408017  0.483600  1
  Ni  Ni17  1  0.250000  0.091984  0.983600  1
  Ni  Ni18  1  0.750000  0.591983  0.516400  1
  Ni  Ni19  1  0.750000  0.908017  0.016400  1
  Ni  Ni20  1  0.250000  0.230948  0.167011  1
  Ni  Ni21  1  0.250000  0.269052  0.667011  1
  Ni  Ni22  1  0.750000  0.769052  0.832989  1
  Ni  Ni23  1  0.750000  0.730948  0.332989  1
  P  P24  1  0.250000  0.440331  0.115257  1
  P  P25  1  0.250000  0.059669  0.615257  1
  P  P26  1  0.750000  0.559669  0.884743  1
  P  P27  1  0.750000  0.940331  0.384743  1
  P  P28  1  0.250000  0.267688  0.855976  1
  P  P29  1  0.250000  0.232312  0.355976  1
  P  P30  1  0.750000  0.732312  0.144024  1
  P  P31  1  0.750000  0.767688  0.644024  1
  P  P32  1  0.250000  0.602861  0.389214  1
  P  P33  1  0.250000  0.897139  0.889214  1
  P  P34  1  0.750000  0.397139  0.610786  1
  P  P35  1  0.750000  0.102861  0.110786  1
