# generated using pymatgen
data_TbMnAl8FeCu2
_symmetry_space_group_name_H-M   'P 1'
_cell_length_a   6.71288620
_cell_length_b   6.71288610
_cell_length_c   6.70716147
_cell_angle_alpha   98.36984226
_cell_angle_beta   98.36984200
_cell_angle_gamma   135.33263594
_symmetry_Int_Tables_number   1
_chemical_formula_structural   TbMnAl8FeCu2
_chemical_formula_sum   'Tb1 Mn1 Al8 Fe1 Cu2'
_cell_volume   196.26756070
_cell_formula_units_Z   1
loop_
 _symmetry_equiv_pos_site_id
 _symmetry_equiv_pos_as_xyz
  1  'x, y, z'
loop_
 _atom_site_type_symbol
 _atom_site_label
 _atom_site_symmetry_multiplicity
 _atom_site_fract_x
 _atom_site_fract_y
 _atom_site_fract_z
 _atom_site_occupancy
  Tb  Tb0  1  0.000000  0.000000  0.000000  1
  Mn  Mn1  1  0.500000  0.500000  0.500000  1
  Al  Al2  1  0.653926  0.989934  0.644109  1
  Al  Al3  1  0.989934  0.653926  0.644109  1
  Al  Al4  1  0.010066  0.346074  0.355891  1
  Al  Al5  1  0.346074  0.010066  0.355891  1
  Al  Al6  1  0.720796  0.503905  0.224156  1
  Al  Al7  1  0.503905  0.720796  0.224156  1
  Al  Al8  1  0.496095  0.279204  0.775844  1
  Al  Al9  1  0.279204  0.496095  0.775844  1
  Fe  Fe10  1  0.000000  0.000000  0.500000  1
  Cu  Cu11  1  0.500000  0.000000  0.000000  1
  Cu  Cu12  1  0.000000  0.500000  0.000000  1
