# generated using pymatgen
data_La10InGa5
_symmetry_space_group_name_H-M   'P 1'
_cell_length_a   9.51431791
_cell_length_b   9.51431712
_cell_length_c   9.51431700
_cell_angle_alpha   129.41591249
_cell_angle_beta   129.41591635
_cell_angle_gamma   74.34226079
_symmetry_Int_Tables_number   1
_chemical_formula_structural   La10InGa5
_chemical_formula_sum   'La10 In1 Ga5'
_cell_volume   501.05933218
_cell_formula_units_Z   1
loop_
 _symmetry_equiv_pos_site_id
 _symmetry_equiv_pos_as_xyz
  1  'x, y, z'
loop_
 _atom_site_type_symbol
 _atom_site_label
 _atom_site_symmetry_multiplicity
 _atom_site_fract_x
 _atom_site_fract_y
 _atom_site_fract_z
 _atom_site_occupancy
  La  La0  1  0.470550  0.470550  0.000000  1
  La  La1  1  0.029450  0.029450  0.000000  1
  La  La2  1  0.541300  0.018698  0.847659  1
  La  La3  1  0.171037  0.693639  0.152341  1
  La  La4  1  0.018698  0.171037  0.477398  1
  La  La5  1  0.693639  0.541300  0.522602  1
  La  La6  1  0.481302  0.958700  0.152341  1
  La  La7  1  0.806361  0.328963  0.847659  1
  La  La8  1  0.958700  0.806361  0.477398  1
  La  La9  1  0.328963  0.481302  0.522602  1
  In  In10  1  0.250000  0.250000  0.000000  1
  Ga  Ga11  1  0.750000  0.750000  0.000000  1
  Ga  Ga12  1  0.883049  0.383049  0.266096  1
  Ga  Ga13  1  0.116951  0.616951  0.733904  1
  Ga  Ga14  1  0.383049  0.116951  0.500000  1
  Ga  Ga15  1  0.616951  0.883049  0.500000  1
