# generated using pymatgen
data_Na4Al2InGaI16
_symmetry_space_group_name_H-M   'P 1'
_cell_length_a   8.02658113
_cell_length_b   8.58075256
_cell_length_c   15.78423548
_cell_angle_alpha   86.98884657
_cell_angle_beta   90.21885640
_cell_angle_gamma   89.96112859
_symmetry_Int_Tables_number   1
_chemical_formula_structural   Na4Al2InGaI16
_chemical_formula_sum   'Na4 Al2 In1 Ga1 I16'
_cell_volume   1085.61581245
_cell_formula_units_Z   1
loop_
 _symmetry_equiv_pos_site_id
 _symmetry_equiv_pos_as_xyz
  1  'x, y, z'
loop_
 _atom_site_type_symbol
 _atom_site_label
 _atom_site_symmetry_multiplicity
 _atom_site_fract_x
 _atom_site_fract_y
 _atom_site_fract_z
 _atom_site_occupancy
  Na  Na0  1  0.993593  0.847685  0.375737  1
  Na  Na1  1  0.496500  0.151447  0.124869  1
  Na  Na2  1  0.006067  0.152626  0.624919  1
  Na  Na3  1  0.507022  0.847544  0.874510  1
  Al  Al4  1  0.186900  0.707179  0.600524  1
  Al  Al5  1  0.686798  0.292751  0.899253  1
  In  In6  1  0.310183  0.702449  0.100990  1
  Ga  Ga7  1  0.812669  0.294016  0.399591  1
  I  I8  1  0.321155  0.685741  0.455224  1
  I  I9  1  0.821538  0.315569  0.044915  1
  I  I10  1  0.677392  0.314326  0.546360  1
  I  I11  1  0.171637  0.685827  0.942441  1
  I  I12  1  0.120224  0.198989  0.424330  1
  I  I13  1  0.636420  0.808676  0.074959  1
  I  I14  1  0.882161  0.799078  0.577532  1
  I  I15  1  0.382427  0.200811  0.922515  1
  I  I16  1  0.333040  0.927772  0.678938  1
  I  I17  1  0.832386  0.072903  0.820482  1
  I  I18  1  0.666352  0.069569  0.320555  1
  I  I19  1  0.159208  0.944150  0.184496  1
  I  I20  1  0.205078  0.453689  0.691936  1
  I  I21  1  0.703732  0.545791  0.807444  1
  I  I22  1  0.794777  0.548918  0.306539  1
  I  I23  1  0.292739  0.432493  0.200941  1
