# generated using pymatgen
data_Tb20Tc3NiSb8
_symmetry_space_group_name_H-M   'P 1'
_cell_length_a   7.90542519
_cell_length_b   8.96170200
_cell_length_c   12.21320466
_cell_angle_alpha   90.00005374
_cell_angle_beta   89.64818884
_cell_angle_gamma   90.00001372
_symmetry_Int_Tables_number   1
_chemical_formula_structural   Tb20Tc3NiSb8
_chemical_formula_sum   'Tb20 Tc3 Ni1 Sb8'
_cell_volume   865.24117689
_cell_formula_units_Z   1
loop_
 _symmetry_equiv_pos_site_id
 _symmetry_equiv_pos_as_xyz
  1  'x, y, z'
loop_
 _atom_site_type_symbol
 _atom_site_label
 _atom_site_symmetry_multiplicity
 _atom_site_fract_x
 _atom_site_fract_y
 _atom_site_fract_z
 _atom_site_occupancy
  Tb  Tb0  1  0.154292  0.750000  0.207581  1
  Tb  Tb1  1  0.660484  0.250000  0.286127  1
  Tb  Tb2  1  0.841773  0.250000  0.788150  1
  Tb  Tb3  1  0.337500  0.750000  0.712924  1
  Tb  Tb4  1  0.454249  0.750000  0.997342  1
  Tb  Tb5  1  0.953204  0.250000  0.502538  1
  Tb  Tb6  1  0.547247  0.250000  0.002946  1
  Tb  Tb7  1  0.047934  0.750000  0.495929  1
  Tb  Tb8  1  0.627188  0.750000  0.304039  1
  Tb  Tb9  1  0.125443  0.250000  0.198315  1
  Tb  Tb10  1  0.372654  0.250000  0.697544  1
  Tb  Tb11  1  0.872723  0.750000  0.801425  1
  Tb  Tb12  1  0.820275  0.960861  0.065958  1
  Tb  Tb13  1  0.321491  0.041084  0.435058  1
  Tb  Tb14  1  0.179004  0.461074  0.934296  1
  Tb  Tb15  1  0.680601  0.539906  0.567363  1
  Tb  Tb16  1  0.179004  0.038926  0.934295  1
  Tb  Tb17  1  0.680601  0.960094  0.567363  1
  Tb  Tb18  1  0.820275  0.539139  0.065958  1
  Tb  Tb19  1  0.321491  0.458916  0.435058  1
  Tc  Tc20  1  0.918068  0.250000  0.014655  1
  Tc  Tc21  1  0.580425  0.250000  0.512932  1
  Tc  Tc22  1  0.081832  0.750000  0.982956  1
  Ni  Ni23  1  0.424073  0.750000  0.488526  1
  Sb  Sb24  1  0.926928  0.992316  0.329425  1
  Sb  Sb25  1  0.427181  0.005554  0.173124  1
  Sb  Sb26  1  0.073367  0.493444  0.670346  1
  Sb  Sb27  1  0.571609  0.506630  0.827467  1
  Sb  Sb28  1  0.073366  0.006556  0.670346  1
  Sb  Sb29  1  0.571609  0.993370  0.827467  1
  Sb  Sb30  1  0.926929  0.507684  0.329424  1
  Sb  Sb31  1  0.427180  0.494446  0.173124  1
