# generated using pymatgen
data_Zr2Nb3Fe18CoP12
_symmetry_space_group_name_H-M   'P 1'
_cell_length_a   11.67739800
_cell_length_b   11.67739909
_cell_length_c   3.60082700
_cell_angle_alpha   90.00000000
_cell_angle_beta   90.00000000
_cell_angle_gamma   120.00000258
_symmetry_Int_Tables_number   1
_chemical_formula_structural   Zr2Nb3Fe18CoP12
_chemical_formula_sum   'Zr2 Nb3 Fe18 Co1 P12'
_cell_volume   425.23116118
_cell_formula_units_Z   1
loop_
 _symmetry_equiv_pos_site_id
 _symmetry_equiv_pos_as_xyz
  1  'x, y, z'
loop_
 _atom_site_type_symbol
 _atom_site_label
 _atom_site_symmetry_multiplicity
 _atom_site_fract_x
 _atom_site_fract_y
 _atom_site_fract_z
 _atom_site_occupancy
  Zr  Zr0  1  0.333333  0.666667  0.500000  1
  Zr  Zr1  1  0.666667  0.333333  0.500000  1
  Nb  Nb2  1  0.810566  0.000000  0.000000  1
  Nb  Nb3  1  0.000000  0.810566  0.000000  1
  Nb  Nb4  1  0.189434  0.189434  0.000000  1
  Fe  Fe5  1  0.627589  0.806767  0.500000  1
  Fe  Fe6  1  0.193233  0.820824  0.500000  1
  Fe  Fe7  1  0.179176  0.372411  0.500000  1
  Fe  Fe8  1  0.372411  0.179176  0.500000  1
  Fe  Fe9  1  0.806767  0.627589  0.500000  1
  Fe  Fe10  1  0.820824  0.193233  0.500000  1
  Fe  Fe11  1  0.279558  0.000000  0.000000  1
  Fe  Fe12  1  0.000000  0.279558  0.000000  1
  Fe  Fe13  1  0.720442  0.720442  0.000000  1
  Fe  Fe14  1  0.442091  0.000000  0.500000  1
  Fe  Fe15  1  0.000000  0.442091  0.500000  1
  Fe  Fe16  1  0.557909  0.557909  0.500000  1
  Fe  Fe17  1  0.516327  0.875896  0.000000  1
  Fe  Fe18  1  0.124104  0.640431  0.000000  1
  Fe  Fe19  1  0.359569  0.483673  0.000000  1
  Fe  Fe20  1  0.483673  0.359569  0.000000  1
  Fe  Fe21  1  0.875896  0.516327  0.000000  1
  Fe  Fe22  1  0.640431  0.124104  0.000000  1
  Co  Co23  1  0.000000  0.000000  0.500000  1
  P  P24  1  0.176884  0.000000  0.500000  1
  P  P25  1  0.000000  0.176884  0.500000  1
  P  P26  1  0.823116  0.823116  0.500000  1
  P  P27  1  0.520431  0.686643  0.000000  1
  P  P28  1  0.313357  0.833789  0.000000  1
  P  P29  1  0.166211  0.479569  0.000000  1
  P  P30  1  0.479569  0.166211  0.000000  1
  P  P31  1  0.686643  0.520431  0.000000  1
  P  P32  1  0.833789  0.313357  0.000000  1
  P  P33  1  0.632841  0.000000  0.500000  1
  P  P34  1  0.000000  0.632841  0.500000  1
  P  P35  1  0.367159  0.367159  0.500000  1
