# generated using pymatgen
data_PrErB6Os
_symmetry_space_group_name_H-M   'P 1'
_cell_length_a   3.70363400
_cell_length_b   9.23567300
_cell_length_c   11.68486500
_cell_angle_alpha   90.00000000
_cell_angle_beta   90.00000000
_cell_angle_gamma   90.00000000
_symmetry_Int_Tables_number   1
_chemical_formula_structural   PrErB6Os
_chemical_formula_sum   'Pr4 Er4 B24 Os4'
_cell_volume   399.68726363
_cell_formula_units_Z   4
loop_
 _symmetry_equiv_pos_site_id
 _symmetry_equiv_pos_as_xyz
  1  'x, y, z'
loop_
 _atom_site_type_symbol
 _atom_site_label
 _atom_site_symmetry_multiplicity
 _atom_site_fract_x
 _atom_site_fract_y
 _atom_site_fract_z
 _atom_site_occupancy
  Pr  Pr0  1  0.000000  0.322675  0.414445  1
  Pr  Pr1  1  0.000000  0.677325  0.585555  1
  Pr  Pr2  1  0.000000  0.822675  0.085555  1
  Pr  Pr3  1  0.000000  0.177325  0.914445  1
  Er  Er4  1  0.000000  0.944513  0.372424  1
  Er  Er5  1  0.000000  0.055487  0.627576  1
  Er  Er6  1  0.000000  0.444513  0.127576  1
  Er  Er7  1  0.000000  0.555487  0.872424  1
  B  B8  1  0.500000  0.556897  0.429691  1
  B  B9  1  0.500000  0.443103  0.570309  1
  B  B10  1  0.500000  0.056897  0.070309  1
  B  B11  1  0.500000  0.943103  0.929691  1
  B  B12  1  0.500000  0.750080  0.416793  1
  B  B13  1  0.500000  0.249920  0.583207  1
  B  B14  1  0.500000  0.250080  0.083207  1
  B  B15  1  0.500000  0.749920  0.916793  1
  B  B16  1  0.500000  0.790872  0.266981  1
  B  B17  1  0.500000  0.209128  0.733019  1
  B  B18  1  0.500000  0.290872  0.233019  1
  B  B19  1  0.500000  0.709128  0.766981  1
  B  B20  1  0.500000  0.630652  0.185281  1
  B  B21  1  0.500000  0.369348  0.814719  1
  B  B22  1  0.500000  0.130652  0.314719  1
  B  B23  1  0.500000  0.869348  0.685281  1
  B  B24  1  0.500000  0.986031  0.214495  1
  B  B25  1  0.500000  0.013969  0.785505  1
  B  B26  1  0.500000  0.486031  0.285505  1
  B  B27  1  0.500000  0.513969  0.714495  1
  B  B28  1  0.500000  0.601470  0.027706  1
  B  B29  1  0.500000  0.398530  0.972294  1
  B  B30  1  0.500000  0.101470  0.472294  1
  B  B31  1  0.500000  0.898530  0.527706  1
  Os  Os32  1  0.000000  0.639799  0.319045  1
  Os  Os33  1  0.000000  0.360201  0.680955  1
  Os  Os34  1  0.000000  0.139799  0.180955  1
  Os  Os35  1  0.000000  0.860201  0.819045  1
