# generated using pymatgen
data_Tb3Ho2FeBi2
_symmetry_space_group_name_H-M   'P 1'
_cell_length_a   7.97549500
_cell_length_b   8.93323400
_cell_length_c   12.43995100
_cell_angle_alpha   90.00000000
_cell_angle_beta   90.00000000
_cell_angle_gamma   90.00000000
_symmetry_Int_Tables_number   1
_chemical_formula_structural   Tb3Ho2FeBi2
_chemical_formula_sum   'Tb12 Ho8 Fe4 Bi8'
_cell_volume   886.30872987
_cell_formula_units_Z   4
loop_
 _symmetry_equiv_pos_site_id
 _symmetry_equiv_pos_as_xyz
  1  'x, y, z'
loop_
 _atom_site_type_symbol
 _atom_site_label
 _atom_site_symmetry_multiplicity
 _atom_site_fract_x
 _atom_site_fract_y
 _atom_site_fract_z
 _atom_site_occupancy
  Tb  Tb0  1  0.850176  0.750000  0.801668  1
  Tb  Tb1  1  0.149824  0.250000  0.198332  1
  Tb  Tb2  1  0.350176  0.250000  0.698332  1
  Tb  Tb3  1  0.649824  0.750000  0.301668  1
  Tb  Tb4  1  0.381212  0.750000  0.686916  1
  Tb  Tb5  1  0.618788  0.250000  0.313084  1
  Tb  Tb6  1  0.881212  0.250000  0.813084  1
  Tb  Tb7  1  0.118788  0.750000  0.186916  1
  Tb  Tb8  1  0.949143  0.750000  0.504886  1
  Tb  Tb9  1  0.050857  0.250000  0.495114  1
  Tb  Tb10  1  0.449143  0.250000  0.995114  1
  Tb  Tb11  1  0.550857  0.750000  0.004886  1
  Ho  Ho12  1  0.674144  0.033594  0.562840  1
  Ho  Ho13  1  0.325856  0.966406  0.437160  1
  Ho  Ho14  1  0.174144  0.966406  0.937160  1
  Ho  Ho15  1  0.325856  0.533594  0.437160  1
  Ho  Ho16  1  0.825856  0.033594  0.062840  1
  Ho  Ho17  1  0.674144  0.466406  0.562840  1
  Ho  Ho18  1  0.825856  0.466406  0.062840  1
  Ho  Ho19  1  0.174144  0.533594  0.937160  1
  Fe  Fe20  1  0.564598  0.750000  0.507811  1
  Fe  Fe21  1  0.435402  0.250000  0.492189  1
  Fe  Fe22  1  0.064598  0.250000  0.992189  1
  Fe  Fe23  1  0.935402  0.750000  0.007811  1
  Bi  Bi24  1  0.569887  0.494109  0.826044  1
  Bi  Bi25  1  0.430113  0.505891  0.173956  1
  Bi  Bi26  1  0.069887  0.505891  0.673956  1
  Bi  Bi27  1  0.430113  0.994109  0.173956  1
  Bi  Bi28  1  0.930113  0.494109  0.326044  1
  Bi  Bi29  1  0.569887  0.005891  0.826044  1
  Bi  Bi30  1  0.930113  0.005891  0.326044  1
  Bi  Bi31  1  0.069887  0.994109  0.673956  1
