# generated using pymatgen
data_NdHo4CdIn4Ir
_symmetry_space_group_name_H-M   'P 1'
_cell_length_a   3.64699400
_cell_length_b   8.33091898
_cell_length_c   18.64092532
_cell_angle_alpha   90.29598807
_cell_angle_beta   90.00000000
_cell_angle_gamma   90.00000000
_symmetry_Int_Tables_number   1
_chemical_formula_structural   NdHo4CdIn4Ir
_chemical_formula_sum   'Nd2 Ho8 Cd2 In8 Ir2'
_cell_volume   566.35616319
_cell_formula_units_Z   2
loop_
 _symmetry_equiv_pos_site_id
 _symmetry_equiv_pos_as_xyz
  1  'x, y, z'
loop_
 _atom_site_type_symbol
 _atom_site_label
 _atom_site_symmetry_multiplicity
 _atom_site_fract_x
 _atom_site_fract_y
 _atom_site_fract_z
 _atom_site_occupancy
  Nd  Nd0  1  0.000000  0.000000  0.000000  1
  Nd  Nd1  1  0.000000  0.500000  0.500000  1
  Ho  Ho2  1  0.000000  0.117172  0.413516  1
  Ho  Ho3  1  0.000000  0.882828  0.586484  1
  Ho  Ho4  1  0.000000  0.370177  0.923730  1
  Ho  Ho5  1  0.000000  0.629823  0.076270  1
  Ho  Ho6  1  0.000000  0.208476  0.223251  1
  Ho  Ho7  1  0.000000  0.791524  0.776749  1
  Ho  Ho8  1  0.000000  0.229782  0.713702  1
  Ho  Ho9  1  0.000000  0.770218  0.286298  1
  Cd  Cd10  1  0.500000  0.477261  0.800799  1
  Cd  Cd11  1  0.500000  0.522739  0.199201  1
  In  In12  1  0.500000  0.418512  0.349863  1
  In  In13  1  0.500000  0.581488  0.650137  1
  In  In14  1  0.500000  0.080418  0.849620  1
  In  In15  1  0.500000  0.919582  0.150380  1
  In  In16  1  0.500000  0.298733  0.069408  1
  In  In17  1  0.500000  0.701267  0.930592  1
  In  In18  1  0.500000  0.199505  0.567263  1
  In  In19  1  0.500000  0.800495  0.432737  1
  Ir  Ir20  1  0.500000  0.023392  0.305255  1
  Ir  Ir21  1  0.500000  0.976608  0.694745  1
