# generated using pymatgen
data_Y3Er2Tm3(CdPt)2
_symmetry_space_group_name_H-M   'P 1'
_cell_length_a   9.63365838
_cell_length_b   9.63365829
_cell_length_c   9.63365700
_cell_angle_alpha   60.00000098
_cell_angle_beta   60.00000131
_cell_angle_gamma   59.99999856
_symmetry_Int_Tables_number   1
_chemical_formula_structural   Y3Er2Tm3(CdPt)2
_chemical_formula_sum   'Y6 Er4 Tm6 Cd4 Pt4'
_cell_volume   632.20607351
_cell_formula_units_Z   2
loop_
 _symmetry_equiv_pos_site_id
 _symmetry_equiv_pos_as_xyz
  1  'x, y, z'
loop_
 _atom_site_type_symbol
 _atom_site_label
 _atom_site_symmetry_multiplicity
 _atom_site_fract_x
 _atom_site_fract_y
 _atom_site_fract_z
 _atom_site_occupancy
  Y  Y0  1  0.936780  0.563220  0.563220  1
  Y  Y1  1  0.563220  0.936780  0.936780  1
  Y  Y2  1  0.563220  0.936780  0.563220  1
  Y  Y3  1  0.936780  0.563220  0.936780  1
  Y  Y4  1  0.563220  0.563220  0.936780  1
  Y  Y5  1  0.936780  0.936780  0.563220  1
  Er  Er6  1  0.352242  0.352242  0.352242  1
  Er  Er7  1  0.352242  0.352242  0.943273  1
  Er  Er8  1  0.352242  0.943273  0.352242  1
  Er  Er9  1  0.943273  0.352242  0.352242  1
  Tm  Tm10  1  0.811640  0.188360  0.188360  1
  Tm  Tm11  1  0.188360  0.811640  0.811640  1
  Tm  Tm12  1  0.188360  0.811640  0.188360  1
  Tm  Tm13  1  0.811640  0.188360  0.811640  1
  Tm  Tm14  1  0.188360  0.188360  0.811640  1
  Tm  Tm15  1  0.811640  0.811640  0.188360  1
  Cd  Cd16  1  0.581501  0.581501  0.581501  1
  Cd  Cd17  1  0.581501  0.581501  0.255498  1
  Cd  Cd18  1  0.581501  0.255498  0.581501  1
  Cd  Cd19  1  0.255498  0.581501  0.581501  1
  Pt  Pt20  1  0.143027  0.143027  0.143027  1
  Pt  Pt21  1  0.143027  0.143027  0.570920  1
  Pt  Pt22  1  0.143027  0.570920  0.143027  1
  Pt  Pt23  1  0.570920  0.143027  0.143027  1
