# generated using pymatgen
data_Tm12Mn(TlFe)2
_symmetry_space_group_name_H-M   'P 1'
_cell_length_a   8.29280785
_cell_length_b   8.29335009
_cell_length_c   8.29280800
_cell_angle_alpha   108.56601875
_cell_angle_beta   108.58505454
_cell_angle_gamma   111.27509356
_symmetry_Int_Tables_number   1
_chemical_formula_structural   Tm12Mn(TlFe)2
_chemical_formula_sum   'Tm12 Mn1 Tl2 Fe2'
_cell_volume   438.73410579
_cell_formula_units_Z   1
loop_
 _symmetry_equiv_pos_site_id
 _symmetry_equiv_pos_as_xyz
  1  'x, y, z'
loop_
 _atom_site_type_symbol
 _atom_site_label
 _atom_site_symmetry_multiplicity
 _atom_site_fract_x
 _atom_site_fract_y
 _atom_site_fract_z
 _atom_site_occupancy
  Tm  Tm0  1  0.189647  0.425259  0.235611  1
  Tm  Tm1  1  0.810326  0.575121  0.764794  1
  Tm  Tm2  1  0.189639  0.954037  0.764398  1
  Tm  Tm3  1  0.954107  0.189662  0.764453  1
  Tm  Tm4  1  0.810333  0.045532  0.235200  1
  Tm  Tm5  1  0.045487  0.810319  0.235156  1
  Tm  Tm6  1  0.425210  0.189662  0.235557  1
  Tm  Tm7  1  0.575163  0.810319  0.764831  1
  Tm  Tm8  1  0.307642  0.307612  0.617376  1
  Tm  Tm9  1  0.690245  0.690261  0.382618  1
  Tm  Tm10  1  0.690236  0.307612  0.999970  1
  Tm  Tm11  1  0.307644  0.690261  0.000016  1
  Mn  Mn12  1  0.387613  0.387613  0.000000  1
  Tl  Tl13  1  0.999739  0.499748  0.500010  1
  Tl  Tl14  1  0.499756  0.999771  0.500015  1
  Fe  Fe15  1  0.617498  0.617493  0.999994  1
  Fe  Fe16  1  0.999715  0.999717  0.000002  1
