# generated using pymatgen
data_Tm7Lu3(Bi2Sb)2
_symmetry_space_group_name_H-M   'P 1'
_cell_length_a   8.06956403
_cell_length_b   9.36029571
_cell_length_c   11.80439904
_cell_angle_alpha   90.00316058
_cell_angle_beta   89.99059842
_cell_angle_gamma   90.02134783
_symmetry_Int_Tables_number   1
_chemical_formula_structural   Tm7Lu3(Bi2Sb)2
_chemical_formula_sum   'Tm14 Lu6 Bi8 Sb4'
_cell_volume   891.62756514
_cell_formula_units_Z   2
loop_
 _symmetry_equiv_pos_site_id
 _symmetry_equiv_pos_as_xyz
  1  'x, y, z'
loop_
 _atom_site_type_symbol
 _atom_site_label
 _atom_site_symmetry_multiplicity
 _atom_site_fract_x
 _atom_site_fract_y
 _atom_site_fract_z
 _atom_site_occupancy
  Tm  Tm0  1  0.527899  0.249911  0.988532  1
  Tm  Tm1  1  0.355345  0.249907  0.285127  1
  Tm  Tm2  1  0.644459  0.750499  0.714916  1
  Tm  Tm3  1  0.144380  0.750402  0.784937  1
  Tm  Tm4  1  0.855995  0.249973  0.214893  1
  Tm  Tm5  1  0.185906  0.249848  0.782317  1
  Tm  Tm6  1  0.814207  0.750180  0.217630  1
  Tm  Tm7  1  0.314238  0.750185  0.282509  1
  Tm  Tm8  1  0.685942  0.249959  0.717579  1
  Tm  Tm9  1  0.809691  0.564447  0.941179  1
  Tm  Tm10  1  0.690861  0.064185  0.441195  1
  Tm  Tm11  1  0.190150  0.435677  0.058833  1
  Tm  Tm12  1  0.690434  0.435604  0.441233  1
  Tm  Tm13  1  0.309417  0.564359  0.558839  1
  Lu  Lu14  1  0.027954  0.250101  0.511267  1
  Lu  Lu15  1  0.972518  0.750079  0.488825  1
  Lu  Lu16  1  0.472282  0.750183  0.011169  1
  Lu  Lu17  1  0.190586  0.065009  0.058957  1
  Lu  Lu18  1  0.809278  0.934863  0.941068  1
  Lu  Lu19  1  0.309244  0.934843  0.558883  1
  Bi  Bi20  1  0.066656  0.003598  0.326157  1
  Bi  Bi21  1  0.933331  0.996499  0.673807  1
  Bi  Bi22  1  0.432992  0.996066  0.825943  1
  Bi  Bi23  1  0.933221  0.503729  0.673774  1
  Bi  Bi24  1  0.566397  0.003376  0.174010  1
  Bi  Bi25  1  0.066793  0.496552  0.326201  1
  Bi  Bi26  1  0.566700  0.496732  0.173984  1
  Bi  Bi27  1  0.432865  0.504076  0.825915  1
  Sb  Sb28  1  0.406159  0.248982  0.542109  1
  Sb  Sb29  1  0.593419  0.750217  0.458246  1
  Sb  Sb30  1  0.093798  0.751264  0.042027  1
  Sb  Sb31  1  0.906881  0.248695  0.957939  1
