# generated using pymatgen
data_TbEr15In4IrRu3
_symmetry_space_group_name_H-M   'P 1'
_cell_length_a   9.57873523
_cell_length_b   9.57692378
_cell_length_c   9.59098700
_cell_angle_alpha   59.95140875
_cell_angle_beta   59.95767657
_cell_angle_gamma   59.81334349
_symmetry_Int_Tables_number   1
_chemical_formula_structural   TbEr15In4IrRu3
_chemical_formula_sum   'Tb1 Er15 In4 Ir1 Ru3'
_cell_volume   620.82359482
_cell_formula_units_Z   1
loop_
 _symmetry_equiv_pos_site_id
 _symmetry_equiv_pos_as_xyz
  1  'x, y, z'
loop_
 _atom_site_type_symbol
 _atom_site_label
 _atom_site_symmetry_multiplicity
 _atom_site_fract_x
 _atom_site_fract_y
 _atom_site_fract_z
 _atom_site_occupancy
  Tb  Tb0  1  0.057977  0.058304  0.441860  1
  Er  Er1  1  0.651491  0.044373  0.652068  1
  Er  Er2  1  0.191711  0.809508  0.190656  1
  Er  Er3  1  0.442512  0.058955  0.441634  1
  Er  Er4  1  0.193530  0.190775  0.807848  1
  Er  Er5  1  0.650618  0.651920  0.652575  1
  Er  Er6  1  0.044523  0.651630  0.651924  1
  Er  Er7  1  0.442512  0.058955  0.056899  1
  Er  Er8  1  0.650618  0.651920  0.044889  1
  Er  Er9  1  0.191711  0.809508  0.808126  1
  Er  Er10  1  0.808876  0.190811  0.807894  1
  Er  Er11  1  0.808876  0.190811  0.192421  1
  Er  Er12  1  0.809170  0.808554  0.191138  1
  Er  Er13  1  0.059637  0.442567  0.439737  1
  Er  Er14  1  0.439361  0.440977  0.059831  1
  Er  Er15  1  0.059637  0.442567  0.058059  1
  In  In16  1  0.747546  0.418397  0.417028  1
  In  In17  1  0.417337  0.417494  0.748254  1
  In  In18  1  0.418159  0.747930  0.416956  1
  In  In19  1  0.417337  0.417494  0.416914  1
  Ir  Ir20  1  0.858805  0.420978  0.860108  1
  Ru  Ru21  1  0.859152  0.858443  0.863169  1
  Ru  Ru22  1  0.419758  0.858690  0.860777  1
  Ru  Ru23  1  0.859152  0.858443  0.419238  1
