# generated using pymatgen
data_Dy8Tm7Sc5Bi12
_symmetry_space_group_name_H-M   'P 1'
_cell_length_a   8.07906375
_cell_length_b   9.32508368
_cell_length_c   11.92605312
_cell_angle_alpha   89.95817720
_cell_angle_beta   90.10448927
_cell_angle_gamma   89.97901911
_symmetry_Int_Tables_number   1
_chemical_formula_structural   Dy8Tm7Sc5Bi12
_chemical_formula_sum   'Dy8 Tm7 Sc5 Bi12'
_cell_volume   898.48254580
_cell_formula_units_Z   1
loop_
 _symmetry_equiv_pos_site_id
 _symmetry_equiv_pos_as_xyz
  1  'x, y, z'
loop_
 _atom_site_type_symbol
 _atom_site_label
 _atom_site_symmetry_multiplicity
 _atom_site_fract_x
 _atom_site_fract_y
 _atom_site_fract_z
 _atom_site_occupancy
  Dy  Dy0  1  0.353289  0.247591  0.282483  1
  Dy  Dy1  1  0.644181  0.749819  0.716611  1
  Dy  Dy2  1  0.145085  0.749308  0.784219  1
  Dy  Dy3  1  0.855243  0.249296  0.215601  1
  Dy  Dy4  1  0.185018  0.249304  0.781135  1
  Dy  Dy5  1  0.814372  0.749619  0.219042  1
  Dy  Dy6  1  0.314766  0.750632  0.280781  1
  Dy  Dy7  1  0.684640  0.249478  0.720139  1
  Tm  Tm8  1  0.804875  0.934238  0.941185  1
  Tm  Tm9  1  0.304134  0.933891  0.558746  1
  Tm  Tm10  1  0.805987  0.566160  0.941880  1
  Tm  Tm11  1  0.695431  0.065928  0.441041  1
  Tm  Tm12  1  0.195189  0.434931  0.058730  1
  Tm  Tm13  1  0.695585  0.433768  0.441175  1
  Tm  Tm14  1  0.304574  0.566417  0.559021  1
  Sc  Sc15  1  0.024328  0.250033  0.511856  1
  Sc  Sc16  1  0.976285  0.749701  0.486916  1
  Sc  Sc17  1  0.475955  0.750292  0.012232  1
  Sc  Sc18  1  0.522443  0.248187  0.988760  1
  Sc  Sc19  1  0.196170  0.068940  0.058025  1
  Bi  Bi20  1  0.401746  0.250305  0.542107  1
  Bi  Bi21  1  0.598671  0.749752  0.457410  1
  Bi  Bi22  1  0.100866  0.757079  0.043705  1
  Bi  Bi23  1  0.905038  0.248041  0.958594  1
  Bi  Bi24  1  0.066086  0.004032  0.329522  1
  Bi  Bi25  1  0.934054  0.995798  0.668581  1
  Bi  Bi26  1  0.432577  0.995760  0.832660  1
  Bi  Bi27  1  0.933902  0.503542  0.668839  1
  Bi  Bi28  1  0.563605  0.003930  0.167705  1
  Bi  Bi29  1  0.066045  0.495747  0.330586  1
  Bi  Bi30  1  0.565747  0.495140  0.168755  1
  Bi  Bi31  1  0.434113  0.503343  0.831956  1
