# generated using pymatgen
data_LuVTe10
_symmetry_space_group_name_H-M   'P 1'
_cell_length_a   8.36536010
_cell_length_b   8.36536035
_cell_length_c   13.72276700
_cell_angle_alpha   90.00000000
_cell_angle_beta   90.00000000
_cell_angle_gamma   152.48806938
_symmetry_Int_Tables_number   1
_chemical_formula_structural   LuVTe10
_chemical_formula_sum   'Lu1 V1 Te10'
_cell_volume   443.59869382
_cell_formula_units_Z   1
loop_
 _symmetry_equiv_pos_site_id
 _symmetry_equiv_pos_as_xyz
  1  'x, y, z'
loop_
 _atom_site_type_symbol
 _atom_site_label
 _atom_site_symmetry_multiplicity
 _atom_site_fract_x
 _atom_site_fract_y
 _atom_site_fract_z
 _atom_site_occupancy
  Lu  Lu0  1  0.692498  0.307502  0.750000  1
  V  V1  1  0.309927  0.690073  0.250000  1
  Te  Te2  1  0.791802  0.208198  0.937392  1
  Te  Te3  1  0.221860  0.778140  0.072968  1
  Te  Te4  1  0.333312  0.666688  0.750000  1
  Te  Te5  1  0.685018  0.314982  0.250000  1
  Te  Te6  1  0.069431  0.930569  0.849420  1
  Te  Te7  1  0.906529  0.093471  0.152182  1
  Te  Te8  1  0.906529  0.093471  0.347818  1
  Te  Te9  1  0.069431  0.930569  0.650580  1
  Te  Te10  1  0.791802  0.208198  0.562608  1
  Te  Te11  1  0.221860  0.778140  0.427032  1
