# generated using pymatgen
data_Pr2FeCo(P3Rh4)2
_symmetry_space_group_name_H-M   'P 1'
_cell_length_a   3.88261500
_cell_length_b   10.84378000
_cell_length_c   12.46012700
_cell_angle_alpha   90.00000000
_cell_angle_beta   90.00000000
_cell_angle_gamma   90.00000000
_symmetry_Int_Tables_number   1
_chemical_formula_structural   Pr2FeCo(P3Rh4)2
_chemical_formula_sum   'Pr4 Fe2 Co2 P12 Rh16'
_cell_volume   524.59904413
_cell_formula_units_Z   2
loop_
 _symmetry_equiv_pos_site_id
 _symmetry_equiv_pos_as_xyz
  1  'x, y, z'
loop_
 _atom_site_type_symbol
 _atom_site_label
 _atom_site_symmetry_multiplicity
 _atom_site_fract_x
 _atom_site_fract_y
 _atom_site_fract_z
 _atom_site_occupancy
  Pr  Pr0  1  0.250000  0.585181  0.707908  1
  Pr  Pr1  1  0.250000  0.914819  0.207908  1
  Pr  Pr2  1  0.750000  0.414884  0.292678  1
  Pr  Pr3  1  0.750000  0.085116  0.792678  1
  Fe  Fe4  1  0.250000  0.464501  0.935456  1
  Fe  Fe5  1  0.250000  0.035499  0.435456  1
  Co  Co6  1  0.750000  0.534060  0.066626  1
  Co  Co7  1  0.750000  0.965940  0.566626  1
  P  P8  1  0.250000  0.424805  0.104619  1
  P  P9  1  0.250000  0.075195  0.604619  1
  P  P10  1  0.750000  0.573791  0.895931  1
  P  P11  1  0.750000  0.926209  0.395931  1
  P  P12  1  0.250000  0.276043  0.873229  1
  P  P13  1  0.250000  0.223957  0.373229  1
  P  P14  1  0.750000  0.724299  0.125347  1
  P  P15  1  0.750000  0.775701  0.625347  1
  P  P16  1  0.250000  0.602158  0.389020  1
  P  P17  1  0.250000  0.897842  0.889020  1
  P  P18  1  0.750000  0.397189  0.610483  1
  P  P19  1  0.750000  0.102811  0.110483  1
  Rh  Rh20  1  0.250000  0.718203  0.989142  1
  Rh  Rh21  1  0.250000  0.781797  0.489142  1
  Rh  Rh22  1  0.750000  0.285390  0.011589  1
  Rh  Rh23  1  0.750000  0.214610  0.511589  1
  Rh  Rh24  1  0.250000  0.407396  0.482914  1
  Rh  Rh25  1  0.250000  0.092604  0.982914  1
  Rh  Rh26  1  0.750000  0.590992  0.516551  1
  Rh  Rh27  1  0.750000  0.909008  0.016551  1
  Rh  Rh28  1  0.250000  0.225481  0.176399  1
  Rh  Rh29  1  0.250000  0.274519  0.676399  1
  Rh  Rh30  1  0.750000  0.774081  0.822775  1
  Rh  Rh31  1  0.750000  0.725919  0.322775  1
  Rh  Rh32  1  0.250000  0.884828  0.696926  1
  Rh  Rh33  1  0.250000  0.615172  0.196926  1
  Rh  Rh34  1  0.750000  0.116472  0.302405  1
  Rh  Rh35  1  0.750000  0.383528  0.802405  1
