# generated using pymatgen
data_CaYb3(YZn2)4
_symmetry_space_group_name_H-M   'P 1'
_cell_length_a   7.09451308
_cell_length_b   7.11934100
_cell_length_c   7.07163200
_cell_angle_alpha   90.00000000
_cell_angle_beta   89.99115670
_cell_angle_gamma   90.00000000
_symmetry_Int_Tables_number   1
_chemical_formula_structural   CaYb3(YZn2)4
_chemical_formula_sum   'Ca1 Yb3 Y4 Zn8'
_cell_volume   357.17580842
_cell_formula_units_Z   1
loop_
 _symmetry_equiv_pos_site_id
 _symmetry_equiv_pos_as_xyz
  1  'x, y, z'
loop_
 _atom_site_type_symbol
 _atom_site_label
 _atom_site_symmetry_multiplicity
 _atom_site_fract_x
 _atom_site_fract_y
 _atom_site_fract_z
 _atom_site_occupancy
  Ca  Ca0  1  0.250421  0.750000  0.999728  1
  Yb  Yb1  1  0.749492  0.250000  0.000089  1
  Yb  Yb2  1  0.249514  0.750000  0.499935  1
  Yb  Yb3  1  0.750509  0.250000  0.500095  1
  Y  Y4  1  0.251048  0.250000  0.000024  1
  Y  Y5  1  0.749016  0.750000  0.000011  1
  Y  Y6  1  0.751037  0.750000  0.499997  1
  Y  Y7  1  0.249078  0.250000  0.500027  1
  Zn  Zn8  1  0.998408  0.498402  0.250216  1
  Zn  Zn9  1  0.998408  0.001600  0.250216  1
  Zn  Zn10  1  0.501717  0.001740  0.252681  1
  Zn  Zn11  1  0.501717  0.498260  0.252681  1
  Zn  Zn12  1  0.501578  0.498409  0.747332  1
  Zn  Zn13  1  0.501578  0.001593  0.747332  1
  Zn  Zn14  1  0.998239  0.001747  0.749819  1
  Zn  Zn15  1  0.998239  0.498253  0.749819  1
