# generated using pymatgen
data_Nb4Al6PtAu
_symmetry_space_group_name_H-M   'P 1'
_cell_length_a   5.24441800
_cell_length_b   5.24441818
_cell_length_c   8.10395300
_cell_angle_alpha   90.00000000
_cell_angle_beta   90.00000000
_cell_angle_gamma   119.99998626
_symmetry_Int_Tables_number   1
_chemical_formula_structural   Nb4Al6PtAu
_chemical_formula_sum   'Nb4 Al6 Pt1 Au1'
_cell_volume   193.02884804
_cell_formula_units_Z   1
loop_
 _symmetry_equiv_pos_site_id
 _symmetry_equiv_pos_as_xyz
  1  'x, y, z'
loop_
 _atom_site_type_symbol
 _atom_site_label
 _atom_site_symmetry_multiplicity
 _atom_site_fract_x
 _atom_site_fract_y
 _atom_site_fract_z
 _atom_site_occupancy
  Nb  Nb0  1  0.333333  0.666667  0.426800  1
  Nb  Nb1  1  0.666667  0.333333  0.573200  1
  Nb  Nb2  1  0.666667  0.333333  0.925838  1
  Nb  Nb3  1  0.333333  0.666667  0.074162  1
  Al  Al4  1  0.827788  0.172212  0.244672  1
  Al  Al5  1  0.827788  0.655574  0.244672  1
  Al  Al6  1  0.344426  0.172212  0.244672  1
  Al  Al7  1  0.172212  0.827788  0.755328  1
  Al  Al8  1  0.172212  0.344426  0.755328  1
  Al  Al9  1  0.655574  0.827788  0.755328  1
  Pt  Pt10  1  0.000000  0.000000  0.000000  1
  Au  Au11  1  0.000000  0.000000  0.500000  1
