# generated using pymatgen
data_Ti8Al15Ir2Pt2Rh3
_symmetry_space_group_name_H-M   'P 1'
_cell_length_a   8.66643320
_cell_length_b   8.65129552
_cell_length_c   8.67244916
_cell_angle_alpha   119.95547660
_cell_angle_beta   119.89712639
_cell_angle_gamma   90.12460564
_symmetry_Int_Tables_number   1
_chemical_formula_structural   Ti8Al15Ir2Pt2Rh3
_chemical_formula_sum   'Ti8 Al15 Ir2 Pt2 Rh3'
_cell_volume   460.30138380
_cell_formula_units_Z   1
loop_
 _symmetry_equiv_pos_site_id
 _symmetry_equiv_pos_as_xyz
  1  'x, y, z'
loop_
 _atom_site_type_symbol
 _atom_site_label
 _atom_site_symmetry_multiplicity
 _atom_site_fract_x
 _atom_site_fract_y
 _atom_site_fract_z
 _atom_site_occupancy
  Ti  Ti0  1  0.789022  0.290744  0.075021  1
  Ti  Ti1  1  0.216585  0.291437  0.501761  1
  Ti  Ti2  1  0.210604  0.709841  0.500578  1
  Ti  Ti3  1  0.214103  0.713806  0.922685  1
  Ti  Ti4  1  0.790633  0.713422  0.499749  1
  Ti  Ti5  1  0.784102  0.285405  0.500079  1
  Ti  Ti6  1  0.382329  0.127263  0.744717  1
  Ti  Ti7  1  0.379758  0.635154  0.256998  1
  Al  Al8  1  0.997583  0.496294  0.498701  1
  Al  Al9  1  0.151492  0.344084  0.189825  1
  Al  Al10  1  0.153237  0.965246  0.811744  1
  Al  Al11  1  0.149538  0.347972  0.806223  1
  Al  Al12  1  0.541424  0.346906  0.196336  1
  Al  Al13  1  0.846169  0.653617  0.809289  1
  Al  Al14  1  0.848100  0.038448  0.190917  1
  Al  Al15  1  0.842912  0.651848  0.184915  1
  Al  Al16  1  0.467420  0.652594  0.810773  1
  Al  Al17  1  0.376784  0.123642  0.261291  1
  Al  Al18  1  0.862069  0.123577  0.746354  1
  Al  Al19  1  0.619131  0.875286  0.256461  1
  Al  Al20  1  0.621995  0.365059  0.743190  1
  Al  Al21  1  0.623332  0.876654  0.740243  1
  Al  Al22  1  0.136829  0.876489  0.253546  1
  Ir  Ir23  1  0.496989  0.497797  0.000744  1
  Ir  Ir24  1  0.497835  0.499786  0.497642  1
  Pt  Pt25  1  0.000108  0.999286  0.500094  1
  Pt  Pt26  1  0.499332  0.999160  0.999054  1
  Rh  Rh27  1  0.001049  0.499549  0.001039  1
  Rh  Rh28  1  0.000084  0.999795  0.999508  1
  Rh  Rh29  1  0.499446  0.999839  0.500521  1
