# generated using pymatgen
data_Li3Zr2Ir6W
_symmetry_space_group_name_H-M   'P 1'
_cell_length_a   4.42677405
_cell_length_b   6.22082500
_cell_length_c   13.24236218
_cell_angle_alpha   89.99940672
_cell_angle_beta   90.00053190
_cell_angle_gamma   90.00007562
_symmetry_Int_Tables_number   1
_chemical_formula_structural   Li3Zr2Ir6W
_chemical_formula_sum   'Li6 Zr4 Ir12 W2'
_cell_volume   364.67064215
_cell_formula_units_Z   2
loop_
 _symmetry_equiv_pos_site_id
 _symmetry_equiv_pos_as_xyz
  1  'x, y, z'
loop_
 _atom_site_type_symbol
 _atom_site_label
 _atom_site_symmetry_multiplicity
 _atom_site_fract_x
 _atom_site_fract_y
 _atom_site_fract_z
 _atom_site_occupancy
  Li  Li0  1  0.000003  0.000013  0.999419  1
  Li  Li1  1  0.499998  0.499985  0.167198  1
  Li  Li2  1  0.999983  0.000010  0.331828  1
  Li  Li3  1  0.500000  0.499999  0.498907  1
  Li  Li4  1  0.000018  0.999999  0.667716  1
  Li  Li5  1  0.500007  0.499998  0.834869  1
  Zr  Zr6  1  0.999980  0.499997  0.331032  1
  Zr  Zr7  1  0.500001  0.000000  0.499145  1
  Zr  Zr8  1  0.000021  0.500002  0.667537  1
  Zr  Zr9  1  0.500003  0.000000  0.835633  1
  Ir  Ir10  1  0.499995  0.260694  0.007415  1
  Ir  Ir11  1  0.499999  0.739305  0.007417  1
  Ir  Ir12  1  0.999995  0.239317  0.159240  1
  Ir  Ir13  1  0.999996  0.760686  0.159239  1
  Ir  Ir14  1  0.499980  0.243153  0.324474  1
  Ir  Ir15  1  0.499983  0.756854  0.324471  1
  Ir  Ir16  1  0.000005  0.250721  0.498405  1
  Ir  Ir17  1  0.000004  0.749277  0.498404  1
  Ir  Ir18  1  0.500017  0.249289  0.668294  1
  Ir  Ir19  1  0.500017  0.750712  0.668294  1
  Ir  Ir20  1  0.000002  0.256849  0.842199  1
  Ir  Ir21  1  0.000003  0.743149  0.842200  1
  W  W22  1  0.999993  0.500013  0.000674  1
  W  W23  1  0.499997  0.999985  0.165991  1
