# generated using pymatgen
data_Th2Mn3Fe5Ni4P7
_symmetry_space_group_name_H-M   'P 1'
_cell_length_a   9.16831213
_cell_length_b   9.14990233
_cell_length_c   3.72452700
_cell_angle_alpha   90.00000000
_cell_angle_beta   90.00000000
_cell_angle_gamma   119.89614159
_symmetry_Int_Tables_number   1
_chemical_formula_structural   Th2Mn3Fe5Ni4P7
_chemical_formula_sum   'Th2 Mn3 Fe5 Ni4 P7'
_cell_volume   270.87016079
_cell_formula_units_Z   1
loop_
 _symmetry_equiv_pos_site_id
 _symmetry_equiv_pos_as_xyz
  1  'x, y, z'
loop_
 _atom_site_type_symbol
 _atom_site_label
 _atom_site_symmetry_multiplicity
 _atom_site_fract_x
 _atom_site_fract_y
 _atom_site_fract_z
 _atom_site_occupancy
  Th  Th0  1  0.331826  0.664852  0.000000  1
  Th  Th1  1  0.001896  0.000378  0.500000  1
  Mn  Mn2  1  0.779193  0.232110  0.500000  1
  Mn  Mn3  1  0.766729  0.543780  0.500000  1
  Mn  Mn4  1  0.455379  0.225360  0.500000  1
  Fe  Fe5  1  0.545166  0.058327  0.000000  1
  Fe  Fe6  1  0.941236  0.486318  0.000000  1
  Fe  Fe7  1  0.514083  0.454302  0.000000  1
  Fe  Fe8  1  0.099940  0.718533  0.500000  1
  Fe  Fe9  1  0.281156  0.382212  0.500000  1
  Ni  Ni10  1  0.033419  0.268887  0.000000  1
  Ni  Ni11  1  0.734002  0.765937  0.000000  1
  Ni  Ni12  1  0.235298  0.968469  0.000000  1
  Ni  Ni13  1  0.614813  0.895990  0.500000  1
  P  P14  1  0.769122  0.033458  0.000000  1
  P  P15  1  0.971655  0.736038  0.000000  1
  P  P16  1  0.262884  0.236303  0.000000  1
  P  P17  1  0.376153  0.936382  0.500000  1
  P  P18  1  0.064784  0.447224  0.500000  1
  P  P19  1  0.554024  0.611806  0.500000  1
  P  P20  1  0.667246  0.333332  0.000000  1
