# generated using pymatgen
data_Dy2ZrTi3(SnRh)6
_symmetry_space_group_name_H-M   'P 1'
_cell_length_a   7.40950531
_cell_length_b   7.41560898
_cell_length_c   7.23316800
_cell_angle_alpha   90.00000000
_cell_angle_beta   90.00000000
_cell_angle_gamma   119.97617254
_symmetry_Int_Tables_number   1
_chemical_formula_structural   Dy2ZrTi3(SnRh)6
_chemical_formula_sum   'Dy2 Zr1 Ti3 Sn6 Rh6'
_cell_volume   344.27020930
_cell_formula_units_Z   1
loop_
 _symmetry_equiv_pos_site_id
 _symmetry_equiv_pos_as_xyz
  1  'x, y, z'
loop_
 _atom_site_type_symbol
 _atom_site_label
 _atom_site_symmetry_multiplicity
 _atom_site_fract_x
 _atom_site_fract_y
 _atom_site_fract_z
 _atom_site_occupancy
  Dy  Dy0  1  0.596367  0.998677  0.250000  1
  Dy  Dy1  1  0.403800  0.401929  0.250000  1
  Zr  Zr2  1  0.001251  0.600453  0.250000  1
  Ti  Ti3  1  0.615077  0.005473  0.750000  1
  Ti  Ti4  1  0.385004  0.390389  0.750000  1
  Ti  Ti5  1  0.000257  0.609360  0.750000  1
  Sn  Sn6  1  0.271264  0.998783  0.984491  1
  Sn  Sn7  1  0.728456  0.726785  0.515353  1
  Sn  Sn8  1  0.000182  0.273778  0.504887  1
  Sn  Sn9  1  0.000182  0.273778  0.995113  1
  Sn  Sn10  1  0.728456  0.726785  0.984647  1
  Sn  Sn11  1  0.271264  0.998783  0.515509  1
  Rh  Rh12  1  0.670079  0.335595  0.955728  1
  Rh  Rh13  1  0.670079  0.335595  0.544272  1
  Rh  Rh14  1  0.329278  0.665313  0.956058  1
  Rh  Rh15  1  0.329278  0.665313  0.543942  1
  Rh  Rh16  1  0.999645  0.005717  0.750000  1
  Rh  Rh17  1  0.000085  0.987494  0.250000  1
