# generated using pymatgen
data_AuBr11
_symmetry_space_group_name_H-M   'P 1'
_cell_length_a   9.05796352
_cell_length_b   8.55732928
_cell_length_c   9.02016756
_cell_angle_alpha   75.34847147
_cell_angle_beta   110.18320917
_cell_angle_gamma   119.94590682
_symmetry_Int_Tables_number   1
_chemical_formula_structural   AuBr11
_chemical_formula_sum   'Au1 Br11'
_cell_volume   565.82119512
_cell_formula_units_Z   1
loop_
 _symmetry_equiv_pos_site_id
 _symmetry_equiv_pos_as_xyz
  1  'x, y, z'
loop_
 _atom_site_type_symbol
 _atom_site_label
 _atom_site_symmetry_multiplicity
 _atom_site_fract_x
 _atom_site_fract_y
 _atom_site_fract_z
 _atom_site_occupancy
  Au  Au0  1  0.000000  0.500000  0.500000  1
  Br  Br1  1  0.000000  0.000000  0.000000  1
  Br  Br2  1  0.702418  0.793177  0.065454  1
  Br  Br3  1  0.521985  0.206673  0.191236  1
  Br  Br4  1  0.062984  0.469031  0.136644  1
  Br  Br5  1  0.755168  0.188319  0.457161  1
  Br  Br6  1  0.792886  0.611377  0.492943  1
  Br  Br7  1  0.207114  0.388623  0.507058  1
  Br  Br8  1  0.244832  0.811681  0.542839  1
  Br  Br9  1  0.937017  0.530969  0.863356  1
  Br  Br10  1  0.478014  0.793327  0.808764  1
  Br  Br11  1  0.297583  0.206823  0.934547  1
