# generated using pymatgen
data_Pr3ThCdOs
_symmetry_space_group_name_H-M   'P 1'
_cell_length_a   10.01498328
_cell_length_b   10.01581879
_cell_length_c   10.01572437
_cell_angle_alpha   60.11166000
_cell_angle_beta   60.11312053
_cell_angle_gamma   60.11330088
_symmetry_Int_Tables_number   1
_chemical_formula_structural   Pr3ThCdOs
_chemical_formula_sum   'Pr12 Th4 Cd4 Os4'
_cell_volume   712.21561918
_cell_formula_units_Z   4
loop_
 _symmetry_equiv_pos_site_id
 _symmetry_equiv_pos_as_xyz
  1  'x, y, z'
loop_
 _atom_site_type_symbol
 _atom_site_label
 _atom_site_symmetry_multiplicity
 _atom_site_fract_x
 _atom_site_fract_y
 _atom_site_fract_z
 _atom_site_occupancy
  Pr  Pr0  1  0.809031  0.191149  0.191108  1
  Pr  Pr1  1  0.190993  0.808249  0.808248  1
  Pr  Pr2  1  0.191141  0.808958  0.191194  1
  Pr  Pr3  1  0.808186  0.191110  0.808216  1
  Pr  Pr4  1  0.191097  0.191201  0.808989  1
  Pr  Pr5  1  0.808197  0.808227  0.191078  1
  Pr  Pr6  1  0.942121  0.559012  0.559048  1
  Pr  Pr7  1  0.557649  0.941498  0.941472  1
  Pr  Pr8  1  0.559023  0.942256  0.558981  1
  Pr  Pr9  1  0.941488  0.557644  0.941520  1
  Pr  Pr10  1  0.559054  0.558972  0.942207  1
  Pr  Pr11  1  0.941472  0.941532  0.557645  1
  Th  Th12  1  0.344141  0.344133  0.344146  1
  Th  Th13  1  0.345269  0.345293  0.964564  1
  Th  Th14  1  0.345280  0.964538  0.345296  1
  Th  Th15  1  0.964596  0.345274  0.345265  1
  Cd  Cd16  1  0.579317  0.579354  0.579350  1
  Cd  Cd17  1  0.579621  0.579642  0.260407  1
  Cd  Cd18  1  0.579634  0.260390  0.579654  1
  Cd  Cd19  1  0.260449  0.579611  0.579611  1
  Os  Os20  1  0.144853  0.144842  0.144835  1
  Os  Os21  1  0.145627  0.145547  0.566046  1
  Os  Os22  1  0.145632  0.566032  0.145567  1
  Os  Os23  1  0.566124  0.145532  0.145549  1
