# generated using pymatgen
data_Nb2TlSe4
_symmetry_space_group_name_H-M   'P 1'
_cell_length_a   3.57325300
_cell_length_b   6.07906101
_cell_length_c   16.94624500
_cell_angle_alpha   90.00000000
_cell_angle_beta   90.00000000
_cell_angle_gamma   90.00232800
_symmetry_Int_Tables_number   1
_chemical_formula_structural   Nb2TlSe4
_chemical_formula_sum   'Nb4 Tl2 Se8'
_cell_volume   368.10672290
_cell_formula_units_Z   2
loop_
 _symmetry_equiv_pos_site_id
 _symmetry_equiv_pos_as_xyz
  1  'x, y, z'
loop_
 _atom_site_type_symbol
 _atom_site_label
 _atom_site_symmetry_multiplicity
 _atom_site_fract_x
 _atom_site_fract_y
 _atom_site_fract_z
 _atom_site_occupancy
  Nb  Nb0  1  0.000027  0.000039  0.749979  1
  Nb  Nb1  1  0.500027  0.500039  0.750021  1
  Nb  Nb2  1  0.999973  0.999961  0.250021  1
  Nb  Nb3  1  0.499973  0.499961  0.249979  1
  Tl  Tl4  1  0.000000  0.000000  0.500000  1
  Tl  Tl5  1  0.500000  0.500000  0.000000  1
  Se  Se6  1  0.500068  0.166927  0.652874  1
  Se  Se7  1  0.000079  0.664157  0.652600  1
  Se  Se8  1  0.999921  0.335843  0.347400  1
  Se  Se9  1  0.499932  0.833073  0.347126  1
  Se  Se10  1  0.999932  0.333073  0.152874  1
  Se  Se11  1  0.499921  0.835843  0.152600  1
  Se  Se12  1  0.500079  0.164157  0.847400  1
  Se  Se13  1  0.000068  0.666927  0.847126  1
