# generated using pymatgen
data_Ce(Nd2Os)2
_symmetry_space_group_name_H-M   'P 1'
_cell_length_a   8.82468802
_cell_length_b   8.82468593
_cell_length_c   7.30982069
_cell_angle_alpha   82.32520074
_cell_angle_beta   82.32520046
_cell_angle_gamma   43.82912302
_symmetry_Int_Tables_number   1
_chemical_formula_structural   Ce(Nd2Os)2
_chemical_formula_sum   'Ce2 Nd8 Os4'
_cell_volume   390.10751291
_cell_formula_units_Z   2
loop_
 _symmetry_equiv_pos_site_id
 _symmetry_equiv_pos_as_xyz
  1  'x, y, z'
loop_
 _atom_site_type_symbol
 _atom_site_label
 _atom_site_symmetry_multiplicity
 _atom_site_fract_x
 _atom_site_fract_y
 _atom_site_fract_z
 _atom_site_occupancy
  Ce  Ce0  1  0.580954  0.419046  0.750000  1
  Ce  Ce1  1  0.419046  0.580954  0.250000  1
  Nd  Nd2  1  0.213054  0.968668  0.582767  1
  Nd  Nd3  1  0.031332  0.786946  0.917233  1
  Nd  Nd4  1  0.209075  0.352516  0.312749  1
  Nd  Nd5  1  0.647484  0.790925  0.187251  1
  Nd  Nd6  1  0.790925  0.647484  0.687251  1
  Nd  Nd7  1  0.352516  0.209075  0.812749  1
  Nd  Nd8  1  0.968668  0.213054  0.082767  1
  Nd  Nd9  1  0.786946  0.031332  0.417233  1
  Os  Os10  1  0.203042  0.594813  0.559109  1
  Os  Os11  1  0.405187  0.796958  0.940891  1
  Os  Os12  1  0.796958  0.405187  0.440891  1
  Os  Os13  1  0.594813  0.203042  0.059109  1
