# generated using pymatgen
data_Y5Ho2Co3Sn23Ru3
_symmetry_space_group_name_H-M   'P 1'
_cell_length_a   9.79271300
_cell_length_b   9.79279094
_cell_length_c   10.03537800
_cell_angle_alpha   90.00000141
_cell_angle_beta   90.00165868
_cell_angle_gamma   120.00026596
_symmetry_Int_Tables_number   1
_chemical_formula_structural   Y5Ho2Co3Sn23Ru3
_chemical_formula_sum   'Y5 Ho2 Co3 Sn23 Ru3'
_cell_volume   833.43687753
_cell_formula_units_Z   1
loop_
 _symmetry_equiv_pos_site_id
 _symmetry_equiv_pos_as_xyz
  1  'x, y, z'
loop_
 _atom_site_type_symbol
 _atom_site_label
 _atom_site_symmetry_multiplicity
 _atom_site_fract_x
 _atom_site_fract_y
 _atom_site_fract_z
 _atom_site_occupancy
  Y  Y0  1  0.999995  0.999997  0.985581  1
  Y  Y1  1  0.518112  0.481864  0.694809  1
  Y  Y2  1  0.518112  0.036247  0.694809  1
  Y  Y3  1  0.963746  0.481873  0.694884  1
  Y  Y4  1  0.038920  0.519461  0.306388  1
  Ho  Ho5  1  0.480745  0.961506  0.306302  1
  Ho  Ho6  1  0.480745  0.519240  0.306302  1
  Co  Co7  1  0.338637  0.169318  0.200501  1
  Co  Co8  1  0.830496  0.661479  0.200427  1
  Co  Co9  1  0.830496  0.169017  0.200427  1
  Sn  Sn10  1  0.666509  0.333254  0.183802  1
  Sn  Sn11  1  0.666681  0.333340  0.880659  1
  Sn  Sn12  1  0.333685  0.666843  0.123097  1
  Sn  Sn13  1  0.349955  0.345894  0.004926  1
  Sn  Sn14  1  0.995895  0.650101  0.004821  1
  Sn  Sn15  1  0.654113  0.004052  0.004917  1
  Sn  Sn16  1  0.654113  0.650061  0.004917  1
  Sn  Sn17  1  0.333338  0.666670  0.820316  1
  Sn  Sn18  1  0.436201  0.218101  0.452731  1
  Sn  Sn19  1  0.220156  0.780170  0.542688  1
  Sn  Sn20  1  0.220156  0.439984  0.542688  1
  Sn  Sn21  1  0.559955  0.779977  0.542530  1
  Sn  Sn22  1  0.117070  0.883174  0.270848  1
  Sn  Sn23  1  0.781664  0.563834  0.452823  1
  Sn  Sn24  1  0.781664  0.217831  0.452823  1
  Sn  Sn25  1  0.349955  0.004061  0.004926  1
  Sn  Sn26  1  0.117070  0.233896  0.270848  1
  Sn  Sn27  1  0.765914  0.882957  0.270907  1
  Sn  Sn28  1  0.237424  0.118712  0.722844  1
  Sn  Sn29  1  0.881288  0.762577  0.722852  1
  Sn  Sn30  1  0.881288  0.118711  0.722852  1
  Sn  Sn31  1  0.999987  0.999993  0.495446  1
  Sn  Sn32  1  0.995895  0.345794  0.004821  1
  Ru  Ru33  1  0.168111  0.831895  0.803169  1
  Ru  Ru34  1  0.168111  0.336217  0.803169  1
  Ru  Ru35  1  0.663795  0.831898  0.803143  1
