# generated using pymatgen
data_PrEr7Sc12Si15Ir
_symmetry_space_group_name_H-M   'P 1'
_cell_length_a   7.08231710
_cell_length_b   7.44109324
_cell_length_c   13.96659544
_cell_angle_alpha   90.12048813
_cell_angle_beta   90.05673989
_cell_angle_gamma   90.21887342
_symmetry_Int_Tables_number   1
_chemical_formula_structural   PrEr7Sc12Si15Ir
_chemical_formula_sum   'Pr1 Er7 Sc12 Si15 Ir1'
_cell_volume   736.03475468
_cell_formula_units_Z   1
loop_
 _symmetry_equiv_pos_site_id
 _symmetry_equiv_pos_as_xyz
  1  'x, y, z'
loop_
 _atom_site_type_symbol
 _atom_site_label
 _atom_site_symmetry_multiplicity
 _atom_site_fract_x
 _atom_site_fract_y
 _atom_site_fract_z
 _atom_site_occupancy
  Pr  Pr0  1  0.010616  0.176975  0.094420  1
  Er  Er1  1  0.990234  0.825256  0.902363  1
  Er  Er2  1  0.489947  0.677578  0.903121  1
  Er  Er3  1  0.989827  0.825562  0.595908  1
  Er  Er4  1  0.511626  0.323285  0.096178  1
  Er  Er5  1  0.012490  0.180839  0.403453  1
  Er  Er6  1  0.512067  0.323089  0.405647  1
  Er  Er7  1  0.488078  0.677577  0.594966  1
  Sc  Sc8  1  0.157248  0.501327  0.749812  1
  Sc  Sc9  1  0.839509  0.496953  0.250789  1
  Sc  Sc10  1  0.338825  0.005937  0.250739  1
  Sc  Sc11  1  0.667552  0.996254  0.749933  1
  Sc  Sc12  1  0.318546  0.171333  0.627347  1
  Sc  Sc13  1  0.671315  0.826105  0.374818  1
  Sc  Sc14  1  0.173273  0.676657  0.375705  1
  Sc  Sc15  1  0.672263  0.825795  0.127268  1
  Sc  Sc16  1  0.835682  0.318930  0.627358  1
  Sc  Sc17  1  0.320856  0.172164  0.871661  1
  Sc  Sc18  1  0.833277  0.321786  0.871773  1
  Sc  Sc19  1  0.172811  0.676533  0.126051  1
  Si  Si20  1  0.969455  0.880823  0.252222  1
  Si  Si21  1  0.470712  0.613215  0.250991  1
  Si  Si22  1  0.528494  0.390117  0.748806  1
  Si  Si23  1  0.285839  0.865592  0.749241  1
  Si  Si24  1  0.710177  0.131540  0.253450  1
  Si  Si25  1  0.217137  0.373096  0.252562  1
  Si  Si26  1  0.778496  0.626369  0.748883  1
  Si  Si27  1  0.159582  0.467418  0.538142  1
  Si  Si28  1  0.843116  0.535817  0.462069  1
  Si  Si29  1  0.343901  0.967302  0.460574  1
  Si  Si30  1  0.840444  0.541220  0.036099  1
  Si  Si31  1  0.655301  0.033312  0.539319  1
  Si  Si32  1  0.159962  0.473403  0.959697  1
  Si  Si33  1  0.655408  0.032727  0.960153  1
  Si  Si34  1  0.350787  0.963116  0.038298  1
  Ir  Ir35  1  0.025150  0.104995  0.750182  1
