# generated using pymatgen
data_Zn4Cd12Cu7Pt
_symmetry_space_group_name_H-M   'P 1'
_cell_length_a   8.35543289
_cell_length_b   8.35205639
_cell_length_c   8.35205700
_cell_angle_alpha   59.99999364
_cell_angle_beta   60.01336054
_cell_angle_gamma   60.01335961
_symmetry_Int_Tables_number   1
_chemical_formula_structural   Zn4Cd12Cu7Pt
_chemical_formula_sum   'Zn4 Cd12 Cu7 Pt1'
_cell_volume   412.21944606
_cell_formula_units_Z   1
loop_
 _symmetry_equiv_pos_site_id
 _symmetry_equiv_pos_as_xyz
  1  'x, y, z'
loop_
 _atom_site_type_symbol
 _atom_site_label
 _atom_site_symmetry_multiplicity
 _atom_site_fract_x
 _atom_site_fract_y
 _atom_site_fract_z
 _atom_site_occupancy
  Zn  Zn0  1  0.123107  0.625631  0.625631  1
  Zn  Zn1  1  0.623480  0.123942  0.626289  1
  Zn  Zn2  1  0.623480  0.626289  0.123942  1
  Zn  Zn3  1  0.623480  0.626289  0.626289  1
  Cd  Cd4  1  0.809228  0.811084  0.189844  1
  Cd  Cd5  1  0.191037  0.190324  0.809320  1
  Cd  Cd6  1  0.809228  0.189844  0.811084  1
  Cd  Cd7  1  0.191037  0.809320  0.190324  1
  Cd  Cd8  1  0.191037  0.809320  0.809320  1
  Cd  Cd9  1  0.809228  0.189844  0.189844  1
  Cd  Cd10  1  0.441462  0.441957  0.058291  1
  Cd  Cd11  1  0.062064  0.052644  0.442646  1
  Cd  Cd12  1  0.441462  0.058291  0.441957  1
  Cd  Cd13  1  0.062064  0.442646  0.052644  1
  Cd  Cd14  1  0.062064  0.442646  0.442646  1
  Cd  Cd15  1  0.441462  0.058291  0.058291  1
  Cu  Cu16  1  0.414428  0.745230  0.420170  1
  Cu  Cu17  1  0.414428  0.420170  0.745230  1
  Cu  Cu18  1  0.414428  0.420170  0.420170  1
  Cu  Cu19  1  0.509356  0.830215  0.830215  1
  Cu  Cu20  1  0.830540  0.508114  0.830674  1
  Cu  Cu21  1  0.830540  0.830674  0.508114  1
  Cu  Cu22  1  0.830540  0.830674  0.830674  1
  Pt  Pt23  1  0.750823  0.416392  0.416392  1
