# generated using pymatgen
data_PrPa3(NbN2)4
_symmetry_space_group_name_H-M   'P 1'
_cell_length_a   3.34124800
_cell_length_b   5.76994300
_cell_length_c   11.07507401
_cell_angle_alpha   89.99558933
_cell_angle_beta   90.00000000
_cell_angle_gamma   90.00000000
_symmetry_Int_Tables_number   1
_chemical_formula_structural   PrPa3(NbN2)4
_chemical_formula_sum   'Pr1 Pa3 Nb4 N8'
_cell_volume   213.51425270
_cell_formula_units_Z   1
loop_
 _symmetry_equiv_pos_site_id
 _symmetry_equiv_pos_as_xyz
  1  'x, y, z'
loop_
 _atom_site_type_symbol
 _atom_site_label
 _atom_site_symmetry_multiplicity
 _atom_site_fract_x
 _atom_site_fract_y
 _atom_site_fract_z
 _atom_site_occupancy
  Pr  Pr0  1  0.250000  0.579117  0.853851  1
  Pa  Pa1  1  0.750000  0.426562  0.141732  1
  Pa  Pa2  1  0.750000  0.924427  0.356726  1
  Pa  Pa3  1  0.250000  0.078908  0.645333  1
  Nb  Nb4  1  0.250000  0.923552  0.100320  1
  Nb  Nb5  1  0.750000  0.072563  0.906381  1
  Nb  Nb6  1  0.750000  0.575754  0.594905  1
  Nb  Nb7  1  0.250000  0.425766  0.402601  1
  N  N8  1  0.250000  0.658720  0.246920  1
  N  N9  1  0.750000  0.323724  0.743762  1
  N  N10  1  0.750000  0.850278  0.738993  1
  N  N11  1  0.250000  0.158384  0.257832  1
  N  N12  1  0.250000  0.766656  0.503496  1
  N  N13  1  0.750000  0.234868  0.493735  1
  N  N14  1  0.750000  0.742275  0.011389  1
  N  N15  1  0.250000  0.258445  0.002023  1
