# generated using pymatgen
data_Sc5Tl2In2GaRh
_symmetry_space_group_name_H-M   'P 1'
_cell_length_a   3.41718000
_cell_length_b   7.84574487
_cell_length_c   17.68545808
_cell_angle_alpha   89.09602317
_cell_angle_beta   90.00000000
_cell_angle_gamma   90.00000000
_symmetry_Int_Tables_number   1
_chemical_formula_structural   Sc5Tl2In2GaRh
_chemical_formula_sum   'Sc10 Tl4 In4 Ga2 Rh2'
_cell_volume   474.09382074
_cell_formula_units_Z   2
loop_
 _symmetry_equiv_pos_site_id
 _symmetry_equiv_pos_as_xyz
  1  'x, y, z'
loop_
 _atom_site_type_symbol
 _atom_site_label
 _atom_site_symmetry_multiplicity
 _atom_site_fract_x
 _atom_site_fract_y
 _atom_site_fract_z
 _atom_site_occupancy
  Sc  Sc0  1  0.000000  0.000000  0.000000  1
  Sc  Sc1  1  0.000000  0.500000  0.500000  1
  Sc  Sc2  1  0.000000  0.735055  0.784065  1
  Sc  Sc3  1  0.000000  0.264945  0.215935  1
  Sc  Sc4  1  0.000000  0.275623  0.723011  1
  Sc  Sc5  1  0.000000  0.724377  0.276989  1
  Sc  Sc6  1  0.000000  0.873751  0.578620  1
  Sc  Sc7  1  0.000000  0.126249  0.421380  1
  Sc  Sc8  1  0.000000  0.376887  0.915564  1
  Sc  Sc9  1  0.000000  0.623113  0.084436  1
  Tl  Tl10  1  0.500000  0.792342  0.432508  1
  Tl  Tl11  1  0.500000  0.207658  0.567492  1
  Tl  Tl12  1  0.500000  0.296711  0.064782  1
  Tl  Tl13  1  0.500000  0.703289  0.935218  1
  In  In14  1  0.500000  0.918858  0.148453  1
  In  In15  1  0.500000  0.081142  0.851547  1
  In  In16  1  0.500000  0.421739  0.351686  1
  In  In17  1  0.500000  0.578261  0.648314  1
  Ga  Ga18  1  0.500000  0.966820  0.697412  1
  Ga  Ga19  1  0.500000  0.033180  0.302588  1
  Rh  Rh20  1  0.500000  0.463666  0.804353  1
  Rh  Rh21  1  0.500000  0.536334  0.195647  1
