# generated using pymatgen
data_Y20Cd4FeHg2Pd
_symmetry_space_group_name_H-M   'P 1'
_cell_length_a   9.70440328
_cell_length_b   9.69576183
_cell_length_c   9.77615000
_cell_angle_alpha   90.00000000
_cell_angle_beta   90.00000000
_cell_angle_gamma   119.97055094
_symmetry_Int_Tables_number   1
_chemical_formula_structural   Y20Cd4FeHg2Pd
_chemical_formula_sum   'Y20 Cd4 Fe1 Hg2 Pd1'
_cell_volume   796.85272575
_cell_formula_units_Z   1
loop_
 _symmetry_equiv_pos_site_id
 _symmetry_equiv_pos_as_xyz
  1  'x, y, z'
loop_
 _atom_site_type_symbol
 _atom_site_label
 _atom_site_symmetry_multiplicity
 _atom_site_fract_x
 _atom_site_fract_y
 _atom_site_fract_z
 _atom_site_occupancy
  Y  Y0  1  0.212526  0.788295  0.935541  1
  Y  Y1  1  0.212526  0.424231  0.935541  1
  Y  Y2  1  0.575925  0.787962  0.935427  1
  Y  Y3  1  0.792447  0.207726  0.057187  1
  Y  Y4  1  0.792447  0.584722  0.057187  1
  Y  Y5  1  0.415417  0.207709  0.056808  1
  Y  Y6  1  0.792447  0.207726  0.442813  1
  Y  Y7  1  0.792447  0.584722  0.442813  1
  Y  Y8  1  0.415417  0.207709  0.443192  1
  Y  Y9  1  0.212526  0.788295  0.564459  1
  Y  Y10  1  0.212526  0.424231  0.564459  1
  Y  Y11  1  0.575925  0.787962  0.564573  1
  Y  Y12  1  0.543436  0.461620  0.750000  1
  Y  Y13  1  0.543436  0.081815  0.750000  1
  Y  Y14  1  0.918916  0.459457  0.750000  1
  Y  Y15  1  0.456817  0.543472  0.250000  1
  Y  Y16  1  0.456817  0.913344  0.250000  1
  Y  Y17  1  0.086708  0.543354  0.250000  1
  Y  Y18  1  0.996751  0.998375  0.994479  1
  Y  Y19  1  0.996751  0.998375  0.505521  1
  Cd  Cd20  1  0.234754  0.117377  0.750000  1
  Cd  Cd21  1  0.114318  0.885443  0.250000  1
  Cd  Cd22  1  0.114318  0.228873  0.250000  1
  Cd  Cd23  1  0.770411  0.885205  0.250000  1
  Fe  Fe24  1  0.333643  0.666822  0.750000  1
  Hg  Hg25  1  0.881750  0.120577  0.750000  1
  Hg  Hg26  1  0.881750  0.761174  0.750000  1
  Pd  Pd27  1  0.666850  0.333425  0.250000  1
