# generated using pymatgen
data_Li4CaYb(YSi4)2
_symmetry_space_group_name_H-M   'P 1'
_cell_length_a   3.79577000
_cell_length_b   7.77267003
_cell_length_c   10.39237117
_cell_angle_alpha   89.98735950
_cell_angle_beta   90.00000000
_cell_angle_gamma   90.00000000
_symmetry_Int_Tables_number   1
_chemical_formula_structural   Li4CaYb(YSi4)2
_chemical_formula_sum   'Li4 Ca1 Yb1 Y2 Si8'
_cell_volume   306.60890149
_cell_formula_units_Z   1
loop_
 _symmetry_equiv_pos_site_id
 _symmetry_equiv_pos_as_xyz
  1  'x, y, z'
loop_
 _atom_site_type_symbol
 _atom_site_label
 _atom_site_symmetry_multiplicity
 _atom_site_fract_x
 _atom_site_fract_y
 _atom_site_fract_z
 _atom_site_occupancy
  Li  Li0  1  0.250000  0.997117  0.391128  1
  Li  Li1  1  0.750000  0.009246  0.608955  1
  Li  Li2  1  0.250000  0.493353  0.109396  1
  Li  Li3  1  0.750000  0.508034  0.892852  1
  Ca  Ca4  1  0.750000  0.363639  0.364935  1
  Yb  Yb5  1  0.750000  0.861811  0.134052  1
  Y  Y6  1  0.250000  0.130432  0.864373  1
  Y  Y7  1  0.250000  0.632499  0.635173  1
  Si  Si8  1  0.750000  0.263895  0.063204  1
  Si  Si9  1  0.250000  0.736080  0.929040  1
  Si  Si10  1  0.750000  0.767687  0.435535  1
  Si  Si11  1  0.250000  0.237636  0.572309  1
  Si  Si12  1  0.750000  0.838669  0.816294  1
  Si  Si13  1  0.250000  0.156629  0.171227  1
  Si  Si14  1  0.750000  0.340994  0.684833  1
  Si  Si15  1  0.250000  0.662276  0.326693  1
