# generated using pymatgen
data_Ho11ErCo4BiIr
_symmetry_space_group_name_H-M   'P 1'
_cell_length_a   8.31496206
_cell_length_b   8.31750741
_cell_length_c   8.31495993
_cell_angle_alpha   110.61005904
_cell_angle_beta   111.12284737
_cell_angle_gamma   106.70411552
_symmetry_Int_Tables_number   1
_chemical_formula_structural   Ho11ErCo4BiIr
_chemical_formula_sum   'Ho11 Er1 Co4 Bi1 Ir1'
_cell_volume   441.97011440
_cell_formula_units_Z   1
loop_
 _symmetry_equiv_pos_site_id
 _symmetry_equiv_pos_as_xyz
  1  'x, y, z'
loop_
 _atom_site_type_symbol
 _atom_site_label
 _atom_site_symmetry_multiplicity
 _atom_site_fract_x
 _atom_site_fract_y
 _atom_site_fract_z
 _atom_site_occupancy
  Ho  Ho0  1  0.284759  0.181790  0.466788  1
  Ho  Ho1  1  0.714837  0.818087  0.532704  1
  Ho  Ho2  1  0.285384  0.818087  0.103249  1
  Ho  Ho3  1  0.715002  0.181790  0.897032  1
  Ho  Ho4  1  0.621599  0.311827  0.309321  1
  Ho  Ho5  1  0.378727  0.688195  0.690780  1
  Ho  Ho6  1  0.002507  0.311827  0.690229  1
  Ho  Ho7  1  0.997414  0.688195  0.309466  1
  Ho  Ho8  1  0.211804  0.409484  0.197680  1
  Ho  Ho9  1  0.788128  0.590674  0.802546  1
  Ho  Ho10  1  0.211818  0.014219  0.802401  1
  Er  Er11  1  0.788242  0.985870  0.197628  1
  Co  Co12  1  0.999810  0.376262  0.376451  1
  Co  Co13  1  0.000111  0.623447  0.623336  1
  Co  Co14  1  0.389304  0.889358  0.500054  1
  Co  Co15  1  0.610795  0.110540  0.499744  1
  Bi  Bi16  1  0.500143  0.500271  0.000128  1
  Ir  Ir17  1  0.999614  0.000076  0.000461  1
