# generated using pymatgen
data_CrSiCl8
_symmetry_space_group_name_H-M   'P 1'
_cell_length_a   6.93400900
_cell_length_b   10.52007219
_cell_length_c   10.60920314
_cell_angle_alpha   77.12844430
_cell_angle_beta   90.00000000
_cell_angle_gamma   90.00000000
_symmetry_Int_Tables_number   1
_chemical_formula_structural   CrSiCl8
_chemical_formula_sum   'Cr2 Si2 Cl16'
_cell_volume   754.45517371
_cell_formula_units_Z   2
loop_
 _symmetry_equiv_pos_site_id
 _symmetry_equiv_pos_as_xyz
  1  'x, y, z'
loop_
 _atom_site_type_symbol
 _atom_site_label
 _atom_site_symmetry_multiplicity
 _atom_site_fract_x
 _atom_site_fract_y
 _atom_site_fract_z
 _atom_site_occupancy
  Cr  Cr0  1  0.928329  0.249705  0.643018  1
  Cr  Cr1  1  0.428329  0.750295  0.856982  1
  Si  Si2  1  0.071676  0.750349  0.356857  1
  Si  Si3  1  0.571676  0.249651  0.143143  1
  Cl  Cl4  1  0.073140  0.406422  0.697526  1
  Cl  Cl5  1  0.573140  0.593578  0.802474  1
  Cl  Cl6  1  0.932485  0.599642  0.304604  1
  Cl  Cl7  1  0.432485  0.400358  0.195396  1
  Cl  Cl8  1  0.930923  0.085230  0.800054  1
  Cl  Cl9  1  0.430923  0.914770  0.699946  1
  Cl  Cl10  1  0.069212  0.908332  0.206035  1
  Cl  Cl11  1  0.569212  0.091668  0.293965  1
  Cl  Cl12  1  0.070103  0.202867  0.482639  1
  Cl  Cl13  1  0.570103  0.797133  0.017361  1
  Cl  Cl14  1  0.935438  0.795246  0.511206  1
  Cl  Cl15  1  0.435438  0.204754  0.988794  1
  Cl  Cl16  1  0.639709  0.304373  0.592634  1
  Cl  Cl17  1  0.139709  0.695627  0.907366  1
  Cl  Cl18  1  0.348986  0.697721  0.405455  1
  Cl  Cl19  1  0.848986  0.302279  0.094545  1
