# generated using pymatgen
data_La4YHo5Ir4
_symmetry_space_group_name_H-M   'P 1'
_cell_length_a   6.57339901
_cell_length_b   7.23580241
_cell_length_c   8.84786094
_cell_angle_alpha   96.93997542
_cell_angle_beta   111.76526662
_cell_angle_gamma   90.13293155
_symmetry_Int_Tables_number   1
_chemical_formula_structural   La4YHo5Ir4
_chemical_formula_sum   'La4 Y1 Ho5 Ir4'
_cell_volume   387.46607742
_cell_formula_units_Z   1
loop_
 _symmetry_equiv_pos_site_id
 _symmetry_equiv_pos_as_xyz
  1  'x, y, z'
loop_
 _atom_site_type_symbol
 _atom_site_label
 _atom_site_symmetry_multiplicity
 _atom_site_fract_x
 _atom_site_fract_y
 _atom_site_fract_z
 _atom_site_occupancy
  La  La0  1  0.975917  0.918410  0.194457  1
  La  La1  1  0.781019  0.581363  0.805442  1
  La  La2  1  0.024222  0.081806  0.805539  1
  La  La3  1  0.218864  0.418228  0.194711  1
  Y  Y4  1  0.641460  0.816388  0.433582  1
  Ho  Ho5  1  0.208316  0.682742  0.566383  1
  Ho  Ho6  1  0.358661  0.183440  0.567092  1
  Ho  Ho7  1  0.791910  0.317191  0.433707  1
  Ho  Ho8  1  0.429924  0.750386  0.999937  1
  Ho  Ho9  1  0.569975  0.249606  0.999873  1
  Ir  Ir10  1  0.816011  0.575285  0.226263  1
  Ir  Ir11  1  0.588710  0.924491  0.773905  1
  Ir  Ir12  1  0.184468  0.424079  0.773190  1
  Ir  Ir13  1  0.410544  0.076586  0.225916  1
