# generated using pymatgen
data_Er4LuSi6P6Ir19
_symmetry_space_group_name_H-M   'P 1'
_cell_length_a   12.78290601
_cell_length_b   12.77880814
_cell_length_c   3.93886600
_cell_angle_alpha   90.00000000
_cell_angle_beta   90.00000000
_cell_angle_gamma   120.01417874
_symmetry_Int_Tables_number   1
_chemical_formula_structural   Er4LuSi6P6Ir19
_chemical_formula_sum   'Er4 Lu1 Si6 P6 Ir19'
_cell_volume   557.13406841
_cell_formula_units_Z   1
loop_
 _symmetry_equiv_pos_site_id
 _symmetry_equiv_pos_as_xyz
  1  'x, y, z'
loop_
 _atom_site_type_symbol
 _atom_site_label
 _atom_site_symmetry_multiplicity
 _atom_site_fract_x
 _atom_site_fract_y
 _atom_site_fract_z
 _atom_site_occupancy
  Er  Er0  1  0.666672  0.333303  0.000000  1
  Er  Er1  1  0.333332  0.666671  0.000000  1
  Er  Er2  1  0.185217  0.001803  0.500000  1
  Er  Er3  1  0.998116  0.183362  0.500000  1
  Lu  Lu4  1  0.816883  0.814954  0.500000  1
  Si  Si5  1  0.681830  0.162438  0.500000  1
  Si  Si6  1  0.837393  0.519230  0.500000  1
  Si  Si7  1  0.480848  0.318265  0.500000  1
  Si  Si8  1  0.637003  0.636361  0.000000  1
  Si  Si9  1  0.364191  0.000758  0.000000  1
  Si  Si10  1  0.999222  0.363426  0.000000  1
  P  P11  1  0.177854  0.693793  0.500000  1
  P  P12  1  0.515878  0.822117  0.500000  1
  P  P13  1  0.306229  0.484161  0.500000  1
  P  P14  1  0.175694  0.179866  0.000000  1
  P  P15  1  0.819771  0.995421  0.000000  1
  P  P16  1  0.003953  0.824043  0.000000  1
  Ir  Ir17  1  0.809361  0.175572  0.000000  1
  Ir  Ir18  1  0.824259  0.634677  0.000000  1
  Ir  Ir19  1  0.366271  0.190570  0.000000  1
  Ir  Ir20  1  0.182749  0.800968  0.000000  1
  Ir  Ir21  1  0.618749  0.816931  0.000000  1
  Ir  Ir22  1  0.198862  0.381764  0.000000  1
  Ir  Ir23  1  0.458539  0.443270  0.000000  1
  Ir  Ir24  1  0.556985  0.015275  0.000000  1
  Ir  Ir25  1  0.984592  0.541773  0.000000  1
  Ir  Ir26  1  0.277308  0.283877  0.500000  1
  Ir  Ir27  1  0.716230  0.992958  0.500000  1
  Ir  Ir28  1  0.006452  0.722779  0.500000  1
  Ir  Ir29  1  0.868416  0.352963  0.500000  1
  Ir  Ir30  1  0.647234  0.515800  0.500000  1
  Ir  Ir31  1  0.484629  0.131576  0.500000  1
  Ir  Ir32  1  0.368363  0.873612  0.500000  1
  Ir  Ir33  1  0.505360  0.631636  0.500000  1
  Ir  Ir34  1  0.126326  0.494767  0.500000  1
  Ir  Ir35  1  0.999228  0.999260  0.000000  1
