# generated using pymatgen
data_Yb(NO3)2
_symmetry_space_group_name_H-M   'P 1'
_cell_length_a   7.74223500
_cell_length_b   7.74223500
_cell_length_c   7.74223500
_cell_angle_alpha   90.00000000
_cell_angle_beta   90.00000000
_cell_angle_gamma   90.00000000
_symmetry_Int_Tables_number   1
_chemical_formula_structural   Yb(NO3)2
_chemical_formula_sum   'Yb4 N8 O24'
_cell_volume   464.08662046
_cell_formula_units_Z   4
loop_
 _symmetry_equiv_pos_site_id
 _symmetry_equiv_pos_as_xyz
  1  'x, y, z'
loop_
 _atom_site_type_symbol
 _atom_site_label
 _atom_site_symmetry_multiplicity
 _atom_site_fract_x
 _atom_site_fract_y
 _atom_site_fract_z
 _atom_site_occupancy
  Yb  Yb0  1  0.000000  0.500000  0.500000  1
  Yb  Yb1  1  0.500000  0.500000  0.000000  1
  Yb  Yb2  1  0.500000  0.000000  0.500000  1
  Yb  Yb3  1  0.000000  0.000000  0.000000  1
  N  N4  1  0.336856  0.336856  0.336856  1
  N  N5  1  0.336856  0.163144  0.836856  1
  N  N6  1  0.163144  0.836856  0.336856  1
  N  N7  1  0.836856  0.336856  0.163144  1
  N  N8  1  0.663144  0.663144  0.663144  1
  N  N9  1  0.163144  0.663144  0.836856  1
  N  N10  1  0.836856  0.163144  0.663144  1
  N  N11  1  0.663144  0.836856  0.163144  1
  O  O12  1  0.745137  0.298536  0.033396  1
  O  O13  1  0.201464  0.966604  0.245137  1
  O  O14  1  0.254863  0.798536  0.466604  1
  O  O15  1  0.245137  0.201464  0.966604  1
  O  O16  1  0.245137  0.298536  0.466604  1
  O  O17  1  0.466604  0.245137  0.298536  1
  O  O18  1  0.298536  0.466604  0.245137  1
  O  O19  1  0.201464  0.533396  0.745137  1
  O  O20  1  0.966604  0.254863  0.701464  1
  O  O21  1  0.701464  0.966604  0.254863  1
  O  O22  1  0.033396  0.754863  0.798536  1
  O  O23  1  0.533396  0.745137  0.201464  1
  O  O24  1  0.798536  0.033396  0.754863  1
  O  O25  1  0.745137  0.201464  0.533396  1
  O  O26  1  0.754863  0.798536  0.033396  1
  O  O27  1  0.254863  0.701464  0.966604  1
  O  O28  1  0.754863  0.701464  0.533396  1
  O  O29  1  0.533396  0.754863  0.701464  1
  O  O30  1  0.701464  0.533396  0.754863  1
  O  O31  1  0.798536  0.466604  0.254863  1
  O  O32  1  0.033396  0.745137  0.298536  1
  O  O33  1  0.298536  0.033396  0.745137  1
  O  O34  1  0.966604  0.245137  0.201464  1
  O  O35  1  0.466604  0.254863  0.798536  1
