# generated using pymatgen
data_Ba5(Sn3Pb2)3
_symmetry_space_group_name_H-M   'P 1'
_cell_length_a   7.32195000
_cell_length_b   7.32194976
_cell_length_c   28.72050400
_cell_angle_alpha   90.00000000
_cell_angle_beta   90.00000000
_cell_angle_gamma   119.99999207
_symmetry_Int_Tables_number   1
_chemical_formula_structural   Ba5(Sn3Pb2)3
_chemical_formula_sum   'Ba10 Sn18 Pb12'
_cell_volume   1333.44843627
_cell_formula_units_Z   2
loop_
 _symmetry_equiv_pos_site_id
 _symmetry_equiv_pos_as_xyz
  1  'x, y, z'
loop_
 _atom_site_type_symbol
 _atom_site_label
 _atom_site_symmetry_multiplicity
 _atom_site_fract_x
 _atom_site_fract_y
 _atom_site_fract_z
 _atom_site_occupancy
  Ba  Ba0  1  0.333333  0.666667  0.558037  1
  Ba  Ba1  1  0.666667  0.333333  0.441963  1
  Ba  Ba2  1  0.666667  0.333333  0.058037  1
  Ba  Ba3  1  0.333333  0.666667  0.941963  1
  Ba  Ba4  1  0.000000  0.000000  0.159884  1
  Ba  Ba5  1  0.000000  0.000000  0.840116  1
  Ba  Ba6  1  0.000000  0.000000  0.659884  1
  Ba  Ba7  1  0.000000  0.000000  0.340116  1
  Ba  Ba8  1  0.333333  0.666667  0.750000  1
  Ba  Ba9  1  0.666667  0.333333  0.250000  1
  Sn  Sn10  1  0.195770  0.391540  0.250000  1
  Sn  Sn11  1  0.804230  0.608460  0.750000  1
  Sn  Sn12  1  0.608460  0.804230  0.250000  1
  Sn  Sn13  1  0.391540  0.195770  0.750000  1
  Sn  Sn14  1  0.195770  0.804230  0.250000  1
  Sn  Sn15  1  0.804230  0.195770  0.750000  1
  Sn  Sn16  1  0.527857  0.055713  0.650380  1
  Sn  Sn17  1  0.472143  0.944287  0.349620  1
  Sn  Sn18  1  0.944287  0.472143  0.650380  1
  Sn  Sn19  1  0.472143  0.944287  0.150380  1
  Sn  Sn20  1  0.055713  0.527857  0.349620  1
  Sn  Sn21  1  0.527857  0.055713  0.849620  1
  Sn  Sn22  1  0.527857  0.472143  0.650380  1
  Sn  Sn23  1  0.055713  0.527857  0.150380  1
  Sn  Sn24  1  0.472143  0.527857  0.349620  1
  Sn  Sn25  1  0.944287  0.472143  0.849620  1
  Sn  Sn26  1  0.472143  0.527857  0.150380  1
  Sn  Sn27  1  0.527857  0.472143  0.849620  1
  Pb  Pb28  1  0.166578  0.333156  0.050980  1
  Pb  Pb29  1  0.833422  0.666844  0.949020  1
  Pb  Pb30  1  0.666844  0.833422  0.050980  1
  Pb  Pb31  1  0.833422  0.666844  0.550980  1
  Pb  Pb32  1  0.333156  0.166578  0.949020  1
  Pb  Pb33  1  0.166578  0.333156  0.449020  1
  Pb  Pb34  1  0.166578  0.833422  0.050980  1
  Pb  Pb35  1  0.333156  0.166578  0.550980  1
  Pb  Pb36  1  0.833422  0.166578  0.949020  1
  Pb  Pb37  1  0.666844  0.833422  0.449020  1
  Pb  Pb38  1  0.833422  0.166578  0.550980  1
  Pb  Pb39  1  0.166578  0.833422  0.449020  1
