# generated using pymatgen
data_Er2Al8Co3Si
_symmetry_space_group_name_H-M   'P 1'
_cell_length_a   7.33187213
_cell_length_b   7.33187348
_cell_length_c   9.15010400
_cell_angle_alpha   90.00000000
_cell_angle_beta   90.00000000
_cell_angle_gamma   119.25812108
_symmetry_Int_Tables_number   1
_chemical_formula_structural   Er2Al8Co3Si
_chemical_formula_sum   'Er4 Al16 Co6 Si2'
_cell_volume   429.12601448
_cell_formula_units_Z   2
loop_
 _symmetry_equiv_pos_site_id
 _symmetry_equiv_pos_as_xyz
  1  'x, y, z'
loop_
 _atom_site_type_symbol
 _atom_site_label
 _atom_site_symmetry_multiplicity
 _atom_site_fract_x
 _atom_site_fract_y
 _atom_site_fract_z
 _atom_site_occupancy
  Er  Er0  1  0.993644  0.677187  0.250000  1
  Er  Er1  1  0.006356  0.322813  0.750000  1
  Er  Er2  1  0.677187  0.993644  0.250000  1
  Er  Er3  1  0.322813  0.006356  0.750000  1
  Al  Al4  1  0.334168  0.334168  0.546621  1
  Al  Al5  1  0.665832  0.665832  0.046621  1
  Al  Al6  1  0.334168  0.334168  0.953379  1
  Al  Al7  1  0.665832  0.665832  0.453379  1
  Al  Al8  1  0.336390  0.555354  0.250000  1
  Al  Al9  1  0.663610  0.444646  0.750000  1
  Al  Al10  1  0.555354  0.336390  0.250000  1
  Al  Al11  1  0.444646  0.663610  0.750000  1
  Al  Al12  1  0.998726  0.336470  0.073294  1
  Al  Al13  1  0.001274  0.663530  0.573294  1
  Al  Al14  1  0.336470  0.998726  0.426706  1
  Al  Al15  1  0.663530  0.001274  0.926706  1
  Al  Al16  1  0.001274  0.663530  0.926706  1
  Al  Al17  1  0.998726  0.336470  0.426706  1
  Al  Al18  1  0.663530  0.001274  0.573294  1
  Al  Al19  1  0.336470  0.998726  0.073294  1
  Co  Co20  1  0.000000  0.000000  0.000000  1
  Co  Co21  1  0.000000  0.000000  0.500000  1
  Co  Co22  1  0.671152  0.328848  0.000000  1
  Co  Co23  1  0.328848  0.671152  0.500000  1
  Co  Co24  1  0.328848  0.671152  0.000000  1
  Co  Co25  1  0.671152  0.328848  0.500000  1
  Si  Si26  1  0.123485  0.123485  0.250000  1
  Si  Si27  1  0.876515  0.876515  0.750000  1
