# generated using pymatgen
data_Dy19Y(Bi2Rh)4
_symmetry_space_group_name_H-M   'P 1'
_cell_length_a   8.04046304
_cell_length_b   9.00593900
_cell_length_c   12.48024606
_cell_angle_alpha   90.00000000
_cell_angle_beta   89.98883784
_cell_angle_gamma   90.00000000
_symmetry_Int_Tables_number   1
_chemical_formula_structural   Dy19Y(Bi2Rh)4
_chemical_formula_sum   'Dy19 Y1 Bi8 Rh4'
_cell_volume   903.71855774
_cell_formula_units_Z   1
loop_
 _symmetry_equiv_pos_site_id
 _symmetry_equiv_pos_as_xyz
  1  'x, y, z'
loop_
 _atom_site_type_symbol
 _atom_site_label
 _atom_site_symmetry_multiplicity
 _atom_site_fract_x
 _atom_site_fract_y
 _atom_site_fract_z
 _atom_site_occupancy
  Dy  Dy0  1  0.159010  0.250000  0.206147  1
  Dy  Dy1  1  0.341056  0.250000  0.706039  1
  Dy  Dy2  1  0.659045  0.750000  0.293916  1
  Dy  Dy3  1  0.375434  0.750000  0.693679  1
  Dy  Dy4  1  0.624505  0.250000  0.306337  1
  Dy  Dy5  1  0.875422  0.250000  0.806280  1
  Dy  Dy6  1  0.124487  0.750000  0.193699  1
  Dy  Dy7  1  0.953421  0.750000  0.501182  1
  Dy  Dy8  1  0.046428  0.250000  0.498741  1
  Dy  Dy9  1  0.453451  0.250000  0.998804  1
  Dy  Dy10  1  0.546470  0.750000  0.001340  1
  Dy  Dy11  1  0.677799  0.041012  0.565882  1
  Dy  Dy12  1  0.322292  0.959074  0.434140  1
  Dy  Dy13  1  0.177792  0.959008  0.934195  1
  Dy  Dy14  1  0.322292  0.540926  0.434140  1
  Dy  Dy15  1  0.822190  0.040875  0.065840  1
  Dy  Dy16  1  0.677799  0.458988  0.565882  1
  Dy  Dy17  1  0.822190  0.459125  0.065840  1
  Dy  Dy18  1  0.177792  0.540992  0.934195  1
  Y  Y19  1  0.840694  0.750000  0.793108  1
  Bi  Bi20  1  0.569320  0.491499  0.826449  1
  Bi  Bi21  1  0.430720  0.508408  0.173574  1
  Bi  Bi22  1  0.069341  0.508447  0.673561  1
  Bi  Bi23  1  0.430720  0.991592  0.173574  1
  Bi  Bi24  1  0.930656  0.491532  0.326389  1
  Bi  Bi25  1  0.569320  0.008501  0.826449  1
  Bi  Bi26  1  0.930656  0.008468  0.326389  1
  Bi  Bi27  1  0.069341  0.991553  0.673561  1
  Rh  Rh28  1  0.570496  0.750000  0.510117  1
  Rh  Rh29  1  0.429465  0.250000  0.489888  1
  Rh  Rh30  1  0.070557  0.250000  0.989844  1
  Rh  Rh31  1  0.929840  0.750000  0.010818  1
