# generated using pymatgen
data_NdLu2Pa(ReB6)2
_symmetry_space_group_name_H-M   'P 1'
_cell_length_a   3.69587000
_cell_length_b   9.14757156
_cell_length_c   11.55544712
_cell_angle_alpha   90.26714848
_cell_angle_beta   90.00000000
_cell_angle_gamma   90.00000000
_symmetry_Int_Tables_number   1
_chemical_formula_structural   NdLu2Pa(ReB6)2
_chemical_formula_sum   'Nd2 Lu4 Pa2 Re4 B24'
_cell_volume   390.66502838
_cell_formula_units_Z   2
loop_
 _symmetry_equiv_pos_site_id
 _symmetry_equiv_pos_as_xyz
  1  'x, y, z'
loop_
 _atom_site_type_symbol
 _atom_site_label
 _atom_site_symmetry_multiplicity
 _atom_site_fract_x
 _atom_site_fract_y
 _atom_site_fract_z
 _atom_site_occupancy
  Nd  Nd0  1  0.000000  0.822924  0.085978  1
  Nd  Nd1  1  0.000000  0.177076  0.914022  1
  Lu  Lu2  1  0.000000  0.945009  0.373388  1
  Lu  Lu3  1  0.000000  0.054991  0.626612  1
  Lu  Lu4  1  0.000000  0.444444  0.127686  1
  Lu  Lu5  1  0.000000  0.555556  0.872314  1
  Pa  Pa6  1  0.000000  0.320972  0.413881  1
  Pa  Pa7  1  0.000000  0.679028  0.586119  1
  Re  Re8  1  0.000000  0.634969  0.325404  1
  Re  Re9  1  0.000000  0.365031  0.674596  1
  Re  Re10  1  0.000000  0.143434  0.185325  1
  Re  Re11  1  0.000000  0.856566  0.814675  1
  B  B12  1  0.500000  0.554003  0.433379  1
  B  B13  1  0.500000  0.445997  0.566621  1
  B  B14  1  0.500000  0.055776  0.070461  1
  B  B15  1  0.500000  0.944224  0.929539  1
  B  B16  1  0.500000  0.749793  0.419917  1
  B  B17  1  0.500000  0.250207  0.580083  1
  B  B18  1  0.500000  0.251079  0.083567  1
  B  B19  1  0.500000  0.748921  0.916433  1
  B  B20  1  0.500000  0.791322  0.267645  1
  B  B21  1  0.500000  0.208678  0.732355  1
  B  B22  1  0.500000  0.293621  0.235957  1
  B  B23  1  0.500000  0.706379  0.764043  1
  B  B24  1  0.500000  0.629203  0.186562  1
  B  B25  1  0.500000  0.370797  0.813438  1
  B  B26  1  0.500000  0.131934  0.316525  1
  B  B27  1  0.500000  0.868066  0.683475  1
  B  B28  1  0.500000  0.983898  0.215319  1
  B  B29  1  0.500000  0.016102  0.784681  1
  B  B30  1  0.500000  0.482473  0.287398  1
  B  B31  1  0.500000  0.517527  0.712602  1
  B  B32  1  0.500000  0.598335  0.027292  1
  B  B33  1  0.500000  0.401665  0.972708  1
  B  B34  1  0.500000  0.106503  0.471064  1
  B  B35  1  0.500000  0.893497  0.528936  1
