# generated using pymatgen
data_SmZn3P6N13
_symmetry_space_group_name_H-M   'P 1'
_cell_length_a   7.09805953
_cell_length_b   7.23672594
_cell_length_c   7.09805973
_cell_angle_alpha   109.86744135
_cell_angle_beta   109.07209607
_cell_angle_gamma   109.86746156
_symmetry_Int_Tables_number   1
_chemical_formula_structural   SmZn3P6N13
_chemical_formula_sum   'Sm1 Zn3 P6 N13'
_cell_volume   279.28809924
_cell_formula_units_Z   1
loop_
 _symmetry_equiv_pos_site_id
 _symmetry_equiv_pos_as_xyz
  1  'x, y, z'
loop_
 _atom_site_type_symbol
 _atom_site_label
 _atom_site_symmetry_multiplicity
 _atom_site_fract_x
 _atom_site_fract_y
 _atom_site_fract_z
 _atom_site_occupancy
  Sm  Sm0  1  0.000000  0.722330  0.000000  1
  Zn  Zn1  1  0.713193  0.019685  0.000000  1
  Zn  Zn2  1  0.000000  0.019685  0.713193  1
  Zn  Zn3  1  0.286807  0.306492  0.286807  1
  P  P4  1  0.493168  0.238527  0.746441  1
  P  P5  1  0.506832  0.745359  0.253273  1
  P  P6  1  0.746727  0.492086  0.253559  1
  P  P7  1  0.253273  0.745359  0.506832  1
  P  P8  1  0.746441  0.238527  0.493168  1
  P  P9  1  0.253559  0.492086  0.746727  1
  N  N10  1  0.000000  0.726819  0.448401  1
  N  N11  1  0.285978  0.547441  0.550659  1
  N  N12  1  0.718715  0.439152  0.000000  1
  N  N13  1  0.281285  0.720438  0.281285  1
  N  N14  1  0.449341  0.996783  0.735320  1
  N  N15  1  0.714022  0.261462  0.264680  1
  N  N16  1  0.551599  0.278417  0.551599  1
  N  N17  1  0.735320  0.996783  0.449341  1
  N  N18  1  0.264680  0.261462  0.714022  1
  N  N19  1  0.448401  0.726819  0.000000  1
  N  N20  1  0.550659  0.547441  0.285978  1
  N  N21  1  0.000000  0.439152  0.718715  1
  N  N22  1  0.000000  0.037696  0.000000  1
