# generated using pymatgen
data_Yb6MnTcN6
_symmetry_space_group_name_H-M   'P 1'
_cell_length_a   6.55598699
_cell_length_b   6.55598698
_cell_length_c   4.99233400
_cell_angle_alpha   90.00000000
_cell_angle_beta   90.00000000
_cell_angle_gamma   100.79229802
_symmetry_Int_Tables_number   1
_chemical_formula_structural   Yb6MnTcN6
_chemical_formula_sum   'Yb6 Mn1 Tc1 N6'
_cell_volume   210.78001854
_cell_formula_units_Z   1
loop_
 _symmetry_equiv_pos_site_id
 _symmetry_equiv_pos_as_xyz
  1  'x, y, z'
loop_
 _atom_site_type_symbol
 _atom_site_label
 _atom_site_symmetry_multiplicity
 _atom_site_fract_x
 _atom_site_fract_y
 _atom_site_fract_z
 _atom_site_occupancy
  Yb  Yb0  1  0.668815  0.903441  0.750000  1
  Yb  Yb1  1  0.390233  0.609767  0.250000  1
  Yb  Yb2  1  0.904410  0.668546  0.250000  1
  Yb  Yb3  1  0.606973  0.393027  0.750000  1
  Yb  Yb4  1  0.331454  0.095590  0.250000  1
  Yb  Yb5  1  0.096559  0.331185  0.750000  1
  Mn  Mn6  1  0.196270  0.803730  0.750000  1
  Tc  Tc7  1  0.810790  0.189210  0.250000  1
  N  N8  1  0.670177  0.915772  0.250000  1
  N  N9  1  0.372307  0.627693  0.750000  1
  N  N10  1  0.616845  0.383155  0.250000  1
  N  N11  1  0.930001  0.679062  0.750000  1
  N  N12  1  0.320938  0.069999  0.750000  1
  N  N13  1  0.084228  0.329823  0.250000  1
