# generated using pymatgen
data_Pr2Al8SiRh3
_symmetry_space_group_name_H-M   'P 1'
_cell_length_a   7.61963921
_cell_length_b   7.59648205
_cell_length_c   9.61685078
_cell_angle_alpha   89.95428241
_cell_angle_beta   89.95803923
_cell_angle_gamma   119.64447594
_symmetry_Int_Tables_number   1
_chemical_formula_structural   Pr2Al8SiRh3
_chemical_formula_sum   'Pr4 Al16 Si2 Rh6'
_cell_volume   483.78752606
_cell_formula_units_Z   2
loop_
 _symmetry_equiv_pos_site_id
 _symmetry_equiv_pos_as_xyz
  1  'x, y, z'
loop_
 _atom_site_type_symbol
 _atom_site_label
 _atom_site_symmetry_multiplicity
 _atom_site_fract_x
 _atom_site_fract_y
 _atom_site_fract_z
 _atom_site_occupancy
  Pr  Pr0  1  0.994878  0.664849  0.743495  1
  Pr  Pr1  1  0.005122  0.335151  0.256505  1
  Pr  Pr2  1  0.674485  0.000205  0.746897  1
  Pr  Pr3  1  0.325515  0.999795  0.253103  1
  Al  Al4  1  0.131552  0.130126  0.750612  1
  Al  Al5  1  0.868448  0.869874  0.249388  1
  Al  Al6  1  0.996836  0.665605  0.066787  1
  Al  Al7  1  0.334880  0.001146  0.927431  1
  Al  Al8  1  0.003164  0.334395  0.933213  1
  Al  Al9  1  0.665120  0.998854  0.072569  1
  Al  Al10  1  0.661529  0.993898  0.423930  1
  Al  Al11  1  0.338471  0.006102  0.576070  1
  Al  Al12  1  0.334617  0.333448  0.048405  1
  Al  Al13  1  0.665383  0.666552  0.951595  1
  Al  Al14  1  0.662627  0.665113  0.549062  1
  Al  Al15  1  0.337373  0.334887  0.450938  1
  Al  Al16  1  0.340498  0.547665  0.749663  1
  Al  Al17  1  0.659502  0.452335  0.250337  1
  Al  Al18  1  0.545707  0.341973  0.750325  1
  Al  Al19  1  0.454293  0.658027  0.249675  1
  Si  Si20  1  0.005807  0.328383  0.574643  1
  Si  Si21  1  0.994193  0.671617  0.425357  1
  Rh  Rh22  1  0.686667  0.337029  0.501092  1
  Rh  Rh23  1  0.313333  0.662971  0.498908  1
  Rh  Rh24  1  0.328401  0.670011  0.000296  1
  Rh  Rh25  1  0.671599  0.329989  0.999704  1
  Rh  Rh26  1  0.000000  0.000000  0.500000  1
  Rh  Rh27  1  0.000000  0.000000  0.000000  1
