# generated using pymatgen
data_TaTiS8
_symmetry_space_group_name_H-M   'P 1'
_cell_length_a   9.00336462
_cell_length_b   8.95947656
_cell_length_c   7.62672400
_cell_angle_alpha   72.05596596
_cell_angle_beta   71.20192636
_cell_angle_gamma   81.81529674
_symmetry_Int_Tables_number   1
_chemical_formula_structural   TaTiS8
_chemical_formula_sum   'Ta2 Ti2 S16'
_cell_volume   553.43407085
_cell_formula_units_Z   2
loop_
 _symmetry_equiv_pos_site_id
 _symmetry_equiv_pos_as_xyz
  1  'x, y, z'
loop_
 _atom_site_type_symbol
 _atom_site_label
 _atom_site_symmetry_multiplicity
 _atom_site_fract_x
 _atom_site_fract_y
 _atom_site_fract_z
 _atom_site_occupancy
  Ta  Ta0  1  0.380492  0.880934  0.619259  1
  Ta  Ta1  1  0.619508  0.119066  0.380741  1
  Ti  Ti2  1  0.127100  0.627672  0.872579  1
  Ti  Ti3  1  0.872900  0.372328  0.127421  1
  S  S4  1  0.325458  0.166539  0.462279  1
  S  S5  1  0.580193  0.968224  0.728303  1
  S  S6  1  0.674542  0.833461  0.537721  1
  S  S7  1  0.026244  0.428028  0.782986  1
  S  S8  1  0.650977  0.321364  0.045442  1
  S  S9  1  0.135861  0.807334  0.559595  1
  S  S10  1  0.806396  0.127020  0.055319  1
  S  S11  1  0.973756  0.571972  0.217014  1
  S  S12  1  0.419807  0.031776  0.271697  1
  S  S13  1  0.328861  0.650473  0.532563  1
  S  S14  1  0.864139  0.192666  0.440405  1
  S  S15  1  0.193604  0.872980  0.944681  1
  S  S16  1  0.349023  0.678636  0.954558  1
  S  S17  1  0.163266  0.330442  0.963207  1
  S  S18  1  0.671139  0.349527  0.467437  1
  S  S19  1  0.836734  0.669558  0.036793  1
