# generated using pymatgen
data_Mg3CoBi24(SO8)8
_symmetry_space_group_name_H-M   'P 1'
_cell_length_a   5.66857547
_cell_length_b   11.75099340
_cell_length_c   22.91461614
_cell_angle_alpha   85.61708289
_cell_angle_beta   90.00169124
_cell_angle_gamma   90.00032360
_symmetry_Int_Tables_number   1
_chemical_formula_structural   Mg3CoBi24(SO8)8
_chemical_formula_sum   'Mg3 Co1 Bi24 S8 O64'
_cell_volume   1521.91074343
_cell_formula_units_Z   1
loop_
 _symmetry_equiv_pos_site_id
 _symmetry_equiv_pos_as_xyz
  1  'x, y, z'
loop_
 _atom_site_type_symbol
 _atom_site_label
 _atom_site_symmetry_multiplicity
 _atom_site_fract_x
 _atom_site_fract_y
 _atom_site_fract_z
 _atom_site_occupancy
  Mg  Mg0  1  0.125225  0.999331  0.500075  1
  Mg  Mg1  1  0.124602  0.000495  0.999846  1
  Mg  Mg2  1  0.639487  0.500299  0.250116  1
  Co  Co3  1  0.604713  0.499956  0.750024  1
  Bi  Bi4  1  0.119906  0.652789  0.498868  1
  Bi  Bi5  1  0.622484  0.153573  0.746763  1
  Bi  Bi6  1  0.121448  0.654055  0.996021  1
  Bi  Bi7  1  0.621509  0.153389  0.247420  1
  Bi  Bi8  1  0.121311  0.345939  0.503965  1
  Bi  Bi9  1  0.622332  0.846409  0.753302  1
  Bi  Bi10  1  0.120276  0.347205  0.001135  1
  Bi  Bi11  1  0.621566  0.846773  0.252540  1
  Bi  Bi12  1  0.623785  0.520685  0.585920  1
  Bi  Bi13  1  0.125408  0.023150  0.835268  1
  Bi  Bi14  1  0.624821  0.523783  0.085171  1
  Bi  Bi15  1  0.125099  0.022073  0.335566  1
  Bi  Bi16  1  0.625051  0.476222  0.414846  1
  Bi  Bi17  1  0.125099  0.976823  0.664771  1
  Bi  Bi18  1  0.624263  0.479319  0.914084  1
  Bi  Bi19  1  0.125091  0.978001  0.164436  1
  Bi  Bi20  1  0.049038  0.338683  0.336529  1
  Bi  Bi21  1  0.546467  0.838974  0.585772  1
  Bi  Bi22  1  0.046316  0.340887  0.833386  1
  Bi  Bi23  1  0.547019  0.840529  0.084985  1
  Bi  Bi24  1  0.046032  0.659070  0.666621  1
  Bi  Bi25  1  0.546809  0.161023  0.914286  1
  Bi  Bi26  1  0.048849  0.661262  0.163472  1
  Bi  Bi27  1  0.547038  0.159529  0.414948  1
  S  S28  1  0.675696  0.851765  0.434583  1
  S  S29  1  0.179113  0.347020  0.683012  1
  S  S30  1  0.676750  0.852562  0.934542  1
  S  S31  1  0.180466  0.355260  0.186129  1
  S  S32  1  0.677130  0.147306  0.565295  1
  S  S33  1  0.179163  0.652933  0.817018  1
  S  S34  1  0.676865  0.148502  0.065386  1
  S  S35  1  0.178723  0.644567  0.313976  1
  O  O36  1  0.875292  0.499266  0.501360  1
  O  O37  1  0.376292  0.000030  0.750029  1
  O  O38  1  0.875659  0.500741  0.998610  1
  O  O39  1  0.376254  0.000022  0.249990  1
  O  O40  1  0.353715  0.499824  0.501016  1
  O  O41  1  0.856160  0.999974  0.750026  1
  O  O42  1  0.354126  0.500297  0.998989  1
  O  O43  1  0.854363  0.000020  0.249975  1
  O  O44  1  0.891120  0.886215  0.467427  1
  O  O45  1  0.401554  0.375081  0.715547  1
  O  O46  1  0.892816  0.886369  0.967289  1
  O  O47  1  0.398431  0.387161  0.218519  1
  O  O48  1  0.893454  0.113693  0.532609  1
  O  O49  1  0.401711  0.624859  0.784527  1
  O  O50  1  0.891807  0.114201  0.032288  1
  O  O51  1  0.397532  0.612884  0.281855  1
  O  O52  1  0.464043  0.867176  0.473234  1
  O  O53  1  0.972532  0.362512  0.722844  1
  O  O54  1  0.465412  0.869005  0.973135  1
  O  O55  1  0.969896  0.374410  0.224741  1
  O  O56  1  0.465910  0.130383  0.526737  1
  O  O57  1  0.972688  0.637387  0.777172  1
  O  O58  1  0.464719  0.133240  0.026916  1
  O  O59  1  0.968995  0.624799  0.275161  1
  O  O60  1  0.699354  0.731394  0.421930  1
  O  O61  1  0.195389  0.227720  0.668038  1
  O  O62  1  0.698576  0.731756  0.922325  1
  O  O63  1  0.195626  0.234081  0.174383  1
  O  O64  1  0.698120  0.268241  0.577353  1
  O  O65  1  0.195376  0.772252  0.831968  1
  O  O66  1  0.700988  0.268813  0.078142  1
  O  O67  1  0.192387  0.765840  0.325554  1
  O  O68  1  0.155569  0.429009  0.629891  1
  O  O69  1  0.653017  0.930065  0.879790  1
  O  O70  1  0.158459  0.432421  0.131118  1
  O  O71  1  0.650939  0.929801  0.379965  1
  O  O72  1  0.156349  0.567596  0.369033  1
  O  O73  1  0.653719  0.070001  0.620131  1
  O  O74  1  0.155529  0.570979  0.870156  1
  O  O75  1  0.653017  0.070285  0.119964  1
  O  O76  1  0.700165  0.583380  0.677872  1
  O  O77  1  0.202420  0.086283  0.925859  1
  O  O78  1  0.703439  0.586508  0.174891  1
  O  O79  1  0.201970  0.085098  0.425951  1
  O  O80  1  0.703724  0.413505  0.325148  1
  O  O81  1  0.201988  0.913628  0.574195  1
  O  O82  1  0.700401  0.416517  0.822151  1
  O  O83  1  0.202109  0.915065  0.073982  1
  O  O84  1  0.888335  0.663994  0.576148  1
  O  O85  1  0.389969  0.166468  0.823983  1
  O  O86  1  0.890480  0.666041  0.073191  1
  O  O87  1  0.390306  0.164756  0.324559  1
  O  O88  1  0.890455  0.333926  0.426821  1
  O  O89  1  0.389752  0.833543  0.676090  1
  O  O90  1  0.888690  0.335952  0.923865  1
  O  O91  1  0.390561  0.835358  0.175368  1
  O  O92  1  0.383334  0.671171  0.574477  1
  O  O93  1  0.883268  0.173110  0.823019  1
  O  O94  1  0.383463  0.672930  0.072576  1
  O  O95  1  0.883876  0.171512  0.323567  1
  O  O96  1  0.383503  0.327118  0.427442  1
  O  O97  1  0.883038  0.826850  0.677035  1
  O  O98  1  0.383722  0.328844  0.925552  1
  O  O99  1  0.884043  0.828500  0.176449  1
