# generated using pymatgen
data_Ho5(SiBi)2
_symmetry_space_group_name_H-M   'P 1'
_cell_length_a   8.62322665
_cell_length_b   8.62322707
_cell_length_c   7.89566100
_cell_angle_alpha   90.00000000
_cell_angle_beta   90.00000000
_cell_angle_gamma   125.62583846
_symmetry_Int_Tables_number   1
_chemical_formula_structural   Ho5(SiBi)2
_chemical_formula_sum   'Ho10 Si4 Bi4'
_cell_volume   477.23490603
_cell_formula_units_Z   2
loop_
 _symmetry_equiv_pos_site_id
 _symmetry_equiv_pos_as_xyz
  1  'x, y, z'
loop_
 _atom_site_type_symbol
 _atom_site_label
 _atom_site_symmetry_multiplicity
 _atom_site_fract_x
 _atom_site_fract_y
 _atom_site_fract_z
 _atom_site_occupancy
  Ho  Ho0  1  0.043650  0.286866  0.335172  1
  Ho  Ho1  1  0.956350  0.713134  0.664828  1
  Ho  Ho2  1  0.456350  0.213134  0.835172  1
  Ho  Ho3  1  0.786866  0.543650  0.164828  1
  Ho  Ho4  1  0.543650  0.786866  0.164828  1
  Ho  Ho5  1  0.213134  0.456350  0.835172  1
  Ho  Ho6  1  0.713134  0.956350  0.664828  1
  Ho  Ho7  1  0.286866  0.043650  0.335172  1
  Ho  Ho8  1  0.000000  0.000000  0.000000  1
  Ho  Ho9  1  0.500000  0.500000  0.500000  1
  Si  Si10  1  0.366429  0.366429  0.132460  1
  Si  Si11  1  0.633571  0.633571  0.867540  1
  Si  Si12  1  0.133571  0.133571  0.632460  1
  Si  Si13  1  0.866429  0.866429  0.367540  1
  Bi  Bi14  1  0.792478  0.207522  0.000000  1
  Bi  Bi15  1  0.207522  0.792478  0.000000  1
  Bi  Bi16  1  0.707522  0.292478  0.500000  1
  Bi  Bi17  1  0.292478  0.707522  0.500000  1
