# generated using pymatgen
data_Dy(Al5Ru)2
_symmetry_space_group_name_H-M   'P 1'
_cell_length_a   6.86223382
_cell_length_b   6.86223477
_cell_length_c   9.15360900
_cell_angle_alpha   90.00000000
_cell_angle_beta   90.00000000
_cell_angle_gamma   96.75611903
_symmetry_Int_Tables_number   1
_chemical_formula_structural   Dy(Al5Ru)2
_chemical_formula_sum   'Dy2 Al20 Ru4'
_cell_volume   428.05259722
_cell_formula_units_Z   2
loop_
 _symmetry_equiv_pos_site_id
 _symmetry_equiv_pos_as_xyz
  1  'x, y, z'
loop_
 _atom_site_type_symbol
 _atom_site_label
 _atom_site_symmetry_multiplicity
 _atom_site_fract_x
 _atom_site_fract_y
 _atom_site_fract_z
 _atom_site_occupancy
  Dy  Dy0  1  0.872390  0.127610  0.750000  1
  Dy  Dy1  1  0.127610  0.872390  0.250000  1
  Al  Al2  1  0.773630  0.773630  0.000000  1
  Al  Al3  1  0.773630  0.773630  0.500000  1
  Al  Al4  1  0.226370  0.226370  0.000000  1
  Al  Al5  1  0.226370  0.226370  0.500000  1
  Al  Al6  1  0.622978  0.377022  0.950329  1
  Al  Al7  1  0.377022  0.622978  0.049671  1
  Al  Al8  1  0.622978  0.377022  0.549671  1
  Al  Al9  1  0.377022  0.622978  0.450329  1
  Al  Al10  1  0.842817  0.157183  0.400018  1
  Al  Al11  1  0.157183  0.842817  0.599982  1
  Al  Al12  1  0.842817  0.157183  0.099982  1
  Al  Al13  1  0.157183  0.842817  0.900018  1
  Al  Al14  1  0.413456  0.141691  0.750000  1
  Al  Al15  1  0.141691  0.413456  0.250000  1
  Al  Al16  1  0.586544  0.858309  0.250000  1
  Al  Al17  1  0.858309  0.586544  0.750000  1
  Al  Al18  1  0.518986  0.780309  0.750000  1
  Al  Al19  1  0.780309  0.518986  0.250000  1
  Al  Al20  1  0.481014  0.219691  0.250000  1
  Al  Al21  1  0.219691  0.481014  0.750000  1
  Ru  Ru22  1  0.500000  0.000000  0.000000  1
  Ru  Ru23  1  0.000000  0.500000  0.000000  1
  Ru  Ru24  1  0.500000  0.000000  0.500000  1
  Ru  Ru25  1  0.000000  0.500000  0.500000  1
