# generated using pymatgen
data_Gd4Si7Ag
_symmetry_space_group_name_H-M   'P 1'
_cell_length_a   8.22974607
_cell_length_b   8.26307826
_cell_length_c   5.80303653
_cell_angle_alpha   69.09159701
_cell_angle_beta   69.70775599
_cell_angle_gamma   41.20065209
_symmetry_Int_Tables_number   1
_chemical_formula_structural   Gd4Si7Ag
_chemical_formula_sum   'Gd4 Si7 Ag1'
_cell_volume   240.84811130
_cell_formula_units_Z   1
loop_
 _symmetry_equiv_pos_site_id
 _symmetry_equiv_pos_as_xyz
  1  'x, y, z'
loop_
 _atom_site_type_symbol
 _atom_site_label
 _atom_site_symmetry_multiplicity
 _atom_site_fract_x
 _atom_site_fract_y
 _atom_site_fract_z
 _atom_site_occupancy
  Gd  Gd0  1  0.745113  0.745113  0.754887  1
  Gd  Gd1  1  0.757830  0.250414  0.749586  1
  Gd  Gd2  1  0.245113  0.245113  0.254887  1
  Gd  Gd3  1  0.250414  0.757830  0.242170  1
  Si  Si4  1  0.664841  0.664841  0.335159  1
  Si  Si5  1  0.834305  0.333524  0.165695  1
  Si  Si6  1  0.675240  0.162928  0.324760  1
  Si  Si7  1  0.162928  0.675240  0.837072  1
  Si  Si8  1  0.333524  0.834305  0.666476  1
  Si  Si9  1  0.163422  0.163422  0.836578  1
  Si  Si10  1  0.832570  0.832570  0.167430  1
  Ag  Ag11  1  0.334699  0.334699  0.665301  1
