# generated using pymatgen
data_Ca3NdSc6(Si5Ir2)4
_symmetry_space_group_name_H-M   'P 1'
_cell_length_a   12.55590902
_cell_length_b   12.55590881
_cell_length_c   4.18113800
_cell_angle_alpha   90.00000000
_cell_angle_beta   90.00000000
_cell_angle_gamma   89.96270904
_symmetry_Int_Tables_number   1
_chemical_formula_structural   Ca3NdSc6(Si5Ir2)4
_chemical_formula_sum   'Ca3 Nd1 Sc6 Si20 Ir8'
_cell_volume   659.15981482
_cell_formula_units_Z   1
loop_
 _symmetry_equiv_pos_site_id
 _symmetry_equiv_pos_as_xyz
  1  'x, y, z'
loop_
 _atom_site_type_symbol
 _atom_site_label
 _atom_site_symmetry_multiplicity
 _atom_site_fract_x
 _atom_site_fract_y
 _atom_site_fract_z
 _atom_site_occupancy
  Ca  Ca0  1  0.115601  0.615411  0.500000  1
  Ca  Ca1  1  0.884589  0.384399  0.500000  1
  Ca  Ca2  1  0.614940  0.885060  0.500000  1
  Nd  Nd3  1  0.384343  0.115657  0.500000  1
  Sc  Sc4  1  0.674203  0.172526  0.500000  1
  Sc  Sc5  1  0.327474  0.825797  0.500000  1
  Sc  Sc6  1  0.173308  0.326692  0.500000  1
  Sc  Sc7  1  0.827374  0.672626  0.500000  1
  Sc  Sc8  1  0.999752  0.999866  0.000000  1
  Sc  Sc9  1  0.500134  0.500248  0.000000  1
  Si  Si10  1  0.569276  0.068557  0.000000  1
  Si  Si11  1  0.431443  0.930724  0.000000  1
  Si  Si12  1  0.068695  0.431305  0.000000  1
  Si  Si13  1  0.931294  0.568706  0.000000  1
  Si  Si14  1  0.199641  0.165206  0.000000  1
  Si  Si15  1  0.799076  0.834986  0.000000  1
  Si  Si16  1  0.165064  0.799405  0.000000  1
  Si  Si17  1  0.700595  0.334936  0.000000  1
  Si  Si18  1  0.834825  0.200757  0.000000  1
  Si  Si19  1  0.299243  0.665175  0.000000  1
  Si  Si20  1  0.665014  0.700924  0.000000  1
  Si  Si21  1  0.334794  0.300359  0.000000  1
  Si  Si22  1  0.008400  0.149399  0.500000  1
  Si  Si23  1  0.991506  0.850272  0.500000  1
  Si  Si24  1  0.149664  0.990443  0.500000  1
  Si  Si25  1  0.509557  0.350336  0.500000  1
  Si  Si26  1  0.850016  0.009853  0.500000  1
  Si  Si27  1  0.490147  0.649984  0.500000  1
  Si  Si28  1  0.649728  0.508494  0.500000  1
  Si  Si29  1  0.350601  0.491600  0.500000  1
  Ir  Ir30  1  0.022030  0.242241  0.000000  1
  Ir  Ir31  1  0.977679  0.757850  0.000000  1
  Ir  Ir32  1  0.241982  0.977985  0.000000  1
  Ir  Ir33  1  0.522015  0.258018  0.000000  1
  Ir  Ir34  1  0.757926  0.021841  0.000000  1
  Ir  Ir35  1  0.478159  0.742074  0.000000  1
  Ir  Ir36  1  0.742150  0.522321  0.000000  1
  Ir  Ir37  1  0.257759  0.477970  0.000000  1
