# generated using pymatgen
data_Tb6Dy3ErSi6
_symmetry_space_group_name_H-M   'P 1'
_cell_length_a   8.47560600
_cell_length_b   8.47560541
_cell_length_c   6.38033800
_cell_angle_alpha   90.00000000
_cell_angle_beta   90.00000000
_cell_angle_gamma   119.99999451
_symmetry_Int_Tables_number   1
_chemical_formula_structural   Tb6Dy3ErSi6
_chemical_formula_sum   'Tb6 Dy3 Er1 Si6'
_cell_volume   396.93174275
_cell_formula_units_Z   1
loop_
 _symmetry_equiv_pos_site_id
 _symmetry_equiv_pos_as_xyz
  1  'x, y, z'
loop_
 _atom_site_type_symbol
 _atom_site_label
 _atom_site_symmetry_multiplicity
 _atom_site_fract_x
 _atom_site_fract_y
 _atom_site_fract_z
 _atom_site_occupancy
  Tb  Tb0  1  0.000116  0.756310  0.750145  1
  Tb  Tb1  1  0.000116  0.243805  0.249855  1
  Tb  Tb2  1  0.756195  0.756310  0.249855  1
  Tb  Tb3  1  0.756195  0.999884  0.750145  1
  Tb  Tb4  1  0.243690  0.243805  0.750145  1
  Tb  Tb5  1  0.243690  0.999884  0.249855  1
  Dy  Dy6  1  0.333333  0.666667  0.500000  1
  Dy  Dy7  1  0.666667  0.333333  0.000000  1
  Dy  Dy8  1  0.666667  0.333333  0.500000  1
  Er  Er9  1  0.333333  0.666667  0.000000  1
  Si  Si10  1  0.394525  0.999595  0.750386  1
  Si  Si11  1  0.394525  0.394930  0.249614  1
  Si  Si12  1  0.000405  0.605475  0.249614  1
  Si  Si13  1  0.000405  0.394930  0.750386  1
  Si  Si14  1  0.605070  0.605475  0.750386  1
  Si  Si15  1  0.605070  0.999595  0.249614  1
