# generated using pymatgen
data_Li4Th4Si7Ge
_symmetry_space_group_name_H-M   'P 1'
_cell_length_a   3.89071200
_cell_length_b   7.80528004
_cell_length_c   10.42856308
_cell_angle_alpha   89.84744709
_cell_angle_beta   90.00000000
_cell_angle_gamma   90.00000000
_symmetry_Int_Tables_number   1
_chemical_formula_structural   Li4Th4Si7Ge
_chemical_formula_sum   'Li4 Th4 Si7 Ge1'
_cell_volume   316.69448959
_cell_formula_units_Z   1
loop_
 _symmetry_equiv_pos_site_id
 _symmetry_equiv_pos_as_xyz
  1  'x, y, z'
loop_
 _atom_site_type_symbol
 _atom_site_label
 _atom_site_symmetry_multiplicity
 _atom_site_fract_x
 _atom_site_fract_y
 _atom_site_fract_z
 _atom_site_occupancy
  Li  Li0  1  0.250000  0.990829  0.395721  1
  Li  Li1  1  0.250000  0.490048  0.106723  1
  Li  Li2  1  0.750000  0.010811  0.601089  1
  Li  Li3  1  0.750000  0.508820  0.895451  1
  Th  Th4  1  0.250000  0.139783  0.863177  1
  Th  Th5  1  0.250000  0.631017  0.635673  1
  Th  Th6  1  0.750000  0.865147  0.139630  1
  Th  Th7  1  0.750000  0.364978  0.361998  1
  Si  Si8  1  0.250000  0.234023  0.568563  1
  Si  Si9  1  0.250000  0.730553  0.935443  1
  Si  Si10  1  0.750000  0.765226  0.431632  1
  Si  Si11  1  0.750000  0.266220  0.068864  1
  Si  Si12  1  0.250000  0.663134  0.318077  1
  Si  Si13  1  0.250000  0.163260  0.183178  1
  Si  Si14  1  0.750000  0.336168  0.682335  1
  Ge  Ge15  1  0.750000  0.839986  0.812448  1
