# generated using pymatgen
data_Sc12MnNiIrBr16
_symmetry_space_group_name_H-M   'P 1'
_cell_length_a   8.87878923
_cell_length_b   11.20839243
_cell_length_c   11.85359125
_cell_angle_alpha   117.20694712
_cell_angle_beta   101.54051755
_cell_angle_gamma   101.11098579
_symmetry_Int_Tables_number   1
_chemical_formula_structural   Sc12MnNiIrBr16
_chemical_formula_sum   'Sc12 Mn1 Ni1 Ir1 Br16'
_cell_volume   971.71096854
_cell_formula_units_Z   1
loop_
 _symmetry_equiv_pos_site_id
 _symmetry_equiv_pos_as_xyz
  1  'x, y, z'
loop_
 _atom_site_type_symbol
 _atom_site_label
 _atom_site_symmetry_multiplicity
 _atom_site_fract_x
 _atom_site_fract_y
 _atom_site_fract_z
 _atom_site_occupancy
  Sc  Sc0  1  0.086083  0.262608  0.354386  1
  Sc  Sc1  1  0.915184  0.740049  0.647232  1
  Sc  Sc2  1  0.777621  0.537317  0.322994  1
  Sc  Sc3  1  0.222375  0.463161  0.675038  1
  Sc  Sc4  1  0.280427  0.737684  0.645754  1
  Sc  Sc5  1  0.718818  0.259720  0.352691  1
  Sc  Sc6  1  0.144060  0.536461  0.325278  1
  Sc  Sc7  1  0.856681  0.463180  0.676690  1
  Sc  Sc8  1  0.401510  0.356992  0.272010  1
  Sc  Sc9  1  0.592219  0.642751  0.727667  1
  Sc  Sc10  1  0.455146  0.306494  0.520492  1
  Sc  Sc11  1  0.538742  0.693618  0.479474  1
  Mn  Mn12  1  0.334652  0.500033  0.499540  1
  Ni  Ni13  1  0.657437  0.499959  0.500517  1
  Ir  Ir14  1  0.996269  0.500061  0.500136  1
  Br  Br15  1  0.397023  0.739908  0.881864  1
  Br  Br16  1  0.604208  0.261330  0.120145  1
  Br  Br17  1  0.188168  0.964096  0.782636  1
  Br  Br18  1  0.810989  0.035883  0.217492  1
  Br  Br19  1  0.344796  0.097119  0.252462  1
  Br  Br20  1  0.667188  0.902906  0.747623  1
  Br  Br21  1  0.562089  0.438275  0.796656  1
  Br  Br22  1  0.449479  0.561562  0.203591  1
  Br  Br23  1  0.309186  0.825587  0.463129  1
  Br  Br24  1  0.691297  0.176096  0.536369  1
  Br  Br25  1  0.168216  0.172711  0.532943  1
  Br  Br26  1  0.831511  0.825624  0.467112  1
  Br  Br27  1  0.926078  0.575058  0.161755  1
  Br  Br28  1  0.073276  0.424980  0.838351  1
  Br  Br29  1  0.921304  0.737527  0.880019  1
  Br  Br30  1  0.077971  0.261248  0.117956  1
