# generated using pymatgen
data_Sc6TiCo8Si14Mo
_symmetry_space_group_name_H-M   'P 1'
_cell_length_a   9.41241276
_cell_length_b   9.41246545
_cell_length_c   9.41394200
_cell_angle_alpha   94.26531753
_cell_angle_beta   94.16398233
_cell_angle_gamma   148.53870227
_symmetry_Int_Tables_number   1
_chemical_formula_structural   Sc6TiCo8Si14Mo
_chemical_formula_sum   'Sc6 Ti1 Co8 Si14 Mo1'
_cell_volume   418.99462023
_cell_formula_units_Z   1
loop_
 _symmetry_equiv_pos_site_id
 _symmetry_equiv_pos_as_xyz
  1  'x, y, z'
loop_
 _atom_site_type_symbol
 _atom_site_label
 _atom_site_symmetry_multiplicity
 _atom_site_fract_x
 _atom_site_fract_y
 _atom_site_fract_z
 _atom_site_occupancy
  Sc  Sc0  1  0.863331  0.862351  0.725769  1
  Sc  Sc1  1  0.861070  0.139087  0.000124  1
  Sc  Sc2  1  0.138570  0.861512  0.000112  1
  Sc  Sc3  1  0.501548  0.696513  0.198036  1
  Sc  Sc4  1  0.500737  0.304128  0.804648  1
  Sc  Sc5  1  0.305231  0.500528  0.805799  1
  Ti  Ti6  1  0.694705  0.502203  0.197000  1
  Co  Co7  1  0.398233  0.899075  0.795461  1
  Co  Co8  1  0.102084  0.603302  0.206104  1
  Co  Co9  1  0.101196  0.897142  0.496440  1
  Co  Co10  1  0.396715  0.599982  0.497736  1
  Co  Co11  1  0.599303  0.395211  0.496436  1
  Co  Co12  1  0.897748  0.101008  0.497739  1
  Co  Co13  1  0.896357  0.397218  0.795443  1
  Co  Co14  1  0.602818  0.104050  0.206126  1
  Si  Si15  1  0.286910  0.286577  0.573171  1
  Si  Si16  1  0.708825  0.705896  0.415103  1
  Si  Si17  1  0.709143  0.294880  0.003981  1
  Si  Si18  1  0.290189  0.709864  0.000135  1
  Si  Si19  1  0.002994  0.297562  0.300641  1
  Si  Si20  1  0.999115  0.696917  0.696332  1
  Si  Si21  1  0.698317  0.999457  0.697639  1
  Si  Si22  1  0.294978  0.002594  0.297225  1
  Si  Si23  1  0.500299  0.908484  0.408639  1
  Si  Si24  1  0.500049  0.091583  0.591335  1
  Si  Si25  1  0.091017  0.500189  0.591380  1
  Si  Si26  1  0.905168  0.500020  0.405504  1
  Si  Si27  1  0.758690  0.754913  0.012765  1
  Si  Si28  1  0.257859  0.254077  0.012760  1
  Mo  Mo29  1  0.136799  0.133682  0.270411  1
