# generated using pymatgen
data_YHo2Tm3FeBi2
_symmetry_space_group_name_H-M   'P 1'
_cell_length_a   8.27230300
_cell_length_b   8.24522351
_cell_length_c   4.17849400
_cell_angle_alpha   90.00000000
_cell_angle_beta   90.00000000
_cell_angle_gamma   120.10869816
_symmetry_Int_Tables_number   1
_chemical_formula_structural   YHo2Tm3FeBi2
_chemical_formula_sum   'Y1 Ho2 Tm3 Fe1 Bi2'
_cell_volume   246.54860470
_cell_formula_units_Z   1
loop_
 _symmetry_equiv_pos_site_id
 _symmetry_equiv_pos_as_xyz
  1  'x, y, z'
loop_
 _atom_site_type_symbol
 _atom_site_label
 _atom_site_symmetry_multiplicity
 _atom_site_fract_x
 _atom_site_fract_y
 _atom_site_fract_z
 _atom_site_occupancy
  Y  Y0  1  0.609013  0.000000  0.000000  1
  Ho  Ho1  1  0.000175  0.611106  0.000000  1
  Ho  Ho2  1  0.389068  0.388894  0.000000  1
  Tm  Tm3  1  0.229028  0.000000  0.500000  1
  Tm  Tm4  1  0.000947  0.230043  0.500000  1
  Tm  Tm5  1  0.770904  0.769957  0.500000  1
  Fe  Fe6  1  0.001470  0.000000  0.000000  1
  Bi  Bi7  1  0.332793  0.666192  0.500000  1
  Bi  Bi8  1  0.666602  0.333808  0.500000  1
