# generated using pymatgen
data_Tb5Y2Er3Tl3In5Pd4
_symmetry_space_group_name_H-M   'P 1'
_cell_length_a   3.63345900
_cell_length_b   8.16521534
_cell_length_c   18.25700000
_cell_angle_alpha   89.98337659
_cell_angle_beta   90.00000000
_cell_angle_gamma   90.00000000
_symmetry_Int_Tables_number   1
_chemical_formula_structural   Tb5Y2Er3Tl3In5Pd4
_chemical_formula_sum   'Tb5 Y2 Er3 Tl3 In5 Pd4'
_cell_volume   541.64820002
_cell_formula_units_Z   1
loop_
 _symmetry_equiv_pos_site_id
 _symmetry_equiv_pos_as_xyz
  1  'x, y, z'
loop_
 _atom_site_type_symbol
 _atom_site_label
 _atom_site_symmetry_multiplicity
 _atom_site_fract_x
 _atom_site_fract_y
 _atom_site_fract_z
 _atom_site_occupancy
  Tb  Tb0  1  0.000000  0.739434  0.282685  1
  Tb  Tb1  1  0.000000  0.260813  0.717274  1
  Tb  Tb2  1  0.000000  0.761056  0.781501  1
  Tb  Tb3  1  0.000000  0.239018  0.218454  1
  Tb  Tb4  1  0.000000  0.617094  0.084180  1
  Y  Y5  1  0.000000  0.498645  0.500416  1
  Y  Y6  1  0.000000  0.000008  0.999640  1
  Er  Er7  1  0.000000  0.383388  0.914589  1
  Er  Er8  1  0.000000  0.883671  0.584908  1
  Er  Er9  1  0.000000  0.117235  0.416286  1
  Tl  Tl10  1  0.500000  0.707283  0.933468  1
  Tl  Tl11  1  0.500000  0.291437  0.065462  1
  Tl  Tl12  1  0.500000  0.793895  0.434819  1
  In  In13  1  0.500000  0.205294  0.565874  1
  In  In14  1  0.500000  0.582770  0.650011  1
  In  In15  1  0.500000  0.413650  0.349925  1
  In  In16  1  0.500000  0.916926  0.150962  1
  In  In17  1  0.500000  0.085010  0.849335  1
  Pd  Pd18  1  0.500000  0.527099  0.197729  1
  Pd  Pd19  1  0.500000  0.472760  0.803289  1
  Pd  Pd20  1  0.500000  0.975559  0.695062  1
  Pd  Pd21  1  0.500000  0.027954  0.304135  1
