# generated using pymatgen
data_Tb6DyCoI12
_symmetry_space_group_name_H-M   'P 1'
_cell_length_a   9.78020496
_cell_length_b   9.78020515
_cell_length_c   9.78020516
_cell_angle_alpha   106.86180143
_cell_angle_beta   106.86180377
_cell_angle_gamma   106.86180534
_symmetry_Int_Tables_number   1
_chemical_formula_structural   Tb6DyCoI12
_chemical_formula_sum   'Tb6 Dy1 Co1 I12'
_cell_volume   782.01199419
_cell_formula_units_Z   1
loop_
 _symmetry_equiv_pos_site_id
 _symmetry_equiv_pos_as_xyz
  1  'x, y, z'
loop_
 _atom_site_type_symbol
 _atom_site_label
 _atom_site_symmetry_multiplicity
 _atom_site_fract_x
 _atom_site_fract_y
 _atom_site_fract_z
 _atom_site_occupancy
  Tb  Tb0  1  0.022194  0.092325  0.288758  1
  Tb  Tb1  1  0.092325  0.288758  0.022194  1
  Tb  Tb2  1  0.288758  0.022194  0.092325  1
  Tb  Tb3  1  0.977806  0.907675  0.711242  1
  Tb  Tb4  1  0.907675  0.711242  0.977806  1
  Tb  Tb5  1  0.711242  0.977806  0.907675  1
  Dy  Dy6  1  0.500000  0.500000  0.500000  1
  Co  Co7  1  0.000000  0.000000  0.000000  1
  I  I8  1  0.161331  0.463989  0.386932  1
  I  I9  1  0.463989  0.386932  0.161331  1
  I  I10  1  0.386932  0.161331  0.463989  1
  I  I11  1  0.838669  0.536011  0.613068  1
  I  I12  1  0.536011  0.613068  0.838669  1
  I  I13  1  0.613068  0.838669  0.536011  1
  I  I14  1  0.678165  0.071927  0.225275  1
  I  I15  1  0.071927  0.225275  0.678165  1
  I  I16  1  0.225275  0.678165  0.071927  1
  I  I17  1  0.321835  0.928073  0.774725  1
  I  I18  1  0.928073  0.774725  0.321835  1
  I  I19  1  0.774725  0.321835  0.928073  1
