# generated using pymatgen
data_Tb15Er5Co3Bi8Ru
_symmetry_space_group_name_H-M   'P 1'
_cell_length_a   8.02983557
_cell_length_b   8.93355860
_cell_length_c   12.47970552
_cell_angle_alpha   89.91260865
_cell_angle_beta   90.19215103
_cell_angle_gamma   90.00189205
_symmetry_Int_Tables_number   1
_chemical_formula_structural   Tb15Er5Co3Bi8Ru
_chemical_formula_sum   'Tb15 Er5 Co3 Bi8 Ru1'
_cell_volume   895.22568152
_cell_formula_units_Z   1
loop_
 _symmetry_equiv_pos_site_id
 _symmetry_equiv_pos_as_xyz
  1  'x, y, z'
loop_
 _atom_site_type_symbol
 _atom_site_label
 _atom_site_symmetry_multiplicity
 _atom_site_fract_x
 _atom_site_fract_y
 _atom_site_fract_z
 _atom_site_occupancy
  Tb  Tb0  1  0.848559  0.750535  0.800916  1
  Tb  Tb1  1  0.150795  0.249436  0.198187  1
  Tb  Tb2  1  0.349464  0.249230  0.697995  1
  Tb  Tb3  1  0.651839  0.750334  0.297042  1
  Tb  Tb4  1  0.379076  0.750520  0.691975  1
  Tb  Tb5  1  0.617483  0.249212  0.311359  1
  Tb  Tb6  1  0.881335  0.248859  0.811419  1
  Tb  Tb7  1  0.117752  0.751069  0.186798  1
  Tb  Tb8  1  0.950843  0.750764  0.503917  1
  Tb  Tb9  1  0.050436  0.249449  0.496605  1
  Tb  Tb10  1  0.451928  0.249057  0.997355  1
  Tb  Tb11  1  0.547876  0.750732  0.002590  1
  Tb  Tb12  1  0.677615  0.459516  0.564244  1
  Tb  Tb13  1  0.822504  0.464715  0.062891  1
  Tb  Tb14  1  0.176490  0.533238  0.937266  1
  Er  Er15  1  0.674995  0.042227  0.564204  1
  Er  Er16  1  0.325606  0.966112  0.436828  1
  Er  Er17  1  0.173379  0.965938  0.937081  1
  Er  Er18  1  0.325125  0.533313  0.436791  1
  Er  Er19  1  0.825532  0.035484  0.062837  1
  Co  Co20  1  0.435458  0.249511  0.491197  1
  Co  Co21  1  0.058865  0.248349  0.992473  1
  Co  Co22  1  0.939365  0.751605  0.006777  1
  Bi  Bi23  1  0.571771  0.492028  0.826842  1
  Bi  Bi24  1  0.427159  0.507709  0.173664  1
  Bi  Bi25  1  0.072158  0.507363  0.674417  1
  Bi  Bi26  1  0.428365  0.992313  0.173368  1
  Bi  Bi27  1  0.930426  0.492822  0.326277  1
  Bi  Bi28  1  0.570814  0.007766  0.826894  1
  Bi  Bi29  1  0.930695  0.007393  0.325865  1
  Bi  Bi30  1  0.070945  0.992479  0.674674  1
  Ru  Ru31  1  0.565347  0.750923  0.509252  1
