# generated using pymatgen
data_Yb4ZnSi3Ag4
_symmetry_space_group_name_H-M   'P 1'
_cell_length_a   5.73114990
_cell_length_b   5.73115146
_cell_length_c   10.53326645
_cell_angle_alpha   84.94782745
_cell_angle_beta   84.94782663
_cell_angle_gamma   46.46979720
_symmetry_Int_Tables_number   1
_chemical_formula_structural   Yb4ZnSi3Ag4
_chemical_formula_sum   'Yb4 Zn1 Si3 Ag4'
_cell_volume   249.68242458
_cell_formula_units_Z   1
loop_
 _symmetry_equiv_pos_site_id
 _symmetry_equiv_pos_as_xyz
  1  'x, y, z'
loop_
 _atom_site_type_symbol
 _atom_site_label
 _atom_site_symmetry_multiplicity
 _atom_site_fract_x
 _atom_site_fract_y
 _atom_site_fract_z
 _atom_site_occupancy
  Yb  Yb0  1  0.685922  0.685922  0.684017  1
  Yb  Yb1  1  0.187888  0.187888  0.186434  1
  Yb  Yb2  1  0.396088  0.396088  0.899583  1
  Yb  Yb3  1  0.894854  0.894854  0.393185  1
  Zn  Zn4  1  0.676653  0.676653  0.995530  1
  Si  Si5  1  0.168579  0.168579  0.492648  1
  Si  Si6  1  0.989810  0.989810  0.665589  1
  Si  Si7  1  0.489313  0.489313  0.181536  1
  Ag  Ag8  1  0.385152  0.385152  0.605469  1
  Ag  Ag9  1  0.900247  0.900247  0.105304  1
  Ag  Ag10  1  0.101961  0.101961  0.880261  1
  Ag  Ag11  1  0.604732  0.604732  0.391641  1
