# generated using pymatgen
data_Lu4MgNi2Bi
_symmetry_space_group_name_H-M   'P 1'
_cell_length_a   8.64154728
_cell_length_b   8.64154757
_cell_length_c   8.64154717
_cell_angle_alpha   129.95750030
_cell_angle_beta   129.95750313
_cell_angle_gamma   73.47471491
_symmetry_Int_Tables_number   1
_chemical_formula_structural   Lu4MgNi2Bi
_chemical_formula_sum   'Lu8 Mg2 Ni4 Bi2'
_cell_volume   370.05236169
_cell_formula_units_Z   2
loop_
 _symmetry_equiv_pos_site_id
 _symmetry_equiv_pos_as_xyz
  1  'x, y, z'
loop_
 _atom_site_type_symbol
 _atom_site_label
 _atom_site_symmetry_multiplicity
 _atom_site_fract_x
 _atom_site_fract_y
 _atom_site_fract_z
 _atom_site_occupancy
  Lu  Lu0  1  0.790305  0.290305  0.831615  1
  Lu  Lu1  1  0.209695  0.709695  0.168385  1
  Lu  Lu2  1  0.458691  0.958691  0.168385  1
  Lu  Lu3  1  0.290305  0.458691  0.500000  1
  Lu  Lu4  1  0.041309  0.209695  0.500000  1
  Lu  Lu5  1  0.541309  0.041309  0.831615  1
  Lu  Lu6  1  0.709695  0.541309  0.500000  1
  Lu  Lu7  1  0.958691  0.790305  0.500000  1
  Mg  Mg8  1  0.000000  0.000000  0.000000  1
  Mg  Mg9  1  0.500000  0.500000  0.000000  1
  Ni  Ni10  1  0.127136  0.627136  0.754273  1
  Ni  Ni11  1  0.872864  0.372864  0.245727  1
  Ni  Ni12  1  0.627136  0.872864  0.500000  1
  Ni  Ni13  1  0.372864  0.127136  0.500000  1
  Bi  Bi14  1  0.250000  0.250000  0.000000  1
  Bi  Bi15  1  0.750000  0.750000  0.000000  1
