# generated using pymatgen
data_K8Sn4BiSb3
_symmetry_space_group_name_H-M   'P 1'
_cell_length_a   6.59737700
_cell_length_b   6.79985874
_cell_length_c   13.47488534
_cell_angle_alpha   90.10248651
_cell_angle_beta   90.00000000
_cell_angle_gamma   90.00000000
_symmetry_Int_Tables_number   1
_chemical_formula_structural   K8Sn4BiSb3
_chemical_formula_sum   'K8 Sn4 Bi1 Sb3'
_cell_volume   604.49898609
_cell_formula_units_Z   1
loop_
 _symmetry_equiv_pos_site_id
 _symmetry_equiv_pos_as_xyz
  1  'x, y, z'
loop_
 _atom_site_type_symbol
 _atom_site_label
 _atom_site_symmetry_multiplicity
 _atom_site_fract_x
 _atom_site_fract_y
 _atom_site_fract_z
 _atom_site_occupancy
  K  K0  1  0.750000  0.392095  0.667719  1
  K  K1  1  0.250000  0.609182  0.333819  1
  K  K2  1  0.750000  0.611097  0.163211  1
  K  K3  1  0.250000  0.162958  0.511769  1
  K  K4  1  0.250000  0.836600  0.009470  1
  K  K5  1  0.750000  0.837652  0.490977  1
  K  K6  1  0.750000  0.162973  0.990429  1
  K  K7  1  0.250000  0.389623  0.835113  1
  Sn  Sn8  1  0.493324  0.094578  0.248522  1
  Sn  Sn9  1  0.006676  0.094578  0.248522  1
  Sn  Sn10  1  0.995514  0.902589  0.749267  1
  Sn  Sn11  1  0.504486  0.902589  0.749267  1
  Bi  Bi12  1  0.750000  0.337872  0.392927  1
  Sb  Sb13  1  0.250000  0.335208  0.107153  1
  Sb  Sb14  1  0.250000  0.665556  0.610150  1
  Sb  Sb15  1  0.750000  0.664852  0.891685  1
