# generated using pymatgen
data_La2MnTe2(SO7)2
_symmetry_space_group_name_H-M   'P 1'
_cell_length_a   5.52542749
_cell_length_b   8.21225791
_cell_length_c   8.49448047
_cell_angle_alpha   115.02384496
_cell_angle_beta   106.79881453
_cell_angle_gamma   86.72090280
_symmetry_Int_Tables_number   1
_chemical_formula_structural   La2MnTe2(SO7)2
_chemical_formula_sum   'La2 Mn1 Te2 S2 O14'
_cell_volume   333.42005481
_cell_formula_units_Z   1
loop_
 _symmetry_equiv_pos_site_id
 _symmetry_equiv_pos_as_xyz
  1  'x, y, z'
loop_
 _atom_site_type_symbol
 _atom_site_label
 _atom_site_symmetry_multiplicity
 _atom_site_fract_x
 _atom_site_fract_y
 _atom_site_fract_z
 _atom_site_occupancy
  La  La0  1  0.097531  0.252203  0.986756  1
  La  La1  1  0.902469  0.747797  0.013244  1
  Mn  Mn2  1  0.000000  0.000000  0.500000  1
  Te  Te3  1  0.528861  0.266704  0.662362  1
  Te  Te4  1  0.471139  0.733296  0.337638  1
  S  S5  1  0.780549  0.247148  0.252614  1
  S  S6  1  0.219451  0.752852  0.747386  1
  O  O7  1  0.924217  0.399534  0.261302  1
  O  O8  1  0.075783  0.600466  0.738698  1
  O  O9  1  0.874176  0.221629  0.421867  1
  O  O10  1  0.125824  0.778371  0.578133  1
  O  O11  1  0.505887  0.276848  0.218973  1
  O  O12  1  0.494113  0.723152  0.781027  1
  O  O13  1  0.822689  0.082411  0.093479  1
  O  O14  1  0.177311  0.917589  0.906521  1
  O  O15  1  0.749132  0.431401  0.888545  1
  O  O16  1  0.250868  0.568599  0.111455  1
  O  O17  1  0.287303  0.195648  0.746021  1
  O  O18  1  0.712697  0.804352  0.253979  1
  O  O19  1  0.748993  0.079605  0.666123  1
  O  O20  1  0.251007  0.920395  0.333877  1
