# generated using pymatgen
data_Tb3Dy3(Er2Si3)2
_symmetry_space_group_name_H-M   'P 1'
_cell_length_a   8.43834718
_cell_length_b   8.43250247
_cell_length_c   6.32827500
_cell_angle_alpha   90.00000000
_cell_angle_beta   90.00000000
_cell_angle_gamma   119.99946066
_symmetry_Int_Tables_number   1
_chemical_formula_structural   Tb3Dy3(Er2Si3)2
_chemical_formula_sum   'Tb3 Dy3 Er4 Si6'
_cell_volume   389.97090089
_cell_formula_units_Z   1
loop_
 _symmetry_equiv_pos_site_id
 _symmetry_equiv_pos_as_xyz
  1  'x, y, z'
loop_
 _atom_site_type_symbol
 _atom_site_label
 _atom_site_symmetry_multiplicity
 _atom_site_fract_x
 _atom_site_fract_y
 _atom_site_fract_z
 _atom_site_occupancy
  Tb  Tb0  1  0.000099  0.756702  0.750000  1
  Tb  Tb1  1  0.000033  0.243363  0.250000  1
  Tb  Tb2  1  0.756450  0.756525  0.250000  1
  Dy  Dy3  1  0.756382  0.000038  0.750000  1
  Dy  Dy4  1  0.243515  0.243452  0.750000  1
  Dy  Dy5  1  0.243702  0.000108  0.250000  1
  Er  Er6  1  0.333410  0.666716  0.500030  1
  Er  Er7  1  0.666520  0.333195  0.999975  1
  Er  Er8  1  0.666520  0.333195  0.500025  1
  Er  Er9  1  0.333410  0.666716  0.999970  1
  Si  Si10  1  0.395113  0.000202  0.750000  1
  Si  Si11  1  0.394893  0.394730  0.250000  1
  Si  Si12  1  0.000200  0.605325  0.250000  1
  Si  Si13  1  0.000026  0.394596  0.750000  1
  Si  Si14  1  0.604931  0.605103  0.750000  1
  Si  Si15  1  0.604795  0.000033  0.250000  1
