# generated using pymatgen
data_AsAuF7
_symmetry_space_group_name_H-M   'P 1'
_cell_length_a   9.76793400
_cell_length_b   7.86909816
_cell_length_c   7.99813436
_cell_angle_alpha   78.32497958
_cell_angle_beta   90.00000000
_cell_angle_gamma   90.00000000
_symmetry_Int_Tables_number   1
_chemical_formula_structural   AsAuF7
_chemical_formula_sum   'As4 Au4 F28'
_cell_volume   602.05624293
_cell_formula_units_Z   4
loop_
 _symmetry_equiv_pos_site_id
 _symmetry_equiv_pos_as_xyz
  1  'x, y, z'
loop_
 _atom_site_type_symbol
 _atom_site_label
 _atom_site_symmetry_multiplicity
 _atom_site_fract_x
 _atom_site_fract_y
 _atom_site_fract_z
 _atom_site_occupancy
  As  As0  1  0.550377  0.184634  0.201322  1
  As  As1  1  0.050377  0.815366  0.298678  1
  As  As2  1  0.449623  0.815366  0.798678  1
  As  As3  1  0.949623  0.184634  0.701322  1
  Au  Au4  1  0.250191  0.306594  0.910109  1
  Au  Au5  1  0.750191  0.693406  0.589891  1
  Au  Au6  1  0.749809  0.693406  0.089891  1
  Au  Au7  1  0.249809  0.306594  0.410109  1
  F  F8  1  0.678854  0.342795  0.148943  1
  F  F9  1  0.178854  0.657205  0.351057  1
  F  F10  1  0.321146  0.657205  0.851057  1
  F  F11  1  0.821146  0.342795  0.648943  1
  F  F12  1  0.626543  0.093967  0.394310  1
  F  F13  1  0.126543  0.906033  0.105690  1
  F  F14  1  0.373457  0.906033  0.605690  1
  F  F15  1  0.873457  0.093967  0.894310  1
  F  F16  1  0.462856  0.299880  0.002168  1
  F  F17  1  0.962856  0.700120  0.497832  1
  F  F18  1  0.537144  0.700120  0.997832  1
  F  F19  1  0.037144  0.299880  0.502168  1
  F  F20  1  0.404905  0.053277  0.244187  1
  F  F21  1  0.904905  0.946723  0.255813  1
  F  F22  1  0.595095  0.946723  0.755813  1
  F  F23  1  0.095095  0.053277  0.744187  1
  F  F24  1  0.629428  0.046305  0.087077  1
  F  F25  1  0.129428  0.953695  0.412923  1
  F  F26  1  0.370572  0.953695  0.912923  1
  F  F27  1  0.870572  0.046305  0.587077  1
  F  F28  1  0.458592  0.344937  0.307554  1
  F  F29  1  0.958592  0.655063  0.192446  1
  F  F30  1  0.541408  0.655063  0.692446  1
  F  F31  1  0.041408  0.344937  0.807554  1
  F  F32  1  0.188081  0.314812  0.158196  1
  F  F33  1  0.688081  0.685188  0.341804  1
  F  F34  1  0.811919  0.685188  0.841804  1
  F  F35  1  0.311919  0.314812  0.658196  1
