# generated using pymatgen
data_InCu2SbRh4
_symmetry_space_group_name_H-M   'P 1'
_cell_length_a   7.62009499
_cell_length_b   7.62009540
_cell_length_c   7.62009610
_cell_angle_alpha   33.61474891
_cell_angle_beta   33.61474230
_cell_angle_gamma   33.61474918
_symmetry_Int_Tables_number   1
_chemical_formula_structural   InCu2SbRh4
_chemical_formula_sum   'In1 Cu2 Sb1 Rh4'
_cell_volume   120.79992349
_cell_formula_units_Z   1
loop_
 _symmetry_equiv_pos_site_id
 _symmetry_equiv_pos_as_xyz
  1  'x, y, z'
loop_
 _atom_site_type_symbol
 _atom_site_label
 _atom_site_symmetry_multiplicity
 _atom_site_fract_x
 _atom_site_fract_y
 _atom_site_fract_z
 _atom_site_occupancy
  In  In0  1  0.000000  0.000000  0.000000  1
  Cu  Cu1  1  0.253975  0.253975  0.253975  1
  Cu  Cu2  1  0.746025  0.746025  0.746025  1
  Sb  Sb3  1  0.500000  0.500000  0.500000  1
  Rh  Rh4  1  0.621304  0.621304  0.621304  1
  Rh  Rh5  1  0.128160  0.128160  0.128160  1
  Rh  Rh6  1  0.871840  0.871840  0.871840  1
  Rh  Rh7  1  0.378696  0.378696  0.378696  1
