# generated using pymatgen
data_Tb20Fe3Bi8Pt
_symmetry_space_group_name_H-M   'P 1'
_cell_length_a   8.07773007
_cell_length_b   8.99655100
_cell_length_c   12.50335576
_cell_angle_alpha   90.00000000
_cell_angle_beta   89.96191911
_cell_angle_gamma   90.00000000
_symmetry_Int_Tables_number   1
_chemical_formula_structural   Tb20Fe3Bi8Pt
_chemical_formula_sum   'Tb20 Fe3 Bi8 Pt1'
_cell_volume   908.64005045
_cell_formula_units_Z   1
loop_
 _symmetry_equiv_pos_site_id
 _symmetry_equiv_pos_as_xyz
  1  'x, y, z'
loop_
 _atom_site_type_symbol
 _atom_site_label
 _atom_site_symmetry_multiplicity
 _atom_site_fract_x
 _atom_site_fract_y
 _atom_site_fract_z
 _atom_site_occupancy
  Tb  Tb0  1  0.840263  0.750000  0.789975  1
  Tb  Tb1  1  0.152260  0.250000  0.199081  1
  Tb  Tb2  1  0.347833  0.250000  0.700124  1
  Tb  Tb3  1  0.650832  0.750000  0.302861  1
  Tb  Tb4  1  0.382181  0.750000  0.690785  1
  Tb  Tb5  1  0.615280  0.250000  0.310785  1
  Tb  Tb6  1  0.883290  0.250000  0.811107  1
  Tb  Tb7  1  0.125863  0.750000  0.197194  1
  Tb  Tb8  1  0.949940  0.750000  0.502175  1
  Tb  Tb9  1  0.057189  0.250000  0.494786  1
  Tb  Tb10  1  0.450224  0.250000  0.996897  1
  Tb  Tb11  1  0.548054  0.750000  0.003543  1
  Tb  Tb12  1  0.673319  0.031074  0.560692  1
  Tb  Tb13  1  0.324289  0.960620  0.438440  1
  Tb  Tb14  1  0.176691  0.971166  0.935420  1
  Tb  Tb15  1  0.324289  0.539380  0.438440  1
  Tb  Tb16  1  0.821167  0.047602  0.064840  1
  Tb  Tb17  1  0.673319  0.468926  0.560692  1
  Tb  Tb18  1  0.821167  0.452398  0.064840  1
  Tb  Tb19  1  0.176691  0.528834  0.935420  1
  Fe  Fe20  1  0.574734  0.750000  0.513701  1
  Fe  Fe21  1  0.431399  0.250000  0.491034  1
  Fe  Fe22  1  0.068755  0.250000  0.990037  1
  Bi  Bi23  1  0.571731  0.491486  0.826583  1
  Bi  Bi24  1  0.428778  0.507548  0.174030  1
  Bi  Bi25  1  0.071527  0.506904  0.672049  1
  Bi  Bi26  1  0.428778  0.992452  0.174030  1
  Bi  Bi27  1  0.927388  0.491182  0.326342  1
  Bi  Bi28  1  0.571731  0.008514  0.826583  1
  Bi  Bi29  1  0.927388  0.008818  0.326342  1
  Bi  Bi30  1  0.071527  0.993096  0.672049  1
  Pt  Pt31  1  0.932119  0.750000  0.009121  1
