# generated using pymatgen
data_Y8Ho4Co4SnRu
_symmetry_space_group_name_H-M   'P 1'
_cell_length_a   8.28958268
_cell_length_b   8.28958246
_cell_length_c   8.28958242
_cell_angle_alpha   111.26726484
_cell_angle_beta   110.58506227
_cell_angle_gamma   106.59971819
_symmetry_Int_Tables_number   1
_chemical_formula_structural   Y8Ho4Co4SnRu
_chemical_formula_sum   'Y8 Ho4 Co4 Sn1 Ru1'
_cell_volume   437.66932679
_cell_formula_units_Z   1
loop_
 _symmetry_equiv_pos_site_id
 _symmetry_equiv_pos_as_xyz
  1  'x, y, z'
loop_
 _atom_site_type_symbol
 _atom_site_label
 _atom_site_symmetry_multiplicity
 _atom_site_fract_x
 _atom_site_fract_y
 _atom_site_fract_z
 _atom_site_occupancy
  Y  Y0  1  0.409412  0.216593  0.192818  1
  Y  Y1  1  0.590588  0.783407  0.807182  1
  Y  Y2  1  0.023775  0.216593  0.807182  1
  Y  Y3  1  0.976225  0.783407  0.192818  1
  Y  Y4  1  0.184717  0.286083  0.470800  1
  Y  Y5  1  0.815283  0.713917  0.529200  1
  Y  Y6  1  0.184717  0.713917  0.898633  1
  Y  Y7  1  0.815283  0.286083  0.101367  1
  Ho  Ho8  1  0.313275  0.621938  0.308664  1
  Ho  Ho9  1  0.686725  0.378062  0.691336  1
  Ho  Ho10  1  0.313275  0.004611  0.691336  1
  Ho  Ho11  1  0.686725  0.995389  0.308664  1
  Co  Co12  1  0.379335  0.000000  0.379335  1
  Co  Co13  1  0.620665  0.000000  0.620665  1
  Co  Co14  1  0.111381  0.611381  0.500000  1
  Co  Co15  1  0.888619  0.388619  0.500000  1
  Sn  Sn16  1  0.500000  0.500000  0.000000  1
  Ru  Ru17  1  0.000000  0.000000  0.000000  1
