# generated using pymatgen
data_La5CdGeRu3
_symmetry_space_group_name_H-M   'P 1'
_cell_length_a   8.72655832
_cell_length_b   8.72655865
_cell_length_c   8.66081335
_cell_angle_alpha   109.65040261
_cell_angle_beta   109.36875923
_cell_angle_gamma   109.70060849
_symmetry_Int_Tables_number   1
_chemical_formula_structural   La5CdGeRu3
_chemical_formula_sum   'La10 Cd2 Ge2 Ru6'
_cell_volume   505.78744187
_cell_formula_units_Z   2
loop_
 _symmetry_equiv_pos_site_id
 _symmetry_equiv_pos_as_xyz
  1  'x, y, z'
loop_
 _atom_site_type_symbol
 _atom_site_label
 _atom_site_symmetry_multiplicity
 _atom_site_fract_x
 _atom_site_fract_y
 _atom_site_fract_z
 _atom_site_occupancy
  La  La0  1  0.240097  0.683922  0.435907  1
  La  La1  1  0.748016  0.804191  0.064094  1
  La  La2  1  0.436626  0.248491  0.690651  1
  La  La3  1  0.699787  0.449788  0.250000  1
  La  La4  1  0.057840  0.745973  0.809349  1
  La  La5  1  0.816879  0.066879  0.750000  1
  La  La6  1  0.208159  0.207554  0.206335  1
  La  La7  1  0.501220  0.001825  0.293665  1
  La  La8  1  0.284178  0.500724  0.000016  1
  La  La9  1  0.000707  0.284161  0.499985  1
  Cd  Cd10  1  0.502162  0.001115  0.915545  1
  Cd  Cd11  1  0.585570  0.586615  0.584455  1
  Ge  Ge12  1  0.911030  0.501243  0.000397  1
  Ge  Ge13  1  0.000844  0.910633  0.499604  1
  Ru  Ru14  1  0.233727  0.124730  0.861247  1
  Ru  Ru15  1  0.763483  0.372478  0.638752  1
  Ru  Ru16  1  0.897029  0.268254  0.126403  1
  Ru  Ru17  1  0.113973  0.863973  0.250001  1
  Ru  Ru18  1  0.641850  0.770625  0.373596  1
  Ru  Ru19  1  0.356828  0.606828  0.750000  1
