# generated using pymatgen
data_LiLu4Pd3
_symmetry_space_group_name_H-M   'P 1'
_cell_length_a   8.27820200
_cell_length_b   8.27820180
_cell_length_c   5.60031800
_cell_angle_alpha   90.00000000
_cell_angle_beta   90.00000000
_cell_angle_gamma   120.00000079
_symmetry_Int_Tables_number   1
_chemical_formula_structural   LiLu4Pd3
_chemical_formula_sum   'Li2 Lu8 Pd6'
_cell_volume   332.36504689
_cell_formula_units_Z   2
loop_
 _symmetry_equiv_pos_site_id
 _symmetry_equiv_pos_as_xyz
  1  'x, y, z'
loop_
 _atom_site_type_symbol
 _atom_site_label
 _atom_site_symmetry_multiplicity
 _atom_site_fract_x
 _atom_site_fract_y
 _atom_site_fract_z
 _atom_site_occupancy
  Li  Li0  1  0.666667  0.333333  0.500000  1
  Li  Li1  1  0.333333  0.666667  0.500000  1
  Lu  Lu2  1  0.333333  0.666667  0.000000  1
  Lu  Lu3  1  0.666667  0.333333  0.000000  1
  Lu  Lu4  1  0.751163  0.751163  0.249576  1
  Lu  Lu5  1  0.248837  0.000000  0.249576  1
  Lu  Lu6  1  0.000000  0.248837  0.249576  1
  Lu  Lu7  1  0.248837  0.248837  0.750424  1
  Lu  Lu8  1  0.751163  0.000000  0.750424  1
  Lu  Lu9  1  0.000000  0.751163  0.750424  1
  Pd  Pd10  1  0.397877  0.397877  0.259431  1
  Pd  Pd11  1  0.602123  0.000000  0.259431  1
  Pd  Pd12  1  0.000000  0.602123  0.259431  1
  Pd  Pd13  1  0.602123  0.602123  0.740569  1
  Pd  Pd14  1  0.397877  0.000000  0.740569  1
  Pd  Pd15  1  0.000000  0.397877  0.740569  1
