# generated using pymatgen
data_Yb2Ce2H11
_symmetry_space_group_name_H-M   'P 1'
_cell_length_a   6.57342899
_cell_length_b   6.57342840
_cell_length_c   6.57342816
_cell_angle_alpha   133.21877316
_cell_angle_beta   133.21876399
_cell_angle_gamma   68.31078998
_symmetry_Int_Tables_number   1
_chemical_formula_structural   Yb2Ce2H11
_chemical_formula_sum   'Yb2 Ce2 H11'
_cell_volume   148.17977174
_cell_formula_units_Z   1
loop_
 _symmetry_equiv_pos_site_id
 _symmetry_equiv_pos_as_xyz
  1  'x, y, z'
loop_
 _atom_site_type_symbol
 _atom_site_label
 _atom_site_symmetry_multiplicity
 _atom_site_fract_x
 _atom_site_fract_y
 _atom_site_fract_z
 _atom_site_occupancy
  Yb  Yb0  1  0.500000  0.000000  0.500000  1
  Yb  Yb1  1  0.000000  0.500000  0.500000  1
  Ce  Ce2  1  0.262329  0.262329  0.000000  1
  Ce  Ce3  1  0.737671  0.737671  0.000000  1
  H  H4  1  0.643922  0.108318  0.000000  1
  H  H5  1  0.356078  0.356078  0.464395  1
  H  H6  1  0.108318  0.643922  0.000000  1
  H  H7  1  0.891682  0.891682  0.535605  1
  H  H8  1  0.891682  0.356078  0.000000  1
  H  H9  1  0.643922  0.643922  0.535605  1
  H  H10  1  0.356078  0.891682  0.000000  1
  H  H11  1  0.108318  0.108318  0.464395  1
  H  H12  1  0.750000  0.250000  0.500000  1
  H  H13  1  0.500000  0.500000  0.000000  1
  H  H14  1  0.250000  0.750000  0.500000  1
