# generated using pymatgen
data_CaNd2(B3Ir4)2
_symmetry_space_group_name_H-M   'P 1'
_cell_length_a   10.00484850
_cell_length_b   9.13704383
_cell_length_c   5.67640552
_cell_angle_alpha   81.34487298
_cell_angle_beta   64.53678155
_cell_angle_gamma   34.11835951
_symmetry_Int_Tables_number   1
_chemical_formula_structural   CaNd2(B3Ir4)2
_chemical_formula_sum   'Ca1 Nd2 B6 Ir8'
_cell_volume   240.18857428
_cell_formula_units_Z   1
loop_
 _symmetry_equiv_pos_site_id
 _symmetry_equiv_pos_as_xyz
  1  'x, y, z'
loop_
 _atom_site_type_symbol
 _atom_site_label
 _atom_site_symmetry_multiplicity
 _atom_site_fract_x
 _atom_site_fract_y
 _atom_site_fract_z
 _atom_site_occupancy
  Ca  Ca0  1  0.683110  0.683110  0.316890  1
  Nd  Nd1  1  0.319486  0.319486  0.680514  1
  Nd  Nd2  1  0.503543  0.503543  0.496457  1
  B  B3  1  0.668440  0.984748  0.015252  1
  B  B4  1  0.984748  0.668440  0.331560  1
  B  B5  1  0.329200  0.014320  0.985680  1
  B  B6  1  0.014320  0.329200  0.670800  1
  B  B7  1  0.167001  0.832741  0.167259  1
  B  B8  1  0.832741  0.167001  0.832999  1
  Ir  Ir9  1  0.585684  0.585684  0.914316  1
  Ir  Ir10  1  0.912164  0.912164  0.087836  1
  Ir  Ir11  1  0.414508  0.414508  0.085492  1
  Ir  Ir12  1  0.085684  0.085684  0.414316  1
  Ir  Ir13  1  0.914508  0.914508  0.585492  1
  Ir  Ir14  1  0.248853  0.248853  0.251147  1
  Ir  Ir15  1  0.087159  0.087159  0.912841  1
  Ir  Ir16  1  0.748853  0.748853  0.751147  1
