# generated using pymatgen
data_Nb12Al7Ni3PtAuC4
_symmetry_space_group_name_H-M   'P 1'
_cell_length_a   8.33509640
_cell_length_b   8.32664794
_cell_length_c   8.32664800
_cell_angle_alpha   60.00000769
_cell_angle_beta   60.03353169
_cell_angle_gamma   60.03352586
_symmetry_Int_Tables_number   1
_chemical_formula_structural   Nb12Al7Ni3PtAuC4
_chemical_formula_sum   'Nb12 Al7 Ni3 Pt1 Au1 C4'
_cell_volume   408.84244019
_cell_formula_units_Z   1
loop_
 _symmetry_equiv_pos_site_id
 _symmetry_equiv_pos_as_xyz
  1  'x, y, z'
loop_
 _atom_site_type_symbol
 _atom_site_label
 _atom_site_symmetry_multiplicity
 _atom_site_fract_x
 _atom_site_fract_y
 _atom_site_fract_z
 _atom_site_occupancy
  Nb  Nb0  1  0.813928  0.808231  0.188920  1
  Nb  Nb1  1  0.184441  0.180380  0.817589  1
  Nb  Nb2  1  0.813928  0.188920  0.808231  1
  Nb  Nb3  1  0.184441  0.817589  0.180380  1
  Nb  Nb4  1  0.184441  0.817589  0.817589  1
  Nb  Nb5  1  0.813928  0.188920  0.188920  1
  Nb  Nb6  1  0.431977  0.432662  0.067681  1
  Nb  Nb7  1  0.063606  0.062338  0.437028  1
  Nb  Nb8  1  0.431977  0.067681  0.432662  1
  Nb  Nb9  1  0.063606  0.437028  0.062338  1
  Nb  Nb10  1  0.063606  0.437028  0.437028  1
  Nb  Nb11  1  0.431977  0.067681  0.067681  1
  Al  Al12  1  0.439066  0.742283  0.409326  1
  Al  Al13  1  0.439066  0.409326  0.742283  1
  Al  Al14  1  0.439066  0.409326  0.409326  1
  Al  Al15  1  0.499304  0.833565  0.833565  1
  Al  Al16  1  0.820871  0.499981  0.839574  1
  Al  Al17  1  0.820871  0.839574  0.499981  1
  Al  Al18  1  0.820871  0.839574  0.839574  1
  Ni  Ni19  1  0.619385  0.112936  0.633839  1
  Ni  Ni20  1  0.619385  0.633839  0.112936  1
  Ni  Ni21  1  0.619385  0.633839  0.633839  1
  Pt  Pt22  1  0.747563  0.417479  0.417479  1
  Au  Au23  1  0.128736  0.623755  0.623755  1
  C  C24  1  0.631906  0.122698  0.122698  1
  C  C25  1  0.124222  0.623528  0.126125  1
  C  C26  1  0.124222  0.126125  0.623528  1
  C  C27  1  0.124222  0.126125  0.126125  1
