# generated using pymatgen
data_Li4Ho4Sn3Bi
_symmetry_space_group_name_H-M   'P 1'
_cell_length_a   9.42426479
_cell_length_b   9.42486504
_cell_length_c   7.23378095
_cell_angle_alpha   90.00026401
_cell_angle_beta   90.10312639
_cell_angle_gamma   120.00243123
_symmetry_Int_Tables_number   1
_chemical_formula_structural   Li4Ho4Sn3Bi
_chemical_formula_sum   'Li8 Ho8 Sn6 Bi2'
_cell_volume   556.42549986
_cell_formula_units_Z   2
loop_
 _symmetry_equiv_pos_site_id
 _symmetry_equiv_pos_as_xyz
  1  'x, y, z'
loop_
 _atom_site_type_symbol
 _atom_site_label
 _atom_site_symmetry_multiplicity
 _atom_site_fract_x
 _atom_site_fract_y
 _atom_site_fract_z
 _atom_site_occupancy
  Li  Li0  1  0.167626  0.333996  0.284052  1
  Li  Li1  1  0.167626  0.833631  0.284049  1
  Li  Li2  1  0.665341  0.832671  0.286998  1
  Li  Li3  1  0.829069  0.664399  0.787955  1
  Li  Li4  1  0.829066  0.164669  0.787960  1
  Li  Li5  1  0.337991  0.168993  0.791223  1
  Li  Li6  1  0.337935  0.668967  0.667712  1
  Li  Li7  1  0.665594  0.332797  0.171226  1
  Ho  Ho8  1  0.517133  0.026862  0.490735  1
  Ho  Ho9  1  0.517133  0.490271  0.490736  1
  Ho  Ho10  1  0.971682  0.485840  0.488598  1
  Ho  Ho11  1  0.492924  0.978066  0.997135  1
  Ho  Ho12  1  0.492923  0.514857  0.997137  1
  Ho  Ho13  1  0.017948  0.508974  0.999690  1
  Ho  Ho14  1  0.994651  0.997325  0.494945  1
  Ho  Ho15  1  0.995411  0.997706  0.005555  1
  Sn  Sn16  1  0.666931  0.833468  0.732743  1
  Sn  Sn17  1  0.833661  0.666105  0.232084  1
  Sn  Sn18  1  0.833664  0.167556  0.232083  1
  Sn  Sn19  1  0.333323  0.166657  0.232132  1
  Sn  Sn20  1  0.332294  0.666150  0.260307  1
  Sn  Sn21  1  0.667714  0.333861  0.759372  1
  Bi  Bi22  1  0.166180  0.333451  0.733772  1
  Bi  Bi23  1  0.166181  0.832728  0.733771  1
