# generated using pymatgen
data_Tb10Cd3Ir
_symmetry_space_group_name_H-M   'P 1'
_cell_length_a   9.66608700
_cell_length_b   9.66608734
_cell_length_c   9.92687500
_cell_angle_alpha   90.00000000
_cell_angle_beta   90.00000000
_cell_angle_gamma   120.00000226
_symmetry_Int_Tables_number   1
_chemical_formula_structural   Tb10Cd3Ir
_chemical_formula_sum   'Tb20 Cd6 Ir2'
_cell_volume   803.23863544
_cell_formula_units_Z   2
loop_
 _symmetry_equiv_pos_site_id
 _symmetry_equiv_pos_as_xyz
  1  'x, y, z'
loop_
 _atom_site_type_symbol
 _atom_site_label
 _atom_site_symmetry_multiplicity
 _atom_site_fract_x
 _atom_site_fract_y
 _atom_site_fract_z
 _atom_site_occupancy
  Tb  Tb0  1  0.000000  0.000000  0.500000  1
  Tb  Tb1  1  0.000000  0.000000  0.000000  1
  Tb  Tb2  1  0.209672  0.790328  0.440516  1
  Tb  Tb3  1  0.209672  0.419345  0.440516  1
  Tb  Tb4  1  0.580655  0.790328  0.440516  1
  Tb  Tb5  1  0.790328  0.209672  0.559484  1
  Tb  Tb6  1  0.790328  0.580655  0.559484  1
  Tb  Tb7  1  0.419345  0.209672  0.559484  1
  Tb  Tb8  1  0.790328  0.209672  0.940516  1
  Tb  Tb9  1  0.790328  0.580655  0.940516  1
  Tb  Tb10  1  0.419345  0.209672  0.940516  1
  Tb  Tb11  1  0.209672  0.790328  0.059484  1
  Tb  Tb12  1  0.209672  0.419345  0.059484  1
  Tb  Tb13  1  0.580655  0.790328  0.059484  1
  Tb  Tb14  1  0.541469  0.458531  0.250000  1
  Tb  Tb15  1  0.541469  0.082937  0.250000  1
  Tb  Tb16  1  0.917063  0.458531  0.250000  1
  Tb  Tb17  1  0.458531  0.541469  0.750000  1
  Tb  Tb18  1  0.458531  0.917063  0.750000  1
  Tb  Tb19  1  0.082937  0.541469  0.750000  1
  Cd  Cd20  1  0.885538  0.114462  0.250000  1
  Cd  Cd21  1  0.885538  0.771078  0.250000  1
  Cd  Cd22  1  0.228922  0.114462  0.250000  1
  Cd  Cd23  1  0.114462  0.885538  0.750000  1
  Cd  Cd24  1  0.114462  0.228922  0.750000  1
  Cd  Cd25  1  0.771078  0.885538  0.750000  1
  Ir  Ir26  1  0.333333  0.666667  0.250000  1
  Ir  Ir27  1  0.666667  0.333333  0.750000  1
