# generated using pymatgen
data_Zr10BeNiBi6
_symmetry_space_group_name_H-M   'P 1'
_cell_length_a   8.79837600
_cell_length_b   8.79837539
_cell_length_c   5.90869400
_cell_angle_alpha   90.00000000
_cell_angle_beta   90.00000000
_cell_angle_gamma   119.99999478
_symmetry_Int_Tables_number   1
_chemical_formula_structural   Zr10BeNiBi6
_chemical_formula_sum   'Zr10 Be1 Ni1 Bi6'
_cell_volume   396.12035450
_cell_formula_units_Z   1
loop_
 _symmetry_equiv_pos_site_id
 _symmetry_equiv_pos_as_xyz
  1  'x, y, z'
loop_
 _atom_site_type_symbol
 _atom_site_label
 _atom_site_symmetry_multiplicity
 _atom_site_fract_x
 _atom_site_fract_y
 _atom_site_fract_z
 _atom_site_occupancy
  Zr  Zr0  1  0.753119  0.753119  0.756973  1
  Zr  Zr1  1  0.246881  0.000000  0.756973  1
  Zr  Zr2  1  0.000000  0.246881  0.756973  1
  Zr  Zr3  1  0.246881  0.246881  0.243027  1
  Zr  Zr4  1  0.753119  0.000000  0.243027  1
  Zr  Zr5  1  0.000000  0.753119  0.243027  1
  Zr  Zr6  1  0.666667  0.333333  0.000000  1
  Zr  Zr7  1  0.333333  0.666667  0.000000  1
  Zr  Zr8  1  0.333333  0.666667  0.500000  1
  Zr  Zr9  1  0.666667  0.333333  0.500000  1
  Be  Be10  1  0.000000  0.000000  0.000000  1
  Ni  Ni11  1  0.000000  0.000000  0.500000  1
  Bi  Bi12  1  0.390694  0.390694  0.748249  1
  Bi  Bi13  1  0.609306  0.000000  0.748249  1
  Bi  Bi14  1  0.000000  0.609306  0.748249  1
  Bi  Bi15  1  0.609306  0.609306  0.251751  1
  Bi  Bi16  1  0.390694  0.000000  0.251751  1
  Bi  Bi17  1  0.000000  0.390694  0.251751  1
