# generated using pymatgen
data_PrDyPa2(Al3Ir)6
_symmetry_space_group_name_H-M   'P 1'
_cell_length_a   7.62016026
_cell_length_b   7.62141234
_cell_length_c   9.41220600
_cell_angle_alpha   90.00000000
_cell_angle_beta   90.00000000
_cell_angle_gamma   119.64684116
_symmetry_Int_Tables_number   1
_chemical_formula_structural   PrDyPa2(Al3Ir)6
_chemical_formula_sum   'Pr1 Dy1 Pa2 Al18 Ir6'
_cell_volume   475.06841028
_cell_formula_units_Z   1
loop_
 _symmetry_equiv_pos_site_id
 _symmetry_equiv_pos_as_xyz
  1  'x, y, z'
loop_
 _atom_site_type_symbol
 _atom_site_label
 _atom_site_symmetry_multiplicity
 _atom_site_fract_x
 _atom_site_fract_y
 _atom_site_fract_z
 _atom_site_occupancy
  Pr  Pr0  1  0.669251  0.993524  0.750000  1
  Dy  Dy1  1  0.329589  0.006416  0.250000  1
  Pa  Pa2  1  0.998107  0.671064  0.750000  1
  Pa  Pa3  1  0.001833  0.328620  0.250000  1
  Al  Al4  1  0.133084  0.127574  0.750000  1
  Al  Al5  1  0.870031  0.872537  0.250000  1
  Al  Al6  1  0.002762  0.333836  0.575189  1
  Al  Al7  1  0.999700  0.668368  0.422330  1
  Al  Al8  1  0.999700  0.668368  0.077670  1
  Al  Al9  1  0.336022  0.003246  0.928140  1
  Al  Al10  1  0.002762  0.333836  0.924811  1
  Al  Al11  1  0.661302  0.996486  0.077168  1
  Al  Al12  1  0.661302  0.996486  0.422832  1
  Al  Al13  1  0.336022  0.003246  0.571860  1
  Al  Al14  1  0.335095  0.333395  0.054298  1
  Al  Al15  1  0.665127  0.664965  0.949828  1
  Al  Al16  1  0.665127  0.664965  0.550172  1
  Al  Al17  1  0.335095  0.333395  0.445702  1
  Al  Al18  1  0.338237  0.544854  0.750000  1
  Al  Al19  1  0.659025  0.452080  0.250000  1
  Al  Al20  1  0.549431  0.343660  0.750000  1
  Al  Al21  1  0.449891  0.657785  0.250000  1
  Ir  Ir22  1  0.675984  0.330334  0.498514  1
  Ir  Ir23  1  0.323631  0.669586  0.499395  1
  Ir  Ir24  1  0.323631  0.669586  0.000605  1
  Ir  Ir25  1  0.675984  0.330334  0.001486  1
  Ir  Ir26  1  0.001137  0.000726  0.498578  1
  Ir  Ir27  1  0.001137  0.000726  0.001422  1
