# generated using pymatgen
data_Ca10Si5Bi
_symmetry_space_group_name_H-M   'P 1'
_cell_length_a   9.25927546
_cell_length_b   9.25924415
_cell_length_c   9.26006318
_cell_angle_alpha   130.65054934
_cell_angle_beta   130.65136211
_cell_angle_gamma   72.36138702
_symmetry_Int_Tables_number   1
_chemical_formula_structural   Ca10Si5Bi
_chemical_formula_sum   'Ca10 Si5 Bi1'
_cell_volume   446.70600052
_cell_formula_units_Z   1
loop_
 _symmetry_equiv_pos_site_id
 _symmetry_equiv_pos_as_xyz
  1  'x, y, z'
loop_
 _atom_site_type_symbol
 _atom_site_label
 _atom_site_symmetry_multiplicity
 _atom_site_fract_x
 _atom_site_fract_y
 _atom_site_fract_z
 _atom_site_occupancy
  Ca  Ca0  1  0.547762  0.027696  0.852206  1
  Ca  Ca1  1  0.175491  0.695555  0.147794  1
  Ca  Ca2  1  0.027691  0.175487  0.479933  1
  Ca  Ca3  1  0.695558  0.547757  0.520074  1
  Ca  Ca4  1  0.472670  0.951935  0.147808  1
  Ca  Ca5  1  0.804125  0.324860  0.852190  1
  Ca  Ca6  1  0.951944  0.804122  0.479261  1
  Ca  Ca7  1  0.324861  0.472683  0.520739  1
  Ca  Ca8  1  0.005752  0.005751  0.999998  1
  Ca  Ca9  1  0.494006  0.494007  0.999997  1
  Si  Si10  1  0.750470  0.750470  0.000001  1
  Si  Si11  1  0.886276  0.386449  0.272675  1
  Si  Si12  1  0.113776  0.613603  0.727325  1
  Si  Si13  1  0.386522  0.113715  0.500178  1
  Si  Si14  1  0.613535  0.886342  0.499820  1
  Bi  Bi15  1  0.249562  0.249567  0.000000  1
