# generated using pymatgen
data_NdLu5(AuO7)2
_symmetry_space_group_name_H-M   'P 1'
_cell_length_a   6.39772958
_cell_length_b   6.39773168
_cell_length_c   7.35893346
_cell_angle_alpha   90.13293721
_cell_angle_beta   89.86706367
_cell_angle_gamma   108.56939542
_symmetry_Int_Tables_number   1
_chemical_formula_structural   NdLu5(AuO7)2
_chemical_formula_sum   'Nd1 Lu5 Au2 O14'
_cell_volume   285.52571934
_cell_formula_units_Z   1
loop_
 _symmetry_equiv_pos_site_id
 _symmetry_equiv_pos_as_xyz
  1  'x, y, z'
loop_
 _atom_site_type_symbol
 _atom_site_label
 _atom_site_symmetry_multiplicity
 _atom_site_fract_x
 _atom_site_fract_y
 _atom_site_fract_z
 _atom_site_occupancy
  Nd  Nd0  1  0.500025  0.500025  0.000000  1
  Lu  Lu1  1  0.528271  0.998929  0.745639  1
  Lu  Lu2  1  0.471565  0.001256  0.254418  1
  Lu  Lu3  1  0.001256  0.471565  0.745582  1
  Lu  Lu4  1  0.998929  0.528271  0.254361  1
  Lu  Lu5  1  0.499860  0.499860  0.500000  1
  Au  Au6  1  0.999968  0.999968  0.000000  1
  Au  Au7  1  0.999771  0.999771  0.500000  1
  O  O8  1  0.643142  0.357004  0.737184  1
  O  O9  1  0.357004  0.643142  0.262816  1
  O  O10  1  0.916928  0.082988  0.749845  1
  O  O11  1  0.082988  0.916928  0.250155  1
  O  O12  1  0.334049  0.074552  0.975844  1
  O  O13  1  0.666425  0.915666  0.475040  1
  O  O14  1  0.915666  0.666425  0.524960  1
  O  O15  1  0.074552  0.334049  0.024156  1
  O  O16  1  0.362172  0.637944  0.737193  1
  O  O17  1  0.637944  0.362172  0.262807  1
  O  O18  1  0.333561  0.084218  0.524977  1
  O  O19  1  0.666158  0.925548  0.024243  1
  O  O20  1  0.925548  0.666158  0.975757  1
  O  O21  1  0.084218  0.333561  0.475023  1
