# generated using pymatgen
data_La20Co4Ge5Sb3
_symmetry_space_group_name_H-M   'P 1'
_cell_length_a   8.19872992
_cell_length_b   8.96686497
_cell_length_c   12.66648798
_cell_angle_alpha   90.15547508
_cell_angle_beta   90.11842948
_cell_angle_gamma   89.89656462
_symmetry_Int_Tables_number   1
_chemical_formula_structural   La20Co4Ge5Sb3
_chemical_formula_sum   'La20 Co4 Ge5 Sb3'
_cell_volume   931.19405673
_cell_formula_units_Z   1
loop_
 _symmetry_equiv_pos_site_id
 _symmetry_equiv_pos_as_xyz
  1  'x, y, z'
loop_
 _atom_site_type_symbol
 _atom_site_label
 _atom_site_symmetry_multiplicity
 _atom_site_fract_x
 _atom_site_fract_y
 _atom_site_fract_z
 _atom_site_occupancy
  La  La0  1  0.155872  0.763412  0.208390  1
  La  La1  1  0.657423  0.237677  0.293529  1
  La  La2  1  0.846969  0.258487  0.788535  1
  La  La3  1  0.337479  0.743838  0.708383  1
  La  La4  1  0.455349  0.750785  0.996368  1
  La  La5  1  0.959509  0.241717  0.508603  1
  La  La6  1  0.546714  0.250935  0.002778  1
  La  La7  1  0.047024  0.756869  0.501156  1
  La  La8  1  0.634424  0.760898  0.297446  1
  La  La9  1  0.133255  0.237733  0.202518  1
  La  La10  1  0.358575  0.255031  0.702870  1
  La  La11  1  0.872470  0.744894  0.793960  1
  La  La12  1  0.816938  0.968056  0.068022  1
  La  La13  1  0.320726  0.033533  0.433798  1
  La  La14  1  0.182251  0.470845  0.931811  1
  La  La15  1  0.680016  0.526023  0.569117  1
  La  La16  1  0.172709  0.030630  0.932016  1
  La  La17  1  0.680325  0.968574  0.563075  1
  La  La18  1  0.822779  0.528410  0.060944  1
  La  La19  1  0.320191  0.473879  0.438344  1
  Co  Co20  1  0.421148  0.749930  0.483314  1
  Co  Co21  1  0.923199  0.249995  0.014257  1
  Co  Co22  1  0.578007  0.251887  0.518264  1
  Co  Co23  1  0.076875  0.748084  0.983060  1
  Ge  Ge24  1  0.930478  0.996150  0.331268  1
  Ge  Ge25  1  0.431478  0.003997  0.168750  1
  Ge  Ge26  1  0.070633  0.496377  0.668082  1
  Ge  Ge27  1  0.569358  0.503934  0.829815  1
  Ge  Ge28  1  0.070236  0.003160  0.672695  1
  Sb  Sb29  1  0.573696  0.994928  0.825153  1
  Sb  Sb30  1  0.927678  0.504867  0.328198  1
  Sb  Sb31  1  0.426217  0.494461  0.175481  1
