# generated using pymatgen
data_Er6ZrAl15Os7
_symmetry_space_group_name_H-M   'P 1'
_cell_length_a   8.95985044
_cell_length_b   8.95984924
_cell_length_c   8.95106018
_cell_angle_alpha   59.96751397
_cell_angle_beta   59.96751178
_cell_angle_gamma   60.00000249
_symmetry_Int_Tables_number   1
_chemical_formula_structural   Er6ZrAl15Os7
_chemical_formula_sum   'Er6 Zr1 Al15 Os7'
_cell_volume   507.86410439
_cell_formula_units_Z   1
loop_
 _symmetry_equiv_pos_site_id
 _symmetry_equiv_pos_as_xyz
  1  'x, y, z'
loop_
 _atom_site_type_symbol
 _atom_site_label
 _atom_site_symmetry_multiplicity
 _atom_site_fract_x
 _atom_site_fract_y
 _atom_site_fract_z
 _atom_site_occupancy
  Er  Er0  1  0.707403  0.707403  0.286008  1
  Er  Er1  1  0.299186  0.707403  0.286008  1
  Er  Er2  1  0.707403  0.299186  0.286008  1
  Er  Er3  1  0.286572  0.286572  0.715574  1
  Er  Er4  1  0.711282  0.286572  0.715574  1
  Er  Er5  1  0.286572  0.711282  0.715574  1
  Zr  Zr6  1  0.880921  0.880921  0.357234  1
  Al  Al7  1  0.877950  0.364817  0.879282  1
  Al  Al8  1  0.364817  0.877950  0.879282  1
  Al  Al9  1  0.877950  0.877950  0.879282  1
  Al  Al10  1  0.124329  0.124329  0.627014  1
  Al  Al11  1  0.120925  0.635926  0.122226  1
  Al  Al12  1  0.635926  0.120925  0.122226  1
  Al  Al13  1  0.120925  0.120925  0.122226  1
  Al  Al14  1  0.668601  0.668601  0.994198  1
  Al  Al15  1  0.663993  0.001986  0.670029  1
  Al  Al16  1  0.001986  0.663993  0.670029  1
  Al  Al17  1  0.663993  0.663993  0.670029  1
  Al  Al18  1  0.332173  0.332173  0.003480  1
  Al  Al19  1  0.333751  0.999137  0.333362  1
  Al  Al20  1  0.999137  0.333751  0.333362  1
  Al  Al21  1  0.333751  0.333751  0.333362  1
  Os  Os22  1  0.003991  0.003991  0.988026  1
  Os  Os23  1  0.000431  0.000431  0.502792  1
  Os  Os24  1  0.496345  0.000431  0.502792  1
  Os  Os25  1  0.000431  0.496345  0.502792  1
  Os  Os26  1  0.499404  0.499404  0.000743  1
  Os  Os27  1  0.000451  0.499404  0.000743  1
  Os  Os28  1  0.499404  0.000451  0.000743  1
