# generated using pymatgen
data_Ho4Si10OsPt5
_symmetry_space_group_name_H-M   'P 1'
_cell_length_a   8.15462171
_cell_length_b   8.15462194
_cell_length_c   8.15462216
_cell_angle_alpha   137.15199559
_cell_angle_beta   104.01491925
_cell_angle_gamma   91.41334813
_symmetry_Int_Tables_number   1
_chemical_formula_structural   Ho4Si10OsPt5
_chemical_formula_sum   'Ho4 Si10 Os1 Pt5'
_cell_volume   340.57530730
_cell_formula_units_Z   1
loop_
 _symmetry_equiv_pos_site_id
 _symmetry_equiv_pos_as_xyz
  1  'x, y, z'
loop_
 _atom_site_type_symbol
 _atom_site_label
 _atom_site_symmetry_multiplicity
 _atom_site_fract_x
 _atom_site_fract_y
 _atom_site_fract_z
 _atom_site_occupancy
  Ho  Ho0  1  0.860419  0.631454  0.232705  1
  Ho  Ho1  1  0.139581  0.372286  0.771035  1
  Ho  Ho2  1  0.398749  0.127714  0.267295  1
  Ho  Ho3  1  0.601251  0.868546  0.728965  1
  Si  Si4  1  0.500000  0.750000  0.250000  1
  Si  Si5  1  0.500000  0.250000  0.750000  1
  Si  Si6  1  0.224649  0.974649  0.750000  1
  Si  Si7  1  0.775351  0.525351  0.750000  1
  Si  Si8  1  0.770961  0.020961  0.250000  1
  Si  Si9  1  0.229039  0.479039  0.250000  1
  Si  Si10  1  0.043738  0.886673  0.146329  1
  Si  Si11  1  0.956262  0.102591  0.842935  1
  Si  Si12  1  0.740343  0.397409  0.353671  1
  Si  Si13  1  0.259657  0.613327  0.657065  1
  Os  Os14  1  0.000000  0.750000  0.750000  1
  Pt  Pt15  1  0.000000  0.250000  0.250000  1
  Pt  Pt16  1  0.246327  0.864193  0.386949  1
  Pt  Pt17  1  0.753673  0.140621  0.617865  1
  Pt  Pt18  1  0.477244  0.359379  0.113051  1
  Pt  Pt19  1  0.522756  0.635807  0.882135  1
