# generated using pymatgen
data_K3TmW2O9
_symmetry_space_group_name_H-M   'P 1'
_cell_length_a   5.94387400
_cell_length_b   5.94386371
_cell_length_c   14.49544600
_cell_angle_alpha   90.00000000
_cell_angle_beta   90.00000000
_cell_angle_gamma   120.00005726
_symmetry_Int_Tables_number   1
_chemical_formula_structural   K3TmW2O9
_chemical_formula_sum   'K6 Tm2 W4 O18'
_cell_volume   443.50692033
_cell_formula_units_Z   2
loop_
 _symmetry_equiv_pos_site_id
 _symmetry_equiv_pos_as_xyz
  1  'x, y, z'
loop_
 _atom_site_type_symbol
 _atom_site_label
 _atom_site_symmetry_multiplicity
 _atom_site_fract_x
 _atom_site_fract_y
 _atom_site_fract_z
 _atom_site_occupancy
  K  K0  1  0.000003  0.000007  0.250000  1
  K  K1  1  0.999997  0.999993  0.750000  1
  K  K2  1  0.333327  0.666655  0.386614  1
  K  K3  1  0.666673  0.333345  0.613386  1
  K  K4  1  0.666673  0.333345  0.886614  1
  K  K5  1  0.333327  0.666655  0.113386  1
  Tm  Tm6  1  0.000000  0.000000  0.500000  1
  Tm  Tm7  1  0.000000  0.000000  0.000000  1
  W  W8  1  0.666655  0.333329  0.349020  1
  W  W9  1  0.333345  0.666671  0.650980  1
  W  W10  1  0.333345  0.666671  0.849020  1
  W  W11  1  0.666655  0.333329  0.150980  1
  O  O12  1  0.524233  0.475763  0.250000  1
  O  O13  1  0.524226  0.048453  0.250000  1
  O  O14  1  0.951542  0.475771  0.250000  1
  O  O15  1  0.475767  0.524237  0.750000  1
  O  O16  1  0.475774  0.951547  0.750000  1
  O  O17  1  0.048458  0.524229  0.750000  1
  O  O18  1  0.349572  0.174785  0.412413  1
  O  O19  1  0.825227  0.174775  0.412409  1
  O  O20  1  0.825216  0.650428  0.412409  1
  O  O21  1  0.650428  0.825215  0.587587  1
  O  O22  1  0.174773  0.825225  0.587591  1
  O  O23  1  0.174784  0.349572  0.587591  1
  O  O24  1  0.650428  0.825215  0.912413  1
  O  O25  1  0.174773  0.825225  0.912409  1
  O  O26  1  0.174784  0.349572  0.912409  1
  O  O27  1  0.349572  0.174785  0.087587  1
  O  O28  1  0.825227  0.174775  0.087591  1
  O  O29  1  0.825216  0.650428  0.087591  1
