# generated using pymatgen
data_Li2Tm3MgSi2Ag
_symmetry_space_group_name_H-M   'P 1'
_cell_length_a   7.08737117
_cell_length_b   7.08737037
_cell_length_c   4.17863200
_cell_angle_alpha   90.00000000
_cell_angle_beta   90.00000000
_cell_angle_gamma   119.35816723
_symmetry_Int_Tables_number   1
_chemical_formula_structural   Li2Tm3MgSi2Ag
_chemical_formula_sum   'Li2 Tm3 Mg1 Si2 Ag1'
_cell_volume   182.93958952
_cell_formula_units_Z   1
loop_
 _symmetry_equiv_pos_site_id
 _symmetry_equiv_pos_as_xyz
  1  'x, y, z'
loop_
 _atom_site_type_symbol
 _atom_site_label
 _atom_site_symmetry_multiplicity
 _atom_site_fract_x
 _atom_site_fract_y
 _atom_site_fract_z
 _atom_site_occupancy
  Li  Li0  1  0.250352  0.000602  0.500000  1
  Li  Li1  1  0.000602  0.250352  0.500000  1
  Tm  Tm2  1  0.571875  0.001864  0.000000  1
  Tm  Tm3  1  0.001864  0.571875  0.000000  1
  Tm  Tm4  1  0.420093  0.420093  0.000000  1
  Mg  Mg5  1  0.755579  0.755579  0.500000  1
  Si  Si6  1  0.329961  0.665510  0.500000  1
  Si  Si7  1  0.665510  0.329961  0.500000  1
  Ag  Ag8  1  0.004165  0.004165  0.000000  1
