# generated using pymatgen
data_Pr4HgOs
_symmetry_space_group_name_H-M   'P 1'
_cell_length_a   9.99055821
_cell_length_b   10.01208981
_cell_length_c   10.01209000
_cell_angle_alpha   59.99999275
_cell_angle_beta   59.92867383
_cell_angle_gamma   59.92867342
_symmetry_Int_Tables_number   1
_chemical_formula_structural   Pr4HgOs
_chemical_formula_sum   'Pr16 Hg4 Os4'
_cell_volume   707.38388231
_cell_formula_units_Z   4
loop_
 _symmetry_equiv_pos_site_id
 _symmetry_equiv_pos_as_xyz
  1  'x, y, z'
loop_
 _atom_site_type_symbol
 _atom_site_label
 _atom_site_symmetry_multiplicity
 _atom_site_fract_x
 _atom_site_fract_y
 _atom_site_fract_z
 _atom_site_occupancy
  Pr  Pr0  1  0.347233  0.347444  0.347444  1
  Pr  Pr1  1  0.347233  0.347444  0.957878  1
  Pr  Pr2  1  0.347233  0.957878  0.347444  1
  Pr  Pr3  1  0.955965  0.348012  0.348012  1
  Pr  Pr4  1  0.807522  0.192127  0.192127  1
  Pr  Pr5  1  0.191852  0.808218  0.808218  1
  Pr  Pr6  1  0.191852  0.808218  0.191713  1
  Pr  Pr7  1  0.807522  0.192127  0.808223  1
  Pr  Pr8  1  0.191852  0.191713  0.808218  1
  Pr  Pr9  1  0.807522  0.808223  0.192127  1
  Pr  Pr10  1  0.942446  0.558228  0.558228  1
  Pr  Pr11  1  0.558090  0.941736  0.941736  1
  Pr  Pr12  1  0.558090  0.941736  0.558436  1
  Pr  Pr13  1  0.942446  0.558228  0.941098  1
  Pr  Pr14  1  0.558090  0.558436  0.941736  1
  Pr  Pr15  1  0.942446  0.941098  0.558228  1
  Hg  Hg16  1  0.252922  0.582359  0.582359  1
  Hg  Hg17  1  0.583571  0.583596  0.583596  1
  Hg  Hg18  1  0.583571  0.583596  0.249236  1
  Hg  Hg19  1  0.583571  0.249236  0.583596  1
  Os  Os20  1  0.137687  0.138173  0.138173  1
  Os  Os21  1  0.137687  0.138173  0.585967  1
  Os  Os22  1  0.137687  0.585967  0.138173  1
  Os  Os23  1  0.585910  0.138030  0.138030  1
