# generated using pymatgen
data_Zr3Sc4Os8W
_symmetry_space_group_name_H-M   'P 1'
_cell_length_a   6.46603600
_cell_length_b   4.56848400
_cell_length_c   9.14195900
_cell_angle_alpha   90.00000000
_cell_angle_beta   89.99913228
_cell_angle_gamma   90.00000000
_symmetry_Int_Tables_number   1
_chemical_formula_structural   Zr3Sc4Os8W
_chemical_formula_sum   'Zr3 Sc4 Os8 W1'
_cell_volume   270.05330438
_cell_formula_units_Z   1
loop_
 _symmetry_equiv_pos_site_id
 _symmetry_equiv_pos_as_xyz
  1  'x, y, z'
loop_
 _atom_site_type_symbol
 _atom_site_label
 _atom_site_symmetry_multiplicity
 _atom_site_fract_x
 _atom_site_fract_y
 _atom_site_fract_z
 _atom_site_occupancy
  Zr  Zr0  1  0.249937  0.750000  0.374080  1
  Zr  Zr1  1  0.750081  0.250000  0.625017  1
  Zr  Zr2  1  0.250062  0.750000  0.875901  1
  Sc  Sc3  1  0.249903  0.250000  0.124993  1
  Sc  Sc4  1  0.749929  0.750000  0.374493  1
  Sc  Sc5  1  0.250088  0.250000  0.624999  1
  Sc  Sc6  1  0.750061  0.750000  0.875487  1
  Os  Os7  1  0.987953  0.750000  0.124994  1
  Os  Os8  1  0.511919  0.750000  0.124992  1
  Os  Os9  1  0.993902  0.250000  0.366170  1
  Os  Os10  1  0.506013  0.250000  0.366157  1
  Os  Os11  1  0.499934  0.750000  0.625000  1
  Os  Os12  1  0.000165  0.750000  0.625000  1
  Os  Os13  1  0.506103  0.250000  0.883865  1
  Os  Os14  1  0.994024  0.250000  0.883832  1
  W  W15  1  0.749927  0.250000  0.125020  1
