# generated using pymatgen
data_Tb20RuRh11
_symmetry_space_group_name_H-M   'P 1'
_cell_length_a   10.93279200
_cell_length_b   10.93279200
_cell_length_c   6.41459100
_cell_angle_alpha   90.00000000
_cell_angle_beta   90.00000000
_cell_angle_gamma   90.00000000
_symmetry_Int_Tables_number   1
_chemical_formula_structural   Tb20RuRh11
_chemical_formula_sum   'Tb20 Ru1 Rh11'
_cell_volume   766.71002486
_cell_formula_units_Z   1
loop_
 _symmetry_equiv_pos_site_id
 _symmetry_equiv_pos_as_xyz
  1  'x, y, z'
loop_
 _atom_site_type_symbol
 _atom_site_label
 _atom_site_symmetry_multiplicity
 _atom_site_fract_x
 _atom_site_fract_y
 _atom_site_fract_z
 _atom_site_occupancy
  Tb  Tb0  1  0.292329  0.087663  0.376632  1
  Tb  Tb1  1  0.292690  0.912347  0.881175  1
  Tb  Tb2  1  0.707310  0.087653  0.881175  1
  Tb  Tb3  1  0.707671  0.912337  0.376632  1
  Tb  Tb4  1  0.587653  0.792690  0.881175  1
  Tb  Tb5  1  0.587663  0.207671  0.376632  1
  Tb  Tb6  1  0.412337  0.792329  0.376632  1
  Tb  Tb7  1  0.412347  0.207310  0.881175  1
  Tb  Tb8  1  0.209436  0.411080  0.621060  1
  Tb  Tb9  1  0.209366  0.588600  0.120689  1
  Tb  Tb10  1  0.790634  0.411400  0.120689  1
  Tb  Tb11  1  0.790564  0.588920  0.621060  1
  Tb  Tb12  1  0.911400  0.709366  0.120689  1
  Tb  Tb13  1  0.911080  0.290564  0.621060  1
  Tb  Tb14  1  0.088920  0.709436  0.621060  1
  Tb  Tb15  1  0.088600  0.290634  0.120689  1
  Tb  Tb16  1  0.000000  0.000000  0.499268  1
  Tb  Tb17  1  0.000000  0.000000  0.999186  1
  Tb  Tb18  1  0.500000  0.500000  0.999186  1
  Tb  Tb19  1  0.500000  0.500000  0.499268  1
  Ru  Ru20  1  0.500000  0.000000  0.124028  1
  Rh  Rh21  1  0.847095  0.154286  0.250313  1
  Rh  Rh22  1  0.847120  0.846159  0.749982  1
  Rh  Rh23  1  0.152880  0.153841  0.749982  1
  Rh  Rh24  1  0.152905  0.845714  0.250313  1
  Rh  Rh25  1  0.653841  0.347120  0.749982  1
  Rh  Rh26  1  0.654286  0.652905  0.250313  1
  Rh  Rh27  1  0.345714  0.347095  0.250313  1
  Rh  Rh28  1  0.346159  0.652880  0.749982  1
  Rh  Rh29  1  0.500000  0.000000  0.623187  1
  Rh  Rh30  1  0.000000  0.500000  0.878141  1
  Rh  Rh31  1  0.000000  0.500000  0.378328  1
