# generated using pymatgen
data_TaAg3Se4
_symmetry_space_group_name_H-M   'P 1'
_cell_length_a   8.92698800
_cell_length_b   8.92698800
_cell_length_c   6.30300200
_cell_angle_alpha   90.00000000
_cell_angle_beta   90.00000000
_cell_angle_gamma   90.00000000
_symmetry_Int_Tables_number   1
_chemical_formula_structural   TaAg3Se4
_chemical_formula_sum   'Ta2 Ag6 Se8'
_cell_volume   502.29325566
_cell_formula_units_Z   2
loop_
 _symmetry_equiv_pos_site_id
 _symmetry_equiv_pos_as_xyz
  1  'x, y, z'
loop_
 _atom_site_type_symbol
 _atom_site_label
 _atom_site_symmetry_multiplicity
 _atom_site_fract_x
 _atom_site_fract_y
 _atom_site_fract_z
 _atom_site_occupancy
  Ta  Ta0  1  0.000000  0.000000  0.000000  1
  Ta  Ta1  1  0.500000  0.500000  0.000000  1
  Ag  Ag2  1  0.249542  0.750458  0.000000  1
  Ag  Ag3  1  0.750458  0.249542  0.000000  1
  Ag  Ag4  1  0.249542  0.249542  0.000000  1
  Ag  Ag5  1  0.750458  0.750458  0.000000  1
  Ag  Ag6  1  0.000000  0.000000  0.500000  1
  Ag  Ag7  1  0.500000  0.500000  0.500000  1
  Se  Se8  1  0.500000  0.272507  0.772800  1
  Se  Se9  1  0.000000  0.772792  0.772170  1
  Se  Se10  1  0.500000  0.727493  0.772800  1
  Se  Se11  1  0.000000  0.227208  0.772170  1
  Se  Se12  1  0.772792  0.000000  0.227830  1
  Se  Se13  1  0.272507  0.500000  0.227200  1
  Se  Se14  1  0.227208  0.000000  0.227830  1
  Se  Se15  1  0.727493  0.500000  0.227200  1
