# generated using pymatgen
data_Lu2NbSi2Ru5
_symmetry_space_group_name_H-M   'P 1'
_cell_length_a   9.95788800
_cell_length_b   9.95788800
_cell_length_c   3.24967500
_cell_angle_alpha   90.00000000
_cell_angle_beta   90.00000000
_cell_angle_gamma   90.00000000
_symmetry_Int_Tables_number   1
_chemical_formula_structural   Lu2NbSi2Ru5
_chemical_formula_sum   'Lu4 Nb2 Si4 Ru10'
_cell_volume   322.23625677
_cell_formula_units_Z   2
loop_
 _symmetry_equiv_pos_site_id
 _symmetry_equiv_pos_as_xyz
  1  'x, y, z'
loop_
 _atom_site_type_symbol
 _atom_site_label
 _atom_site_symmetry_multiplicity
 _atom_site_fract_x
 _atom_site_fract_y
 _atom_site_fract_z
 _atom_site_occupancy
  Lu  Lu0  1  0.825923  0.674077  0.000000  1
  Lu  Lu1  1  0.174077  0.325923  0.000000  1
  Lu  Lu2  1  0.325923  0.825923  0.000000  1
  Lu  Lu3  1  0.674077  0.174077  0.000000  1
  Nb  Nb4  1  0.500000  0.500000  0.000000  1
  Nb  Nb5  1  0.000000  0.000000  0.000000  1
  Si  Si6  1  0.625768  0.874232  0.000000  1
  Si  Si7  1  0.374232  0.125768  0.000000  1
  Si  Si8  1  0.125768  0.625768  0.000000  1
  Si  Si9  1  0.874232  0.374232  0.000000  1
  Ru  Ru10  1  0.567469  0.708737  0.500000  1
  Ru  Ru11  1  0.432531  0.291263  0.500000  1
  Ru  Ru12  1  0.067469  0.791263  0.500000  1
  Ru  Ru13  1  0.932531  0.208737  0.500000  1
  Ru  Ru14  1  0.291263  0.567469  0.500000  1
  Ru  Ru15  1  0.708737  0.432531  0.500000  1
  Ru  Ru16  1  0.208737  0.067469  0.500000  1
  Ru  Ru17  1  0.791263  0.932531  0.500000  1
  Ru  Ru18  1  0.500000  0.000000  0.500000  1
  Ru  Ru19  1  0.000000  0.500000  0.500000  1
