# generated using pymatgen
data_Hf6Zr3Re4Pd
_symmetry_space_group_name_H-M   'P 1'
_cell_length_a   8.74537900
_cell_length_b   8.74537290
_cell_length_c   8.49860200
_cell_angle_alpha   90.00000000
_cell_angle_beta   90.00000000
_cell_angle_gamma   120.00052545
_symmetry_Int_Tables_number   1
_chemical_formula_structural   Hf6Zr3Re4Pd
_chemical_formula_sum   'Hf12 Zr6 Re8 Pd2'
_cell_volume   562.90199947
_cell_formula_units_Z   2
loop_
 _symmetry_equiv_pos_site_id
 _symmetry_equiv_pos_as_xyz
  1  'x, y, z'
loop_
 _atom_site_type_symbol
 _atom_site_label
 _atom_site_symmetry_multiplicity
 _atom_site_fract_x
 _atom_site_fract_y
 _atom_site_fract_z
 _atom_site_occupancy
  Hf  Hf0  1  0.193027  0.806968  0.446025  1
  Hf  Hf1  1  0.193020  0.386054  0.446028  1
  Hf  Hf2  1  0.613952  0.806979  0.446031  1
  Hf  Hf3  1  0.806973  0.193032  0.553975  1
  Hf  Hf4  1  0.806980  0.613946  0.553972  1
  Hf  Hf5  1  0.386048  0.193021  0.553969  1
  Hf  Hf6  1  0.806973  0.193032  0.946025  1
  Hf  Hf7  1  0.806980  0.613946  0.946028  1
  Hf  Hf8  1  0.386048  0.193021  0.946031  1
  Hf  Hf9  1  0.193027  0.806968  0.053975  1
  Hf  Hf10  1  0.193020  0.386054  0.053972  1
  Hf  Hf11  1  0.613952  0.806979  0.053969  1
  Zr  Zr12  1  0.542462  0.457541  0.250000  1
  Zr  Zr13  1  0.542464  0.084919  0.250000  1
  Zr  Zr14  1  0.915081  0.457533  0.250000  1
  Zr  Zr15  1  0.457538  0.542459  0.750000  1
  Zr  Zr16  1  0.457536  0.915081  0.750000  1
  Zr  Zr17  1  0.084919  0.542467  0.750000  1
  Re  Re18  1  0.890484  0.109515  0.250000  1
  Re  Re19  1  0.890474  0.780962  0.250000  1
  Re  Re20  1  0.219030  0.109526  0.250000  1
  Re  Re21  1  0.109516  0.890485  0.750000  1
  Re  Re22  1  0.109526  0.219038  0.750000  1
  Re  Re23  1  0.780970  0.890474  0.750000  1
  Re  Re24  1  0.000000  0.000000  0.500000  1
  Re  Re25  1  0.000000  0.000000  0.000000  1
  Pd  Pd26  1  0.333343  0.666667  0.250000  1
  Pd  Pd27  1  0.666657  0.333333  0.750000  1
