# generated using pymatgen
data_Pr4YIr3
_symmetry_space_group_name_H-M   'P 1'
_cell_length_a   11.27911400
_cell_length_b   11.27911400
_cell_length_c   6.58857700
_cell_angle_alpha   90.00000000
_cell_angle_beta   90.00000000
_cell_angle_gamma   90.00000000
_symmetry_Int_Tables_number   1
_chemical_formula_structural   Pr4YIr3
_chemical_formula_sum   'Pr16 Y4 Ir12'
_cell_volume   838.18830740
_cell_formula_units_Z   4
loop_
 _symmetry_equiv_pos_site_id
 _symmetry_equiv_pos_as_xyz
  1  'x, y, z'
loop_
 _atom_site_type_symbol
 _atom_site_label
 _atom_site_symmetry_multiplicity
 _atom_site_fract_x
 _atom_site_fract_y
 _atom_site_fract_z
 _atom_site_occupancy
  Pr  Pr0  1  0.289124  0.087912  0.383007  1
  Pr  Pr1  1  0.289124  0.912088  0.883007  1
  Pr  Pr2  1  0.710876  0.087912  0.883007  1
  Pr  Pr3  1  0.710876  0.912088  0.383007  1
  Pr  Pr4  1  0.587912  0.789124  0.883007  1
  Pr  Pr5  1  0.587912  0.210876  0.383007  1
  Pr  Pr6  1  0.412088  0.789124  0.383007  1
  Pr  Pr7  1  0.412088  0.210876  0.883007  1
  Pr  Pr8  1  0.210876  0.412088  0.616993  1
  Pr  Pr9  1  0.210876  0.587912  0.116993  1
  Pr  Pr10  1  0.789124  0.412088  0.116993  1
  Pr  Pr11  1  0.789124  0.587912  0.616993  1
  Pr  Pr12  1  0.912088  0.710876  0.116993  1
  Pr  Pr13  1  0.912088  0.289124  0.616993  1
  Pr  Pr14  1  0.087912  0.710876  0.616993  1
  Pr  Pr15  1  0.087912  0.289124  0.116993  1
  Y  Y16  1  0.000000  0.000000  0.500000  1
  Y  Y17  1  0.000000  0.000000  0.000000  1
  Y  Y18  1  0.500000  0.500000  0.000000  1
  Y  Y19  1  0.500000  0.500000  0.500000  1
  Ir  Ir20  1  0.851349  0.148651  0.250000  1
  Ir  Ir21  1  0.851349  0.851349  0.750000  1
  Ir  Ir22  1  0.148651  0.148651  0.750000  1
  Ir  Ir23  1  0.148651  0.851349  0.250000  1
  Ir  Ir24  1  0.648651  0.351349  0.750000  1
  Ir  Ir25  1  0.648651  0.648651  0.250000  1
  Ir  Ir26  1  0.351349  0.351349  0.250000  1
  Ir  Ir27  1  0.351349  0.648651  0.750000  1
  Ir  Ir28  1  0.500000  0.000000  0.118975  1
  Ir  Ir29  1  0.500000  0.000000  0.618975  1
  Ir  Ir30  1  0.000000  0.500000  0.881025  1
  Ir  Ir31  1  0.000000  0.500000  0.381025  1
