# generated using pymatgen
data_Sm2YMg3Sn2Au
_symmetry_space_group_name_H-M   'P 1'
_cell_length_a   7.60916411
_cell_length_b   7.60916417
_cell_length_c   4.48257600
_cell_angle_alpha   90.00000000
_cell_angle_beta   90.00000000
_cell_angle_gamma   119.58411968
_symmetry_Int_Tables_number   1
_chemical_formula_structural   Sm2YMg3Sn2Au
_chemical_formula_sum   'Sm2 Y1 Mg3 Sn2 Au1'
_cell_volume   225.70281642
_cell_formula_units_Z   1
loop_
 _symmetry_equiv_pos_site_id
 _symmetry_equiv_pos_as_xyz
  1  'x, y, z'
loop_
 _atom_site_type_symbol
 _atom_site_label
 _atom_site_symmetry_multiplicity
 _atom_site_fract_x
 _atom_site_fract_y
 _atom_site_fract_z
 _atom_site_occupancy
  Sm  Sm0  1  0.593402  0.998878  0.000000  1
  Sm  Sm1  1  0.998878  0.593402  0.000000  1
  Y  Y2  1  0.404967  0.404967  0.000000  1
  Mg  Mg3  1  0.237055  0.000757  0.500000  1
  Mg  Mg4  1  0.000757  0.237055  0.500000  1
  Mg  Mg5  1  0.762812  0.762812  0.500000  1
  Sn  Sn6  1  0.334912  0.664626  0.500000  1
  Sn  Sn7  1  0.664626  0.334912  0.500000  1
  Au  Au8  1  0.002592  0.002592  0.000000  1
