# generated using pymatgen
data_V7MoP6
_symmetry_space_group_name_H-M   'P 1'
_cell_length_a   6.84783774
_cell_length_b   6.84783737
_cell_length_c   17.31605100
_cell_angle_alpha   90.00000000
_cell_angle_beta   90.00000000
_cell_angle_gamma   152.45908829
_symmetry_Int_Tables_number   1
_chemical_formula_structural   V7MoP6
_chemical_formula_sum   'V14 Mo2 P12'
_cell_volume   375.45383325
_cell_formula_units_Z   2
loop_
 _symmetry_equiv_pos_site_id
 _symmetry_equiv_pos_as_xyz
  1  'x, y, z'
loop_
 _atom_site_type_symbol
 _atom_site_label
 _atom_site_symmetry_multiplicity
 _atom_site_fract_x
 _atom_site_fract_y
 _atom_site_fract_z
 _atom_site_occupancy
  V  V0  1  0.737981  0.262019  0.661527  1
  V  V1  1  0.262019  0.737981  0.338473  1
  V  V2  1  0.737981  0.262019  0.838473  1
  V  V3  1  0.262019  0.737981  0.161527  1
  V  V4  1  0.534406  0.465594  0.620030  1
  V  V5  1  0.465594  0.534406  0.379970  1
  V  V6  1  0.534406  0.465594  0.879970  1
  V  V7  1  0.465594  0.534406  0.120030  1
  V  V8  1  0.667399  0.332601  0.473123  1
  V  V9  1  0.332601  0.667399  0.526877  1
  V  V10  1  0.667399  0.332601  0.026877  1
  V  V11  1  0.332601  0.667399  0.973123  1
  V  V12  1  0.000000  0.000000  0.500000  1
  V  V13  1  0.000000  0.000000  0.000000  1
  Mo  Mo14  1  0.056617  0.943383  0.250000  1
  Mo  Mo15  1  0.943383  0.056617  0.750000  1
  P  P16  1  0.902568  0.097432  0.614296  1
  P  P17  1  0.097432  0.902568  0.385704  1
  P  P18  1  0.902568  0.097432  0.885704  1
  P  P19  1  0.097432  0.902568  0.114296  1
  P  P20  1  0.841942  0.158058  0.423391  1
  P  P21  1  0.158058  0.841942  0.576609  1
  P  P22  1  0.841942  0.158058  0.076609  1
  P  P23  1  0.158058  0.841942  0.923391  1
  P  P24  1  0.699309  0.300691  0.250000  1
  P  P25  1  0.300691  0.699309  0.750000  1
  P  P26  1  0.411889  0.588111  0.250000  1
  P  P27  1  0.588111  0.411889  0.750000  1
