# generated using pymatgen
data_NdHo3Ir3RhO14
_symmetry_space_group_name_H-M   'P 1'
_cell_length_a   7.29318243
_cell_length_b   7.29510186
_cell_length_c   7.29318192
_cell_angle_alpha   59.46280619
_cell_angle_beta   59.38420038
_cell_angle_gamma   59.46281314
_symmetry_Int_Tables_number   1
_chemical_formula_structural   NdHo3Ir3RhO14
_chemical_formula_sum   'Nd1 Ho3 Ir3 Rh1 O14'
_cell_volume   270.86142720
_cell_formula_units_Z   1
loop_
 _symmetry_equiv_pos_site_id
 _symmetry_equiv_pos_as_xyz
  1  'x, y, z'
loop_
 _atom_site_type_symbol
 _atom_site_label
 _atom_site_symmetry_multiplicity
 _atom_site_fract_x
 _atom_site_fract_y
 _atom_site_fract_z
 _atom_site_occupancy
  Nd  Nd0  1  0.125000  0.125000  0.125000  1
  Ho  Ho1  1  0.625000  0.125000  0.125000  1
  Ho  Ho2  1  0.125000  0.625000  0.125000  1
  Ho  Ho3  1  0.125000  0.125000  0.625000  1
  Ir  Ir4  1  0.125000  0.625000  0.625000  1
  Ir  Ir5  1  0.625000  0.625000  0.125000  1
  Ir  Ir6  1  0.625000  0.625000  0.625000  1
  Rh  Rh7  1  0.625000  0.125000  0.625000  1
  O  O8  1  0.712889  0.708105  0.290045  1
  O  O9  1  0.284652  0.289756  0.703884  1
  O  O10  1  0.713020  0.289707  0.713020  1
  O  O11  1  0.290194  0.698486  0.290194  1
  O  O12  1  0.290045  0.708105  0.712889  1
  O  O13  1  0.703884  0.289756  0.284652  1
  O  O14  1  0.537111  0.541895  0.959955  1
  O  O15  1  0.965348  0.960244  0.546116  1
  O  O16  1  0.536980  0.960293  0.536980  1
  O  O17  1  0.959806  0.551514  0.959806  1
  O  O18  1  0.959955  0.541895  0.537111  1
  O  O19  1  0.546116  0.960244  0.965348  1
  O  O20  1  0.252862  0.255030  0.252862  1
  O  O21  1  0.997138  0.994970  0.997138  1
