# generated using pymatgen
data_Tm3Lu9Co3Tc
_symmetry_space_group_name_H-M   'P 1'
_cell_length_a   6.17274607
_cell_length_b   7.01001450
_cell_length_c   8.97363800
_cell_angle_alpha   90.00000000
_cell_angle_beta   90.00000000
_cell_angle_gamma   90.03801792
_symmetry_Int_Tables_number   1
_chemical_formula_structural   Tm3Lu9Co3Tc
_chemical_formula_sum   'Tm3 Lu9 Co3 Tc1'
_cell_volume   388.29855884
_cell_formula_units_Z   1
loop_
 _symmetry_equiv_pos_site_id
 _symmetry_equiv_pos_as_xyz
  1  'x, y, z'
loop_
 _atom_site_type_symbol
 _atom_site_label
 _atom_site_symmetry_multiplicity
 _atom_site_fract_x
 _atom_site_fract_y
 _atom_site_fract_z
 _atom_site_occupancy
  Tm  Tm0  1  0.862243  0.535064  0.250000  1
  Tm  Tm1  1  0.134910  0.458259  0.750000  1
  Tm  Tm2  1  0.365819  0.954810  0.750000  1
  Lu  Lu3  1  0.326624  0.673306  0.064502  1
  Lu  Lu4  1  0.176082  0.180936  0.436813  1
  Lu  Lu5  1  0.676534  0.322162  0.566607  1
  Lu  Lu6  1  0.829961  0.826588  0.936884  1
  Lu  Lu7  1  0.676534  0.322162  0.933393  1
  Lu  Lu8  1  0.829961  0.826588  0.563116  1
  Lu  Lu9  1  0.326624  0.673306  0.435498  1
  Lu  Lu10  1  0.176082  0.180936  0.063187  1
  Lu  Lu11  1  0.619866  0.043673  0.250000  1
  Co  Co12  1  0.460446  0.386922  0.250000  1
  Co  Co13  1  0.963433  0.114460  0.750000  1
  Co  Co14  1  0.541066  0.610441  0.750000  1
  Tc  Tc15  1  0.033814  0.890389  0.250000  1
