# generated using pymatgen
data_Ho4FeOsRu6
_symmetry_space_group_name_H-M   'P 1'
_cell_length_a   5.38650839
_cell_length_b   5.15725111
_cell_length_c   8.87247800
_cell_angle_alpha   90.00000000
_cell_angle_beta   90.00000000
_cell_angle_gamma   121.38357902
_symmetry_Int_Tables_number   1
_chemical_formula_structural   Ho4FeOsRu6
_chemical_formula_sum   'Ho4 Fe1 Os1 Ru6'
_cell_volume   210.41460172
_cell_formula_units_Z   1
loop_
 _symmetry_equiv_pos_site_id
 _symmetry_equiv_pos_as_xyz
  1  'x, y, z'
loop_
 _atom_site_type_symbol
 _atom_site_label
 _atom_site_symmetry_multiplicity
 _atom_site_fract_x
 _atom_site_fract_y
 _atom_site_fract_z
 _atom_site_occupancy
  Ho  Ho0  1  0.667965  0.336338  0.567077  1
  Ho  Ho1  1  0.330652  0.661589  0.435193  1
  Ho  Ho2  1  0.330652  0.661589  0.064807  1
  Ho  Ho3  1  0.667965  0.336338  0.932923  1
  Fe  Fe4  1  0.164578  0.329094  0.750000  1
  Os  Os5  1  0.836592  0.673202  0.250000  1
  Ru  Ru6  1  0.997649  0.995991  0.502156  1
  Ru  Ru7  1  0.997649  0.995991  0.997844  1
  Ru  Ru8  1  0.172986  0.825493  0.750000  1
  Ru  Ru9  1  0.652939  0.826587  0.750000  1
  Ru  Ru10  1  0.831346  0.178696  0.250000  1
  Ru  Ru11  1  0.349026  0.179093  0.250000  1
