# generated using pymatgen
data_Y2Al9Os2Au
_symmetry_space_group_name_H-M   'P 1'
_cell_length_a   7.63647106
_cell_length_b   7.63647054
_cell_length_c   9.55340500
_cell_angle_alpha   90.00000000
_cell_angle_beta   90.00000000
_cell_angle_gamma   119.43026649
_symmetry_Int_Tables_number   1
_chemical_formula_structural   Y2Al9Os2Au
_chemical_formula_sum   'Y4 Al18 Os4 Au2'
_cell_volume   485.22032323
_cell_formula_units_Z   2
loop_
 _symmetry_equiv_pos_site_id
 _symmetry_equiv_pos_as_xyz
  1  'x, y, z'
loop_
 _atom_site_type_symbol
 _atom_site_label
 _atom_site_symmetry_multiplicity
 _atom_site_fract_x
 _atom_site_fract_y
 _atom_site_fract_z
 _atom_site_occupancy
  Y  Y0  1  0.997518  0.674513  0.250000  1
  Y  Y1  1  0.002482  0.325487  0.750000  1
  Y  Y2  1  0.674513  0.997518  0.250000  1
  Y  Y3  1  0.325487  0.002482  0.750000  1
  Al  Al4  1  0.142031  0.142031  0.250000  1
  Al  Al5  1  0.857969  0.857969  0.750000  1
  Al  Al6  1  0.002164  0.346761  0.075760  1
  Al  Al7  1  0.997836  0.653239  0.924240  1
  Al  Al8  1  0.997836  0.653239  0.575760  1
  Al  Al9  1  0.346761  0.002164  0.424240  1
  Al  Al10  1  0.002164  0.346761  0.424240  1
  Al  Al11  1  0.653239  0.997836  0.575760  1
  Al  Al12  1  0.653239  0.997836  0.924240  1
  Al  Al13  1  0.346761  0.002164  0.075760  1
  Al  Al14  1  0.343601  0.343601  0.553034  1
  Al  Al15  1  0.656399  0.656399  0.446966  1
  Al  Al16  1  0.656399  0.656399  0.053034  1
  Al  Al17  1  0.343601  0.343601  0.946966  1
  Al  Al18  1  0.337170  0.552684  0.250000  1
  Al  Al19  1  0.662830  0.447316  0.750000  1
  Al  Al20  1  0.552684  0.337170  0.250000  1
  Al  Al21  1  0.447316  0.662830  0.750000  1
  Os  Os22  1  0.671988  0.328012  0.000000  1
  Os  Os23  1  0.328012  0.671988  0.000000  1
  Os  Os24  1  0.328012  0.671988  0.500000  1
  Os  Os25  1  0.671988  0.328012  0.500000  1
  Au  Au26  1  0.000000  0.000000  0.000000  1
  Au  Au27  1  0.000000  0.000000  0.500000  1
