# generated using pymatgen
data_Tb14Dy2In4RuRh3
_symmetry_space_group_name_H-M   'P 1'
_cell_length_a   9.70581395
_cell_length_b   9.70372856
_cell_length_c   9.70427028
_cell_angle_alpha   59.88654813
_cell_angle_beta   59.86527717
_cell_angle_gamma   59.89839223
_symmetry_Int_Tables_number   1
_chemical_formula_structural   Tb14Dy2In4RuRh3
_chemical_formula_sum   'Tb14 Dy2 In4 Ru1 Rh3'
_cell_volume   644.56690429
_cell_formula_units_Z   1
loop_
 _symmetry_equiv_pos_site_id
 _symmetry_equiv_pos_as_xyz
  1  'x, y, z'
loop_
 _atom_site_type_symbol
 _atom_site_label
 _atom_site_symmetry_multiplicity
 _atom_site_fract_x
 _atom_site_fract_y
 _atom_site_fract_z
 _atom_site_occupancy
  Tb  Tb0  1  0.688007  0.309068  0.311950  1
  Tb  Tb1  1  0.691043  0.689459  0.311897  1
  Tb  Tb2  1  0.310682  0.687189  0.310603  1
  Tb  Tb3  1  0.936839  0.937889  0.562871  1
  Tb  Tb4  1  0.149535  0.151800  0.547485  1
  Tb  Tb5  1  0.559742  0.942806  0.559597  1
  Tb  Tb6  1  0.150659  0.152429  0.150604  1
  Tb  Tb7  1  0.312146  0.309169  0.688058  1
  Tb  Tb8  1  0.941317  0.560303  0.560693  1
  Tb  Tb9  1  0.560613  0.560123  0.941446  1
  Tb  Tb10  1  0.562764  0.938035  0.937001  1
  Tb  Tb11  1  0.936743  0.563385  0.936753  1
  Tb  Tb12  1  0.151307  0.544971  0.151267  1
  Tb  Tb13  1  0.312062  0.689152  0.691062  1
  Dy  Dy14  1  0.690517  0.310116  0.690770  1
  Dy  Dy15  1  0.547121  0.151952  0.149572  1
  In  In16  1  0.918154  0.918359  0.246476  1
  In  In17  1  0.246426  0.918297  0.918366  1
  In  In18  1  0.917915  0.246859  0.918146  1
  In  In19  1  0.918089  0.918014  0.918453  1
  Ru  Ru20  1  0.357526  0.358185  0.356909  1
  Rh  Rh21  1  0.923540  0.358854  0.358566  1
  Rh  Rh22  1  0.358936  0.358444  0.923997  1
  Rh  Rh23  1  0.358318  0.925146  0.357460  1
