# generated using pymatgen
data_Er6Cd5HgC2
_symmetry_space_group_name_H-M   'P 1'
_cell_length_a   9.49042301
_cell_length_b   9.49237896
_cell_length_c   9.48575800
_cell_angle_alpha   119.97252029
_cell_angle_beta   90.00235444
_cell_angle_gamma   119.99108368
_symmetry_Int_Tables_number   1
_chemical_formula_structural   Er6Cd5HgC2
_chemical_formula_sum   'Er12 Cd10 Hg2 C4'
_cell_volume   604.57127295
_cell_formula_units_Z   2
loop_
 _symmetry_equiv_pos_site_id
 _symmetry_equiv_pos_as_xyz
  1  'x, y, z'
loop_
 _atom_site_type_symbol
 _atom_site_label
 _atom_site_symmetry_multiplicity
 _atom_site_fract_x
 _atom_site_fract_y
 _atom_site_fract_z
 _atom_site_occupancy
  Er  Er0  1  0.936028  0.372067  0.185864  1
  Er  Er1  1  0.937176  0.751180  0.185760  1
  Er  Er2  1  0.314023  0.751175  0.185743  1
  Er  Er3  1  0.685995  0.248834  0.434592  1
  Er  Er4  1  0.686371  0.872732  0.435021  1
  Er  Er5  1  0.062846  0.248831  0.434578  1
  Er  Er6  1  0.313660  0.127292  0.562301  1
  Er  Er7  1  0.313393  0.749796  0.563050  1
  Er  Er8  1  0.936393  0.749784  0.563056  1
  Er  Er9  1  0.686599  0.250202  0.813266  1
  Er  Er10  1  0.063982  0.627949  0.813828  1
  Er  Er11  1  0.063589  0.250204  0.813257  1
  Cd  Cd12  1  0.999995  0.999988  0.998776  1
  Cd  Cd13  1  0.500004  0.000009  0.998808  1
  Cd  Cd14  1  0.499611  0.499224  0.999250  1
  Cd  Cd15  1  0.291270  0.417926  0.208879  1
  Cd  Cd16  1  0.626658  0.417931  0.208913  1
  Cd  Cd17  1  0.500393  0.500798  0.500048  1
  Cd  Cd18  1  0.373319  0.582071  0.790958  1
  Cd  Cd19  1  0.708732  0.582059  0.790992  1
  Cd  Cd20  1  0.708799  0.917658  0.791006  1
  Cd  Cd21  1  0.291170  0.082368  0.873349  1
  Hg  Hg22  1  0.711691  0.923374  0.135235  1
  Hg  Hg23  1  0.288339  0.076603  0.211815  1
  C  C24  1  0.000040  0.500064  0.000395  1
  C  C25  1  0.999990  0.999991  0.500464  1
  C  C26  1  0.499998  0.999997  0.500484  1
  C  C27  1  0.999941  0.499904  0.500318  1
