# generated using pymatgen
data_Tb20Ir7Pd2Ru3
_symmetry_space_group_name_H-M   'P 1'
_cell_length_a   10.92401512
_cell_length_b   10.92323312
_cell_length_c   6.46096812
_cell_angle_alpha   90.01547814
_cell_angle_beta   90.01557276
_cell_angle_gamma   90.00656060
_symmetry_Int_Tables_number   1
_chemical_formula_structural   Tb20Ir7Pd2Ru3
_chemical_formula_sum   'Tb20 Ir7 Pd2 Ru3'
_cell_volume   770.95860128
_cell_formula_units_Z   1
loop_
 _symmetry_equiv_pos_site_id
 _symmetry_equiv_pos_as_xyz
  1  'x, y, z'
loop_
 _atom_site_type_symbol
 _atom_site_label
 _atom_site_symmetry_multiplicity
 _atom_site_fract_x
 _atom_site_fract_y
 _atom_site_fract_z
 _atom_site_occupancy
  Tb  Tb0  1  0.293509  0.086811  0.378280  1
  Tb  Tb1  1  0.293531  0.913427  0.878519  1
  Tb  Tb2  1  0.701537  0.088959  0.874678  1
  Tb  Tb3  1  0.701571  0.910683  0.374481  1
  Tb  Tb4  1  0.582162  0.792985  0.880326  1
  Tb  Tb5  1  0.582452  0.207124  0.379990  1
  Tb  Tb6  1  0.412396  0.793298  0.379192  1
  Tb  Tb7  1  0.412663  0.206633  0.879598  1
  Tb  Tb8  1  0.208506  0.411953  0.621779  1
  Tb  Tb9  1  0.208032  0.588121  0.119171  1
  Tb  Tb10  1  0.791489  0.416719  0.118389  1
  Tb  Tb11  1  0.791135  0.583174  0.621244  1
  Tb  Tb12  1  0.913967  0.705297  0.125846  1
  Tb  Tb13  1  0.914137  0.294385  0.628904  1
  Tb  Tb14  1  0.092035  0.706052  0.621770  1
  Tb  Tb15  1  0.092034  0.294302  0.119147  1
  Tb  Tb16  1  0.004381  0.999666  0.499127  1
  Tb  Tb17  1  0.004413  0.000329  0.999099  1
  Tb  Tb18  1  0.499735  0.499812  0.998835  1
  Tb  Tb19  1  0.499796  0.500209  0.498775  1
  Ir  Ir20  1  0.151177  0.152570  0.749958  1
  Ir  Ir21  1  0.150717  0.847535  0.250206  1
  Ir  Ir22  1  0.654579  0.346048  0.749815  1
  Ir  Ir23  1  0.654497  0.653558  0.250021  1
  Ir  Ir24  1  0.346880  0.347506  0.249923  1
  Ir  Ir25  1  0.346766  0.652941  0.749653  1
  Ir  Ir26  1  0.999174  0.499685  0.377989  1
  Pd  Pd27  1  0.846928  0.153143  0.249718  1
  Pd  Pd28  1  0.846535  0.846903  0.749528  1
  Ru  Ru29  1  0.502113  0.999994  0.124419  1
  Ru  Ru30  1  0.502127  0.000023  0.624192  1
  Ru  Ru31  1  0.999029  0.500154  0.877423  1
