# generated using pymatgen
data_Li6Al5SiPt12
_symmetry_space_group_name_H-M   'P 1'
_cell_length_a   4.10695100
_cell_length_b   6.50633700
_cell_length_c   12.31816600
_cell_angle_alpha   90.00000000
_cell_angle_beta   90.00100447
_cell_angle_gamma   90.00000000
_symmetry_Int_Tables_number   1
_chemical_formula_structural   Li6Al5SiPt12
_chemical_formula_sum   'Li6 Al5 Si1 Pt12'
_cell_volume   329.15626661
_cell_formula_units_Z   1
loop_
 _symmetry_equiv_pos_site_id
 _symmetry_equiv_pos_as_xyz
  1  'x, y, z'
loop_
 _atom_site_type_symbol
 _atom_site_label
 _atom_site_symmetry_multiplicity
 _atom_site_fract_x
 _atom_site_fract_y
 _atom_site_fract_z
 _atom_site_occupancy
  Li  Li0  1  0.000000  0.000000  0.000001  1
  Li  Li1  1  0.499917  0.500001  0.167284  1
  Li  Li2  1  0.999915  0.000000  0.332679  1
  Li  Li3  1  0.499999  0.500001  0.499998  1
  Li  Li4  1  0.000085  0.000000  0.667324  1
  Li  Li5  1  0.500084  0.500001  0.832719  1
  Al  Al6  1  0.499932  0.000000  0.166231  1
  Al  Al7  1  0.999948  0.500001  0.333693  1
  Al  Al8  1  0.499999  0.000000  0.499998  1
  Al  Al9  1  0.000052  0.500000  0.666307  1
  Al  Al10  1  0.500070  0.000000  0.833769  1
  Si  Si11  1  0.000000  0.500001  0.000000  1
  Pt  Pt12  1  0.500004  0.258259  0.000000  1
  Pt  Pt13  1  0.499995  0.741743  0.000000  1
  Pt  Pt14  1  0.999944  0.254870  0.163722  1
  Pt  Pt15  1  0.999940  0.745131  0.163722  1
  Pt  Pt16  1  0.499950  0.250381  0.332277  1
  Pt  Pt17  1  0.499955  0.749619  0.332277  1
  Pt  Pt18  1  0.999996  0.250133  0.499992  1
  Pt  Pt19  1  0.000003  0.749867  0.499992  1
  Pt  Pt20  1  0.500045  0.250376  0.667725  1
  Pt  Pt21  1  0.500050  0.749625  0.667725  1
  Pt  Pt22  1  0.000060  0.254864  0.836283  1
  Pt  Pt23  1  0.000056  0.745136  0.836283  1
