# generated using pymatgen
data_Tm4MgRu2Pb
_symmetry_space_group_name_H-M   'P 1'
_cell_length_a   9.07439415
_cell_length_b   9.07439324
_cell_length_c   9.07439300
_cell_angle_alpha   132.76250427
_cell_angle_beta   132.76249893
_cell_angle_gamma   69.02737068
_symmetry_Int_Tables_number   1
_chemical_formula_structural   Tm4MgRu2Pb
_chemical_formula_sum   'Tm8 Mg2 Ru4 Pb2'
_cell_volume   395.33300454
_cell_formula_units_Z   2
loop_
 _symmetry_equiv_pos_site_id
 _symmetry_equiv_pos_as_xyz
  1  'x, y, z'
loop_
 _atom_site_type_symbol
 _atom_site_label
 _atom_site_symmetry_multiplicity
 _atom_site_fract_x
 _atom_site_fract_y
 _atom_site_fract_z
 _atom_site_occupancy
  Tm  Tm0  1  0.796724  0.296724  0.843791  1
  Tm  Tm1  1  0.203276  0.703276  0.156209  1
  Tm  Tm2  1  0.452933  0.952933  0.156209  1
  Tm  Tm3  1  0.296724  0.452933  0.500000  1
  Tm  Tm4  1  0.047067  0.203276  0.500000  1
  Tm  Tm5  1  0.547067  0.047067  0.843791  1
  Tm  Tm6  1  0.703276  0.547067  0.500000  1
  Tm  Tm7  1  0.952933  0.796724  0.500000  1
  Mg  Mg8  1  0.000000  0.000000  0.000000  1
  Mg  Mg9  1  0.500000  0.500000  0.000000  1
  Ru  Ru10  1  0.132528  0.632528  0.765057  1
  Ru  Ru11  1  0.867472  0.367472  0.234943  1
  Ru  Ru12  1  0.632528  0.867472  0.500000  1
  Ru  Ru13  1  0.367472  0.132528  0.500000  1
  Pb  Pb14  1  0.250000  0.250000  0.000000  1
  Pb  Pb15  1  0.750000  0.750000  0.000000  1
