# generated using pymatgen
data_SrYb2(TeO3)3
_symmetry_space_group_name_H-M   'P 1'
_cell_length_a   5.72211400
_cell_length_b   8.88357376
_cell_length_c   11.35328414
_cell_angle_alpha   69.60963747
_cell_angle_beta   90.00000000
_cell_angle_gamma   90.00000000
_symmetry_Int_Tables_number   1
_chemical_formula_structural   SrYb2(TeO3)3
_chemical_formula_sum   'Sr2 Yb4 Te6 O18'
_cell_volume   540.95751427
_cell_formula_units_Z   2
loop_
 _symmetry_equiv_pos_site_id
 _symmetry_equiv_pos_as_xyz
  1  'x, y, z'
loop_
 _atom_site_type_symbol
 _atom_site_label
 _atom_site_symmetry_multiplicity
 _atom_site_fract_x
 _atom_site_fract_y
 _atom_site_fract_z
 _atom_site_occupancy
  Sr  Sr0  1  0.501629  0.993165  0.139345  1
  Sr  Sr1  1  0.001629  0.006835  0.860655  1
  Yb  Yb2  1  0.440797  0.977585  0.616595  1
  Yb  Yb3  1  0.940797  0.022415  0.383405  1
  Yb  Yb4  1  0.995176  0.303261  0.049879  1
  Yb  Yb5  1  0.495176  0.696739  0.950121  1
  Te  Te6  1  0.000787  0.740803  0.173332  1
  Te  Te7  1  0.500787  0.259197  0.826668  1
  Te  Te8  1  0.415278  0.696489  0.483875  1
  Te  Te9  1  0.915278  0.303511  0.516125  1
  Te  Te10  1  0.436900  0.328714  0.246250  1
  Te  Te11  1  0.936900  0.671286  0.753750  1
  O  O12  1  0.755847  0.794050  0.052221  1
  O  O13  1  0.255847  0.205950  0.947779  1
  O  O14  1  0.180514  0.826876  0.515676  1
  O  O15  1  0.680514  0.173124  0.484324  1
  O  O16  1  0.212229  0.765861  0.792206  1
  O  O17  1  0.712229  0.234139  0.207794  1
  O  O18  1  0.384689  0.729795  0.312137  1
  O  O19  1  0.884689  0.270205  0.687863  1
  O  O20  1  0.933171  0.919531  0.221306  1
  O  O21  1  0.433171  0.080469  0.778694  1
  O  O22  1  0.333785  0.465717  0.085054  1
  O  O23  1  0.833785  0.534283  0.914946  1
  O  O24  1  0.232907  0.162650  0.242620  1
  O  O25  1  0.732907  0.837350  0.757380  1
  O  O26  1  0.237020  0.828128  0.051191  1
  O  O27  1  0.737020  0.171872  0.948809  1
  O  O28  1  0.651323  0.842063  0.487223  1
  O  O29  1  0.151323  0.157937  0.512777  1
