# generated using pymatgen
data_Ce4SiPt5Rh6Au
_symmetry_space_group_name_H-M   'P 1'
_cell_length_a   7.31996611
_cell_length_b   7.31996668
_cell_length_c   7.31996654
_cell_angle_alpha   109.16153088
_cell_angle_beta   109.16153822
_cell_angle_gamma   110.09238103
_symmetry_Int_Tables_number   1
_chemical_formula_structural   Ce4SiPt5Rh6Au
_chemical_formula_sum   'Ce4 Si1 Pt5 Rh6 Au1'
_cell_volume   301.90274624
_cell_formula_units_Z   1
loop_
 _symmetry_equiv_pos_site_id
 _symmetry_equiv_pos_as_xyz
  1  'x, y, z'
loop_
 _atom_site_type_symbol
 _atom_site_label
 _atom_site_symmetry_multiplicity
 _atom_site_fract_x
 _atom_site_fract_y
 _atom_site_fract_z
 _atom_site_occupancy
  Ce  Ce0  1  0.003835  0.996165  0.500000  1
  Ce  Ce1  1  0.003835  0.503835  0.007670  1
  Ce  Ce2  1  0.496165  0.996165  0.992330  1
  Ce  Ce3  1  0.496165  0.503835  0.500000  1
  Si  Si4  1  0.000000  0.000000  0.000000  1
  Pt  Pt5  1  0.749054  0.499613  0.249441  1
  Pt  Pt6  1  0.500387  0.250946  0.750559  1
  Pt  Pt7  1  0.250172  0.499613  0.750559  1
  Pt  Pt8  1  0.250000  0.750000  0.500000  1
  Pt  Pt9  1  0.500387  0.749828  0.249441  1
  Rh  Rh10  1  0.724514  0.724514  0.000000  1
  Rh  Rh11  1  0.274286  0.000708  0.273578  1
  Rh  Rh12  1  0.999292  0.272869  0.273578  1
  Rh  Rh13  1  0.275486  0.275486  0.000000  1
  Rh  Rh14  1  0.727131  0.000708  0.726422  1
  Rh  Rh15  1  0.999292  0.725714  0.726422  1
  Au  Au16  1  0.750000  0.250000  0.500000  1
