# generated using pymatgen
data_Ho3GaSn3Ru2
_symmetry_space_group_name_H-M   'P 1'
_cell_length_a   7.59183200
_cell_length_b   7.59183154
_cell_length_c   3.90585400
_cell_angle_alpha   90.00000000
_cell_angle_beta   90.00000000
_cell_angle_gamma   119.99999966
_symmetry_Int_Tables_number   1
_chemical_formula_structural   Ho3GaSn3Ru2
_chemical_formula_sum   'Ho3 Ga1 Sn3 Ru2'
_cell_volume   194.95742968
_cell_formula_units_Z   1
loop_
 _symmetry_equiv_pos_site_id
 _symmetry_equiv_pos_as_xyz
  1  'x, y, z'
loop_
 _atom_site_type_symbol
 _atom_site_label
 _atom_site_symmetry_multiplicity
 _atom_site_fract_x
 _atom_site_fract_y
 _atom_site_fract_z
 _atom_site_occupancy
  Ho  Ho0  1  0.981373  0.394434  0.500000  1
  Ho  Ho1  1  0.605566  0.586939  0.500000  1
  Ho  Ho2  1  0.413061  0.018627  0.500000  1
  Ga  Ga3  1  0.333333  0.666667  0.000000  1
  Sn  Sn4  1  0.992925  0.738803  0.000000  1
  Sn  Sn5  1  0.261197  0.254122  0.000000  1
  Sn  Sn6  1  0.745878  0.007075  0.000000  1
  Ru  Ru7  1  0.666667  0.333333  0.000000  1
  Ru  Ru8  1  0.000000  0.000000  0.500000  1
