# generated using pymatgen
data_YbTh2Cu3(Ni5B)2
_symmetry_space_group_name_H-M   'P 1'
_cell_length_a   4.97709500
_cell_length_b   4.97709414
_cell_length_c   11.07915400
_cell_angle_alpha   90.00000000
_cell_angle_beta   90.00000000
_cell_angle_gamma   119.99999908
_symmetry_Int_Tables_number   1
_chemical_formula_structural   YbTh2Cu3(Ni5B)2
_chemical_formula_sum   'Yb1 Th2 Cu3 Ni10 B2'
_cell_volume   237.67801970
_cell_formula_units_Z   1
loop_
 _symmetry_equiv_pos_site_id
 _symmetry_equiv_pos_as_xyz
  1  'x, y, z'
loop_
 _atom_site_type_symbol
 _atom_site_label
 _atom_site_symmetry_multiplicity
 _atom_site_fract_x
 _atom_site_fract_y
 _atom_site_fract_z
 _atom_site_occupancy
  Yb  Yb0  1  0.000000  0.000000  0.000000  1
  Th  Th1  1  0.000000  0.000000  0.310607  1
  Th  Th2  1  0.000000  0.000000  0.689393  1
  Cu  Cu3  1  0.000000  0.500000  0.500000  1
  Cu  Cu4  1  0.500000  0.000000  0.500000  1
  Cu  Cu5  1  0.500000  0.500000  0.500000  1
  Ni  Ni6  1  0.500000  0.500000  0.127882  1
  Ni  Ni7  1  0.000000  0.500000  0.127882  1
  Ni  Ni8  1  0.500000  0.000000  0.127882  1
  Ni  Ni9  1  0.666667  0.333333  0.313583  1
  Ni  Ni10  1  0.333333  0.666667  0.313583  1
  Ni  Ni11  1  0.333333  0.666667  0.686417  1
  Ni  Ni12  1  0.666667  0.333333  0.686417  1
  Ni  Ni13  1  0.500000  0.000000  0.872118  1
  Ni  Ni14  1  0.000000  0.500000  0.872118  1
  Ni  Ni15  1  0.500000  0.500000  0.872118  1
  B  B16  1  0.333333  0.666667  0.000000  1
  B  B17  1  0.666667  0.333333  0.000000  1
