# generated using pymatgen
data_Dy8YEr(SiB4)4
_symmetry_space_group_name_H-M   'P 1'
_cell_length_a   7.22425200
_cell_length_b   7.22425200
_cell_length_c   8.08357200
_cell_angle_alpha   90.00000000
_cell_angle_beta   90.00000000
_cell_angle_gamma   90.00000000
_symmetry_Int_Tables_number   1
_chemical_formula_structural   Dy8YEr(SiB4)4
_chemical_formula_sum   'Dy8 Y1 Er1 Si4 B16'
_cell_volume   421.88014306
_cell_formula_units_Z   1
loop_
 _symmetry_equiv_pos_site_id
 _symmetry_equiv_pos_as_xyz
  1  'x, y, z'
loop_
 _atom_site_type_symbol
 _atom_site_label
 _atom_site_symmetry_multiplicity
 _atom_site_fract_x
 _atom_site_fract_y
 _atom_site_fract_z
 _atom_site_occupancy
  Dy  Dy0  1  0.680040  0.180386  0.224163  1
  Dy  Dy1  1  0.319960  0.819614  0.775837  1
  Dy  Dy2  1  0.319960  0.819614  0.224163  1
  Dy  Dy3  1  0.819614  0.680040  0.224163  1
  Dy  Dy4  1  0.819614  0.680040  0.775837  1
  Dy  Dy5  1  0.680040  0.180386  0.775837  1
  Dy  Dy6  1  0.180386  0.319960  0.775837  1
  Dy  Dy7  1  0.180386  0.319960  0.224163  1
  Y  Y8  1  0.000000  0.000000  0.500000  1
  Er  Er9  1  0.500000  0.500000  0.500000  1
  Si  Si10  1  0.115761  0.614511  0.500000  1
  Si  Si11  1  0.884239  0.385489  0.500000  1
  Si  Si12  1  0.385489  0.115761  0.500000  1
  Si  Si13  1  0.614511  0.884239  0.500000  1
  B  B14  1  0.172710  0.039140  0.000000  1
  B  B15  1  0.827290  0.960860  0.000000  1
  B  B16  1  0.960860  0.172710  0.000000  1
  B  B17  1  0.327359  0.539140  0.000000  1
  B  B18  1  0.039140  0.827290  0.000000  1
  B  B19  1  0.672641  0.460860  0.000000  1
  B  B20  1  0.539140  0.672641  0.000000  1
  B  B21  1  0.460860  0.327359  0.000000  1
  B  B22  1  0.089824  0.589874  0.000000  1
  B  B23  1  0.910176  0.410126  0.000000  1
  B  B24  1  0.410126  0.089824  0.000000  1
  B  B25  1  0.589874  0.910176  0.000000  1
  B  B26  1  0.000000  0.000000  0.162161  1
  B  B27  1  0.000000  0.000000  0.837839  1
  B  B28  1  0.500000  0.500000  0.837315  1
  B  B29  1  0.500000  0.500000  0.162685  1
