# generated using pymatgen
data_Sr(AcSe2)2
_symmetry_space_group_name_H-M   'P 1'
_cell_length_a   8.12738897
_cell_length_b   8.12738901
_cell_length_c   8.12738913
_cell_angle_alpha   109.50955776
_cell_angle_beta   109.50955598
_cell_angle_gamma   109.39457007
_symmetry_Int_Tables_number   1
_chemical_formula_structural   Sr(AcSe2)2
_chemical_formula_sum   'Sr2 Ac4 Se8'
_cell_volume   413.26697470
_cell_formula_units_Z   2
loop_
 _symmetry_equiv_pos_site_id
 _symmetry_equiv_pos_as_xyz
  1  'x, y, z'
loop_
 _atom_site_type_symbol
 _atom_site_label
 _atom_site_symmetry_multiplicity
 _atom_site_fract_x
 _atom_site_fract_y
 _atom_site_fract_z
 _atom_site_occupancy
  Sr  Sr0  1  0.750000  0.250000  0.500000  1
  Sr  Sr1  1  0.500000  0.500000  0.000000  1
  Ac  Ac2  1  0.995939  0.375000  0.120939  1
  Ac  Ac3  1  0.625000  0.745939  0.620939  1
  Ac  Ac4  1  0.254061  0.875000  0.879061  1
  Ac  Ac5  1  0.125000  0.004061  0.379061  1
  Se  Se6  1  0.373411  0.272847  0.250702  1
  Se  Se7  1  0.876589  0.627290  0.399436  1
  Se  Se8  1  0.227854  0.477153  0.600564  1
  Se  Se9  1  0.877290  0.626589  0.899436  1
  Se  Se10  1  0.372710  0.772146  0.249298  1
  Se  Se11  1  0.522847  0.123411  0.750702  1
  Se  Se12  1  0.727153  0.977854  0.100564  1
  Se  Se13  1  0.022146  0.122710  0.749298  1
