# generated using pymatgen
data_K2Ag(NO3)4
_symmetry_space_group_name_H-M   'P 1'
_cell_length_a   7.99446500
_cell_length_b   7.38363647
_cell_length_c   9.40282700
_cell_angle_alpha   88.47580472
_cell_angle_beta   90.00000000
_cell_angle_gamma   90.00000000
_symmetry_Int_Tables_number   1
_chemical_formula_structural   K2Ag(NO3)4
_chemical_formula_sum   'K4 Ag2 N8 O24'
_cell_volume   554.83579125
_cell_formula_units_Z   2
loop_
 _symmetry_equiv_pos_site_id
 _symmetry_equiv_pos_as_xyz
  1  'x, y, z'
loop_
 _atom_site_type_symbol
 _atom_site_label
 _atom_site_symmetry_multiplicity
 _atom_site_fract_x
 _atom_site_fract_y
 _atom_site_fract_z
 _atom_site_occupancy
  K  K0  1  0.962033  0.737587  0.382582  1
  K  K1  1  0.462033  0.262413  0.117418  1
  K  K2  1  0.037967  0.262413  0.617418  1
  K  K3  1  0.537967  0.737587  0.882582  1
  Ag  Ag4  1  0.500000  0.000000  0.500000  1
  Ag  Ag5  1  0.000000  0.000000  0.000000  1
  N  N6  1  0.605187  0.830941  0.226185  1
  N  N7  1  0.105187  0.169059  0.273815  1
  N  N8  1  0.394813  0.169059  0.773815  1
  N  N9  1  0.894813  0.830941  0.726185  1
  N  N10  1  0.699756  0.320975  0.443789  1
  N  N11  1  0.199756  0.679025  0.056211  1
  N  N12  1  0.300244  0.679025  0.556211  1
  N  N13  1  0.800244  0.320975  0.943789  1
  O  O14  1  0.646878  0.834852  0.359822  1
  O  O15  1  0.146878  0.165148  0.140178  1
  O  O16  1  0.353122  0.165148  0.640178  1
  O  O17  1  0.853122  0.834852  0.859822  1
  O  O18  1  0.701432  0.747914  0.146209  1
  O  O19  1  0.201432  0.252086  0.353791  1
  O  O20  1  0.298568  0.252086  0.853791  1
  O  O21  1  0.798568  0.747914  0.646209  1
  O  O22  1  0.974858  0.090818  0.315896  1
  O  O23  1  0.474858  0.909182  0.184104  1
  O  O24  1  0.025142  0.909182  0.684104  1
  O  O25  1  0.525142  0.090818  0.815896  1
  O  O26  1  0.713474  0.181840  0.531914  1
  O  O27  1  0.213474  0.818160  0.968086  1
  O  O28  1  0.286526  0.818160  0.468086  1
  O  O29  1  0.786526  0.181840  0.031914  1
  O  O30  1  0.180658  0.571346  0.562242  1
  O  O31  1  0.680658  0.428654  0.937758  1
  O  O32  1  0.819342  0.428654  0.437758  1
  O  O33  1  0.319342  0.571346  0.062242  1
  O  O34  1  0.070360  0.660854  0.128906  1
  O  O35  1  0.570360  0.339146  0.371094  1
  O  O36  1  0.929640  0.339146  0.871094  1
  O  O37  1  0.429640  0.660854  0.628906  1
