# generated using pymatgen
data_Dy3Ho3LuRh3
_symmetry_space_group_name_H-M   'P 1'
_cell_length_a   9.75436400
_cell_length_b   9.75436398
_cell_length_c   6.16370600
_cell_angle_alpha   90.00000000
_cell_angle_beta   90.00000000
_cell_angle_gamma   120.00000006
_symmetry_Int_Tables_number   1
_chemical_formula_structural   Dy3Ho3LuRh3
_chemical_formula_sum   'Dy6 Ho6 Lu2 Rh6'
_cell_volume   507.89093541
_cell_formula_units_Z   2
loop_
 _symmetry_equiv_pos_site_id
 _symmetry_equiv_pos_as_xyz
  1  'x, y, z'
loop_
 _atom_site_type_symbol
 _atom_site_label
 _atom_site_symmetry_multiplicity
 _atom_site_fract_x
 _atom_site_fract_y
 _atom_site_fract_z
 _atom_site_occupancy
  Dy  Dy0  1  0.123768  0.876232  0.253733  1
  Dy  Dy1  1  0.752463  0.876232  0.253733  1
  Dy  Dy2  1  0.123768  0.247537  0.253733  1
  Dy  Dy3  1  0.876232  0.123768  0.753733  1
  Dy  Dy4  1  0.247537  0.123768  0.753733  1
  Dy  Dy5  1  0.876232  0.752463  0.753733  1
  Ho  Ho6  1  0.540983  0.459017  0.446847  1
  Ho  Ho7  1  0.918035  0.459017  0.446847  1
  Ho  Ho8  1  0.540983  0.081965  0.446847  1
  Ho  Ho9  1  0.459017  0.540983  0.946847  1
  Ho  Ho10  1  0.081965  0.540983  0.946847  1
  Ho  Ho11  1  0.459017  0.918035  0.946847  1
  Lu  Lu12  1  0.333333  0.666667  0.459872  1
  Lu  Lu13  1  0.666667  0.333333  0.959872  1
  Rh  Rh14  1  0.809229  0.190771  0.180054  1
  Rh  Rh15  1  0.381541  0.190771  0.180054  1
  Rh  Rh16  1  0.809229  0.618459  0.180054  1
  Rh  Rh17  1  0.190771  0.809229  0.680054  1
  Rh  Rh18  1  0.618459  0.809229  0.680054  1
  Rh  Rh19  1  0.190771  0.381541  0.680054  1
