# generated using pymatgen
data_TiMnCoMoP2
_symmetry_space_group_name_H-M   'P 1'
_cell_length_a   3.57799700
_cell_length_b   6.02043537
_cell_length_c   6.86437590
_cell_angle_alpha   89.40585462
_cell_angle_beta   90.00000000
_cell_angle_gamma   90.00000000
_symmetry_Int_Tables_number   1
_chemical_formula_structural   TiMnCoMoP2
_chemical_formula_sum   'Ti2 Mn2 Co2 Mo2 P4'
_cell_volume   147.85825547
_cell_formula_units_Z   2
loop_
 _symmetry_equiv_pos_site_id
 _symmetry_equiv_pos_as_xyz
  1  'x, y, z'
loop_
 _atom_site_type_symbol
 _atom_site_label
 _atom_site_symmetry_multiplicity
 _atom_site_fract_x
 _atom_site_fract_y
 _atom_site_fract_z
 _atom_site_occupancy
  Ti  Ti0  1  0.750000  0.020426  0.680720  1
  Ti  Ti1  1  0.750000  0.527139  0.826832  1
  Mn  Mn2  1  0.250000  0.854614  0.939223  1
  Mn  Mn3  1  0.750000  0.142753  0.061058  1
  Co  Co4  1  0.250000  0.359768  0.562265  1
  Co  Co5  1  0.750000  0.640092  0.437851  1
  Mo  Mo6  1  0.250000  0.979737  0.325018  1
  Mo  Mo7  1  0.250000  0.471174  0.169721  1
  P  P8  1  0.250000  0.228279  0.876029  1
  P  P9  1  0.250000  0.729825  0.621150  1
  P  P10  1  0.750000  0.774411  0.123455  1
  P  P11  1  0.750000  0.271782  0.376678  1
