# generated using pymatgen
data_Tb5YTm14(Cd3Ru)2
_symmetry_space_group_name_H-M   'P 1'
_cell_length_a   9.52330600
_cell_length_b   9.52332169
_cell_length_c   9.74532500
_cell_angle_alpha   90.00000000
_cell_angle_beta   90.00000000
_cell_angle_gamma   120.00004828
_symmetry_Int_Tables_number   1
_chemical_formula_structural   Tb5YTm14(Cd3Ru)2
_chemical_formula_sum   'Tb5 Y1 Tm14 Cd6 Ru2'
_cell_volume   765.42552618
_cell_formula_units_Z   1
loop_
 _symmetry_equiv_pos_site_id
 _symmetry_equiv_pos_as_xyz
  1  'x, y, z'
loop_
 _atom_site_type_symbol
 _atom_site_label
 _atom_site_symmetry_multiplicity
 _atom_site_fract_x
 _atom_site_fract_y
 _atom_site_fract_z
 _atom_site_occupancy
  Tb  Tb0  1  0.540377  0.459613  0.250000  1
  Tb  Tb1  1  0.540377  0.080765  0.250000  1
  Tb  Tb2  1  0.919198  0.459600  0.250000  1
  Tb  Tb3  1  0.459629  0.540316  0.750000  1
  Tb  Tb4  1  0.459629  0.919312  0.750000  1
  Y  Y5  1  0.080829  0.540414  0.750000  1
  Tm  Tm6  1  0.999995  0.999997  0.500043  1
  Tm  Tm7  1  0.999995  0.999997  0.999957  1
  Tm  Tm8  1  0.210075  0.789976  0.439938  1
  Tm  Tm9  1  0.210075  0.420100  0.439938  1
  Tm  Tm10  1  0.579832  0.789916  0.440030  1
  Tm  Tm11  1  0.789878  0.210012  0.560035  1
  Tm  Tm12  1  0.789878  0.579865  0.560035  1
  Tm  Tm13  1  0.420101  0.210050  0.560077  1
  Tm  Tm14  1  0.789878  0.210012  0.939965  1
  Tm  Tm15  1  0.789878  0.579865  0.939965  1
  Tm  Tm16  1  0.420101  0.210050  0.939923  1
  Tm  Tm17  1  0.210075  0.789976  0.060062  1
  Tm  Tm18  1  0.210075  0.420100  0.060062  1
  Tm  Tm19  1  0.579832  0.789916  0.059970  1
  Cd  Cd20  1  0.886186  0.113924  0.250000  1
  Cd  Cd21  1  0.886186  0.772263  0.250000  1
  Cd  Cd22  1  0.227791  0.113896  0.250000  1
  Cd  Cd23  1  0.113918  0.886112  0.750000  1
  Cd  Cd24  1  0.113918  0.227805  0.750000  1
  Cd  Cd25  1  0.772236  0.886117  0.750000  1
  Ru  Ru26  1  0.333420  0.666711  0.250000  1
  Ru  Ru27  1  0.666635  0.333317  0.750000  1
