# generated using pymatgen
data_Na7Au5Se6
_symmetry_space_group_name_H-M   'P 1'
_cell_length_a   7.50273200
_cell_length_b   11.15813100
_cell_length_c   23.80385300
_cell_angle_alpha   90.00000000
_cell_angle_beta   90.00000000
_cell_angle_gamma   90.00000000
_symmetry_Int_Tables_number   1
_chemical_formula_structural   Na7Au5Se6
_chemical_formula_sum   'Na28 Au20 Se24'
_cell_volume   1992.77446258
_cell_formula_units_Z   4
loop_
 _symmetry_equiv_pos_site_id
 _symmetry_equiv_pos_as_xyz
  1  'x, y, z'
loop_
 _atom_site_type_symbol
 _atom_site_label
 _atom_site_symmetry_multiplicity
 _atom_site_fract_x
 _atom_site_fract_y
 _atom_site_fract_z
 _atom_site_occupancy
  Na  Na0  1  0.499699  0.500000  0.750000  1
  Na  Na1  1  0.000301  0.000000  0.250000  1
  Na  Na2  1  0.500301  0.500000  0.250000  1
  Na  Na3  1  0.999699  0.000000  0.750000  1
  Na  Na4  1  0.002467  0.240671  0.409602  1
  Na  Na5  1  0.002467  0.759329  0.090398  1
  Na  Na6  1  0.497533  0.740671  0.590398  1
  Na  Na7  1  0.497533  0.259329  0.909602  1
  Na  Na8  1  0.997533  0.759329  0.590398  1
  Na  Na9  1  0.997533  0.240671  0.909602  1
  Na  Na10  1  0.502467  0.259329  0.409602  1
  Na  Na11  1  0.502467  0.740671  0.090398  1
  Na  Na12  1  0.833408  0.122472  0.621359  1
  Na  Na13  1  0.833408  0.877528  0.878641  1
  Na  Na14  1  0.666592  0.622472  0.378641  1
  Na  Na15  1  0.666592  0.377528  0.121359  1
  Na  Na16  1  0.166592  0.877528  0.378641  1
  Na  Na17  1  0.166592  0.122472  0.121359  1
  Na  Na18  1  0.333408  0.377528  0.621359  1
  Na  Na19  1  0.333408  0.622472  0.878641  1
  Na  Na20  1  0.627406  0.894968  0.456054  1
  Na  Na21  1  0.627406  0.105032  0.043946  1
  Na  Na22  1  0.872594  0.394968  0.543946  1
  Na  Na23  1  0.872594  0.605032  0.956054  1
  Na  Na24  1  0.372594  0.105032  0.543946  1
  Na  Na25  1  0.372594  0.894968  0.956054  1
  Na  Na26  1  0.127406  0.605032  0.456054  1
  Na  Na27  1  0.127406  0.394968  0.043946  1
  Au  Au28  1  0.729003  0.758551  0.752840  1
  Au  Au29  1  0.729003  0.241449  0.747160  1
  Au  Au30  1  0.000000  0.000000  0.500000  1
  Au  Au31  1  0.770997  0.258551  0.247160  1
  Au  Au32  1  0.770997  0.741449  0.252840  1
  Au  Au33  1  0.270997  0.241449  0.247160  1
  Au  Au34  1  0.270997  0.758551  0.252840  1
  Au  Au35  1  0.229003  0.741449  0.752840  1
  Au  Au36  1  0.229003  0.258551  0.747160  1
  Au  Au37  1  0.472480  0.996888  0.831513  1
  Au  Au38  1  0.472480  0.003112  0.668487  1
  Au  Au39  1  0.027520  0.496888  0.168487  1
  Au  Au40  1  0.027520  0.503112  0.331513  1
  Au  Au41  1  0.527520  0.003112  0.168487  1
  Au  Au42  1  0.527520  0.996888  0.331513  1
  Au  Au43  1  0.972480  0.503112  0.831513  1
  Au  Au44  1  0.972480  0.496888  0.668487  1
  Au  Au45  1  0.500000  0.500000  0.000000  1
  Au  Au46  1  0.500000  0.500000  0.500000  1
  Au  Au47  1  0.000000  0.000000  0.000000  1
  Se  Se48  1  0.251113  0.355497  0.498929  1
  Se  Se49  1  0.758867  0.622659  0.166015  1
  Se  Se50  1  0.758867  0.377341  0.333985  1
  Se  Se51  1  0.741133  0.122659  0.833985  1
  Se  Se52  1  0.741133  0.877341  0.666015  1
  Se  Se53  1  0.241133  0.377341  0.833985  1
  Se  Se54  1  0.241133  0.622659  0.666015  1
  Se  Se55  1  0.258867  0.877341  0.166015  1
  Se  Se56  1  0.258867  0.122659  0.333985  1
  Se  Se57  1  0.210772  0.865738  0.838151  1
  Se  Se58  1  0.210772  0.134262  0.661849  1
  Se  Se59  1  0.289228  0.365738  0.161849  1
  Se  Se60  1  0.289228  0.634262  0.338151  1
  Se  Se61  1  0.789228  0.134262  0.161849  1
  Se  Se62  1  0.789228  0.865738  0.338151  1
  Se  Se63  1  0.710772  0.634262  0.838151  1
  Se  Se64  1  0.710772  0.365738  0.661849  1
  Se  Se65  1  0.251113  0.644503  0.001071  1
  Se  Se66  1  0.248887  0.144503  0.998929  1
  Se  Se67  1  0.248887  0.855497  0.501071  1
  Se  Se68  1  0.751113  0.144503  0.498929  1
  Se  Se69  1  0.751113  0.855497  0.001071  1
  Se  Se70  1  0.748887  0.355497  0.998929  1
  Se  Se71  1  0.748887  0.644503  0.501071  1
