# generated using pymatgen
data_NdHo3(WO6)2
_symmetry_space_group_name_H-M   'P 1'
_cell_length_a   5.43434600
_cell_length_b   7.74884982
_cell_length_c   11.53250724
_cell_angle_alpha   75.48283695
_cell_angle_beta   90.00000000
_cell_angle_gamma   90.00000000
_symmetry_Int_Tables_number   1
_chemical_formula_structural   NdHo3(WO6)2
_chemical_formula_sum   'Nd2 Ho6 W4 O24'
_cell_volume   470.12808044
_cell_formula_units_Z   2
loop_
 _symmetry_equiv_pos_site_id
 _symmetry_equiv_pos_as_xyz
  1  'x, y, z'
loop_
 _atom_site_type_symbol
 _atom_site_label
 _atom_site_symmetry_multiplicity
 _atom_site_fract_x
 _atom_site_fract_y
 _atom_site_fract_z
 _atom_site_occupancy
  Nd  Nd0  1  0.685507  0.500000  0.750000  1
  Nd  Nd1  1  0.314493  0.500000  0.250000  1
  Ho  Ho2  1  0.740276  0.000000  0.750000  1
  Ho  Ho3  1  0.259724  0.000000  0.250000  1
  Ho  Ho4  1  0.188207  0.798774  0.577098  1
  Ho  Ho5  1  0.811793  0.798774  0.077098  1
  Ho  Ho6  1  0.188207  0.201226  0.922902  1
  Ho  Ho7  1  0.811793  0.201226  0.422902  1
  W  W8  1  0.252690  0.726668  0.885134  1
  W  W9  1  0.747310  0.726668  0.385134  1
  W  W10  1  0.252690  0.273332  0.614866  1
  W  W11  1  0.747310  0.273332  0.114866  1
  O  O12  1  0.038883  0.941122  0.895774  1
  O  O13  1  0.529759  0.848492  0.931053  1
  O  O14  1  0.961117  0.941122  0.395774  1
  O  O15  1  0.457386  0.793824  0.727714  1
  O  O16  1  0.470241  0.848492  0.431053  1
  O  O17  1  0.987185  0.718271  0.769432  1
  O  O18  1  0.542614  0.793824  0.227714  1
  O  O19  1  0.857347  0.640841  0.546242  1
  O  O20  1  0.351476  0.492182  0.888821  1
  O  O21  1  0.012815  0.718271  0.269432  1
  O  O22  1  0.351476  0.507818  0.611179  1
  O  O23  1  0.857347  0.359159  0.953758  1
  O  O24  1  0.142653  0.640841  0.046242  1
  O  O25  1  0.648524  0.492182  0.388821  1
  O  O26  1  0.987185  0.281729  0.730568  1
  O  O27  1  0.648524  0.507818  0.111179  1
  O  O28  1  0.142653  0.359159  0.453758  1
  O  O29  1  0.457386  0.206176  0.772286  1
  O  O30  1  0.012815  0.281729  0.230568  1
  O  O31  1  0.529759  0.151508  0.568947  1
  O  O32  1  0.542614  0.206176  0.272286  1
  O  O33  1  0.038883  0.058878  0.604226  1
  O  O34  1  0.470241  0.151508  0.068947  1
  O  O35  1  0.961117  0.058878  0.104226  1
