# generated using pymatgen
data_Gd8LuThIr4
_symmetry_space_group_name_H-M   'P 1'
_cell_length_a   8.63977095
_cell_length_b   8.63977073
_cell_length_c   7.22465000
_cell_angle_alpha   83.16466309
_cell_angle_beta   83.16466326
_cell_angle_gamma   44.34185485
_symmetry_Int_Tables_number   1
_chemical_formula_structural   Gd8LuThIr4
_chemical_formula_sum   'Gd8 Lu1 Th1 Ir4'
_cell_volume   373.80342262
_cell_formula_units_Z   1
loop_
 _symmetry_equiv_pos_site_id
 _symmetry_equiv_pos_as_xyz
  1  'x, y, z'
loop_
 _atom_site_type_symbol
 _atom_site_label
 _atom_site_symmetry_multiplicity
 _atom_site_fract_x
 _atom_site_fract_y
 _atom_site_fract_z
 _atom_site_occupancy
  Gd  Gd0  1  0.355118  0.207807  0.314814  1
  Gd  Gd1  1  0.203537  0.980169  0.085717  1
  Gd  Gd2  1  0.790776  0.025758  0.923400  1
  Gd  Gd3  1  0.974242  0.209224  0.576600  1
  Gd  Gd4  1  0.658735  0.786615  0.686016  1
  Gd  Gd5  1  0.213385  0.341265  0.813984  1
  Gd  Gd6  1  0.792193  0.644882  0.185186  1
  Gd  Gd7  1  0.019831  0.796463  0.414283  1
  Lu  Lu8  1  0.567286  0.432714  0.250000  1
  Th  Th9  1  0.422493  0.577507  0.750000  1
  Ir  Ir10  1  0.403822  0.813994  0.429731  1
  Ir  Ir11  1  0.186006  0.596178  0.070269  1
  Ir  Ir12  1  0.812599  0.400024  0.926577  1
  Ir  Ir13  1  0.599976  0.187401  0.573423  1
