# generated using pymatgen
data_Lu10Zn3Bi2Rh
_symmetry_space_group_name_H-M   'P 1'
_cell_length_a   8.47287242
_cell_length_b   8.47287200
_cell_length_c   8.55815800
_cell_angle_alpha   124.60782458
_cell_angle_beta   124.60782045
_cell_angle_gamma   81.52685018
_symmetry_Int_Tables_number   1
_chemical_formula_structural   Lu10Zn3Bi2Rh
_chemical_formula_sum   'Lu10 Zn3 Bi2 Rh1'
_cell_volume   402.03639483
_cell_formula_units_Z   1
loop_
 _symmetry_equiv_pos_site_id
 _symmetry_equiv_pos_as_xyz
  1  'x, y, z'
loop_
 _atom_site_type_symbol
 _atom_site_label
 _atom_site_symmetry_multiplicity
 _atom_site_fract_x
 _atom_site_fract_y
 _atom_site_fract_z
 _atom_site_occupancy
  Lu  Lu0  1  0.004044  0.000052  0.004097  1
  Lu  Lu1  1  0.499948  0.495956  0.995903  1
  Lu  Lu2  1  0.783722  0.295125  0.797608  1
  Lu  Lu3  1  0.204875  0.716278  0.202392  1
  Lu  Lu4  1  0.486114  0.997518  0.202392  1
  Lu  Lu5  1  0.303577  0.470628  0.500000  1
  Lu  Lu6  1  0.029372  0.196423  0.500000  1
  Lu  Lu7  1  0.502482  0.013886  0.797608  1
  Lu  Lu8  1  0.706913  0.514411  0.500000  1
  Lu  Lu9  1  0.985589  0.793087  0.500000  1
  Zn  Zn10  1  0.138508  0.639566  0.778076  1
  Zn  Zn11  1  0.860434  0.361492  0.221924  1
  Zn  Zn12  1  0.636667  0.863333  0.500000  1
  Bi  Bi13  1  0.244407  0.255593  0.000000  1
  Bi  Bi14  1  0.744407  0.755593  0.000000  1
  Rh  Rh15  1  0.368943  0.131057  0.500000  1
