# generated using pymatgen
data_Rb2Nb6SnCl18
_symmetry_space_group_name_H-M   'P 1'
_cell_length_a   10.42412124
_cell_length_b   10.42302659
_cell_length_c   10.42346620
_cell_angle_alpha   54.76056187
_cell_angle_beta   54.75778527
_cell_angle_gamma   54.75460767
_symmetry_Int_Tables_number   1
_chemical_formula_structural   Rb2Nb6SnCl18
_chemical_formula_sum   'Rb2 Nb6 Sn1 Cl18'
_cell_volume   703.03810995
_cell_formula_units_Z   1
loop_
 _symmetry_equiv_pos_site_id
 _symmetry_equiv_pos_as_xyz
  1  'x, y, z'
loop_
 _atom_site_type_symbol
 _atom_site_label
 _atom_site_symmetry_multiplicity
 _atom_site_fract_x
 _atom_site_fract_y
 _atom_site_fract_z
 _atom_site_occupancy
  Rb  Rb0  1  0.722997  0.722999  0.722996  1
  Rb  Rb1  1  0.277003  0.277001  0.277004  1
  Nb  Nb2  1  0.580837  0.352553  0.702469  1
  Nb  Nb3  1  0.352555  0.702473  0.580823  1
  Nb  Nb4  1  0.702476  0.580836  0.352549  1
  Nb  Nb5  1  0.647445  0.297527  0.419177  1
  Nb  Nb6  1  0.419163  0.647447  0.297531  1
  Nb  Nb7  1  0.297524  0.419164  0.647451  1
  Sn  Sn8  1  0.000000  0.000000  0.000000  1
  Cl  Cl9  1  0.910602  0.357716  0.230839  1
  Cl  Cl10  1  0.833929  0.421803  0.565513  1
  Cl  Cl11  1  0.769159  0.089407  0.642286  1
  Cl  Cl12  1  0.089398  0.642284  0.769161  1
  Cl  Cl13  1  0.677399  0.170494  0.963209  1
  Cl  Cl14  1  0.230841  0.910593  0.357714  1
  Cl  Cl15  1  0.434490  0.166080  0.578191  1
  Cl  Cl16  1  0.642290  0.769164  0.089391  1
  Cl  Cl17  1  0.578190  0.434496  0.166078  1
  Cl  Cl18  1  0.036788  0.322599  0.829508  1
  Cl  Cl19  1  0.565510  0.833920  0.421809  1
  Cl  Cl20  1  0.357710  0.230836  0.910609  1
  Cl  Cl21  1  0.963212  0.677401  0.170492  1
  Cl  Cl22  1  0.166071  0.578197  0.434487  1
  Cl  Cl23  1  0.829500  0.036794  0.322608  1
  Cl  Cl24  1  0.421810  0.565504  0.833922  1
  Cl  Cl25  1  0.170500  0.963206  0.677392  1
  Cl  Cl26  1  0.322601  0.829506  0.036791  1
