# generated using pymatgen
data_Ta12Cr7Ga5CN3
_symmetry_space_group_name_H-M   'P 1'
_cell_length_a   8.18463209
_cell_length_b   8.17818653
_cell_length_c   8.17818700
_cell_angle_alpha   60.00000216
_cell_angle_beta   60.02604967
_cell_angle_gamma   60.02604508
_symmetry_Int_Tables_number   1
_chemical_formula_structural   Ta12Cr7Ga5CN3
_chemical_formula_sum   'Ta12 Cr7 Ga5 C1 N3'
_cell_volume   387.23008565
_cell_formula_units_Z   1
loop_
 _symmetry_equiv_pos_site_id
 _symmetry_equiv_pos_as_xyz
  1  'x, y, z'
loop_
 _atom_site_type_symbol
 _atom_site_label
 _atom_site_symmetry_multiplicity
 _atom_site_fract_x
 _atom_site_fract_y
 _atom_site_fract_z
 _atom_site_occupancy
  Ta  Ta0  1  0.809469  0.807259  0.191636  1
  Ta  Ta1  1  0.188145  0.199188  0.806334  1
  Ta  Ta2  1  0.809469  0.191636  0.807259  1
  Ta  Ta3  1  0.188145  0.806334  0.199188  1
  Ta  Ta4  1  0.188145  0.806334  0.806334  1
  Ta  Ta5  1  0.809469  0.191636  0.191636  1
  Ta  Ta6  1  0.446458  0.445663  0.053940  1
  Ta  Ta7  1  0.056522  0.053484  0.444996  1
  Ta  Ta8  1  0.446458  0.053940  0.445663  1
  Ta  Ta9  1  0.056522  0.444996  0.053484  1
  Ta  Ta10  1  0.056522  0.444996  0.444996  1
  Ta  Ta11  1  0.446458  0.053940  0.053940  1
  Cr  Cr12  1  0.104939  0.631687  0.631687  1
  Cr  Cr13  1  0.644554  0.109708  0.622869  1
  Cr  Cr14  1  0.644554  0.622869  0.109708  1
  Cr  Cr15  1  0.644554  0.622869  0.622869  1
  Cr  Cr16  1  0.820619  0.519726  0.829828  1
  Cr  Cr17  1  0.820619  0.829828  0.519726  1
  Cr  Cr18  1  0.820619  0.829828  0.829828  1
  Ga  Ga19  1  0.758935  0.413688  0.413688  1
  Ga  Ga20  1  0.416905  0.754246  0.414425  1
  Ga  Ga21  1  0.416905  0.414425  0.754246  1
  Ga  Ga22  1  0.416905  0.414425  0.414425  1
  Ga  Ga23  1  0.489448  0.836851  0.836851  1
  C  C24  1  0.624491  0.125170  0.125170  1
  N  N25  1  0.124725  0.625150  0.125063  1
  N  N26  1  0.124725  0.125063  0.625150  1
  N  N27  1  0.124725  0.125063  0.125063  1
