# generated using pymatgen
data_Nb12Os3Ru
_symmetry_space_group_name_H-M   'P 1'
_cell_length_a   5.18354300
_cell_length_b   5.18330900
_cell_length_c   10.36652300
_cell_angle_alpha   90.00000000
_cell_angle_beta   90.00000000
_cell_angle_gamma   90.00000000
_symmetry_Int_Tables_number   1
_chemical_formula_structural   Nb12Os3Ru
_chemical_formula_sum   'Nb12 Os3 Ru1'
_cell_volume   278.52675601
_cell_formula_units_Z   1
loop_
 _symmetry_equiv_pos_site_id
 _symmetry_equiv_pos_as_xyz
  1  'x, y, z'
loop_
 _atom_site_type_symbol
 _atom_site_label
 _atom_site_symmetry_multiplicity
 _atom_site_fract_x
 _atom_site_fract_y
 _atom_site_fract_z
 _atom_site_occupancy
  Nb  Nb0  1  0.500000  0.000000  0.375239  1
  Nb  Nb1  1  0.500000  0.000000  0.874547  1
  Nb  Nb2  1  0.749914  0.500000  0.000000  1
  Nb  Nb3  1  0.749587  0.500000  0.500000  1
  Nb  Nb4  1  0.000000  0.749828  0.249210  1
  Nb  Nb5  1  0.000000  0.749828  0.750790  1
  Nb  Nb6  1  0.500000  0.000000  0.125453  1
  Nb  Nb7  1  0.500000  0.000000  0.624761  1
  Nb  Nb8  1  0.250086  0.500000  0.000000  1
  Nb  Nb9  1  0.250413  0.500000  0.500000  1
  Nb  Nb10  1  0.000000  0.250172  0.249210  1
  Nb  Nb11  1  0.000000  0.250172  0.750790  1
  Os  Os12  1  0.500000  0.500000  0.250465  1
  Os  Os13  1  0.500000  0.500000  0.749535  1
  Os  Os14  1  0.000000  0.000000  0.000000  1
  Ru  Ru15  1  0.000000  0.000000  0.500000  1
