# generated using pymatgen
data_K3Ba3ScBi4
_symmetry_space_group_name_H-M   'P 1'
_cell_length_a   11.48117300
_cell_length_b   11.48117270
_cell_length_c   8.71489900
_cell_angle_alpha   90.00000000
_cell_angle_beta   90.00000000
_cell_angle_gamma   119.99999223
_symmetry_Int_Tables_number   1
_chemical_formula_structural   K3Ba3ScBi4
_chemical_formula_sum   'K6 Ba6 Sc2 Bi8'
_cell_volume   994.86816628
_cell_formula_units_Z   2
loop_
 _symmetry_equiv_pos_site_id
 _symmetry_equiv_pos_as_xyz
  1  'x, y, z'
loop_
 _atom_site_type_symbol
 _atom_site_label
 _atom_site_symmetry_multiplicity
 _atom_site_fract_x
 _atom_site_fract_y
 _atom_site_fract_z
 _atom_site_occupancy
  K  K0  1  0.729740  0.864869  0.169654  1
  K  K1  1  0.864869  0.135131  0.669654  1
  K  K2  1  0.864869  0.729740  0.669654  1
  K  K3  1  0.135131  0.270260  0.169654  1
  K  K4  1  0.135131  0.864869  0.169654  1
  K  K5  1  0.270260  0.135131  0.669654  1
  Ba  Ba6  1  0.053373  0.526687  0.497279  1
  Ba  Ba7  1  0.473313  0.946627  0.497279  1
  Ba  Ba8  1  0.473313  0.526687  0.497279  1
  Ba  Ba9  1  0.526687  0.473313  0.997279  1
  Ba  Ba10  1  0.526687  0.053373  0.997279  1
  Ba  Ba11  1  0.946627  0.473313  0.997279  1
  Sc  Sc12  1  0.333333  0.666667  0.883801  1
  Sc  Sc13  1  0.666667  0.333333  0.383801  1
  Bi  Bi14  1  0.666667  0.333333  0.723636  1
  Bi  Bi15  1  0.611029  0.805515  0.773654  1
  Bi  Bi16  1  0.805515  0.194485  0.273654  1
  Bi  Bi17  1  0.805515  0.611029  0.273654  1
  Bi  Bi18  1  0.333333  0.666667  0.223636  1
  Bi  Bi19  1  0.194485  0.388971  0.773654  1
  Bi  Bi20  1  0.194485  0.805515  0.773654  1
  Bi  Bi21  1  0.388971  0.194485  0.273654  1
