# generated using pymatgen
data_Y6Th2MgCo2Hg
_symmetry_space_group_name_H-M   'P 1'
_cell_length_a   9.61339355
_cell_length_b   9.61339340
_cell_length_c   9.61536800
_cell_angle_alpha   59.99320515
_cell_angle_beta   59.99320569
_cell_angle_gamma   60.28892024
_symmetry_Int_Tables_number   1
_chemical_formula_structural   Y6Th2MgCo2Hg
_chemical_formula_sum   'Y12 Th4 Mg2 Co4 Hg2'
_cell_volume   629.64950577
_cell_formula_units_Z   2
loop_
 _symmetry_equiv_pos_site_id
 _symmetry_equiv_pos_as_xyz
  1  'x, y, z'
loop_
 _atom_site_type_symbol
 _atom_site_label
 _atom_site_symmetry_multiplicity
 _atom_site_fract_x
 _atom_site_fract_y
 _atom_site_fract_z
 _atom_site_occupancy
  Y  Y0  1  0.812680  0.186433  0.187655  1
  Y  Y1  1  0.186433  0.812680  0.813231  1
  Y  Y2  1  0.186433  0.812680  0.187655  1
  Y  Y3  1  0.812680  0.186433  0.813231  1
  Y  Y4  1  0.187828  0.187828  0.812172  1
  Y  Y5  1  0.811304  0.811304  0.188696  1
  Y  Y6  1  0.935889  0.562844  0.563799  1
  Y  Y7  1  0.562844  0.935889  0.937468  1
  Y  Y8  1  0.562844  0.935889  0.563799  1
  Y  Y9  1  0.935889  0.562844  0.937468  1
  Y  Y10  1  0.562946  0.562946  0.937054  1
  Y  Y11  1  0.936091  0.936091  0.563909  1
  Th  Th12  1  0.343989  0.343989  0.345893  1
  Th  Th13  1  0.343989  0.343989  0.966131  1
  Th  Th14  1  0.346197  0.962563  0.345621  1
  Th  Th15  1  0.962563  0.346197  0.345621  1
  Mg  Mg16  1  0.580281  0.268687  0.575515  1
  Mg  Mg17  1  0.268687  0.580281  0.575515  1
  Co  Co18  1  0.144791  0.144791  0.146307  1
  Co  Co19  1  0.144791  0.144791  0.564111  1
  Co  Co20  1  0.144383  0.561700  0.146958  1
  Co  Co21  1  0.561700  0.144383  0.146958  1
  Hg  Hg22  1  0.582385  0.582385  0.588020  1
  Hg  Hg23  1  0.582385  0.582385  0.247210  1
