# generated using pymatgen
data_SrNd3Al13Au9
_symmetry_space_group_name_H-M   'P 1'
_cell_length_a   11.80859000
_cell_length_b   11.80858820
_cell_length_c   4.26914100
_cell_angle_alpha   90.00000000
_cell_angle_beta   90.00000000
_cell_angle_gamma   119.99999383
_symmetry_Int_Tables_number   1
_chemical_formula_structural   SrNd3Al13Au9
_chemical_formula_sum   'Sr1 Nd3 Al13 Au9'
_cell_volume   515.54571223
_cell_formula_units_Z   1
loop_
 _symmetry_equiv_pos_site_id
 _symmetry_equiv_pos_as_xyz
  1  'x, y, z'
loop_
 _atom_site_type_symbol
 _atom_site_label
 _atom_site_symmetry_multiplicity
 _atom_site_fract_x
 _atom_site_fract_y
 _atom_site_fract_z
 _atom_site_occupancy
  Sr  Sr0  1  0.666667  0.333333  0.000000  1
  Nd  Nd1  1  0.204217  0.795783  0.500000  1
  Nd  Nd2  1  0.591566  0.795783  0.500000  1
  Nd  Nd3  1  0.204217  0.408434  0.500000  1
  Al  Al4  1  0.948970  0.292298  0.000000  1
  Al  Al5  1  0.707702  0.656672  0.000000  1
  Al  Al6  1  0.948970  0.656672  0.000000  1
  Al  Al7  1  0.343328  0.051030  0.000000  1
  Al  Al8  1  0.164245  0.082123  0.500000  1
  Al  Al9  1  0.917877  0.835755  0.500000  1
  Al  Al10  1  0.707702  0.051030  0.000000  1
  Al  Al11  1  0.531576  0.063150  0.500000  1
  Al  Al12  1  0.917877  0.082123  0.500000  1
  Al  Al13  1  0.343328  0.292298  0.000000  1
  Al  Al14  1  0.531576  0.468424  0.500000  1
  Al  Al15  1  0.936850  0.468424  0.500000  1
  Al  Al16  1  0.333333  0.666667  0.000000  1
  Au  Au17  1  0.456742  0.543258  0.000000  1
  Au  Au18  1  0.827233  0.913617  0.000000  1
  Au  Au19  1  0.456742  0.913483  0.000000  1
  Au  Au20  1  0.086383  0.172767  0.000000  1
  Au  Au21  1  0.086383  0.913617  0.000000  1
  Au  Au22  1  0.791558  0.583114  0.500000  1
  Au  Au23  1  0.086517  0.543258  0.000000  1
  Au  Au24  1  0.791558  0.208442  0.500000  1
  Au  Au25  1  0.416886  0.208442  0.500000  1
