# generated using pymatgen
data_BaPuUSe5
_symmetry_space_group_name_H-M   'P 1'
_cell_length_a   8.06739300
_cell_length_b   8.78713378
_cell_length_c   12.58001600
_cell_angle_alpha   89.69958996
_cell_angle_beta   90.00000000
_cell_angle_gamma   90.00000000
_symmetry_Int_Tables_number   1
_chemical_formula_structural   BaPuUSe5
_chemical_formula_sum   'Ba4 Pu4 U4 Se20'
_cell_volume   891.77578677
_cell_formula_units_Z   4
loop_
 _symmetry_equiv_pos_site_id
 _symmetry_equiv_pos_as_xyz
  1  'x, y, z'
loop_
 _atom_site_type_symbol
 _atom_site_label
 _atom_site_symmetry_multiplicity
 _atom_site_fract_x
 _atom_site_fract_y
 _atom_site_fract_z
 _atom_site_occupancy
  Ba  Ba0  1  0.055331  0.491486  0.330463  1
  Ba  Ba1  1  0.555331  0.508514  0.169537  1
  Ba  Ba2  1  0.944669  0.508514  0.669537  1
  Ba  Ba3  1  0.444669  0.491486  0.830463  1
  Pu  Pu4  1  0.030832  0.997992  0.322825  1
  Pu  Pu5  1  0.530832  0.002008  0.177175  1
  Pu  Pu6  1  0.969168  0.002008  0.677175  1
  Pu  Pu7  1  0.469168  0.997992  0.822825  1
  U  U8  1  0.061796  0.756946  0.005697  1
  U  U9  1  0.561796  0.243054  0.494303  1
  U  U10  1  0.938204  0.243054  0.994303  1
  U  U11  1  0.438204  0.756946  0.505697  1
  Se  Se12  1  0.664577  0.958504  0.405560  1
  Se  Se13  1  0.164577  0.041496  0.094440  1
  Se  Se14  1  0.335423  0.041496  0.594440  1
  Se  Se15  1  0.835423  0.958504  0.905560  1
  Se  Se16  1  0.440958  0.786821  0.003990  1
  Se  Se17  1  0.940958  0.213179  0.496010  1
  Se  Se18  1  0.559042  0.213179  0.996010  1
  Se  Se19  1  0.059042  0.786821  0.503990  1
  Se  Se20  1  0.851474  0.775399  0.186715  1
  Se  Se21  1  0.351474  0.224601  0.313285  1
  Se  Se22  1  0.148526  0.224601  0.813285  1
  Se  Se23  1  0.648526  0.775399  0.686715  1
  Se  Se24  1  0.321988  0.773228  0.292016  1
  Se  Se25  1  0.821988  0.226772  0.207984  1
  Se  Se26  1  0.678012  0.226772  0.707984  1
  Se  Se27  1  0.178012  0.773228  0.792016  1
  Se  Se28  1  0.174594  0.463598  0.070486  1
  Se  Se29  1  0.674594  0.536402  0.429514  1
  Se  Se30  1  0.825406  0.536402  0.929514  1
  Se  Se31  1  0.325406  0.463598  0.570486  1
