# generated using pymatgen
data_CsPa(NbS2)6
_symmetry_space_group_name_H-M   'P 1'
_cell_length_a   5.71957400
_cell_length_b   5.71957453
_cell_length_c   16.11871400
_cell_angle_alpha   90.00000000
_cell_angle_beta   90.00000000
_cell_angle_gamma   119.99999691
_symmetry_Int_Tables_number   1
_chemical_formula_structural   CsPa(NbS2)6
_chemical_formula_sum   'Cs1 Pa1 Nb6 S12'
_cell_volume   456.65523627
_cell_formula_units_Z   1
loop_
 _symmetry_equiv_pos_site_id
 _symmetry_equiv_pos_as_xyz
  1  'x, y, z'
loop_
 _atom_site_type_symbol
 _atom_site_label
 _atom_site_symmetry_multiplicity
 _atom_site_fract_x
 _atom_site_fract_y
 _atom_site_fract_z
 _atom_site_occupancy
  Cs  Cs0  1  0.000000  0.000000  0.500000  1
  Pa  Pa1  1  0.000000  0.000000  0.000000  1
  Nb  Nb2  1  0.000000  0.000000  0.216890  1
  Nb  Nb3  1  0.000000  0.000000  0.783110  1
  Nb  Nb4  1  0.333333  0.666667  0.216618  1
  Nb  Nb5  1  0.666667  0.333333  0.783382  1
  Nb  Nb6  1  0.666667  0.333333  0.216618  1
  Nb  Nb7  1  0.333333  0.666667  0.783382  1
  S  S8  1  0.335841  0.000000  0.115811  1
  S  S9  1  0.000000  0.335841  0.115811  1
  S  S10  1  0.664159  0.664159  0.115811  1
  S  S11  1  0.335167  0.335167  0.684440  1
  S  S12  1  0.664833  0.664833  0.315560  1
  S  S13  1  0.664833  0.000000  0.684440  1
  S  S14  1  0.000000  0.664833  0.684440  1
  S  S15  1  0.000000  0.664159  0.884189  1
  S  S16  1  0.335841  0.335841  0.884189  1
  S  S17  1  0.000000  0.335167  0.315560  1
  S  S18  1  0.335167  0.000000  0.315560  1
  S  S19  1  0.664159  0.000000  0.884189  1
