# generated using pymatgen
data_Zr10Sn2Bi4Pb
_symmetry_space_group_name_H-M   'P 1'
_cell_length_a   6.03346392
_cell_length_b   8.78420764
_cell_length_c   8.79719251
_cell_angle_alpha   119.95111359
_cell_angle_beta   90.05597576
_cell_angle_gamma   89.88788261
_symmetry_Int_Tables_number   1
_chemical_formula_structural   Zr10Sn2Bi4Pb
_chemical_formula_sum   'Zr10 Sn2 Bi4 Pb1'
_cell_volume   403.97727644
_cell_formula_units_Z   1
loop_
 _symmetry_equiv_pos_site_id
 _symmetry_equiv_pos_as_xyz
  1  'x, y, z'
loop_
 _atom_site_type_symbol
 _atom_site_label
 _atom_site_symmetry_multiplicity
 _atom_site_fract_x
 _atom_site_fract_y
 _atom_site_fract_z
 _atom_site_occupancy
  Zr  Zr0  1  0.496710  0.333371  0.664251  1
  Zr  Zr1  1  0.496710  0.669119  0.335750  1
  Zr  Zr2  1  0.004589  0.668951  0.336062  1
  Zr  Zr3  1  0.004590  0.332888  0.663937  1
  Zr  Zr4  1  0.784361  0.264301  0.000000  1
  Zr  Zr5  1  0.784214  0.734445  0.734001  1
  Zr  Zr6  1  0.784214  0.000444  0.265999  1
  Zr  Zr7  1  0.217153  0.733002  0.000000  1
  Zr  Zr8  1  0.218699  0.268500  0.272976  1
  Zr  Zr9  1  0.218699  0.995524  0.727024  1
  Sn  Sn10  1  0.258185  0.613887  0.614521  1
  Sn  Sn11  1  0.258184  0.999367  0.385479  1
  Bi  Bi12  1  0.740141  0.610502  0.000000  1
  Bi  Bi13  1  0.739002  0.389988  0.388518  1
  Bi  Bi14  1  0.739002  0.001471  0.611482  1
  Bi  Bi15  1  0.495521  0.000282  0.000001  1
  Pb  Pb16  1  0.260025  0.383963  0.000000  1
