# generated using pymatgen
data_Re5TcIr2
_symmetry_space_group_name_H-M   'P 1'
_cell_length_a   5.58462200
_cell_length_b   5.58460076
_cell_length_c   4.39369100
_cell_angle_alpha   90.00000000
_cell_angle_beta   90.00000000
_cell_angle_gamma   120.00012580
_symmetry_Int_Tables_number   1
_chemical_formula_structural   Re5TcIr2
_chemical_formula_sum   'Re5 Tc1 Ir2'
_cell_volume   118.67124698
_cell_formula_units_Z   1
loop_
 _symmetry_equiv_pos_site_id
 _symmetry_equiv_pos_as_xyz
  1  'x, y, z'
loop_
 _atom_site_type_symbol
 _atom_site_label
 _atom_site_symmetry_multiplicity
 _atom_site_fract_x
 _atom_site_fract_y
 _atom_site_fract_z
 _atom_site_occupancy
  Re  Re0  1  0.839177  0.163291  0.750000  1
  Re  Re1  1  0.324115  0.163291  0.750000  1
  Re  Re2  1  0.838189  0.676378  0.750000  1
  Re  Re3  1  0.162870  0.838576  0.250000  1
  Re  Re4  1  0.675705  0.838576  0.250000  1
  Tc  Tc5  1  0.161403  0.322807  0.250000  1
  Ir  Ir6  1  0.665781  0.331561  0.250000  1
  Ir  Ir7  1  0.332760  0.665520  0.750000  1
