# generated using pymatgen
data_Tm3Nb(Ni4As3)2
_symmetry_space_group_name_H-M   'P 1'
_cell_length_a   3.86766000
_cell_length_b   11.08452500
_cell_length_c   12.69492800
_cell_angle_alpha   90.00000000
_cell_angle_beta   90.00000000
_cell_angle_gamma   90.00000000
_symmetry_Int_Tables_number   1
_chemical_formula_structural   Tm3Nb(Ni4As3)2
_chemical_formula_sum   'Tm6 Nb2 Ni16 As12'
_cell_volume   544.24646672
_cell_formula_units_Z   2
loop_
 _symmetry_equiv_pos_site_id
 _symmetry_equiv_pos_as_xyz
  1  'x, y, z'
loop_
 _atom_site_type_symbol
 _atom_site_label
 _atom_site_symmetry_multiplicity
 _atom_site_fract_x
 _atom_site_fract_y
 _atom_site_fract_z
 _atom_site_occupancy
  Tm  Tm0  1  0.000000  0.500000  0.527227  1
  Tm  Tm1  1  0.500000  0.000000  0.472773  1
  Tm  Tm2  1  0.500000  0.821542  0.207098  1
  Tm  Tm3  1  0.500000  0.178458  0.207098  1
  Tm  Tm4  1  0.000000  0.678458  0.792902  1
  Tm  Tm5  1  0.000000  0.321542  0.792902  1
  Nb  Nb6  1  0.500000  0.500000  0.151149  1
  Nb  Nb7  1  0.000000  0.000000  0.848851  1
  Ni  Ni8  1  0.500000  0.500000  0.697710  1
  Ni  Ni9  1  0.000000  0.000000  0.302290  1
  Ni  Ni10  1  0.000000  0.500000  0.983242  1
  Ni  Ni11  1  0.500000  0.000000  0.016758  1
  Ni  Ni12  1  0.500000  0.335565  0.991003  1
  Ni  Ni13  1  0.500000  0.664435  0.991003  1
  Ni  Ni14  1  0.000000  0.164435  0.008997  1
  Ni  Ni15  1  0.000000  0.835565  0.008997  1
  Ni  Ni16  1  0.500000  0.303046  0.427252  1
  Ni  Ni17  1  0.500000  0.696954  0.427252  1
  Ni  Ni18  1  0.000000  0.196954  0.572748  1
  Ni  Ni19  1  0.000000  0.803046  0.572748  1
  Ni  Ni20  1  0.500000  0.878183  0.706814  1
  Ni  Ni21  1  0.500000  0.121817  0.706814  1
  Ni  Ni22  1  0.000000  0.621817  0.293186  1
  Ni  Ni23  1  0.000000  0.378183  0.293186  1
  As  As24  1  0.500000  0.500000  0.876421  1
  As  As25  1  0.000000  0.000000  0.123579  1
  As  As26  1  0.500000  0.500000  0.354204  1
  As  As27  1  0.000000  0.000000  0.645796  1
  As  As28  1  0.500000  0.314713  0.614349  1
  As  As29  1  0.500000  0.685287  0.614349  1
  As  As30  1  0.000000  0.185287  0.385651  1
  As  As31  1  0.000000  0.814713  0.385651  1
  As  As32  1  0.500000  0.838783  0.890158  1
  As  As33  1  0.500000  0.161217  0.890158  1
  As  As34  1  0.000000  0.661217  0.109842  1
  As  As35  1  0.000000  0.338783  0.109842  1
