# generated using pymatgen
data_Cu2NiIr3S8
_symmetry_space_group_name_H-M   'P 1'
_cell_length_a   6.90723121
_cell_length_b   6.90723184
_cell_length_c   6.90723084
_cell_angle_alpha   61.17128066
_cell_angle_beta   61.17127757
_cell_angle_gamma   61.17127831
_symmetry_Int_Tables_number   1
_chemical_formula_structural   Cu2NiIr3S8
_chemical_formula_sum   'Cu2 Ni1 Ir3 S8'
_cell_volume   239.16267350
_cell_formula_units_Z   1
loop_
 _symmetry_equiv_pos_site_id
 _symmetry_equiv_pos_as_xyz
  1  'x, y, z'
loop_
 _atom_site_type_symbol
 _atom_site_label
 _atom_site_symmetry_multiplicity
 _atom_site_fract_x
 _atom_site_fract_y
 _atom_site_fract_z
 _atom_site_occupancy
  Cu  Cu0  1  0.001421  0.001421  0.001421  1
  Cu  Cu1  1  0.248579  0.248579  0.248579  1
  Ni  Ni2  1  0.625000  0.625000  0.625000  1
  Ir  Ir3  1  0.625000  0.625000  0.125000  1
  Ir  Ir4  1  0.125000  0.625000  0.625000  1
  Ir  Ir5  1  0.625000  0.125000  0.625000  1
  S  S6  1  0.388079  0.388079  0.842957  1
  S  S7  1  0.385429  0.385429  0.385429  1
  S  S8  1  0.864571  0.864571  0.864571  1
  S  S9  1  0.861921  0.861921  0.407043  1
  S  S10  1  0.388079  0.842957  0.388079  1
  S  S11  1  0.842957  0.388079  0.388079  1
  S  S12  1  0.407043  0.861921  0.861921  1
  S  S13  1  0.861921  0.407043  0.861921  1
