# generated using pymatgen
data_SmY3(SiAu2)8
_symmetry_space_group_name_H-M   'P 1'
_cell_length_a   4.41798200
_cell_length_b   4.41829700
_cell_length_c   27.07678900
_cell_angle_alpha   90.00000000
_cell_angle_beta   90.00000000
_cell_angle_gamma   90.00000000
_symmetry_Int_Tables_number   1
_chemical_formula_structural   SmY3(SiAu2)8
_chemical_formula_sum   'Sm1 Y3 Si8 Au16'
_cell_volume   528.53774660
_cell_formula_units_Z   1
loop_
 _symmetry_equiv_pos_site_id
 _symmetry_equiv_pos_as_xyz
  1  'x, y, z'
loop_
 _atom_site_type_symbol
 _atom_site_label
 _atom_site_symmetry_multiplicity
 _atom_site_fract_x
 _atom_site_fract_y
 _atom_site_fract_z
 _atom_site_occupancy
  Sm  Sm0  1  0.000000  0.500000  0.749436  1
  Y  Y1  1  0.500000  0.000000  0.250576  1
  Y  Y2  1  0.500000  0.500000  0.999998  1
  Y  Y3  1  0.500000  0.500000  0.500003  1
  Si  Si4  1  0.000000  0.000000  0.956779  1
  Si  Si5  1  0.000000  0.000000  0.456913  1
  Si  Si6  1  0.500000  0.000000  0.792924  1
  Si  Si7  1  0.500000  0.000000  0.705954  1
  Si  Si8  1  0.000000  0.500000  0.207272  1
  Si  Si9  1  0.000000  0.500000  0.293837  1
  Si  Si10  1  0.000000  0.000000  0.043228  1
  Si  Si11  1  0.000000  0.000000  0.543084  1
  Au  Au12  1  0.500000  0.000000  0.086070  1
  Au  Au13  1  0.500000  0.500000  0.662488  1
  Au  Au14  1  0.500000  0.500000  0.836480  1
  Au  Au15  1  0.000000  0.500000  0.085415  1
  Au  Au16  1  0.500000  0.000000  0.914655  1
  Au  Au17  1  0.000000  0.000000  0.663659  1
  Au  Au18  1  0.000000  0.500000  0.415092  1
  Au  Au19  1  0.500000  0.500000  0.336904  1
  Au  Au20  1  0.500000  0.000000  0.414418  1
  Au  Au21  1  0.000000  0.000000  0.335692  1
  Au  Au22  1  0.000000  0.000000  0.165287  1
  Au  Au23  1  0.500000  0.000000  0.584839  1
  Au  Au24  1  0.000000  0.000000  0.835351  1
  Au  Au25  1  0.500000  0.500000  0.164132  1
  Au  Au26  1  0.000000  0.500000  0.585546  1
  Au  Au27  1  0.000000  0.500000  0.913968  1
