# generated using pymatgen
data_Ho3Mg2Sb3O14
_symmetry_space_group_name_H-M   'P 1'
_cell_length_a   7.18553686
_cell_length_b   7.18553093
_cell_length_c   7.18545362
_cell_angle_alpha   118.17479679
_cell_angle_beta   61.82487331
_cell_angle_gamma   118.17542181
_symmetry_Int_Tables_number   1
_chemical_formula_structural   Ho3Mg2Sb3O14
_chemical_formula_sum   'Ho3 Mg2 Sb3 O14'
_cell_volume   273.05722995
_cell_formula_units_Z   1
loop_
 _symmetry_equiv_pos_site_id
 _symmetry_equiv_pos_as_xyz
  1  'x, y, z'
loop_
 _atom_site_type_symbol
 _atom_site_label
 _atom_site_symmetry_multiplicity
 _atom_site_fract_x
 _atom_site_fract_y
 _atom_site_fract_z
 _atom_site_occupancy
  Ho  Ho0  1  0.999667  0.499987  0.000147  1
  Ho  Ho1  1  0.500050  0.000187  0.999920  1
  Ho  Ho2  1  0.500169  0.500100  0.499739  1
  Mg  Mg3  1  0.499757  0.500204  0.999746  1
  Mg  Mg4  1  0.001035  0.000683  0.500164  1
  Sb  Sb5  1  0.500059  0.999870  0.500043  1
  Sb  Sb6  1  0.999923  0.499909  0.500011  1
  Sb  Sb7  1  0.999941  0.999884  0.000083  1
  O  O8  1  0.617664  0.382187  0.117743  1
  O  O9  1  0.382010  0.617843  0.882087  1
  O  O10  1  0.084534  0.327266  0.172639  1
  O  O11  1  0.672540  0.915319  0.172633  1
  O  O12  1  0.672535  0.327275  0.584624  1
  O  O13  1  0.915353  0.672535  0.827375  1
  O  O14  1  0.327273  0.084494  0.827369  1
  O  O15  1  0.327275  0.672538  0.415431  1
  O  O16  1  0.651991  0.907957  0.592007  1
  O  O17  1  0.091977  0.348119  0.592031  1
  O  O18  1  0.091967  0.907940  0.151941  1
  O  O19  1  0.348211  0.091904  0.408050  1
  O  O20  1  0.908042  0.651921  0.408085  1
  O  O21  1  0.908029  0.091881  0.848134  1
