# generated using pymatgen
data_Ce5Tm3Al8(NiRu3)2
_symmetry_space_group_name_H-M   'P 1'
_cell_length_a   4.09483100
_cell_length_b   7.05206241
_cell_length_c   15.75859089
_cell_angle_alpha   90.93020539
_cell_angle_beta   90.00000000
_cell_angle_gamma   90.00000000
_symmetry_Int_Tables_number   1
_chemical_formula_structural   Ce5Tm3Al8(NiRu3)2
_chemical_formula_sum   'Ce5 Tm3 Al8 Ni2 Ru6'
_cell_volume   455.00091743
_cell_formula_units_Z   1
loop_
 _symmetry_equiv_pos_site_id
 _symmetry_equiv_pos_as_xyz
  1  'x, y, z'
loop_
 _atom_site_type_symbol
 _atom_site_label
 _atom_site_symmetry_multiplicity
 _atom_site_fract_x
 _atom_site_fract_y
 _atom_site_fract_z
 _atom_site_occupancy
  Ce  Ce0  1  0.750000  0.465141  0.281623  1
  Ce  Ce1  1  0.750000  0.331883  0.062838  1
  Ce  Ce2  1  0.250000  0.668929  0.939407  1
  Ce  Ce3  1  0.250000  0.044734  0.777544  1
  Ce  Ce4  1  0.250000  0.538364  0.716428  1
  Tm  Tm5  1  0.750000  0.958322  0.220988  1
  Tm  Tm6  1  0.250000  0.156184  0.558087  1
  Tm  Tm7  1  0.750000  0.841962  0.440131  1
  Al  Al8  1  0.750000  0.489110  0.557229  1
  Al  Al9  1  0.750000  0.368952  0.850116  1
  Al  Al10  1  0.750000  0.002695  0.935121  1
  Al  Al11  1  0.750000  0.869824  0.645447  1
  Al  Al12  1  0.250000  0.491311  0.437138  1
  Al  Al13  1  0.250000  0.999345  0.067872  1
  Al  Al14  1  0.250000  0.641112  0.150614  1
  Al  Al15  1  0.250000  0.129236  0.352938  1
  Ni  Ni16  1  0.750000  0.751647  0.812720  1
  Ni  Ni17  1  0.750000  0.258721  0.432223  1
  Ru  Ru18  1  0.250000  0.239058  0.936163  1
  Ru  Ru19  1  0.250000  0.743736  0.317967  1
  Ru  Ru20  1  0.750000  0.762149  0.063276  1
  Ru  Ru21  1  0.750000  0.251335  0.685291  1
  Ru  Ru22  1  0.250000  0.268979  0.190679  1
  Ru  Ru23  1  0.250000  0.727269  0.568160  1
