# generated using pymatgen
data_Y2PaIn3IrRh2
_symmetry_space_group_name_H-M   'P 1'
_cell_length_a   7.62900705
_cell_length_b   7.86066546
_cell_length_c   3.79943200
_cell_angle_alpha   90.00000000
_cell_angle_beta   90.00000000
_cell_angle_gamma   121.32970505
_symmetry_Int_Tables_number   1
_chemical_formula_structural   Y2PaIn3IrRh2
_chemical_formula_sum   'Y2 Pa1 In3 Ir1 Rh2'
_cell_volume   194.62569153
_cell_formula_units_Z   1
loop_
 _symmetry_equiv_pos_site_id
 _symmetry_equiv_pos_as_xyz
  1  'x, y, z'
loop_
 _atom_site_type_symbol
 _atom_site_label
 _atom_site_symmetry_multiplicity
 _atom_site_fract_x
 _atom_site_fract_y
 _atom_site_fract_z
 _atom_site_occupancy
  Y  Y0  1  0.401696  0.409937  0.500000  1
  Y  Y1  1  0.593212  0.996326  0.500000  1
  Pa  Pa2  1  0.999355  0.581543  0.500000  1
  In  In3  1  0.997530  0.240609  0.000000  1
  In  In4  1  0.270975  0.013076  0.000000  1
  In  In5  1  0.731415  0.741585  0.000000  1
  Ir  Ir6  1  0.299265  0.662591  0.000000  1
  Rh  Rh7  1  0.001011  0.987184  0.500000  1
  Rh  Rh8  1  0.705541  0.367151  0.000000  1
