# generated using pymatgen
data_Hf5Zr8Sn3(Ir2N)4
_symmetry_space_group_name_H-M   'P 1'
_cell_length_a   8.72969197
_cell_length_b   8.76502271
_cell_length_c   8.71929724
_cell_angle_alpha   60.25154087
_cell_angle_beta   59.96055595
_cell_angle_gamma   60.13324265
_symmetry_Int_Tables_number   1
_chemical_formula_structural   Hf5Zr8Sn3(Ir2N)4
_chemical_formula_sum   'Hf5 Zr8 Sn3 Ir8 N4'
_cell_volume   472.98130341
_cell_formula_units_Z   1
loop_
 _symmetry_equiv_pos_site_id
 _symmetry_equiv_pos_as_xyz
  1  'x, y, z'
loop_
 _atom_site_type_symbol
 _atom_site_label
 _atom_site_symmetry_multiplicity
 _atom_site_fract_x
 _atom_site_fract_y
 _atom_site_fract_z
 _atom_site_occupancy
  Hf  Hf0  1  0.624895  0.125127  0.625083  1
  Hf  Hf1  1  0.813435  0.818512  0.183974  1
  Hf  Hf2  1  0.184364  0.187763  0.813858  1
  Hf  Hf3  1  0.814015  0.187763  0.813858  1
  Hf  Hf4  1  0.184079  0.818512  0.183974  1
  Zr  Zr5  1  0.185098  0.816898  0.812906  1
  Zr  Zr6  1  0.813392  0.188848  0.184367  1
  Zr  Zr7  1  0.437920  0.433758  0.064032  1
  Zr  Zr8  1  0.064734  0.060572  0.437465  1
  Zr  Zr9  1  0.437231  0.060572  0.437465  1
  Zr  Zr10  1  0.064292  0.433758  0.064032  1
  Zr  Zr11  1  0.062724  0.435064  0.439488  1
  Zr  Zr12  1  0.438591  0.059081  0.063737  1
  Sn  Sn13  1  0.124283  0.625351  0.625530  1
  Sn  Sn14  1  0.625616  0.624543  0.124225  1
  Sn  Sn15  1  0.624836  0.625351  0.625530  1
  Ir  Ir16  1  0.771280  0.400634  0.414557  1
  Ir  Ir17  1  0.409060  0.773854  0.408026  1
  Ir  Ir18  1  0.414310  0.400161  0.771219  1
  Ir  Ir19  1  0.413530  0.400634  0.414557  1
  Ir  Ir20  1  0.475842  0.851077  0.837696  1
  Ir  Ir21  1  0.843491  0.472499  0.840520  1
  Ir  Ir22  1  0.837829  0.848580  0.475762  1
  Ir  Ir23  1  0.835384  0.851077  0.837696  1
  N  N24  1  0.629289  0.122313  0.122470  1
  N  N25  1  0.122062  0.629426  0.126449  1
  N  N26  1  0.122490  0.125964  0.629056  1
  N  N27  1  0.125929  0.122313  0.122470  1
