# generated using pymatgen
data_Nd3Lu4Th(CdIr)2
_symmetry_space_group_name_H-M   'P 1'
_cell_length_a   9.69976833
_cell_length_b   9.69976864
_cell_length_c   9.68389100
_cell_angle_alpha   60.05413035
_cell_angle_beta   60.05412930
_cell_angle_gamma   60.24087106
_symmetry_Int_Tables_number   1
_chemical_formula_structural   Nd3Lu4Th(CdIr)2
_chemical_formula_sum   'Nd6 Lu8 Th2 Cd4 Ir4'
_cell_volume   645.94884017
_cell_formula_units_Z   2
loop_
 _symmetry_equiv_pos_site_id
 _symmetry_equiv_pos_as_xyz
  1  'x, y, z'
loop_
 _atom_site_type_symbol
 _atom_site_label
 _atom_site_symmetry_multiplicity
 _atom_site_fract_x
 _atom_site_fract_y
 _atom_site_fract_z
 _atom_site_occupancy
  Nd  Nd0  1  0.939568  0.560959  0.560482  1
  Nd  Nd1  1  0.560959  0.939568  0.938990  1
  Nd  Nd2  1  0.560959  0.939568  0.560482  1
  Nd  Nd3  1  0.939568  0.560959  0.938990  1
  Nd  Nd4  1  0.561913  0.561913  0.938087  1
  Nd  Nd5  1  0.943762  0.943762  0.556238  1
  Lu  Lu6  1  0.349448  0.954661  0.347946  1
  Lu  Lu7  1  0.954661  0.349448  0.347946  1
  Lu  Lu8  1  0.815682  0.185725  0.185003  1
  Lu  Lu9  1  0.185725  0.815682  0.813589  1
  Lu  Lu10  1  0.185725  0.815682  0.185003  1
  Lu  Lu11  1  0.815682  0.185725  0.813589  1
  Lu  Lu12  1  0.182807  0.182807  0.817193  1
  Lu  Lu13  1  0.813367  0.813367  0.186633  1
  Th  Th14  1  0.345994  0.345994  0.350530  1
  Th  Th15  1  0.345994  0.345994  0.957482  1
  Cd  Cd16  1  0.579856  0.579856  0.577421  1
  Cd  Cd17  1  0.579856  0.579856  0.262867  1
  Cd  Cd18  1  0.581020  0.259795  0.579592  1
  Cd  Cd19  1  0.259795  0.581020  0.579592  1
  Ir  Ir20  1  0.140176  0.140176  0.144410  1
  Ir  Ir21  1  0.140176  0.140176  0.575238  1
  Ir  Ir22  1  0.141375  0.575930  0.141348  1
  Ir  Ir23  1  0.575930  0.141375  0.141348  1
