# generated using pymatgen
data_Y3SnPt2RhPb2
_symmetry_space_group_name_H-M   'P 1'
_cell_length_a   7.80458226
_cell_length_b   7.80458196
_cell_length_c   3.83673800
_cell_angle_alpha   90.00000000
_cell_angle_beta   90.00000000
_cell_angle_gamma   120.39455428
_symmetry_Int_Tables_number   1
_chemical_formula_structural   Y3SnPt2RhPb2
_chemical_formula_sum   'Y3 Sn1 Pt2 Rh1 Pb2'
_cell_volume   201.58195528
_cell_formula_units_Z   1
loop_
 _symmetry_equiv_pos_site_id
 _symmetry_equiv_pos_as_xyz
  1  'x, y, z'
loop_
 _atom_site_type_symbol
 _atom_site_label
 _atom_site_symmetry_multiplicity
 _atom_site_fract_x
 _atom_site_fract_y
 _atom_site_fract_z
 _atom_site_occupancy
  Y  Y0  1  0.403007  0.003212  0.500000  1
  Y  Y1  1  0.003212  0.403007  0.500000  1
  Y  Y2  1  0.594448  0.594448  0.500000  1
  Sn  Sn3  1  0.260432  0.260432  0.000000  1
  Pt  Pt4  1  0.330511  0.656556  0.000000  1
  Pt  Pt5  1  0.656556  0.330511  0.000000  1
  Rh  Rh6  1  0.011193  0.011193  0.500000  1
  Pb  Pb7  1  0.739656  0.000986  0.000000  1
  Pb  Pb8  1  0.000986  0.739656  0.000000  1
