# generated using pymatgen
data_Pr9YB2Br15
_symmetry_space_group_name_H-M   'P 1'
_cell_length_a   9.43905993
_cell_length_b   10.26289858
_cell_length_c   11.11044160
_cell_angle_alpha   91.25087845
_cell_angle_beta   114.46482370
_cell_angle_gamma   110.82341322
_symmetry_Int_Tables_number   1
_chemical_formula_structural   Pr9YB2Br15
_chemical_formula_sum   'Pr9 Y1 B2 Br15'
_cell_volume   897.40807417
_cell_formula_units_Z   1
loop_
 _symmetry_equiv_pos_site_id
 _symmetry_equiv_pos_as_xyz
  1  'x, y, z'
loop_
 _atom_site_type_symbol
 _atom_site_label
 _atom_site_symmetry_multiplicity
 _atom_site_fract_x
 _atom_site_fract_y
 _atom_site_fract_z
 _atom_site_occupancy
  Pr  Pr0  1  0.800884  0.409552  0.275709  1
  Pr  Pr1  1  0.195419  0.589243  0.722599  1
  Pr  Pr2  1  0.674390  0.745981  0.820638  1
  Pr  Pr3  1  0.322605  0.252733  0.179435  1
  Pr  Pr4  1  0.525369  0.704203  0.096598  1
  Pr  Pr5  1  0.473106  0.295136  0.902959  1
  Pr  Pr6  1  0.585499  0.037407  0.325444  1
  Pr  Pr7  1  0.410675  0.960956  0.673233  1
  Pr  Pr8  1  0.728424  0.075695  0.048502  1
  Y  Y9  1  0.285300  0.927638  0.953480  1
  B  B10  1  0.463476  0.819249  0.875720  1
  B  B11  1  0.529709  0.177613  0.122052  1
  Br  Br12  1  0.006063  0.996342  0.997799  1
  Br  Br13  1  0.636142  0.882092  0.583590  1
  Br  Br14  1  0.361899  0.117071  0.416391  1
  Br  Br15  1  0.882676  0.298128  0.527588  1
  Br  Br16  1  0.115338  0.700507  0.470929  1
  Br  Br17  1  0.282150  0.766536  0.169486  1
  Br  Br18  1  0.710828  0.237721  0.819305  1
  Br  Br19  1  0.057261  0.344488  0.227386  1
  Br  Br20  1  0.160484  0.050074  0.711831  1
  Br  Br21  1  0.838117  0.943152  0.297403  1
  Br  Br22  1  0.229545  0.409561  0.943841  1
  Br  Br23  1  0.768725  0.589555  0.055670  1
  Br  Br24  1  0.407105  0.462930  0.659212  1
  Br  Br25  1  0.591395  0.536462  0.340572  1
  Br  Br26  1  0.957415  0.669972  0.782627  1
