# generated using pymatgen
data_Tb2ErAlC3
_symmetry_space_group_name_H-M   'P 1'
_cell_length_a   3.57742100
_cell_length_b   7.08559264
_cell_length_c   9.94928488
_cell_angle_alpha   89.71618738
_cell_angle_beta   90.00000000
_cell_angle_gamma   90.00000000
_symmetry_Int_Tables_number   1
_chemical_formula_structural   Tb2ErAlC3
_chemical_formula_sum   'Tb4 Er2 Al2 C6'
_cell_volume   252.19285060
_cell_formula_units_Z   2
loop_
 _symmetry_equiv_pos_site_id
 _symmetry_equiv_pos_as_xyz
  1  'x, y, z'
loop_
 _atom_site_type_symbol
 _atom_site_label
 _atom_site_symmetry_multiplicity
 _atom_site_fract_x
 _atom_site_fract_y
 _atom_site_fract_z
 _atom_site_occupancy
  Tb  Tb0  1  0.500000  0.510970  0.197419  1
  Tb  Tb1  1  0.500000  0.489030  0.802581  1
  Tb  Tb2  1  0.000000  0.750058  0.459474  1
  Tb  Tb3  1  0.000000  0.249942  0.540526  1
  Er  Er4  1  0.500000  0.987459  0.200688  1
  Er  Er5  1  0.500000  0.012541  0.799312  1
  Al  Al6  1  0.000000  0.759673  0.004515  1
  Al  Al7  1  0.000000  0.240327  0.995485  1
  C  C8  1  0.500000  0.508873  0.566288  1
  C  C9  1  0.500000  0.491127  0.433712  1
  C  C10  1  0.500000  0.991229  0.566333  1
  C  C11  1  0.500000  0.008771  0.433667  1
  C  C12  1  0.000000  0.753381  0.207848  1
  C  C13  1  0.000000  0.246619  0.792152  1
