# generated using pymatgen
data_Pr8Ho2In5Pb
_symmetry_space_group_name_H-M   'P 1'
_cell_length_a   6.30573676
_cell_length_b   9.37726853
_cell_length_c   9.45707107
_cell_angle_alpha   83.79236811
_cell_angle_beta   70.85459228
_cell_angle_gamma   70.71034180
_symmetry_Int_Tables_number   1
_chemical_formula_structural   Pr8Ho2In5Pb
_chemical_formula_sum   'Pr8 Ho2 In5 Pb1'
_cell_volume   498.61538745
_cell_formula_units_Z   1
loop_
 _symmetry_equiv_pos_site_id
 _symmetry_equiv_pos_as_xyz
  1  'x, y, z'
loop_
 _atom_site_type_symbol
 _atom_site_label
 _atom_site_symmetry_multiplicity
 _atom_site_fract_x
 _atom_site_fract_y
 _atom_site_fract_z
 _atom_site_occupancy
  Pr  Pr0  1  0.720503  0.863882  0.692650  1
  Pr  Pr1  1  0.279216  0.134344  0.308282  1
  Pr  Pr2  1  0.778554  0.308994  0.135252  1
  Pr  Pr3  1  0.222587  0.691639  0.860909  1
  Pr  Pr4  1  0.585407  0.691862  0.135538  1
  Pr  Pr5  1  0.417525  0.307457  0.860930  1
  Pr  Pr6  1  0.085187  0.136062  0.692812  1
  Pr  Pr7  1  0.914149  0.865632  0.307841  1
  Ho  Ho8  1  0.749350  0.500489  0.501804  1
  Ho  Ho9  1  0.248005  0.499703  0.503591  1
  In  In10  1  0.842638  0.499973  0.814024  1
  In  In11  1  0.343680  0.812968  0.499543  1
  In  In12  1  0.656752  0.186920  0.499522  1
  In  In13  1  0.250132  0.999848  0.000395  1
  In  In14  1  0.749883  0.000215  0.000143  1
  Pb  Pb15  1  0.156431  0.500011  0.186764  1
