# generated using pymatgen
data_Ho6Sc4Al12Rh7
_symmetry_space_group_name_H-M   'P 1'
_cell_length_a   9.10825370
_cell_length_b   9.10825448
_cell_length_c   9.10825300
_cell_angle_alpha   60.00000176
_cell_angle_beta   59.99999891
_cell_angle_gamma   60.00000422
_symmetry_Int_Tables_number   1
_chemical_formula_structural   Ho6Sc4Al12Rh7
_chemical_formula_sum   'Ho6 Sc4 Al12 Rh7'
_cell_volume   534.30640306
_cell_formula_units_Z   1
loop_
 _symmetry_equiv_pos_site_id
 _symmetry_equiv_pos_as_xyz
  1  'x, y, z'
loop_
 _atom_site_type_symbol
 _atom_site_label
 _atom_site_symmetry_multiplicity
 _atom_site_fract_x
 _atom_site_fract_y
 _atom_site_fract_z
 _atom_site_occupancy
  Ho  Ho0  1  0.700530  0.700530  0.299470  1
  Ho  Ho1  1  0.299470  0.700530  0.299470  1
  Ho  Ho2  1  0.700530  0.299470  0.299470  1
  Ho  Ho3  1  0.299470  0.299470  0.700530  1
  Ho  Ho4  1  0.700530  0.299470  0.700530  1
  Ho  Ho5  1  0.299470  0.700530  0.700530  1
  Sc  Sc6  1  0.881624  0.881624  0.355127  1
  Sc  Sc7  1  0.881624  0.355127  0.881624  1
  Sc  Sc8  1  0.355127  0.881624  0.881624  1
  Sc  Sc9  1  0.881624  0.881624  0.881624  1
  Al  Al10  1  0.120765  0.120765  0.637704  1
  Al  Al11  1  0.120765  0.637704  0.120765  1
  Al  Al12  1  0.637704  0.120765  0.120765  1
  Al  Al13  1  0.120765  0.120765  0.120765  1
  Al  Al14  1  0.669418  0.669418  0.991745  1
  Al  Al15  1  0.669418  0.991745  0.669418  1
  Al  Al16  1  0.991745  0.669418  0.669418  1
  Al  Al17  1  0.669418  0.669418  0.669418  1
  Al  Al18  1  0.328871  0.328871  0.013387  1
  Al  Al19  1  0.328871  0.013387  0.328871  1
  Al  Al20  1  0.013387  0.328871  0.328871  1
  Al  Al21  1  0.328871  0.328871  0.328871  1
  Rh  Rh22  1  0.000000  0.000000  0.000000  1
  Rh  Rh23  1  0.001208  0.001208  0.498792  1
  Rh  Rh24  1  0.498792  0.001208  0.498792  1
  Rh  Rh25  1  0.001208  0.498792  0.498792  1
  Rh  Rh26  1  0.498792  0.498792  0.001208  1
  Rh  Rh27  1  0.001208  0.498792  0.001208  1
  Rh  Rh28  1  0.498792  0.001208  0.001208  1
