# generated using pymatgen
data_PmNd(ZnSi)2
_symmetry_space_group_name_H-M   'P 1'
_cell_length_a   5.92161764
_cell_length_b   5.92161745
_cell_length_c   5.92161772
_cell_angle_alpha   138.34163458
_cell_angle_beta   105.37012807
_cell_angle_gamma   89.30241735
_symmetry_Int_Tables_number   1
_chemical_formula_structural   PmNd(ZnSi)2
_chemical_formula_sum   'Pm1 Nd1 Zn2 Si2'
_cell_volume   127.36431777
_cell_formula_units_Z   1
loop_
 _symmetry_equiv_pos_site_id
 _symmetry_equiv_pos_as_xyz
  1  'x, y, z'
loop_
 _atom_site_type_symbol
 _atom_site_label
 _atom_site_symmetry_multiplicity
 _atom_site_fract_x
 _atom_site_fract_y
 _atom_site_fract_z
 _atom_site_occupancy
  Pm  Pm0  1  0.000310  0.000000  0.000310  1
  Nd  Nd1  1  0.500199  0.500000  0.000199  1
  Zn  Zn2  1  0.583127  0.250601  0.332527  1
  Zn  Zn3  1  0.081926  0.749398  0.332527  1
  Si  Si4  1  0.917709  0.250490  0.667219  1
  Si  Si5  1  0.416727  0.749509  0.667218  1
