# generated using pymatgen
data_NaLa2Ge2(PPd5)4
_symmetry_space_group_name_H-M   'P 1'
_cell_length_a   8.71095952
_cell_length_b   8.81853154
_cell_length_c   8.81853032
_cell_angle_alpha   59.19459802
_cell_angle_beta   60.40269567
_cell_angle_gamma   60.40270240
_symmetry_Int_Tables_number   1
_chemical_formula_structural   NaLa2Ge2(PPd5)4
_chemical_formula_sum   'Na1 La2 Ge2 P4 Pd20'
_cell_volume   478.86793865
_cell_formula_units_Z   1
loop_
 _symmetry_equiv_pos_site_id
 _symmetry_equiv_pos_as_xyz
  1  'x, y, z'
loop_
 _atom_site_type_symbol
 _atom_site_label
 _atom_site_symmetry_multiplicity
 _atom_site_fract_x
 _atom_site_fract_y
 _atom_site_fract_z
 _atom_site_occupancy
  Na  Na0  1  0.000000  0.000000  0.000000  1
  La  La1  1  0.250000  0.250000  0.250000  1
  La  La2  1  0.750000  0.750000  0.750000  1
  Ge  Ge3  1  0.739785  0.260215  0.260215  1
  Ge  Ge4  1  0.260215  0.739785  0.739785  1
  P  P5  1  0.262221  0.737779  0.262221  1
  P  P6  1  0.737779  0.262221  0.737779  1
  P  P7  1  0.262221  0.262221  0.737779  1
  P  P8  1  0.737779  0.737779  0.262221  1
  Pd  Pd9  1  0.379854  0.389414  0.389414  1
  Pd  Pd10  1  0.620146  0.610586  0.610586  1
  Pd  Pd11  1  0.389414  0.379854  0.841316  1
  Pd  Pd12  1  0.389414  0.841316  0.379854  1
  Pd  Pd13  1  0.610586  0.620146  0.158684  1
  Pd  Pd14  1  0.610586  0.158684  0.620146  1
  Pd  Pd15  1  0.841316  0.389414  0.389414  1
  Pd  Pd16  1  0.158684  0.610586  0.610586  1
  Pd  Pd17  1  0.344625  0.000000  0.000000  1
  Pd  Pd18  1  0.655375  0.000000  0.000000  1
  Pd  Pd19  1  0.000000  0.344625  0.655375  1
  Pd  Pd20  1  0.000000  0.655375  0.344625  1
  Pd  Pd21  1  0.010823  0.348212  0.989177  1
  Pd  Pd22  1  0.651788  0.989177  0.348212  1
  Pd  Pd23  1  0.989177  0.651788  0.010823  1
  Pd  Pd24  1  0.348212  0.010823  0.651788  1
  Pd  Pd25  1  0.010823  0.989177  0.348212  1
  Pd  Pd26  1  0.989177  0.010823  0.651788  1
  Pd  Pd27  1  0.651788  0.348212  0.989177  1
  Pd  Pd28  1  0.348212  0.651788  0.010823  1
