# generated using pymatgen
data_Zr6InSn5Rh6
_symmetry_space_group_name_H-M   'P 1'
_cell_length_a   7.48054900
_cell_length_b   7.49058349
_cell_length_c   7.17697319
_cell_angle_alpha   90.05611460
_cell_angle_beta   90.00000000
_cell_angle_gamma   119.95569142
_symmetry_Int_Tables_number   1
_chemical_formula_structural   Zr6InSn5Rh6
_chemical_formula_sum   'Zr6 In1 Sn5 Rh6'
_cell_volume   348.42918967
_cell_formula_units_Z   1
loop_
 _symmetry_equiv_pos_site_id
 _symmetry_equiv_pos_as_xyz
  1  'x, y, z'
loop_
 _atom_site_type_symbol
 _atom_site_label
 _atom_site_symmetry_multiplicity
 _atom_site_fract_x
 _atom_site_fract_y
 _atom_site_fract_z
 _atom_site_occupancy
  Zr  Zr0  1  0.596349  0.987294  0.751411  1
  Zr  Zr1  1  0.389557  0.400082  0.752282  1
  Zr  Zr2  1  0.014618  0.611998  0.751289  1
  Zr  Zr3  1  0.609054  0.012706  0.248589  1
  Zr  Zr4  1  0.402620  0.388002  0.248711  1
  Zr  Zr5  1  0.989474  0.599918  0.247718  1
  In  In6  1  0.270285  0.000000  0.000000  1
  Sn  Sn7  1  0.725497  0.725934  0.500099  1
  Sn  Sn8  1  0.999562  0.274066  0.499901  1
  Sn  Sn9  1  0.000791  0.267695  0.000280  1
  Sn  Sn10  1  0.733096  0.732305  0.999720  1
  Sn  Sn11  1  0.271668  0.000000  0.500000  1
  Rh  Rh12  1  0.670471  0.336267  0.974897  1
  Rh  Rh13  1  0.665523  0.332735  0.527457  1
  Rh  Rh14  1  0.334203  0.663733  0.025103  1
  Rh  Rh15  1  0.332786  0.667265  0.472543  1
  Rh  Rh16  1  0.997227  0.000008  0.744637  1
  Rh  Rh17  1  0.997218  0.999992  0.255363  1
