# generated using pymatgen
data_LuU3Ge4P2Ru7
_symmetry_space_group_name_H-M   'P 1'
_cell_length_a   7.15202728
_cell_length_b   7.13148352
_cell_length_c   7.13753751
_cell_angle_alpha   109.22838014
_cell_angle_beta   109.55994038
_cell_angle_gamma   109.52573435
_symmetry_Int_Tables_number   1
_chemical_formula_structural   LuU3Ge4P2Ru7
_chemical_formula_sum   'Lu1 U3 Ge4 P2 Ru7'
_cell_volume   280.58534564
_cell_formula_units_Z   1
loop_
 _symmetry_equiv_pos_site_id
 _symmetry_equiv_pos_as_xyz
  1  'x, y, z'
loop_
 _atom_site_type_symbol
 _atom_site_label
 _atom_site_symmetry_multiplicity
 _atom_site_fract_x
 _atom_site_fract_y
 _atom_site_fract_z
 _atom_site_occupancy
  Lu  Lu0  1  0.000000  0.519899  0.000527  1
  U  U1  1  0.000000  0.999083  0.483220  1
  U  U2  1  0.498384  0.998329  0.001657  1
  U  U3  1  0.501616  0.499945  0.503273  1
  Ge  Ge4  1  0.000000  0.318432  0.305172  1
  Ge  Ge5  1  0.294696  0.303393  0.996626  1
  Ge  Ge6  1  0.705304  0.008696  0.701931  1
  Ge  Ge7  1  0.000000  0.687972  0.685217  1
  P  P8  1  0.678757  0.676154  0.997925  1
  P  P9  1  0.321243  0.997398  0.319169  1
  Ru  Ru10  1  0.744852  0.245310  0.492109  1
  Ru  Ru11  1  0.742464  0.501452  0.246207  1
  Ru  Ru12  1  0.494653  0.248912  0.746627  1
  Ru  Ru13  1  0.255148  0.500458  0.747257  1
  Ru  Ru14  1  0.257536  0.758988  0.503743  1
  Ru  Ru15  1  0.505347  0.754259  0.251974  1
  Ru  Ru16  1  0.000000  0.981320  0.017367  1
