# generated using pymatgen
data_Ca5TlPd2
_symmetry_space_group_name_H-M   'P 1'
_cell_length_a   9.24188340
_cell_length_b   9.24188308
_cell_length_c   9.24188300
_cell_angle_alpha   128.99334342
_cell_angle_beta   128.99333381
_cell_angle_gamma   75.02128837
_symmetry_Int_Tables_number   1
_chemical_formula_structural   Ca5TlPd2
_chemical_formula_sum   'Ca10 Tl2 Pd4'
_cell_volume   464.32353607
_cell_formula_units_Z   2
loop_
 _symmetry_equiv_pos_site_id
 _symmetry_equiv_pos_as_xyz
  1  'x, y, z'
loop_
 _atom_site_type_symbol
 _atom_site_label
 _atom_site_symmetry_multiplicity
 _atom_site_fract_x
 _atom_site_fract_y
 _atom_site_fract_z
 _atom_site_occupancy
  Ca  Ca0  1  0.532984  0.032984  0.835142  1
  Ca  Ca1  1  0.197843  0.697843  0.164858  1
  Ca  Ca2  1  0.032984  0.197843  0.500000  1
  Ca  Ca3  1  0.697843  0.532984  0.500000  1
  Ca  Ca4  1  0.467016  0.967016  0.164858  1
  Ca  Ca5  1  0.802157  0.302157  0.835142  1
  Ca  Ca6  1  0.967016  0.802157  0.500000  1
  Ca  Ca7  1  0.302157  0.467016  0.500000  1
  Ca  Ca8  1  0.500000  0.500000  0.000000  1
  Ca  Ca9  1  0.000000  0.000000  0.000000  1
  Tl  Tl10  1  0.250000  0.250000  0.000000  1
  Tl  Tl11  1  0.750000  0.750000  0.000000  1
  Pd  Pd12  1  0.626452  0.873548  0.500000  1
  Pd  Pd13  1  0.373548  0.126452  0.500000  1
  Pd  Pd14  1  0.126452  0.626452  0.752905  1
  Pd  Pd15  1  0.873548  0.373548  0.247095  1
