# generated using pymatgen
data_Pr6IrPd6Au
_symmetry_space_group_name_H-M   'P 1'
_cell_length_a   8.22096305
_cell_length_b   8.21592162
_cell_length_c   8.24992190
_cell_angle_alpha   114.46474910
_cell_angle_beta   114.59265894
_cell_angle_gamma   114.23796067
_symmetry_Int_Tables_number   1
_chemical_formula_structural   Pr6IrPd6Au
_chemical_formula_sum   'Pr6 Ir1 Pd6 Au1'
_cell_volume   327.41828794
_cell_formula_units_Z   1
loop_
 _symmetry_equiv_pos_site_id
 _symmetry_equiv_pos_as_xyz
  1  'x, y, z'
loop_
 _atom_site_type_symbol
 _atom_site_label
 _atom_site_symmetry_multiplicity
 _atom_site_fract_x
 _atom_site_fract_y
 _atom_site_fract_z
 _atom_site_occupancy
  Pr  Pr0  1  0.399433  0.024524  0.271125  1
  Pr  Pr1  1  0.020911  0.275379  0.392976  1
  Pr  Pr2  1  0.277253  0.398606  0.027590  1
  Pr  Pr3  1  0.603524  0.973200  0.725727  1
  Pr  Pr4  1  0.969082  0.721421  0.607437  1
  Pr  Pr5  1  0.730609  0.610428  0.975061  1
  Ir  Ir6  1  0.004192  0.005481  0.004360  1
  Pd  Pd7  1  0.496623  0.498353  0.497795  1
  Pd  Pd8  1  0.057848  0.554741  0.221576  1
  Pd  Pd9  1  0.558604  0.223752  0.061332  1
  Pd  Pd10  1  0.777164  0.942655  0.444752  1
  Pd  Pd11  1  0.939230  0.440701  0.775979  1
  Pd  Pd12  1  0.441909  0.773369  0.937348  1
  Au  Au13  1  0.223618  0.057390  0.556941  1
