# generated using pymatgen
data_RbSrPO4
_symmetry_space_group_name_H-M   'P 1'
_cell_length_a   5.69438700
_cell_length_b   7.60358700
_cell_length_c   9.91486700
_cell_angle_alpha   90.00000000
_cell_angle_beta   90.00000000
_cell_angle_gamma   90.00000000
_symmetry_Int_Tables_number   1
_chemical_formula_structural   RbSrPO4
_chemical_formula_sum   'Rb4 Sr4 P4 O16'
_cell_volume   429.29160087
_cell_formula_units_Z   4
loop_
 _symmetry_equiv_pos_site_id
 _symmetry_equiv_pos_as_xyz
  1  'x, y, z'
loop_
 _atom_site_type_symbol
 _atom_site_label
 _atom_site_symmetry_multiplicity
 _atom_site_fract_x
 _atom_site_fract_y
 _atom_site_fract_z
 _atom_site_occupancy
  Rb  Rb0  1  0.250000  0.651510  0.084959  1
  Rb  Rb1  1  0.750000  0.848490  0.584959  1
  Rb  Rb2  1  0.750000  0.348490  0.915041  1
  Rb  Rb3  1  0.250000  0.151510  0.415041  1
  Sr  Sr4  1  0.750000  0.496868  0.307070  1
  Sr  Sr5  1  0.750000  0.996868  0.192930  1
  Sr  Sr6  1  0.250000  0.003132  0.807070  1
  Sr  Sr7  1  0.250000  0.503132  0.692930  1
  P  P8  1  0.250000  0.222906  0.084042  1
  P  P9  1  0.750000  0.777094  0.915958  1
  P  P10  1  0.250000  0.722906  0.415958  1
  P  P11  1  0.750000  0.277094  0.584042  1
  O  O12  1  0.250000  0.518921  0.426251  1
  O  O13  1  0.750000  0.481079  0.573749  1
  O  O14  1  0.250000  0.018921  0.073749  1
  O  O15  1  0.750000  0.981079  0.926251  1
  O  O16  1  0.523965  0.716300  0.838982  1
  O  O17  1  0.023965  0.283700  0.161018  1
  O  O18  1  0.976035  0.216300  0.661018  1
  O  O19  1  0.476035  0.783700  0.338982  1
  O  O20  1  0.476035  0.283700  0.161018  1
  O  O21  1  0.976035  0.716300  0.838982  1
  O  O22  1  0.023965  0.783700  0.338982  1
  O  O23  1  0.523965  0.216300  0.661018  1
  O  O24  1  0.750000  0.199289  0.437318  1
  O  O25  1  0.250000  0.800711  0.562682  1
  O  O26  1  0.750000  0.699289  0.062682  1
  O  O27  1  0.250000  0.300711  0.937318  1
