# generated using pymatgen
data_Ho5Mg3Ir4
_symmetry_space_group_name_H-M   'P 1'
_cell_length_a   4.16903900
_cell_length_b   7.11559585
_cell_length_c   8.64808438
_cell_angle_alpha   89.11040491
_cell_angle_beta   90.00000000
_cell_angle_gamma   90.00000000
_symmetry_Int_Tables_number   1
_chemical_formula_structural   Ho5Mg3Ir4
_chemical_formula_sum   'Ho5 Mg3 Ir4'
_cell_volume   256.51620123
_cell_formula_units_Z   1
loop_
 _symmetry_equiv_pos_site_id
 _symmetry_equiv_pos_as_xyz
  1  'x, y, z'
loop_
 _atom_site_type_symbol
 _atom_site_label
 _atom_site_symmetry_multiplicity
 _atom_site_fract_x
 _atom_site_fract_y
 _atom_site_fract_z
 _atom_site_occupancy
  Ho  Ho0  1  0.250000  0.543863  0.162204  1
  Ho  Ho1  1  0.750000  0.468809  0.830817  1
  Ho  Ho2  1  0.250000  0.022495  0.319615  1
  Ho  Ho3  1  0.750000  0.954305  0.679440  1
  Ho  Ho4  1  0.750000  0.365147  0.440554  1
  Mg  Mg5  1  0.250000  0.133943  0.942763  1
  Mg  Mg6  1  0.750000  0.864229  0.058778  1
  Mg  Mg7  1  0.250000  0.648581  0.565769  1
  Ir  Ir8  1  0.750000  0.751491  0.371699  1
  Ir  Ir9  1  0.250000  0.242796  0.628955  1
  Ir  Ir10  1  0.750000  0.250596  0.126580  1
  Ir  Ir11  1  0.250000  0.753744  0.872826  1
