# generated using pymatgen
data_ReOF36
_symmetry_space_group_name_H-M   'P 1'
_cell_length_a   6.51003172
_cell_length_b   10.28210834
_cell_length_c   11.01715277
_cell_angle_alpha   91.12409282
_cell_angle_beta   101.76560427
_cell_angle_gamma   72.28550507
_symmetry_Int_Tables_number   1
_chemical_formula_structural   ReOF36
_chemical_formula_sum   'Re1 O1 F36'
_cell_volume   687.01549338
_cell_formula_units_Z   1
loop_
 _symmetry_equiv_pos_site_id
 _symmetry_equiv_pos_as_xyz
  1  'x, y, z'
loop_
 _atom_site_type_symbol
 _atom_site_label
 _atom_site_symmetry_multiplicity
 _atom_site_fract_x
 _atom_site_fract_y
 _atom_site_fract_z
 _atom_site_occupancy
  Re  Re0  1  0.285293  0.202800  0.155647  1
  O  O1  1  0.735014  0.798994  0.737966  1
  F  F2  1  0.322846  0.418827  0.881609  1
  F  F3  1  0.676455  0.609388  0.075137  1
  F  F4  1  0.308334  0.240149  0.581168  1
  F  F5  1  0.696543  0.723263  0.436761  1
  F  F6  1  0.891725  0.216145  0.824112  1
  F  F7  1  0.124195  0.783324  0.191824  1
  F  F8  1  0.681314  0.891974  0.011612  1
  F  F9  1  0.310060  0.153915  0.994558  1
  F  F10  1  0.785067  0.632840  0.852503  1
  F  F11  1  0.236279  0.385666  0.101954  1
  F  F12  1  0.451534  0.442611  0.799097  1
  F  F13  1  0.575093  0.571446  0.166219  1
  F  F14  1  0.758819  0.607190  0.676184  1
  F  F15  1  0.250593  0.274888  0.308834  1
  F  F16  1  0.753865  0.014460  0.526496  1
  F  F17  1  0.239238  0.005656  0.470428  1
  F  F18  1  0.304751  0.183998  0.697710  1
  F  F19  1  0.739403  0.784249  0.333254  1
  F  F20  1  0.818743  0.085552  0.633310  1
  F  F21  1  0.186058  0.908989  0.384371  1
  F  F22  1  0.784435  0.984872  0.975460  1
  F  F23  1  0.159201  0.058740  0.146110  1
  F  F24  1  0.898127  0.349508  0.795600  1
  F  F25  1  0.115055  0.646775  0.195821  1
  F  F26  1  0.167660  0.723211  0.916561  1
  F  F27  1  0.977133  0.283306  0.108965  1
  F  F28  1  0.526260  0.883676  0.717016  1
  F  F29  1  0.490483  0.056175  0.258462  1
  F  F30  1  0.113350  0.771824  0.585906  1
  F  F31  1  0.862197  0.246520  0.413693  1
  F  F32  1  0.218383  0.648330  0.660852  1
  F  F33  1  0.795701  0.374537  0.345960  1
  F  F34  1  0.269974  0.824665  0.901161  1
  F  F35  1  0.565691  0.223318  0.163080  1
  F  F36  1  0.485963  0.433039  0.523983  1
  F  F37  1  0.439164  0.555181  0.450617  1
