# generated using pymatgen
data_NdTh2(AlPd)3
_symmetry_space_group_name_H-M   'P 1'
_cell_length_a   7.34618406
_cell_length_b   7.34618455
_cell_length_c   4.18825500
_cell_angle_alpha   90.00000000
_cell_angle_beta   90.00000000
_cell_angle_gamma   120.39237492
_symmetry_Int_Tables_number   1
_chemical_formula_structural   NdTh2(AlPd)3
_chemical_formula_sum   'Nd1 Th2 Al3 Pd3'
_cell_volume   194.96499667
_cell_formula_units_Z   1
loop_
 _symmetry_equiv_pos_site_id
 _symmetry_equiv_pos_as_xyz
  1  'x, y, z'
loop_
 _atom_site_type_symbol
 _atom_site_label
 _atom_site_symmetry_multiplicity
 _atom_site_fract_x
 _atom_site_fract_y
 _atom_site_fract_z
 _atom_site_occupancy
  Nd  Nd0  1  0.418051  0.418051  0.500000  1
  Th  Th1  1  0.580904  0.000414  0.500000  1
  Th  Th2  1  0.000414  0.580904  0.500000  1
  Al  Al3  1  0.767387  0.767387  0.000000  1
  Al  Al4  1  0.231219  0.001551  0.000000  1
  Al  Al5  1  0.001551  0.231219  0.000000  1
  Pd  Pd6  1  0.674307  0.331497  0.000000  1
  Pd  Pd7  1  0.331497  0.674307  0.000000  1
  Pd  Pd8  1  0.994670  0.994670  0.500000  1
