# generated using pymatgen
data_Zr6Zn21CuSiPt
_symmetry_space_group_name_H-M   'P 1'
_cell_length_a   8.75714747
_cell_length_b   8.75028082
_cell_length_c   8.75028179
_cell_angle_alpha   60.25862183
_cell_angle_beta   59.97394869
_cell_angle_gamma   59.97393462
_symmetry_Int_Tables_number   1
_chemical_formula_structural   Zr6Zn21CuSiPt
_chemical_formula_sum   'Zr6 Zn21 Cu1 Si1 Pt1'
_cell_volume   474.85554509
_cell_formula_units_Z   1
loop_
 _symmetry_equiv_pos_site_id
 _symmetry_equiv_pos_as_xyz
  1  'x, y, z'
loop_
 _atom_site_type_symbol
 _atom_site_label
 _atom_site_symmetry_multiplicity
 _atom_site_fract_x
 _atom_site_fract_y
 _atom_site_fract_z
 _atom_site_occupancy
  Zr  Zr0  1  0.713139  0.286860  0.286860  1
  Zr  Zr1  1  0.286861  0.713140  0.713140  1
  Zr  Zr2  1  0.287714  0.711102  0.288898  1
  Zr  Zr3  1  0.712286  0.288898  0.711102  1
  Zr  Zr4  1  0.287714  0.288898  0.711102  1
  Zr  Zr5  1  0.712286  0.711102  0.288898  1
  Zn  Zn6  1  0.129263  0.120057  0.120057  1
  Zn  Zn7  1  0.870737  0.879943  0.879943  1
  Zn  Zn8  1  0.122983  0.122512  0.631522  1
  Zn  Zn9  1  0.122983  0.631522  0.122512  1
  Zn  Zn10  1  0.877017  0.877488  0.368478  1
  Zn  Zn11  1  0.877017  0.368478  0.877488  1
  Zn  Zn12  1  0.630623  0.120057  0.120057  1
  Zn  Zn13  1  0.369377  0.879943  0.879943  1
  Zn  Zn14  1  0.000000  0.500000  0.500000  1
  Zn  Zn15  1  0.000000  0.500000  0.000000  1
  Zn  Zn16  1  0.500000  0.000000  0.500000  1
  Zn  Zn17  1  0.000000  0.000000  0.500000  1
  Zn  Zn18  1  0.500000  0.500000  0.000000  1
  Zn  Zn19  1  0.338566  0.337184  0.337184  1
  Zn  Zn20  1  0.661434  0.662816  0.662816  1
  Zn  Zn21  1  0.340330  0.332806  0.986535  1
  Zn  Zn22  1  0.340330  0.986535  0.332806  1
  Zn  Zn23  1  0.659670  0.667194  0.013465  1
  Zn  Zn24  1  0.659670  0.013465  0.667194  1
  Zn  Zn25  1  0.987066  0.337184  0.337184  1
  Zn  Zn26  1  0.012934  0.662816  0.662816  1
  Cu  Cu27  1  0.500000  0.000000  0.000000  1
  Si  Si28  1  0.500000  0.500000  0.500000  1
  Pt  Pt29  1  0.000000  0.000000  0.000000  1
