# generated using pymatgen
data_Zr2Pa2MnCo
_symmetry_space_group_name_H-M   'P 1'
_cell_length_a   5.06520673
_cell_length_b   5.06520731
_cell_length_c   5.64574145
_cell_angle_alpha   105.52175541
_cell_angle_beta   105.52173911
_cell_angle_gamma   113.79404041
_symmetry_Int_Tables_number   1
_chemical_formula_structural   Zr2Pa2MnCo
_chemical_formula_sum   'Zr2 Pa2 Mn1 Co1'
_cell_volume   115.53648968
_cell_formula_units_Z   1
loop_
 _symmetry_equiv_pos_site_id
 _symmetry_equiv_pos_as_xyz
  1  'x, y, z'
loop_
 _atom_site_type_symbol
 _atom_site_label
 _atom_site_symmetry_multiplicity
 _atom_site_fract_x
 _atom_site_fract_y
 _atom_site_fract_z
 _atom_site_occupancy
  Zr  Zr0  1  0.081550  0.918450  0.500000  1
  Zr  Zr1  1  0.418450  0.581550  0.500000  1
  Pa  Pa2  1  0.915543  0.415543  0.831085  1
  Pa  Pa3  1  0.584457  0.084457  0.168915  1
  Mn  Mn4  1  0.000000  0.000000  0.000000  1
  Co  Co5  1  0.500000  0.500000  0.000000  1
