# generated using pymatgen
data_Pr7Nd(ErPb4)2
_symmetry_space_group_name_H-M   'P 1'
_cell_length_a   8.39145300
_cell_length_b   8.52884288
_cell_length_c   16.25135252
_cell_angle_alpha   89.98840234
_cell_angle_beta   90.00000000
_cell_angle_gamma   90.00000000
_symmetry_Int_Tables_number   1
_chemical_formula_structural   Pr7Nd(ErPb4)2
_chemical_formula_sum   'Pr14 Nd2 Er4 Pb16'
_cell_volume   1163.09926782
_cell_formula_units_Z   2
loop_
 _symmetry_equiv_pos_site_id
 _symmetry_equiv_pos_as_xyz
  1  'x, y, z'
loop_
 _atom_site_type_symbol
 _atom_site_label
 _atom_site_symmetry_multiplicity
 _atom_site_fract_x
 _atom_site_fract_y
 _atom_site_fract_z
 _atom_site_occupancy
  Pr  Pr0  1  0.367545  0.843450  0.118823  1
  Pr  Pr1  1  0.867545  0.656550  0.381177  1
  Pr  Pr2  1  0.370580  0.841237  0.379878  1
  Pr  Pr3  1  0.870580  0.658763  0.120122  1
  Pr  Pr4  1  0.629031  0.157227  0.880338  1
  Pr  Pr5  1  0.129031  0.342773  0.619662  1
  Pr  Pr6  1  0.472634  0.678820  0.599136  1
  Pr  Pr7  1  0.972634  0.821180  0.900864  1
  Pr  Pr8  1  0.526747  0.321113  0.098507  1
  Pr  Pr9  1  0.026747  0.178887  0.401493  1
  Pr  Pr10  1  0.524663  0.319178  0.402089  1
  Pr  Pr11  1  0.024663  0.180822  0.097911  1
  Pr  Pr12  1  0.475261  0.677890  0.900487  1
  Pr  Pr13  1  0.975261  0.822110  0.599513  1
  Nd  Nd14  1  0.632748  0.156195  0.622146  1
  Nd  Nd15  1  0.132748  0.343805  0.877854  1
  Er  Er16  1  0.798749  0.496380  0.750273  1
  Er  Er17  1  0.298749  0.003620  0.749727  1
  Er  Er18  1  0.200968  0.503776  0.249308  1
  Er  Er19  1  0.700968  0.996224  0.250692  1
  Pb  Pb20  1  0.713127  0.967108  0.456500  1
  Pb  Pb21  1  0.213127  0.532892  0.043500  1
  Pb  Pb22  1  0.283917  0.036239  0.953152  1
  Pb  Pb23  1  0.783917  0.463761  0.546848  1
  Pb  Pb24  1  0.291873  0.035534  0.546165  1
  Pb  Pb25  1  0.791873  0.464466  0.953835  1
  Pb  Pb26  1  0.712105  0.966619  0.046262  1
  Pb  Pb27  1  0.212105  0.533381  0.453738  1
  Pb  Pb28  1  0.437431  0.376736  0.749324  1
  Pb  Pb29  1  0.937431  0.123264  0.750676  1
  Pb  Pb30  1  0.562649  0.623573  0.249052  1
  Pb  Pb31  1  0.062649  0.876427  0.250948  1
  Pb  Pb32  1  0.664171  0.844268  0.750145  1
  Pb  Pb33  1  0.164171  0.655732  0.749855  1
  Pb  Pb34  1  0.335800  0.155805  0.249548  1
  Pb  Pb35  1  0.835800  0.344195  0.250452  1
