# generated using pymatgen
data_TbHo3CdPt
_symmetry_space_group_name_H-M   'P 1'
_cell_length_a   9.68156368
_cell_length_b   9.68156414
_cell_length_c   9.68156400
_cell_angle_alpha   60.00000047
_cell_angle_beta   59.99999890
_cell_angle_gamma   59.99999887
_symmetry_Int_Tables_number   1
_chemical_formula_structural   TbHo3CdPt
_chemical_formula_sum   'Tb4 Ho12 Cd4 Pt4'
_cell_volume   641.68450194
_cell_formula_units_Z   4
loop_
 _symmetry_equiv_pos_site_id
 _symmetry_equiv_pos_as_xyz
  1  'x, y, z'
loop_
 _atom_site_type_symbol
 _atom_site_label
 _atom_site_symmetry_multiplicity
 _atom_site_fract_x
 _atom_site_fract_y
 _atom_site_fract_z
 _atom_site_occupancy
  Tb  Tb0  1  0.602385  0.602385  0.602385  1
  Tb  Tb1  1  0.602385  0.602385  0.192845  1
  Tb  Tb2  1  0.602385  0.192845  0.602385  1
  Tb  Tb3  1  0.192845  0.602385  0.602385  1
  Ho  Ho4  1  0.060597  0.439403  0.439403  1
  Ho  Ho5  1  0.439403  0.060597  0.060597  1
  Ho  Ho6  1  0.439403  0.060597  0.439403  1
  Ho  Ho7  1  0.060597  0.439403  0.060597  1
  Ho  Ho8  1  0.439403  0.439403  0.060597  1
  Ho  Ho9  1  0.060597  0.060597  0.439403  1
  Ho  Ho10  1  0.184850  0.815150  0.815150  1
  Ho  Ho11  1  0.815150  0.184850  0.184850  1
  Ho  Ho12  1  0.815150  0.184850  0.815150  1
  Ho  Ho13  1  0.184850  0.815150  0.184850  1
  Ho  Ho14  1  0.815150  0.815150  0.184850  1
  Ho  Ho15  1  0.184850  0.184850  0.815150  1
  Cd  Cd16  1  0.832033  0.832033  0.832033  1
  Cd  Cd17  1  0.832033  0.832033  0.503902  1
  Cd  Cd18  1  0.832033  0.503902  0.832033  1
  Cd  Cd19  1  0.503902  0.832033  0.832033  1
  Pt  Pt20  1  0.392720  0.392720  0.392720  1
  Pt  Pt21  1  0.392720  0.392720  0.821840  1
  Pt  Pt22  1  0.392720  0.821840  0.392720  1
  Pt  Pt23  1  0.821840  0.392720  0.392720  1
