# generated using pymatgen
data_Zr7Nb3Sn6As
_symmetry_space_group_name_H-M   'P 1'
_cell_length_a   5.77040800
_cell_length_b   8.52772842
_cell_length_c   8.52778300
_cell_angle_alpha   119.99971037
_cell_angle_beta   89.99975640
_cell_angle_gamma   90.00010352
_symmetry_Int_Tables_number   1
_chemical_formula_structural   Zr7Nb3Sn6As
_chemical_formula_sum   'Zr7 Nb3 Sn6 As1'
_cell_volume   363.41924521
_cell_formula_units_Z   1
loop_
 _symmetry_equiv_pos_site_id
 _symmetry_equiv_pos_as_xyz
  1  'x, y, z'
loop_
 _atom_site_type_symbol
 _atom_site_label
 _atom_site_symmetry_multiplicity
 _atom_site_fract_x
 _atom_site_fract_y
 _atom_site_fract_z
 _atom_site_occupancy
  Zr  Zr0  1  0.000000  0.333333  0.666668  1
  Zr  Zr1  1  0.764083  0.256432  0.000375  1
  Zr  Zr2  1  0.764082  0.743944  0.743568  1
  Zr  Zr3  1  0.764081  0.999626  0.256057  1
  Zr  Zr4  1  0.235917  0.743944  0.000375  1
  Zr  Zr5  1  0.235920  0.256431  0.256057  1
  Zr  Zr6  1  0.235918  0.999625  0.743569  1
  Nb  Nb7  1  0.500000  0.333334  0.666668  1
  Nb  Nb8  1  0.500000  0.666666  0.333333  1
  Nb  Nb9  1  0.000000  0.666666  0.333332  1
  Sn  Sn10  1  0.743981  0.606885  0.002448  1
  Sn  Sn11  1  0.743982  0.395567  0.393118  1
  Sn  Sn12  1  0.743981  0.997551  0.604433  1
  Sn  Sn13  1  0.256019  0.395564  0.002448  1
  Sn  Sn14  1  0.256019  0.606882  0.604434  1
  Sn  Sn15  1  0.256019  0.997553  0.393117  1
  As  As16  1  0.500000  0.000000  0.000000  1
