# generated using pymatgen
data_YbGaF5
_symmetry_space_group_name_H-M   'P 1'
_cell_length_a   5.47362392
_cell_length_b   5.47362175
_cell_length_c   7.59780169
_cell_angle_alpha   110.15126849
_cell_angle_beta   110.15126463
_cell_angle_gamma   71.14447154
_symmetry_Int_Tables_number   1
_chemical_formula_structural   YbGaF5
_chemical_formula_sum   'Yb2 Ga2 F10'
_cell_volume   195.14291398
_cell_formula_units_Z   2
loop_
 _symmetry_equiv_pos_site_id
 _symmetry_equiv_pos_as_xyz
  1  'x, y, z'
loop_
 _atom_site_type_symbol
 _atom_site_label
 _atom_site_symmetry_multiplicity
 _atom_site_fract_x
 _atom_site_fract_y
 _atom_site_fract_z
 _atom_site_occupancy
  Yb  Yb0  1  0.546340  0.453661  0.250001  1
  Yb  Yb1  1  0.453660  0.546340  0.750001  1
  Ga  Ga2  1  0.000000  0.000000  0.000000  1
  Ga  Ga3  1  0.000000  0.000000  0.500000  1
  F  F4  1  0.273998  0.677716  0.024623  1
  F  F5  1  0.265973  0.191452  0.120374  1
  F  F6  1  0.917140  0.082861  0.250001  1
  F  F7  1  0.808548  0.734026  0.379626  1
  F  F8  1  0.322283  0.726001  0.475377  1
  F  F9  1  0.677716  0.273998  0.524623  1
  F  F10  1  0.191452  0.265974  0.620374  1
  F  F11  1  0.082861  0.917140  0.750001  1
  F  F12  1  0.734027  0.808549  0.879626  1
  F  F13  1  0.726002  0.322284  0.975377  1
