# generated using pymatgen
data_Sm4CrB16W3
_symmetry_space_group_name_H-M   'P 1'
_cell_length_a   3.63394600
_cell_length_b   6.07396283
_cell_length_c   11.74489353
_cell_angle_alpha   89.91107239
_cell_angle_beta   90.00000000
_cell_angle_gamma   90.00000000
_symmetry_Int_Tables_number   1
_chemical_formula_structural   Sm4CrB16W3
_chemical_formula_sum   'Sm4 Cr1 B16 W3'
_cell_volume   259.23829747
_cell_formula_units_Z   1
loop_
 _symmetry_equiv_pos_site_id
 _symmetry_equiv_pos_as_xyz
  1  'x, y, z'
loop_
 _atom_site_type_symbol
 _atom_site_label
 _atom_site_symmetry_multiplicity
 _atom_site_fract_x
 _atom_site_fract_y
 _atom_site_fract_z
 _atom_site_occupancy
  Sm  Sm0  1  0.000000  0.625376  0.351858  1
  Sm  Sm1  1  0.000000  0.377285  0.649187  1
  Sm  Sm2  1  0.000000  0.125441  0.150872  1
  Sm  Sm3  1  0.000000  0.874482  0.846699  1
  Cr  Cr4  1  0.000000  0.874784  0.580708  1
  B  B5  1  0.500000  0.783515  0.186502  1
  B  B6  1  0.500000  0.215445  0.812888  1
  B  B7  1  0.500000  0.282780  0.315254  1
  B  B8  1  0.500000  0.722348  0.681831  1
  B  B9  1  0.500000  0.864934  0.031978  1
  B  B10  1  0.500000  0.134930  0.967394  1
  B  B11  1  0.500000  0.364116  0.469208  1
  B  B12  1  0.500000  0.639623  0.533799  1
  B  B13  1  0.500000  0.884311  0.456484  1
  B  B14  1  0.500000  0.108845  0.548854  1
  B  B15  1  0.500000  0.386739  0.046258  1
  B  B16  1  0.500000  0.613422  0.952940  1
  B  B17  1  0.500000  0.973548  0.309379  1
  B  B18  1  0.500000  0.021963  0.689958  1
  B  B19  1  0.500000  0.474089  0.192378  1
  B  B20  1  0.500000  0.526866  0.806852  1
  W  W21  1  0.000000  0.629167  0.084141  1
  W  W22  1  0.000000  0.370976  0.915141  1
  W  W23  1  0.000000  0.125013  0.419437  1
