# generated using pymatgen
data_Y3Ho17(Cd3Tc)2
_symmetry_space_group_name_H-M   'P 1'
_cell_length_a   9.52491600
_cell_length_b   9.52491581
_cell_length_c   9.91884700
_cell_angle_alpha   90.00000000
_cell_angle_beta   90.00000000
_cell_angle_gamma   120.00000068
_symmetry_Int_Tables_number   1
_chemical_formula_structural   Y3Ho17(Cd3Tc)2
_chemical_formula_sum   'Y3 Ho17 Cd6 Tc2'
_cell_volume   779.31694568
_cell_formula_units_Z   1
loop_
 _symmetry_equiv_pos_site_id
 _symmetry_equiv_pos_as_xyz
  1  'x, y, z'
loop_
 _atom_site_type_symbol
 _atom_site_label
 _atom_site_symmetry_multiplicity
 _atom_site_fract_x
 _atom_site_fract_y
 _atom_site_fract_z
 _atom_site_occupancy
  Y  Y0  1  0.460402  0.539598  0.750000  1
  Y  Y1  1  0.460402  0.920804  0.750000  1
  Y  Y2  1  0.079196  0.539598  0.750000  1
  Ho  Ho3  1  0.000000  0.000000  0.500038  1
  Ho  Ho4  1  0.000000  0.000000  0.999962  1
  Ho  Ho5  1  0.210045  0.789955  0.440828  1
  Ho  Ho6  1  0.210045  0.420090  0.440828  1
  Ho  Ho7  1  0.579910  0.789955  0.440828  1
  Ho  Ho8  1  0.789918  0.210082  0.558812  1
  Ho  Ho9  1  0.789918  0.579837  0.558812  1
  Ho  Ho10  1  0.420163  0.210082  0.558812  1
  Ho  Ho11  1  0.789918  0.210082  0.941188  1
  Ho  Ho12  1  0.789918  0.579837  0.941188  1
  Ho  Ho13  1  0.420163  0.210082  0.941188  1
  Ho  Ho14  1  0.210045  0.789955  0.059172  1
  Ho  Ho15  1  0.210045  0.420090  0.059172  1
  Ho  Ho16  1  0.579910  0.789955  0.059172  1
  Ho  Ho17  1  0.539587  0.460413  0.250000  1
  Ho  Ho18  1  0.539587  0.079174  0.250000  1
  Ho  Ho19  1  0.920826  0.460413  0.250000  1
  Cd  Cd20  1  0.885510  0.114490  0.250000  1
  Cd  Cd21  1  0.885510  0.771021  0.250000  1
  Cd  Cd22  1  0.228979  0.114490  0.250000  1
  Cd  Cd23  1  0.114325  0.885675  0.750000  1
  Cd  Cd24  1  0.114325  0.228649  0.750000  1
  Cd  Cd25  1  0.771351  0.885675  0.750000  1
  Tc  Tc26  1  0.333333  0.666667  0.250000  1
  Tc  Tc27  1  0.666667  0.333333  0.750000  1
