# generated using pymatgen
data_Er2HfZr5F30
_symmetry_space_group_name_H-M   'P 1'
_cell_length_a   8.18237947
_cell_length_b   8.18237850
_cell_length_c   8.17630903
_cell_angle_alpha   79.77769498
_cell_angle_beta   79.77769724
_cell_angle_gamma   100.15298485
_symmetry_Int_Tables_number   1
_chemical_formula_structural   Er2HfZr5F30
_chemical_formula_sum   'Er2 Hf1 Zr5 F30'
_cell_volume   517.83034181
_cell_formula_units_Z   1
loop_
 _symmetry_equiv_pos_site_id
 _symmetry_equiv_pos_as_xyz
  1  'x, y, z'
loop_
 _atom_site_type_symbol
 _atom_site_label
 _atom_site_symmetry_multiplicity
 _atom_site_fract_x
 _atom_site_fract_y
 _atom_site_fract_z
 _atom_site_occupancy
  Er  Er0  1  0.677509  0.322491  0.750000  1
  Er  Er1  1  0.322364  0.677636  0.250000  1
  Hf  Hf2  1  0.251073  0.748927  0.750000  1
  Zr  Zr3  1  0.748818  0.251182  0.250000  1
  Zr  Zr4  1  0.822455  0.750921  0.325400  1
  Zr  Zr5  1  0.249079  0.177545  0.174600  1
  Zr  Zr6  1  0.177563  0.249040  0.674612  1
  Zr  Zr7  1  0.750960  0.822437  0.825388  1
  F  F8  1  0.150436  0.183341  0.946767  1
  F  F9  1  0.686693  0.562910  0.847754  1
  F  F10  1  0.041244  0.655724  0.316262  1
  F  F11  1  0.655717  0.040986  0.816384  1
  F  F12  1  0.562660  0.686518  0.347781  1
  F  F13  1  0.183173  0.150399  0.447067  1
  F  F14  1  0.849601  0.816827  0.052933  1
  F  F15  1  0.313482  0.437340  0.152219  1
  F  F16  1  0.959014  0.344283  0.683616  1
  F  F17  1  0.344276  0.958756  0.183738  1
  F  F18  1  0.437090  0.313307  0.652246  1
  F  F19  1  0.816659  0.849564  0.553233  1
  F  F20  1  0.966745  0.033255  0.750000  1
  F  F21  1  0.543990  0.752267  0.029557  1
  F  F22  1  0.247733  0.456010  0.470443  1
  F  F23  1  0.456079  0.247746  0.970438  1
  F  F24  1  0.752254  0.543921  0.529562  1
  F  F25  1  0.033232  0.966768  0.250000  1
  F  F26  1  0.220973  0.725050  0.001678  1
  F  F27  1  0.223820  0.494705  0.780095  1
  F  F28  1  0.995790  0.724173  0.776784  1
  F  F29  1  0.723885  0.992678  0.277090  1
  F  F30  1  0.491395  0.223476  0.280508  1
  F  F31  1  0.724797  0.220476  0.504803  1
  F  F32  1  0.779524  0.275203  0.995197  1
  F  F33  1  0.776524  0.508605  0.219492  1
  F  F34  1  0.007322  0.276115  0.222910  1
  F  F35  1  0.275827  0.004210  0.723216  1
  F  F36  1  0.505295  0.776180  0.719905  1
  F  F37  1  0.274950  0.779027  0.498322  1
