# generated using pymatgen
data_SmY7In3Os
_symmetry_space_group_name_H-M   'P 1'
_cell_length_a   10.43300300
_cell_length_b   10.43864199
_cell_length_c   7.14763668
_cell_angle_alpha   90.06789210
_cell_angle_beta   90.00000000
_cell_angle_gamma   119.98213498
_symmetry_Int_Tables_number   1
_chemical_formula_structural   SmY7In3Os
_chemical_formula_sum   'Sm2 Y14 In6 Os2'
_cell_volume   674.25501108
_cell_formula_units_Z   2
loop_
 _symmetry_equiv_pos_site_id
 _symmetry_equiv_pos_as_xyz
  1  'x, y, z'
loop_
 _atom_site_type_symbol
 _atom_site_label
 _atom_site_symmetry_multiplicity
 _atom_site_fract_x
 _atom_site_fract_y
 _atom_site_fract_z
 _atom_site_occupancy
  Sm  Sm0  1  0.466789  0.533643  0.480693  1
  Sm  Sm1  1  0.066854  0.533643  0.480693  1
  Y  Y2  1  0.466549  0.933098  0.479855  1
  Y  Y3  1  0.534154  0.465955  0.980261  1
  Y  Y4  1  0.931801  0.465955  0.980261  1
  Y  Y5  1  0.533903  0.067805  0.979977  1
  Y  Y6  1  0.822601  0.176788  0.275221  1
  Y  Y7  1  0.354186  0.176788  0.275221  1
  Y  Y8  1  0.823007  0.646015  0.275037  1
  Y  Y9  1  0.177255  0.823136  0.775991  1
  Y  Y10  1  0.645883  0.823136  0.775991  1
  Y  Y11  1  0.176658  0.353315  0.775956  1
  Y  Y12  1  0.333632  0.667264  0.103325  1
  Y  Y13  1  0.666429  0.332857  0.603839  1
  Y  Y14  1  0.999938  0.999877  0.496436  1
  Y  Y15  1  0.999963  0.999926  0.996344  1
  In  In16  1  0.162885  0.837913  0.232412  1
  In  In17  1  0.675028  0.837913  0.232412  1
  In  In18  1  0.162280  0.324559  0.231762  1
  In  In19  1  0.837150  0.162577  0.733137  1
  In  In20  1  0.325426  0.162577  0.733137  1
  In  In21  1  0.837279  0.674559  0.733129  1
  Os  Os22  1  0.333664  0.667329  0.707158  1
  Os  Os23  1  0.666687  0.333373  0.206314  1
