# generated using pymatgen
data_Th14Fe4ReNi
_symmetry_space_group_name_H-M   'P 1'
_cell_length_a   9.83822958
_cell_length_b   9.82568306
_cell_length_c   6.21373271
_cell_angle_alpha   90.32911841
_cell_angle_beta   89.10317440
_cell_angle_gamma   120.78751644
_symmetry_Int_Tables_number   1
_chemical_formula_structural   Th14Fe4ReNi
_chemical_formula_sum   'Th14 Fe4 Re1 Ni1'
_cell_volume   515.94907239
_cell_formula_units_Z   1
loop_
 _symmetry_equiv_pos_site_id
 _symmetry_equiv_pos_as_xyz
  1  'x, y, z'
loop_
 _atom_site_type_symbol
 _atom_site_label
 _atom_site_symmetry_multiplicity
 _atom_site_fract_x
 _atom_site_fract_y
 _atom_site_fract_z
 _atom_site_occupancy
  Th  Th0  1  0.329388  0.663125  0.032489  1
  Th  Th1  1  0.663177  0.338503  0.534843  1
  Th  Th2  1  0.126506  0.871242  0.242933  1
  Th  Th3  1  0.250276  0.124705  0.742851  1
  Th  Th4  1  0.880669  0.746900  0.746325  1
  Th  Th5  1  0.129912  0.248151  0.247230  1
  Th  Th6  1  0.755340  0.867898  0.255683  1
  Th  Th7  1  0.879301  0.132612  0.761294  1
  Th  Th8  1  0.538953  0.455362  0.052176  1
  Th  Th9  1  0.087450  0.539756  0.551141  1
  Th  Th10  1  0.460101  0.920325  0.551191  1
  Th  Th11  1  0.528774  0.082298  0.050276  1
  Th  Th12  1  0.916433  0.465303  0.053643  1
  Th  Th13  1  0.451665  0.537407  0.555925  1
  Fe  Fe14  1  0.190282  0.373818  0.791473  1
  Fe  Fe15  1  0.811399  0.634051  0.288340  1
  Fe  Fe16  1  0.368159  0.189123  0.290896  1
  Fe  Fe17  1  0.195823  0.816601  0.793722  1
  Re  Re18  1  0.807722  0.180947  0.306396  1
  Ni  Ni19  1  0.628669  0.811873  0.811170  1
