# generated using pymatgen
data_CeLu4(MnB3)2
_symmetry_space_group_name_H-M   'P 1'
_cell_length_a   5.39166613
_cell_length_b   5.39166636
_cell_length_c   7.92400902
_cell_angle_alpha   70.11028426
_cell_angle_beta   70.11028158
_cell_angle_gamma   59.99999963
_symmetry_Int_Tables_number   1
_chemical_formula_structural   CeLu4(MnB3)2
_chemical_formula_sum   'Ce1 Lu4 Mn2 B6'
_cell_volume   183.45242835
_cell_formula_units_Z   1
loop_
 _symmetry_equiv_pos_site_id
 _symmetry_equiv_pos_as_xyz
  1  'x, y, z'
loop_
 _atom_site_type_symbol
 _atom_site_label
 _atom_site_symmetry_multiplicity
 _atom_site_fract_x
 _atom_site_fract_y
 _atom_site_fract_z
 _atom_site_occupancy
  Ce  Ce0  1  0.000000  0.000000  0.000000  1
  Lu  Lu1  1  0.251554  0.251554  0.245339  1
  Lu  Lu2  1  0.748446  0.748446  0.754661  1
  Lu  Lu3  1  0.415535  0.415535  0.753396  1
  Lu  Lu4  1  0.584465  0.584465  0.246604  1
  Mn  Mn5  1  0.109021  0.109021  0.672936  1
  Mn  Mn6  1  0.890979  0.890979  0.327064  1
  B  B7  1  0.167367  0.832633  0.500000  1
  B  B8  1  0.832633  0.500000  0.500000  1
  B  B9  1  0.500000  0.167367  0.500000  1
  B  B10  1  0.167367  0.500000  0.500000  1
  B  B11  1  0.500000  0.832633  0.500000  1
  B  B12  1  0.832633  0.167367  0.500000  1
