# generated using pymatgen
data_Tm12Fe4SnRh
_symmetry_space_group_name_H-M   'P 1'
_cell_length_a   8.20278884
_cell_length_b   8.20278877
_cell_length_c   8.20278939
_cell_angle_alpha   110.69264774
_cell_angle_beta   111.22803963
_cell_angle_gamma   106.53281666
_symmetry_Int_Tables_number   1
_chemical_formula_structural   Tm12Fe4SnRh
_chemical_formula_sum   'Tm12 Fe4 Sn1 Rh1'
_cell_volume   424.03405646
_cell_formula_units_Z   1
loop_
 _symmetry_equiv_pos_site_id
 _symmetry_equiv_pos_as_xyz
  1  'x, y, z'
loop_
 _atom_site_type_symbol
 _atom_site_label
 _atom_site_symmetry_multiplicity
 _atom_site_fract_x
 _atom_site_fract_y
 _atom_site_fract_z
 _atom_site_occupancy
  Tm  Tm0  1  0.413576  0.217318  0.196259  1
  Tm  Tm1  1  0.586424  0.782682  0.803741  1
  Tm  Tm2  1  0.021060  0.217318  0.803741  1
  Tm  Tm3  1  0.978940  0.782682  0.196259  1
  Tm  Tm4  1  0.185634  0.285378  0.471012  1
  Tm  Tm5  1  0.814366  0.714622  0.528988  1
  Tm  Tm6  1  0.185634  0.714622  0.900257  1
  Tm  Tm7  1  0.814366  0.285378  0.099743  1
  Tm  Tm8  1  0.312620  0.615854  0.303232  1
  Tm  Tm9  1  0.687380  0.384146  0.696768  1
  Tm  Tm10  1  0.312620  0.009387  0.696768  1
  Tm  Tm11  1  0.687380  0.990613  0.303232  1
  Fe  Fe12  1  0.382371  0.000000  0.382371  1
  Fe  Fe13  1  0.617629  0.000000  0.617629  1
  Fe  Fe14  1  0.108343  0.608343  0.500000  1
  Fe  Fe15  1  0.891657  0.391657  0.500000  1
  Sn  Sn16  1  0.500000  0.500000  0.000000  1
  Rh  Rh17  1  0.000000  0.000000  0.000000  1
