# generated using pymatgen
data_Cs4TaV(AgTe4)2
_symmetry_space_group_name_H-M   'P 1'
_cell_length_a   15.79296294
_cell_length_b   14.07125768
_cell_length_c   8.48945525
_cell_angle_alpha   85.04075255
_cell_angle_beta   62.57907457
_cell_angle_gamma   32.38015890
_symmetry_Int_Tables_number   1
_chemical_formula_structural   Cs4TaV(AgTe4)2
_chemical_formula_sum   'Cs4 Ta1 V1 Ag2 Te8'
_cell_volume   691.84811198
_cell_formula_units_Z   1
loop_
 _symmetry_equiv_pos_site_id
 _symmetry_equiv_pos_as_xyz
  1  'x, y, z'
loop_
 _atom_site_type_symbol
 _atom_site_label
 _atom_site_symmetry_multiplicity
 _atom_site_fract_x
 _atom_site_fract_y
 _atom_site_fract_z
 _atom_site_occupancy
  Cs  Cs0  1  0.679111  0.679111  0.320889  1
  Cs  Cs1  1  0.320889  0.320889  0.679111  1
  Cs  Cs2  1  0.929849  0.929849  0.570151  1
  Cs  Cs3  1  0.570151  0.570151  0.929849  1
  Ta  Ta4  1  0.750000  0.750000  0.750000  1
  V  V5  1  0.500000  0.500000  0.500000  1
  Ag  Ag6  1  0.000000  0.000000  0.000000  1
  Ag  Ag7  1  0.250000  0.250000  0.250000  1
  Te  Te8  1  0.366104  0.020352  0.935555  1
  Te  Te9  1  0.677991  0.935555  0.020352  1
  Te  Te10  1  0.935555  0.677991  0.366104  1
  Te  Te11  1  0.020352  0.366104  0.677991  1
  Te  Te12  1  0.242234  0.867250  0.566366  1
  Te  Te13  1  0.566366  0.324147  0.242234  1
  Te  Te14  1  0.324147  0.566366  0.867250  1
  Te  Te15  1  0.867250  0.242234  0.324147  1
