# generated using pymatgen
data_La3YFeC6
_symmetry_space_group_name_H-M   'P 1'
_cell_length_a   8.83279000
_cell_length_b   8.83279041
_cell_length_c   5.53688500
_cell_angle_alpha   90.00000000
_cell_angle_beta   90.00000000
_cell_angle_gamma   119.99999846
_symmetry_Int_Tables_number   1
_chemical_formula_structural   La3YFeC6
_chemical_formula_sum   'La6 Y2 Fe2 C12'
_cell_volume   374.10367316
_cell_formula_units_Z   2
loop_
 _symmetry_equiv_pos_site_id
 _symmetry_equiv_pos_as_xyz
  1  'x, y, z'
loop_
 _atom_site_type_symbol
 _atom_site_label
 _atom_site_symmetry_multiplicity
 _atom_site_fract_x
 _atom_site_fract_y
 _atom_site_fract_z
 _atom_site_occupancy
  La  La0  1  0.612983  0.667730  0.750000  1
  La  La1  1  0.945253  0.612983  0.250000  1
  La  La2  1  0.667730  0.054747  0.250000  1
  La  La3  1  0.332270  0.945253  0.750000  1
  La  La4  1  0.054747  0.387017  0.750000  1
  La  La5  1  0.387017  0.332270  0.250000  1
  Y  Y6  1  0.000000  0.000000  0.500000  1
  Y  Y7  1  0.000000  0.000000  0.000000  1
  Fe  Fe8  1  0.666667  0.333333  0.750000  1
  Fe  Fe9  1  0.333333  0.666667  0.250000  1
  C  C10  1  0.954018  0.734176  0.750000  1
  C  C11  1  0.219843  0.954018  0.250000  1
  C  C12  1  0.734176  0.780157  0.250000  1
  C  C13  1  0.265824  0.219843  0.750000  1
  C  C14  1  0.780157  0.045982  0.750000  1
  C  C15  1  0.045982  0.265824  0.250000  1
  C  C16  1  0.849049  0.557642  0.750000  1
  C  C17  1  0.291404  0.849049  0.250000  1
  C  C18  1  0.557642  0.708596  0.250000  1
  C  C19  1  0.442358  0.291404  0.750000  1
  C  C20  1  0.150951  0.442358  0.250000  1
  C  C21  1  0.708596  0.150951  0.750000  1
