# generated using pymatgen
data_Pr6Cd23Si
_symmetry_space_group_name_H-M   'P 1'
_cell_length_a   10.13660127
_cell_length_b   10.13660130
_cell_length_c   10.13660200
_cell_angle_alpha   59.99999772
_cell_angle_beta   59.99999763
_cell_angle_gamma   59.99999663
_symmetry_Int_Tables_number   1
_chemical_formula_structural   Pr6Cd23Si
_chemical_formula_sum   'Pr6 Cd23 Si1'
_cell_volume   736.48193604
_cell_formula_units_Z   1
loop_
 _symmetry_equiv_pos_site_id
 _symmetry_equiv_pos_as_xyz
  1  'x, y, z'
loop_
 _atom_site_type_symbol
 _atom_site_label
 _atom_site_symmetry_multiplicity
 _atom_site_fract_x
 _atom_site_fract_y
 _atom_site_fract_z
 _atom_site_occupancy
  Pr  Pr0  1  0.793661  0.793661  0.206339  1
  Pr  Pr1  1  0.206339  0.793661  0.206339  1
  Pr  Pr2  1  0.793661  0.206339  0.206339  1
  Pr  Pr3  1  0.206339  0.206339  0.793661  1
  Pr  Pr4  1  0.793661  0.206339  0.793661  1
  Pr  Pr5  1  0.206339  0.793661  0.793661  1
  Cd  Cd6  1  0.833464  0.833464  0.499607  1
  Cd  Cd7  1  0.833464  0.499607  0.833464  1
  Cd  Cd8  1  0.499607  0.833464  0.833464  1
  Cd  Cd9  1  0.833464  0.833464  0.833464  1
  Cd  Cd10  1  0.166536  0.166536  0.500393  1
  Cd  Cd11  1  0.166536  0.500393  0.166536  1
  Cd  Cd12  1  0.500393  0.166536  0.166536  1
  Cd  Cd13  1  0.166536  0.166536  0.166536  1
  Cd  Cd14  1  0.621957  0.621957  0.134128  1
  Cd  Cd15  1  0.621957  0.134128  0.621957  1
  Cd  Cd16  1  0.134128  0.621957  0.621957  1
  Cd  Cd17  1  0.621957  0.621957  0.621957  1
  Cd  Cd18  1  0.378043  0.378043  0.865872  1
  Cd  Cd19  1  0.378043  0.865872  0.378043  1
  Cd  Cd20  1  0.865872  0.378043  0.378043  1
  Cd  Cd21  1  0.378043  0.378043  0.378043  1
  Cd  Cd22  1  0.000000  0.000000  0.500000  1
  Cd  Cd23  1  0.500000  0.000000  0.500000  1
  Cd  Cd24  1  0.000000  0.500000  0.500000  1
  Cd  Cd25  1  0.500000  0.500000  0.000000  1
  Cd  Cd26  1  0.000000  0.500000  0.000000  1
  Cd  Cd27  1  0.500000  0.000000  0.000000  1
  Cd  Cd28  1  0.500000  0.500000  0.500000  1
  Si  Si29  1  0.000000  0.000000  0.000000  1
