# generated using pymatgen
data_Zr6GaSn5Rh6
_symmetry_space_group_name_H-M   'P 1'
_cell_length_a   7.40565000
_cell_length_b   7.45524397
_cell_length_c   7.15452261
_cell_angle_alpha   90.03872904
_cell_angle_beta   90.00000000
_cell_angle_gamma   119.78018018
_symmetry_Int_Tables_number   1
_chemical_formula_structural   Zr6GaSn5Rh6
_chemical_formula_sum   'Zr6 Ga1 Sn5 Rh6'
_cell_volume   342.84193063
_cell_formula_units_Z   1
loop_
 _symmetry_equiv_pos_site_id
 _symmetry_equiv_pos_as_xyz
  1  'x, y, z'
loop_
 _atom_site_type_symbol
 _atom_site_label
 _atom_site_symmetry_multiplicity
 _atom_site_fract_x
 _atom_site_fract_y
 _atom_site_fract_z
 _atom_site_occupancy
  Zr  Zr0  1  0.589737  0.985535  0.755208  1
  Zr  Zr1  1  0.389765  0.394311  0.751601  1
  Zr  Zr2  1  0.022269  0.617924  0.753700  1
  Zr  Zr3  1  0.604201  0.014465  0.244792  1
  Zr  Zr4  1  0.404345  0.382076  0.246300  1
  Zr  Zr5  1  0.995455  0.605689  0.248399  1
  Ga  Ga6  1  0.272878  0.000000  0.000000  1
  Sn  Sn7  1  0.730949  0.733094  0.500071  1
  Sn  Sn8  1  0.997855  0.266906  0.499929  1
  Sn  Sn9  1  0.000504  0.272356  0.000149  1
  Sn  Sn10  1  0.728149  0.727644  0.999851  1
  Sn  Sn11  1  0.269185  0.000000  0.500000  1
  Rh  Rh12  1  0.658272  0.328054  0.976132  1
  Rh  Rh13  1  0.664180  0.333832  0.527303  1
  Rh  Rh14  1  0.330216  0.671946  0.023868  1
  Rh  Rh15  1  0.330347  0.666168  0.472697  1
  Rh  Rh16  1  0.005661  0.999629  0.757374  1
  Rh  Rh17  1  0.006032  0.000371  0.242626  1
