# generated using pymatgen
data_ZrPaNi2Hg
_symmetry_space_group_name_H-M   'P 1'
_cell_length_a   7.42155700
_cell_length_b   7.25672200
_cell_length_c   3.44245900
_cell_angle_alpha   90.00000000
_cell_angle_beta   90.00000000
_cell_angle_gamma   90.00000000
_symmetry_Int_Tables_number   1
_chemical_formula_structural   ZrPaNi2Hg
_chemical_formula_sum   'Zr2 Pa2 Ni4 Hg2'
_cell_volume   185.39767763
_cell_formula_units_Z   2
loop_
 _symmetry_equiv_pos_site_id
 _symmetry_equiv_pos_as_xyz
  1  'x, y, z'
loop_
 _atom_site_type_symbol
 _atom_site_label
 _atom_site_symmetry_multiplicity
 _atom_site_fract_x
 _atom_site_fract_y
 _atom_site_fract_z
 _atom_site_occupancy
  Zr  Zr0  1  0.326173  0.172390  0.500000  1
  Zr  Zr1  1  0.826173  0.327610  0.500000  1
  Pa  Pa2  1  0.171797  0.666124  0.500000  1
  Pa  Pa3  1  0.671797  0.833876  0.500000  1
  Ni  Ni4  1  0.121802  0.384084  0.000000  1
  Ni  Ni5  1  0.375596  0.864983  0.000000  1
  Ni  Ni6  1  0.621802  0.115916  0.000000  1
  Ni  Ni7  1  0.875596  0.635017  0.000000  1
  Hg  Hg8  1  0.004632  0.016857  0.000000  1
  Hg  Hg9  1  0.504632  0.483143  0.000000  1
