# generated using pymatgen
data_SmY3Ho2(Si3Ru)8
_symmetry_space_group_name_H-M   'P 1'
_cell_length_a   10.12201093
_cell_length_b   10.12201183
_cell_length_c   8.14428701
_cell_angle_alpha   90.09615712
_cell_angle_beta   89.90384629
_cell_angle_gamma   132.58497180
_symmetry_Int_Tables_number   1
_chemical_formula_structural   SmY3Ho2(Si3Ru)8
_chemical_formula_sum   'Sm1 Y3 Ho2 Si24 Ru8'
_cell_volume   614.36406036
_cell_formula_units_Z   1
loop_
 _symmetry_equiv_pos_site_id
 _symmetry_equiv_pos_as_xyz
  1  'x, y, z'
loop_
 _atom_site_type_symbol
 _atom_site_label
 _atom_site_symmetry_multiplicity
 _atom_site_fract_x
 _atom_site_fract_y
 _atom_site_fract_z
 _atom_site_occupancy
  Sm  Sm0  1  0.002784  0.502784  0.250000  1
  Y  Y1  1  0.497824  0.997824  0.750000  1
  Y  Y2  1  0.997529  0.497529  0.750000  1
  Y  Y3  1  0.502558  0.002558  0.250000  1
  Ho  Ho4  1  0.000060  0.000050  0.999895  1
  Ho  Ho5  1  0.500050  0.500060  0.500105  1
  Si  Si6  1  0.295149  0.706365  0.999038  1
  Si  Si7  1  0.793894  0.204982  0.501055  1
  Si  Si8  1  0.704982  0.293894  0.998945  1
  Si  Si9  1  0.206365  0.795149  0.500962  1
  Si  Si10  1  0.832427  0.832242  0.332894  1
  Si  Si11  1  0.167622  0.167787  0.666832  1
  Si  Si12  1  0.667787  0.667622  0.833168  1
  Si  Si13  1  0.332242  0.332427  0.167106  1
  Si  Si14  1  0.621509  0.387419  0.228170  1
  Si  Si15  1  0.613313  0.379902  0.771847  1
  Si  Si16  1  0.111194  0.877440  0.727785  1
  Si  Si17  1  0.121700  0.887302  0.271182  1
  Si  Si18  1  0.377440  0.611194  0.772215  1
  Si  Si19  1  0.387302  0.621700  0.228818  1
  Si  Si20  1  0.887419  0.121509  0.271830  1
  Si  Si21  1  0.879902  0.113313  0.728153  1
  Si  Si22  1  0.845590  0.612130  0.003557  1
  Si  Si23  1  0.388834  0.156529  0.995918  1
  Si  Si24  1  0.887864  0.653845  0.505490  1
  Si  Si25  1  0.343646  0.111319  0.495413  1
  Si  Si26  1  0.153845  0.387864  0.994510  1
  Si  Si27  1  0.611319  0.843646  0.004587  1
  Si  Si28  1  0.112130  0.345590  0.496443  1
  Si  Si29  1  0.656529  0.888834  0.504082  1
  Ru  Ru30  1  0.170972  0.834253  0.998105  1
  Ru  Ru31  1  0.665704  0.328897  0.500715  1
  Ru  Ru32  1  0.828897  0.165704  0.999285  1
  Ru  Ru33  1  0.334253  0.670972  0.501895  1
  Ru  Ru34  1  0.625688  0.625678  0.127191  1
  Ru  Ru35  1  0.373789  0.374210  0.873204  1
  Ru  Ru36  1  0.874210  0.873789  0.626796  1
  Ru  Ru37  1  0.125678  0.125688  0.372809  1
