# generated using pymatgen
data_Mg5Ta6ZnIr12
_symmetry_space_group_name_H-M   'P 1'
_cell_length_a   4.23276500
_cell_length_b   7.02908800
_cell_length_c   12.62362300
_cell_angle_alpha   90.00000000
_cell_angle_beta   90.00003153
_cell_angle_gamma   90.00000000
_symmetry_Int_Tables_number   1
_chemical_formula_structural   Mg5Ta6ZnIr12
_chemical_formula_sum   'Mg5 Ta6 Zn1 Ir12'
_cell_volume   375.58406140
_cell_formula_units_Z   1
loop_
 _symmetry_equiv_pos_site_id
 _symmetry_equiv_pos_as_xyz
  1  'x, y, z'
loop_
 _atom_site_type_symbol
 _atom_site_label
 _atom_site_symmetry_multiplicity
 _atom_site_fract_x
 _atom_site_fract_y
 _atom_site_fract_z
 _atom_site_occupancy
  Mg  Mg0  1  0.499992  0.000000  0.165075  1
  Mg  Mg1  1  0.999991  0.500000  0.331525  1
  Mg  Mg2  1  0.499999  0.000000  0.500000  1
  Mg  Mg3  1  0.000009  0.500000  0.668475  1
  Mg  Mg4  1  0.500007  0.000000  0.834924  1
  Ta  Ta5  1  0.000000  0.000000  0.000000  1
  Ta  Ta6  1  0.499989  0.500000  0.161364  1
  Ta  Ta7  1  0.999994  0.000000  0.331488  1
  Ta  Ta8  1  0.499999  0.500000  0.500000  1
  Ta  Ta9  1  0.000006  0.000000  0.668512  1
  Ta  Ta10  1  0.500012  0.500000  0.838636  1
  Zn  Zn11  1  0.000000  0.500000  0.000000  1
  Ir  Ir12  1  0.500001  0.249456  0.000000  1
  Ir  Ir13  1  0.500001  0.750544  0.000000  1
  Ir  Ir14  1  0.999992  0.252169  0.165397  1
  Ir  Ir15  1  0.999992  0.747830  0.165397  1
  Ir  Ir16  1  0.499992  0.250804  0.332213  1
  Ir  Ir17  1  0.499992  0.749197  0.332213  1
  Ir  Ir18  1  0.000000  0.250979  0.500000  1
  Ir  Ir19  1  0.000000  0.749022  0.500000  1
  Ir  Ir20  1  0.500007  0.250804  0.667786  1
  Ir  Ir21  1  0.500007  0.749197  0.667786  1
  Ir  Ir22  1  0.000008  0.252169  0.834603  1
  Ir  Ir23  1  0.000008  0.747830  0.834603  1
