# generated using pymatgen
data_Li4Ho8Sc8Si15P
_symmetry_space_group_name_H-M   'P 1'
_cell_length_a   6.86874800
_cell_length_b   7.36583432
_cell_length_c   13.99047300
_cell_angle_alpha   90.00000000
_cell_angle_beta   90.00000000
_cell_angle_gamma   89.84482801
_symmetry_Int_Tables_number   1
_chemical_formula_structural   Li4Ho8Sc8Si15P
_chemical_formula_sum   'Li4 Ho8 Sc8 Si15 P1'
_cell_volume   707.83223123
_cell_formula_units_Z   1
loop_
 _symmetry_equiv_pos_site_id
 _symmetry_equiv_pos_as_xyz
  1  'x, y, z'
loop_
 _atom_site_type_symbol
 _atom_site_label
 _atom_site_symmetry_multiplicity
 _atom_site_fract_x
 _atom_site_fract_y
 _atom_site_fract_z
 _atom_site_occupancy
  Li  Li0  1  0.160053  0.509452  0.750000  1
  Li  Li1  1  0.840468  0.494142  0.250000  1
  Li  Li2  1  0.340370  0.006332  0.250000  1
  Li  Li3  1  0.660949  0.995288  0.750000  1
  Ho  Ho4  1  0.012609  0.181896  0.098504  1
  Ho  Ho5  1  0.986717  0.820210  0.899594  1
  Ho  Ho6  1  0.487320  0.680862  0.901546  1
  Ho  Ho7  1  0.986717  0.820210  0.600406  1
  Ho  Ho8  1  0.512792  0.319410  0.097868  1
  Ho  Ho9  1  0.012609  0.181896  0.401496  1
  Ho  Ho10  1  0.512792  0.319410  0.402132  1
  Ho  Ho11  1  0.487320  0.680862  0.598454  1
  Sc  Sc12  1  0.329258  0.178274  0.628290  1
  Sc  Sc13  1  0.668828  0.820546  0.373936  1
  Sc  Sc14  1  0.168874  0.679289  0.374071  1
  Sc  Sc15  1  0.668828  0.820546  0.126064  1
  Sc  Sc16  1  0.833269  0.318726  0.628204  1
  Sc  Sc17  1  0.329258  0.178274  0.871710  1
  Sc  Sc18  1  0.833269  0.318726  0.871796  1
  Sc  Sc19  1  0.168874  0.679289  0.125929  1
  Si  Si20  1  0.968557  0.897006  0.250000  1
  Si  Si21  1  0.468253  0.603423  0.250000  1
  Si  Si22  1  0.530937  0.396387  0.750000  1
  Si  Si23  1  0.284591  0.876084  0.750000  1
  Si  Si24  1  0.716193  0.120286  0.250000  1
  Si  Si25  1  0.216781  0.379534  0.250000  1
  Si  Si26  1  0.783140  0.618633  0.750000  1
  Si  Si27  1  0.159021  0.462690  0.536089  1
  Si  Si28  1  0.840481  0.536864  0.466176  1
  Si  Si29  1  0.339388  0.964077  0.465961  1
  Si  Si30  1  0.840481  0.536864  0.033824  1
  Si  Si31  1  0.659180  0.037367  0.535489  1
  Si  Si32  1  0.159021  0.462690  0.963911  1
  Si  Si33  1  0.659180  0.037367  0.964511  1
  Si  Si34  1  0.339388  0.964077  0.034039  1
  P  P35  1  0.034233  0.103009  0.750000  1
