# generated using pymatgen
data_Er7Tm(BBr6)2
_symmetry_space_group_name_H-M   'P 1'
_cell_length_a   3.91920200
_cell_length_b   13.06112548
_cell_length_c   13.52175300
_cell_angle_alpha   89.92402600
_cell_angle_beta   90.00000000
_cell_angle_gamma   90.00000000
_symmetry_Int_Tables_number   1
_chemical_formula_structural   Er7Tm(BBr6)2
_chemical_formula_sum   'Er7 Tm1 B2 Br12'
_cell_volume   692.16696295
_cell_formula_units_Z   1
loop_
 _symmetry_equiv_pos_site_id
 _symmetry_equiv_pos_as_xyz
  1  'x, y, z'
loop_
 _atom_site_type_symbol
 _atom_site_label
 _atom_site_symmetry_multiplicity
 _atom_site_fract_x
 _atom_site_fract_y
 _atom_site_fract_z
 _atom_site_occupancy
  Er  Er0  1  0.000000  0.101135  0.080312  1
  Er  Er1  1  0.000000  0.898956  0.919645  1
  Er  Er2  1  0.000000  0.600628  0.420021  1
  Er  Er3  1  0.500000  0.122383  0.856157  1
  Er  Er4  1  0.500000  0.877788  0.143673  1
  Er  Er5  1  0.500000  0.621773  0.643644  1
  Er  Er6  1  0.500000  0.377743  0.356803  1
  Tm  Tm7  1  0.000000  0.399659  0.579797  1
  B  B8  1  0.500000  0.000099  0.999896  1
  B  B9  1  0.500000  0.499687  0.500281  1
  Br  Br10  1  0.500000  0.269598  0.681376  1
  Br  Br11  1  0.500000  0.731469  0.317648  1
  Br  Br12  1  0.500000  0.768155  0.817442  1
  Br  Br13  1  0.500000  0.231754  0.182650  1
  Br  Br14  1  0.000000  0.261093  0.930921  1
  Br  Br15  1  0.000000  0.738996  0.068904  1
  Br  Br16  1  0.000000  0.480472  0.239484  1
  Br  Br17  1  0.000000  0.518360  0.760253  1
  Br  Br18  1  0.000000  0.980475  0.260798  1
  Br  Br19  1  0.000000  0.019744  0.739109  1
  Br  Br20  1  0.000000  0.239286  0.432367  1
  Br  Br21  1  0.000000  0.760747  0.568818  1
