# generated using pymatgen
data_Tb5Er2Co6Sn23
_symmetry_space_group_name_H-M   'P 1'
_cell_length_a   9.71311944
_cell_length_b   9.70881848
_cell_length_c   9.97179017
_cell_angle_alpha   90.00000183
_cell_angle_beta   89.98183647
_cell_angle_gamma   119.98535805
_symmetry_Int_Tables_number   1
_chemical_formula_structural   Tb5Er2Co6Sn23
_chemical_formula_sum   'Tb5 Er2 Co6 Sn23'
_cell_volume   814.50340078
_cell_formula_units_Z   1
loop_
 _symmetry_equiv_pos_site_id
 _symmetry_equiv_pos_as_xyz
  1  'x, y, z'
loop_
 _atom_site_type_symbol
 _atom_site_label
 _atom_site_symmetry_multiplicity
 _atom_site_fract_x
 _atom_site_fract_y
 _atom_site_fract_z
 _atom_site_occupancy
  Tb  Tb0  1  0.478821  0.521168  0.305801  1
  Tb  Tb1  1  0.521179  0.478832  0.694199  1
  Tb  Tb2  1  0.478821  0.957654  0.305801  1
  Tb  Tb3  1  0.521179  0.042346  0.694199  1
  Tb  Tb4  1  0.000000  0.000000  0.000000  1
  Er  Er5  1  0.041900  0.520951  0.306022  1
  Er  Er6  1  0.958100  0.479049  0.693978  1
  Co  Co7  1  0.832643  0.168023  0.197368  1
  Co  Co8  1  0.167357  0.831977  0.802632  1
  Co  Co9  1  0.832643  0.664621  0.197368  1
  Co  Co10  1  0.167357  0.335379  0.802632  1
  Co  Co11  1  0.335130  0.167565  0.197219  1
  Co  Co12  1  0.664870  0.832435  0.802781  1
  Sn  Sn13  1  0.117898  0.881337  0.274985  1
  Sn  Sn14  1  0.882102  0.118663  0.725015  1
  Sn  Sn15  1  0.117898  0.236561  0.274985  1
  Sn  Sn16  1  0.882102  0.763439  0.725015  1
  Sn  Sn17  1  0.763959  0.881979  0.274953  1
  Sn  Sn18  1  0.236041  0.118021  0.725047  1
  Sn  Sn19  1  0.781619  0.219859  0.452111  1
  Sn  Sn20  1  0.218381  0.780141  0.547889  1
  Sn  Sn21  1  0.781619  0.561760  0.452111  1
  Sn  Sn22  1  0.218381  0.438240  0.547889  1
  Sn  Sn23  1  0.438225  0.219113  0.452206  1
  Sn  Sn24  1  0.561775  0.780887  0.547794  1
  Sn  Sn25  1  0.345884  0.999898  0.999973  1
  Sn  Sn26  1  0.654116  0.000102  0.000027  1
  Sn  Sn27  1  0.000000  0.346082  0.000000  1
  Sn  Sn28  1  0.000000  0.653918  0.000000  1
  Sn  Sn29  1  0.654116  0.654014  0.000027  1
  Sn  Sn30  1  0.345884  0.345986  0.999973  1
  Sn  Sn31  1  0.332559  0.666280  0.117902  1
  Sn  Sn32  1  0.667441  0.333720  0.882098  1
  Sn  Sn33  1  0.333085  0.666543  0.818055  1
  Sn  Sn34  1  0.666915  0.333457  0.181945  1
  Sn  Sn35  1  0.000000  0.000000  0.500000  1
