# generated using pymatgen
data_Tb8V3Si16Mo9
_symmetry_space_group_name_H-M   'P 1'
_cell_length_a   6.88691249
_cell_length_b   6.88691151
_cell_length_c   12.80523905
_cell_angle_alpha   89.96169944
_cell_angle_beta   90.03830052
_cell_angle_gamma   89.75408727
_symmetry_Int_Tables_number   1
_chemical_formula_structural   Tb8V3Si16Mo9
_chemical_formula_sum   'Tb8 V3 Si16 Mo9'
_cell_volume   607.34094716
_cell_formula_units_Z   1
loop_
 _symmetry_equiv_pos_site_id
 _symmetry_equiv_pos_as_xyz
  1  'x, y, z'
loop_
 _atom_site_type_symbol
 _atom_site_label
 _atom_site_symmetry_multiplicity
 _atom_site_fract_x
 _atom_site_fract_y
 _atom_site_fract_z
 _atom_site_occupancy
  Tb  Tb0  1  0.339475  0.001126  0.468556  1
  Tb  Tb1  1  0.498250  0.838816  0.718377  1
  Tb  Tb2  1  0.499714  0.161492  0.218401  1
  Tb  Tb3  1  0.838816  0.498250  0.281623  1
  Tb  Tb4  1  0.161492  0.499714  0.781599  1
  Tb  Tb5  1  0.660366  0.999579  0.968185  1
  Tb  Tb6  1  0.001126  0.339475  0.531444  1
  Tb  Tb7  1  0.999579  0.660366  0.031815  1
  V  V8  1  0.169086  0.832086  0.248973  1
  V  V9  1  0.832086  0.169086  0.751027  1
  V  V10  1  0.668691  0.668691  0.500000  1
  Si  Si11  1  0.197702  0.127464  0.685284  1
  Si  Si12  1  0.374475  0.696811  0.935720  1
  Si  Si13  1  0.627606  0.302168  0.435625  1
  Si  Si14  1  0.696811  0.374475  0.064280  1
  Si  Si15  1  0.302168  0.627606  0.564375  1
  Si  Si16  1  0.800018  0.872357  0.186025  1
  Si  Si17  1  0.127464  0.197702  0.314716  1
  Si  Si18  1  0.872357  0.800018  0.813975  1
  Si  Si19  1  0.285955  0.962804  0.062978  1
  Si  Si20  1  0.538254  0.788133  0.314952  1
  Si  Si21  1  0.461966  0.212338  0.813950  1
  Si  Si22  1  0.788133  0.538254  0.685048  1
  Si  Si23  1  0.212338  0.461966  0.186050  1
  Si  Si24  1  0.711887  0.039733  0.564687  1
  Si  Si25  1  0.962804  0.285955  0.937022  1
  Si  Si26  1  0.039733  0.711887  0.435313  1
  Mo  Mo27  1  0.331453  0.331453  0.000000  1
  Mo  Mo28  1  0.158010  0.000456  0.872516  1
  Mo  Mo29  1  0.497214  0.667151  0.126348  1
  Mo  Mo30  1  0.503248  0.339434  0.624365  1
  Mo  Mo31  1  0.667151  0.497214  0.873652  1
  Mo  Mo32  1  0.339434  0.503248  0.375635  1
  Mo  Mo33  1  0.839464  0.995220  0.375327  1
  Mo  Mo34  1  0.000456  0.158010  0.127484  1
  Mo  Mo35  1  0.995220  0.839464  0.624673  1
