# generated using pymatgen
data_CeTm4Al2Ru3
_symmetry_space_group_name_H-M   'P 1'
_cell_length_a   8.38421346
_cell_length_b   8.30122307
_cell_length_c   8.27251687
_cell_angle_alpha   109.93452118
_cell_angle_beta   109.41274217
_cell_angle_gamma   110.13938266
_symmetry_Int_Tables_number   1
_chemical_formula_structural   CeTm4Al2Ru3
_chemical_formula_sum   'Ce2 Tm8 Al4 Ru6'
_cell_volume   437.23931302
_cell_formula_units_Z   2
loop_
 _symmetry_equiv_pos_site_id
 _symmetry_equiv_pos_as_xyz
  1  'x, y, z'
loop_
 _atom_site_type_symbol
 _atom_site_label
 _atom_site_symmetry_multiplicity
 _atom_site_fract_x
 _atom_site_fract_y
 _atom_site_fract_z
 _atom_site_occupancy
  Ce  Ce0  1  0.943698  0.251957  0.194891  1
  Ce  Ce1  1  0.196171  0.942033  0.251103  1
  Tm  Tm2  1  0.780744  0.784991  0.778854  1
  Tm  Tm3  1  0.318993  0.568603  0.753023  1
  Tm  Tm4  1  0.750237  0.318660  0.570262  1
  Tm  Tm5  1  0.570193  0.748017  0.315548  1
  Tm  Tm6  1  0.717894  0.502615  0.998323  1
  Tm  Tm7  1  0.998444  0.718841  0.505385  1
  Tm  Tm8  1  0.500722  0.992883  0.715525  1
  Tm  Tm9  1  0.253696  0.185290  0.931028  1
  Al  Al10  1  0.417565  0.413043  0.409611  1
  Al  Al11  1  0.092146  0.492823  0.995410  1
  Al  Al12  1  0.997570  0.091854  0.504949  1
  Al  Al13  1  0.502758  0.007792  0.093609  1
  Ru  Ru14  1  0.866602  0.116080  0.742409  1
  Ru  Ru15  1  0.754107  0.898095  0.122395  1
  Ru  Ru16  1  0.125118  0.762131  0.902358  1
  Ru  Ru17  1  0.226826  0.596004  0.365733  1
  Ru  Ru18  1  0.359806  0.224663  0.598623  1
  Ru  Ru19  1  0.626709  0.383627  0.250962  1
