# generated using pymatgen
data_Dy5Tm3Sc12Si15Hg
_symmetry_space_group_name_H-M   'P 1'
_cell_length_a   7.11660095
_cell_length_b   7.38376824
_cell_length_c   14.06043598
_cell_angle_alpha   89.92389082
_cell_angle_beta   89.59996152
_cell_angle_gamma   90.16873909
_symmetry_Int_Tables_number   1
_chemical_formula_structural   Dy5Tm3Sc12Si15Hg
_chemical_formula_sum   'Dy5 Tm3 Sc12 Si15 Hg1'
_cell_volume   738.81651373
_cell_formula_units_Z   1
loop_
 _symmetry_equiv_pos_site_id
 _symmetry_equiv_pos_as_xyz
  1  'x, y, z'
loop_
 _atom_site_type_symbol
 _atom_site_label
 _atom_site_symmetry_multiplicity
 _atom_site_fract_x
 _atom_site_fract_y
 _atom_site_fract_z
 _atom_site_occupancy
  Dy  Dy0  1  0.012038  0.175833  0.097129  1
  Dy  Dy1  1  0.987757  0.824968  0.904348  1
  Dy  Dy2  1  0.487611  0.676830  0.904226  1
  Dy  Dy3  1  0.988480  0.830664  0.597639  1
  Dy  Dy4  1  0.511813  0.323646  0.096454  1
  Tm  Tm5  1  0.007810  0.172297  0.398216  1
  Tm  Tm6  1  0.511251  0.321712  0.399135  1
  Tm  Tm7  1  0.496376  0.682109  0.599835  1
  Sc  Sc8  1  0.162400  0.501649  0.753874  1
  Sc  Sc9  1  0.837102  0.497880  0.250550  1
  Sc  Sc10  1  0.337644  0.001774  0.249378  1
  Sc  Sc11  1  0.664384  0.996282  0.751269  1
  Sc  Sc12  1  0.341649  0.168312  0.628695  1
  Sc  Sc13  1  0.664615  0.824676  0.372972  1
  Sc  Sc14  1  0.167094  0.677678  0.370837  1
  Sc  Sc15  1  0.669579  0.823891  0.124925  1
  Sc  Sc16  1  0.825664  0.325019  0.625901  1
  Sc  Sc17  1  0.329137  0.174906  0.875896  1
  Sc  Sc18  1  0.829947  0.322910  0.875951  1
  Sc  Sc19  1  0.169246  0.676610  0.125385  1
  Si  Si20  1  0.034961  0.119790  0.751304  1
  Si  Si21  1  0.964994  0.885286  0.248449  1
  Si  Si22  1  0.466474  0.614073  0.248399  1
  Si  Si23  1  0.533363  0.386836  0.751682  1
  Si  Si24  1  0.285234  0.871181  0.751159  1
  Si  Si25  1  0.713061  0.128865  0.248871  1
  Si  Si26  1  0.213435  0.370273  0.248993  1
  Si  Si27  1  0.787821  0.628549  0.752032  1
  Si  Si28  1  0.831072  0.536774  0.458784  1
  Si  Si29  1  0.338629  0.963649  0.459606  1
  Si  Si30  1  0.843474  0.535396  0.038926  1
  Si  Si31  1  0.659387  0.037172  0.537294  1
  Si  Si32  1  0.156377  0.463977  0.962303  1
  Si  Si33  1  0.656464  0.034924  0.960883  1
  Si  Si34  1  0.342991  0.964970  0.039885  1
  Hg  Hg35  1  0.170667  0.458638  0.538815  1
