# generated using pymatgen
data_Ho2ErGa7Cu4
_symmetry_space_group_name_H-M   'P 1'
_cell_length_a   8.00600314
_cell_length_b   8.00600261
_cell_length_c   9.36248802
_cell_angle_alpha   54.49823259
_cell_angle_beta   54.49823673
_cell_angle_gamma   30.65762432
_symmetry_Int_Tables_number   1
_chemical_formula_structural   Ho2ErGa7Cu4
_chemical_formula_sum   'Ho2 Er1 Ga7 Cu4'
_cell_volume   244.30084041
_cell_formula_units_Z   1
loop_
 _symmetry_equiv_pos_site_id
 _symmetry_equiv_pos_as_xyz
  1  'x, y, z'
loop_
 _atom_site_type_symbol
 _atom_site_label
 _atom_site_symmetry_multiplicity
 _atom_site_fract_x
 _atom_site_fract_y
 _atom_site_fract_z
 _atom_site_occupancy
  Ho  Ho0  1  0.698001  0.698001  0.294117  1
  Ho  Ho1  1  0.000025  0.000025  0.999982  1
  Er  Er2  1  0.301996  0.301996  0.705915  1
  Ga  Ga3  1  0.858401  0.858401  0.420980  1
  Ga  Ga4  1  0.141598  0.141598  0.579093  1
  Ga  Ga5  1  0.138983  0.138983  0.132513  1
  Ga  Ga6  1  0.861017  0.861017  0.867401  1
  Ga  Ga7  1  0.999972  0.999972  0.500015  1
  Ga  Ga8  1  0.345560  0.345560  0.275192  1
  Ga  Ga9  1  0.654494  0.654494  0.724809  1
  Cu  Cu10  1  0.496239  0.496239  0.313551  1
  Cu  Cu11  1  0.503664  0.503664  0.686556  1
  Cu  Cu12  1  0.656578  0.656578  0.984941  1
  Cu  Cu13  1  0.343470  0.343470  0.014935  1
