# generated using pymatgen
data_Pr2Bi2Os2O11
_symmetry_space_group_name_H-M   'P 1'
_cell_length_a   6.69364223
_cell_length_b   7.61846811
_cell_length_c   9.92607674
_cell_angle_alpha   101.07242285
_cell_angle_beta   91.85450337
_cell_angle_gamma   90.01371527
_symmetry_Int_Tables_number   1
_chemical_formula_structural   Pr2Bi2Os2O11
_chemical_formula_sum   'Pr4 Bi4 Os4 O22'
_cell_volume   496.48982793
_cell_formula_units_Z   2
loop_
 _symmetry_equiv_pos_site_id
 _symmetry_equiv_pos_as_xyz
  1  'x, y, z'
loop_
 _atom_site_type_symbol
 _atom_site_label
 _atom_site_symmetry_multiplicity
 _atom_site_fract_x
 _atom_site_fract_y
 _atom_site_fract_z
 _atom_site_occupancy
  Pr  Pr0  1  0.748923  0.368997  0.481201  1
  Pr  Pr1  1  0.251077  0.631003  0.518799  1
  Pr  Pr2  1  0.756081  0.872324  0.484238  1
  Pr  Pr3  1  0.243919  0.127676  0.515762  1
  Bi  Bi4  1  0.463749  0.955448  0.821391  1
  Bi  Bi5  1  0.536251  0.044552  0.178609  1
  Bi  Bi6  1  0.416931  0.455507  0.826117  1
  Bi  Bi7  1  0.583069  0.544493  0.173883  1
  Os  Os8  1  0.935479  0.702138  0.811390  1
  Os  Os9  1  0.064521  0.297862  0.188610  1
  Os  Os10  1  0.935791  0.203296  0.812064  1
  Os  Os11  1  0.064209  0.796704  0.187936  1
  O  O12  1  0.228542  0.719712  0.768443  1
  O  O13  1  0.771458  0.280288  0.231557  1
  O  O14  1  0.640981  0.680560  0.832412  1
  O  O15  1  0.359019  0.319440  0.167588  1
  O  O16  1  0.641177  0.235510  0.834348  1
  O  O17  1  0.358823  0.764490  0.165652  1
  O  O18  1  0.897953  0.157805  0.603005  1
  O  O19  1  0.102047  0.842195  0.396995  1
  O  O20  1  0.227725  0.163433  0.767298  1
  O  O21  1  0.772275  0.836567  0.232702  1
  O  O22  1  0.901325  0.643769  0.603559  1
  O  O23  1  0.098675  0.356231  0.396441  1
  O  O24  1  0.023775  0.547463  0.189248  1
  O  O25  1  0.976225  0.452537  0.810752  1
  O  O26  1  0.999052  0.763933  0.999886  1
  O  O27  1  0.000948  0.236067  0.000114  1
  O  O28  1  0.565467  0.599508  0.391725  1
  O  O29  1  0.434533  0.400492  0.608275  1
  O  O30  1  0.130885  0.051822  0.206695  1
  O  O31  1  0.869115  0.948178  0.793305  1
  O  O32  1  0.544936  0.098271  0.395719  1
  O  O33  1  0.455064  0.901729  0.604281  1
