# generated using pymatgen
data_HoTmCo6(P3Rh2)2
_symmetry_space_group_name_H-M   'P 1'
_cell_length_a   3.73024700
_cell_length_b   10.47243700
_cell_length_c   12.09548000
_cell_angle_alpha   90.00000000
_cell_angle_beta   90.00000000
_cell_angle_gamma   90.00000000
_symmetry_Int_Tables_number   1
_chemical_formula_structural   HoTmCo6(P3Rh2)2
_chemical_formula_sum   'Ho2 Tm2 Co12 P12 Rh8'
_cell_volume   472.50722530
_cell_formula_units_Z   2
loop_
 _symmetry_equiv_pos_site_id
 _symmetry_equiv_pos_as_xyz
  1  'x, y, z'
loop_
 _atom_site_type_symbol
 _atom_site_label
 _atom_site_symmetry_multiplicity
 _atom_site_fract_x
 _atom_site_fract_y
 _atom_site_fract_z
 _atom_site_occupancy
  Ho  Ho0  1  0.250000  0.583717  0.711298  1
  Ho  Ho1  1  0.250000  0.916283  0.211298  1
  Tm  Tm2  1  0.750000  0.415868  0.288902  1
  Tm  Tm3  1  0.750000  0.084132  0.788902  1
  Co  Co4  1  0.250000  0.220920  0.178290  1
  Co  Co5  1  0.250000  0.279080  0.678290  1
  Co  Co6  1  0.750000  0.779414  0.821666  1
  Co  Co7  1  0.750000  0.720586  0.321666  1
  Co  Co8  1  0.250000  0.883002  0.697198  1
  Co  Co9  1  0.250000  0.616998  0.197198  1
  Co  Co10  1  0.750000  0.118103  0.302968  1
  Co  Co11  1  0.750000  0.381897  0.802968  1
  Co  Co12  1  0.250000  0.462062  0.931599  1
  Co  Co13  1  0.250000  0.037938  0.431599  1
  Co  Co14  1  0.750000  0.536610  0.069507  1
  Co  Co15  1  0.750000  0.963390  0.569507  1
  P  P16  1  0.250000  0.421334  0.111295  1
  P  P17  1  0.250000  0.078666  0.611295  1
  P  P18  1  0.750000  0.578005  0.889896  1
  P  P19  1  0.750000  0.921995  0.389896  1
  P  P20  1  0.250000  0.273604  0.861416  1
  P  P21  1  0.250000  0.226396  0.361416  1
  P  P22  1  0.750000  0.725659  0.137959  1
  P  P23  1  0.750000  0.774341  0.637959  1
  P  P24  1  0.250000  0.603909  0.378971  1
  P  P25  1  0.250000  0.896091  0.878971  1
  P  P26  1  0.750000  0.395759  0.620777  1
  P  P27  1  0.750000  0.104241  0.120777  1
  Rh  Rh28  1  0.250000  0.711960  0.986606  1
  Rh  Rh29  1  0.250000  0.788040  0.486606  1
  Rh  Rh30  1  0.750000  0.287641  0.013002  1
  Rh  Rh31  1  0.750000  0.212359  0.513002  1
  Rh  Rh32  1  0.250000  0.406723  0.477393  1
  Rh  Rh33  1  0.250000  0.093277  0.977393  1
  Rh  Rh34  1  0.750000  0.593239  0.521258  1
  Rh  Rh35  1  0.750000  0.906761  0.021258  1
