# generated using pymatgen
data_Sc2Al2IrPd
_symmetry_space_group_name_H-M   'P 1'
_cell_length_a   4.19611800
_cell_length_b   6.45077008
_cell_length_c   7.67853500
_cell_angle_alpha   89.54090195
_cell_angle_beta   90.00000000
_cell_angle_gamma   90.00000000
_symmetry_Int_Tables_number   1
_chemical_formula_structural   Sc2Al2IrPd
_chemical_formula_sum   'Sc4 Al4 Ir2 Pd2'
_cell_volume   207.83739096
_cell_formula_units_Z   2
loop_
 _symmetry_equiv_pos_site_id
 _symmetry_equiv_pos_as_xyz
  1  'x, y, z'
loop_
 _atom_site_type_symbol
 _atom_site_label
 _atom_site_symmetry_multiplicity
 _atom_site_fract_x
 _atom_site_fract_y
 _atom_site_fract_z
 _atom_site_occupancy
  Sc  Sc0  1  0.250000  0.526130  0.174260  1
  Sc  Sc1  1  0.750000  0.473870  0.825740  1
  Sc  Sc2  1  0.750000  0.963357  0.684590  1
  Sc  Sc3  1  0.250000  0.036643  0.315410  1
  Al  Al4  1  0.250000  0.644082  0.560071  1
  Al  Al5  1  0.750000  0.355918  0.439929  1
  Al  Al6  1  0.750000  0.856616  0.057631  1
  Al  Al7  1  0.250000  0.143384  0.942369  1
  Ir  Ir8  1  0.250000  0.757943  0.876872  1
  Ir  Ir9  1  0.750000  0.242057  0.123128  1
  Pd  Pd10  1  0.750000  0.743997  0.379109  1
  Pd  Pd11  1  0.250000  0.256003  0.620891  1
