# generated using pymatgen
data_Hf2Nb2GeP
_symmetry_space_group_name_H-M   'P 1'
_cell_length_a   3.58555700
_cell_length_b   6.98333100
_cell_length_c   8.47936700
_cell_angle_alpha   90.00000000
_cell_angle_beta   90.00000000
_cell_angle_gamma   90.00000000
_symmetry_Int_Tables_number   1
_chemical_formula_structural   Hf2Nb2GeP
_chemical_formula_sum   'Hf4 Nb4 Ge2 P2'
_cell_volume   212.31598408
_cell_formula_units_Z   2
loop_
 _symmetry_equiv_pos_site_id
 _symmetry_equiv_pos_as_xyz
  1  'x, y, z'
loop_
 _atom_site_type_symbol
 _atom_site_label
 _atom_site_symmetry_multiplicity
 _atom_site_fract_x
 _atom_site_fract_y
 _atom_site_fract_z
 _atom_site_occupancy
  Hf  Hf0  1  0.250000  0.036406  0.669872  1
  Hf  Hf1  1  0.250000  0.536406  0.830128  1
  Hf  Hf2  1  0.750000  0.458514  0.160341  1
  Hf  Hf3  1  0.750000  0.958514  0.339659  1
  Nb  Nb4  1  0.750000  0.865600  0.933133  1
  Nb  Nb5  1  0.250000  0.638522  0.447265  1
  Nb  Nb6  1  0.750000  0.365600  0.566867  1
  Nb  Nb7  1  0.250000  0.138522  0.052735  1
  Ge  Ge8  1  0.250000  0.258747  0.356840  1
  Ge  Ge9  1  0.250000  0.758747  0.143160  1
  P  P10  1  0.750000  0.742211  0.642659  1
  P  P11  1  0.750000  0.242211  0.857341  1
