# generated using pymatgen
data_Tb3Y3(AlC3)2
_symmetry_space_group_name_H-M   'P 1'
_cell_length_a   3.59319800
_cell_length_b   7.09080065
_cell_length_c   10.00541634
_cell_angle_alpha   89.92179733
_cell_angle_beta   90.00000000
_cell_angle_gamma   90.00000000
_symmetry_Int_Tables_number   1
_chemical_formula_structural   Tb3Y3(AlC3)2
_chemical_formula_sum   'Tb3 Y3 Al2 C6'
_cell_volume   254.92427051
_cell_formula_units_Z   1
loop_
 _symmetry_equiv_pos_site_id
 _symmetry_equiv_pos_as_xyz
  1  'x, y, z'
loop_
 _atom_site_type_symbol
 _atom_site_label
 _atom_site_symmetry_multiplicity
 _atom_site_fract_x
 _atom_site_fract_y
 _atom_site_fract_z
 _atom_site_occupancy
  Tb  Tb0  1  0.500000  0.509723  0.199230  1
  Tb  Tb1  1  0.000000  0.750042  0.458259  1
  Tb  Tb2  1  0.000000  0.250127  0.542108  1
  Y  Y3  1  0.500000  0.489971  0.800698  1
  Y  Y4  1  0.500000  0.990404  0.199288  1
  Y  Y5  1  0.500000  0.009890  0.800622  1
  Al  Al6  1  0.000000  0.750658  0.006517  1
  Al  Al7  1  0.000000  0.249211  0.992982  1
  C  C8  1  0.500000  0.508986  0.566197  1
  C  C9  1  0.500000  0.491306  0.434456  1
  C  C10  1  0.500000  0.991181  0.565832  1
  C  C11  1  0.500000  0.008935  0.434075  1
  C  C12  1  0.000000  0.749765  0.208439  1
  C  C13  1  0.000000  0.249800  0.791297  1
