# generated using pymatgen
data_Hf2ScBeAs2Ru3
_symmetry_space_group_name_H-M   'P 1'
_cell_length_a   7.60715530
_cell_length_b   7.60715627
_cell_length_c   7.60715645
_cell_angle_alpha   127.64053288
_cell_angle_beta   123.68103823
_cell_angle_gamma   80.48682105
_symmetry_Int_Tables_number   1
_chemical_formula_structural   Hf2ScBeAs2Ru3
_chemical_formula_sum   'Hf4 Sc2 Be2 As4 Ru6'
_cell_volume   279.85005783
_cell_formula_units_Z   2
loop_
 _symmetry_equiv_pos_site_id
 _symmetry_equiv_pos_as_xyz
  1  'x, y, z'
loop_
 _atom_site_type_symbol
 _atom_site_label
 _atom_site_symmetry_multiplicity
 _atom_site_fract_x
 _atom_site_fract_y
 _atom_site_fract_z
 _atom_site_occupancy
  Hf  Hf0  1  0.750825  0.862391  0.611566  1
  Hf  Hf1  1  0.249175  0.860742  0.111566  1
  Hf  Hf2  1  0.056141  0.254995  0.698854  1
  Hf  Hf3  1  0.943859  0.642713  0.198854  1
  Sc  Sc4  1  0.448434  0.650290  0.701857  1
  Sc  Sc5  1  0.551566  0.253423  0.201857  1
  Be  Be6  1  0.256467  0.260788  0.504321  1
  Be  Be7  1  0.743533  0.247853  0.004321  1
  As  As8  1  0.334319  0.585056  0.254527  1
  As  As9  1  0.665681  0.920208  0.250737  1
  As  As10  1  0.169471  0.920208  0.754527  1
  As  As11  1  0.830529  0.585056  0.750737  1
  Ru  Ru12  1  0.500000  0.493353  0.993353  1
  Ru  Ru13  1  0.000000  0.493353  0.493353  1
  Ru  Ru14  1  0.107054  0.251284  0.120355  1
  Ru  Ru15  1  0.892946  0.013300  0.144230  1
  Ru  Ru16  1  0.369071  0.013300  0.620355  1
  Ru  Ru17  1  0.630929  0.251284  0.644230  1
