# generated using pymatgen
data_ScCuP3Rh4
_symmetry_space_group_name_H-M   'P 1'
_cell_length_a   3.86987200
_cell_length_b   10.62256300
_cell_length_c   12.60276000
_cell_angle_alpha   90.00000000
_cell_angle_beta   90.00000000
_cell_angle_gamma   90.00000000
_symmetry_Int_Tables_number   1
_chemical_formula_structural   ScCuP3Rh4
_chemical_formula_sum   'Sc4 Cu4 P12 Rh16'
_cell_volume   518.07374290
_cell_formula_units_Z   4
loop_
 _symmetry_equiv_pos_site_id
 _symmetry_equiv_pos_as_xyz
  1  'x, y, z'
loop_
 _atom_site_type_symbol
 _atom_site_label
 _atom_site_symmetry_multiplicity
 _atom_site_fract_x
 _atom_site_fract_y
 _atom_site_fract_z
 _atom_site_occupancy
  Sc  Sc0  1  0.250000  0.569021  0.702810  1
  Sc  Sc1  1  0.250000  0.930979  0.202810  1
  Sc  Sc2  1  0.750000  0.430979  0.297190  1
  Sc  Sc3  1  0.750000  0.069021  0.797190  1
  Cu  Cu4  1  0.250000  0.722883  0.996566  1
  Cu  Cu5  1  0.250000  0.777117  0.496566  1
  Cu  Cu6  1  0.750000  0.277117  0.003434  1
  Cu  Cu7  1  0.750000  0.222883  0.503434  1
  P  P8  1  0.250000  0.435353  0.120165  1
  P  P9  1  0.250000  0.064647  0.620165  1
  P  P10  1  0.750000  0.564647  0.879835  1
  P  P11  1  0.750000  0.935353  0.379835  1
  P  P12  1  0.250000  0.252852  0.852873  1
  P  P13  1  0.250000  0.247148  0.352873  1
  P  P14  1  0.750000  0.747148  0.147127  1
  P  P15  1  0.750000  0.752852  0.647127  1
  P  P16  1  0.250000  0.603561  0.389979  1
  P  P17  1  0.250000  0.896439  0.889979  1
  P  P18  1  0.750000  0.396439  0.610021  1
  P  P19  1  0.750000  0.103561  0.110021  1
  Rh  Rh20  1  0.250000  0.408616  0.471466  1
  Rh  Rh21  1  0.250000  0.091384  0.971466  1
  Rh  Rh22  1  0.750000  0.591384  0.528534  1
  Rh  Rh23  1  0.750000  0.908616  0.028534  1
  Rh  Rh24  1  0.250000  0.235125  0.168491  1
  Rh  Rh25  1  0.250000  0.264876  0.668491  1
  Rh  Rh26  1  0.750000  0.764876  0.831509  1
  Rh  Rh27  1  0.750000  0.735124  0.331509  1
  Rh  Rh28  1  0.250000  0.871300  0.703678  1
  Rh  Rh29  1  0.250000  0.628700  0.203678  1
  Rh  Rh30  1  0.750000  0.128700  0.296322  1
  Rh  Rh31  1  0.750000  0.371300  0.796322  1
  Rh  Rh32  1  0.250000  0.453482  0.934196  1
  Rh  Rh33  1  0.250000  0.046518  0.434196  1
  Rh  Rh34  1  0.750000  0.546518  0.065804  1
  Rh  Rh35  1  0.750000  0.953482  0.565804  1
