# generated using pymatgen
data_Sm2P7(Rh3W)3
_symmetry_space_group_name_H-M   'P 1'
_cell_length_a   3.96766168
_cell_length_b   9.55549599
_cell_length_c   9.55475618
_cell_angle_alpha   120.00192309
_cell_angle_beta   89.99131221
_cell_angle_gamma   90.01191847
_symmetry_Int_Tables_number   1
_chemical_formula_structural   Sm2P7(Rh3W)3
_chemical_formula_sum   'Sm2 P7 Rh9 W3'
_cell_volume   313.71095331
_cell_formula_units_Z   1
loop_
 _symmetry_equiv_pos_site_id
 _symmetry_equiv_pos_as_xyz
  1  'x, y, z'
loop_
 _atom_site_type_symbol
 _atom_site_label
 _atom_site_symmetry_multiplicity
 _atom_site_fract_x
 _atom_site_fract_y
 _atom_site_fract_z
 _atom_site_occupancy
  Sm  Sm0  1  0.261758  0.666654  0.333300  1
  Sm  Sm1  1  0.762017  0.333335  0.666686  1
  P  P2  1  0.262219  0.000014  0.999968  1
  P  P3  1  0.761782  0.883503  0.593831  1
  P  P4  1  0.761805  0.406159  0.289672  1
  P  P5  1  0.761781  0.710324  0.116466  1
  P  P6  1  0.261975  0.117127  0.411502  1
  P  P7  1  0.261961  0.588521  0.705653  1
  P  P8  1  0.261951  0.294376  0.882897  1
  Rh  Rh9  1  0.261850  0.886770  0.158882  1
  Rh  Rh10  1  0.261853  0.841076  0.727795  1
  Rh  Rh11  1  0.261851  0.272180  0.113296  1
  Rh  Rh12  1  0.761909  0.614071  0.561951  1
  Rh  Rh13  1  0.761894  0.437992  0.052071  1
  Rh  Rh14  1  0.761886  0.947873  0.385903  1
  Rh  Rh15  1  0.261897  0.370007  0.436805  1
  Rh  Rh16  1  0.261870  0.563265  0.933279  1
  Rh  Rh17  1  0.261888  0.066765  0.630017  1
  W  W18  1  0.761976  0.089926  0.870687  1
  W  W19  1  0.761943  0.129370  0.219338  1
  W  W20  1  0.761937  0.780690  0.910001  1
