# generated using pymatgen
data_Y2Lu4CrCo17P12
_symmetry_space_group_name_H-M   'P 1'
_cell_length_a   3.66657900
_cell_length_b   10.48676600
_cell_length_c   12.12873000
_cell_angle_alpha   90.00000000
_cell_angle_beta   90.00000000
_cell_angle_gamma   90.00000000
_symmetry_Int_Tables_number   1
_chemical_formula_structural   Y2Lu4CrCo17P12
_chemical_formula_sum   'Y2 Lu4 Cr1 Co17 P12'
_cell_volume   466.35641200
_cell_formula_units_Z   1
loop_
 _symmetry_equiv_pos_site_id
 _symmetry_equiv_pos_as_xyz
  1  'x, y, z'
loop_
 _atom_site_type_symbol
 _atom_site_label
 _atom_site_symmetry_multiplicity
 _atom_site_fract_x
 _atom_site_fract_y
 _atom_site_fract_z
 _atom_site_occupancy
  Y  Y0  1  0.000000  0.500000  0.523118  1
  Y  Y1  1  0.500000  0.000000  0.477106  1
  Lu  Lu2  1  0.500000  0.818242  0.205922  1
  Lu  Lu3  1  0.500000  0.181758  0.205922  1
  Lu  Lu4  1  0.000000  0.681371  0.796038  1
  Lu  Lu5  1  0.000000  0.318629  0.796038  1
  Cr  Cr6  1  0.500000  0.500000  0.155568  1
  Co  Co7  1  0.000000  0.000000  0.840313  1
  Co  Co8  1  0.500000  0.500000  0.704573  1
  Co  Co9  1  0.000000  0.000000  0.294790  1
  Co  Co10  1  0.000000  0.500000  0.987600  1
  Co  Co11  1  0.500000  0.000000  0.014493  1
  Co  Co12  1  0.500000  0.332390  0.992919  1
  Co  Co13  1  0.500000  0.667610  0.992919  1
  Co  Co14  1  0.000000  0.167072  0.006201  1
  Co  Co15  1  0.000000  0.832928  0.006201  1
  Co  Co16  1  0.500000  0.296233  0.430219  1
  Co  Co17  1  0.500000  0.703767  0.430219  1
  Co  Co18  1  0.000000  0.203452  0.569655  1
  Co  Co19  1  0.000000  0.796548  0.569655  1
  Co  Co20  1  0.500000  0.877984  0.709851  1
  Co  Co21  1  0.500000  0.122016  0.709851  1
  Co  Co22  1  0.000000  0.621703  0.289948  1
  Co  Co23  1  0.000000  0.378297  0.289948  1
  P  P24  1  0.500000  0.500000  0.881801  1
  P  P25  1  0.000000  0.000000  0.117709  1
  P  P26  1  0.500000  0.500000  0.345220  1
  P  P27  1  0.000000  0.000000  0.656315  1
  P  P28  1  0.500000  0.311433  0.618053  1
  P  P29  1  0.500000  0.688567  0.618053  1
  P  P30  1  0.000000  0.188467  0.382489  1
  P  P31  1  0.000000  0.811533  0.382489  1
  P  P32  1  0.500000  0.847810  0.891557  1
  P  P33  1  0.500000  0.152190  0.891557  1
  P  P34  1  0.000000  0.654688  0.107845  1
  P  P35  1  0.000000  0.345312  0.107845  1
