# generated using pymatgen
data_K8Mn3FeS4(O4F3)4
_symmetry_space_group_name_H-M   'P 1'
_cell_length_a   11.02287500
_cell_length_b   7.40239475
_cell_length_c   8.61656500
_cell_angle_alpha   87.58202785
_cell_angle_beta   90.00000000
_cell_angle_gamma   90.00000000
_symmetry_Int_Tables_number   1
_chemical_formula_structural   K8Mn3FeS4(O4F3)4
_chemical_formula_sum   'K8 Mn3 Fe1 S4 O16 F12'
_cell_volume   702.44842682
_cell_formula_units_Z   1
loop_
 _symmetry_equiv_pos_site_id
 _symmetry_equiv_pos_as_xyz
  1  'x, y, z'
loop_
 _atom_site_type_symbol
 _atom_site_label
 _atom_site_symmetry_multiplicity
 _atom_site_fract_x
 _atom_site_fract_y
 _atom_site_fract_z
 _atom_site_occupancy
  K  K0  1  0.807019  0.181719  0.663305  1
  K  K1  1  0.808183  0.689797  0.333808  1
  K  K2  1  0.305962  0.816713  0.832712  1
  K  K3  1  0.192981  0.818281  0.336695  1
  K  K4  1  0.191817  0.310203  0.666192  1
  K  K5  1  0.306639  0.312573  0.167879  1
  K  K6  1  0.693361  0.687427  0.832121  1
  K  K7  1  0.694038  0.183287  0.167288  1
  Mn  Mn8  1  0.000000  0.500000  0.000000  1
  Mn  Mn9  1  0.500000  0.500000  0.500000  1
  Mn  Mn10  1  0.000000  0.000000  0.000000  1
  Fe  Fe11  1  0.500000  0.000000  0.500000  1
  S  S12  1  0.501286  0.750829  0.192757  1
  S  S13  1  0.999496  0.252539  0.310794  1
  S  S14  1  0.498714  0.249171  0.807243  1
  S  S15  1  0.000504  0.747461  0.689206  1
  O  O16  1  0.599136  0.832727  0.098221  1
  O  O17  1  0.099538  0.171538  0.402426  1
  O  O18  1  0.400864  0.167273  0.901779  1
  O  O19  1  0.900462  0.828462  0.597574  1
  O  O20  1  0.405352  0.668778  0.101052  1
  O  O21  1  0.907915  0.341310  0.405023  1
  O  O22  1  0.594648  0.331222  0.898948  1
  O  O23  1  0.092085  0.658690  0.594977  1
  O  O24  1  0.561475  0.605915  0.299704  1
  O  O25  1  0.059818  0.394491  0.199325  1
  O  O26  1  0.438525  0.394085  0.700296  1
  O  O27  1  0.940182  0.605509  0.800675  1
  O  O28  1  0.938945  0.114415  0.214401  1
  O  O29  1  0.556293  0.111374  0.704914  1
  O  O30  1  0.443707  0.888626  0.295086  1
  O  O31  1  0.061055  0.885585  0.785599  1
  F  F32  1  0.837071  0.976659  0.946378  1
  F  F33  1  0.332307  0.022973  0.556349  1
  F  F34  1  0.162929  0.023341  0.053622  1
  F  F35  1  0.667693  0.977027  0.443651  1
  F  F36  1  0.000472  0.237207  0.889695  1
  F  F37  1  0.500890  0.760014  0.612350  1
  F  F38  1  0.999528  0.762793  0.110305  1
  F  F39  1  0.499110  0.239986  0.387650  1
  F  F40  1  0.163146  0.522603  0.939235  1
  F  F41  1  0.836854  0.477397  0.060765  1
  F  F42  1  0.337777  0.523913  0.438244  1
  F  F43  1  0.662223  0.476087  0.561756  1
