# generated using pymatgen
data_DyThReC2
_symmetry_space_group_name_H-M   'P 1'
_cell_length_a   5.28312300
_cell_length_b   6.66595800
_cell_length_c   9.87411400
_cell_angle_alpha   90.00000000
_cell_angle_beta   90.00000000
_cell_angle_gamma   90.00000000
_symmetry_Int_Tables_number   1
_chemical_formula_structural   DyThReC2
_chemical_formula_sum   'Dy4 Th4 Re4 C8'
_cell_volume   347.73742344
_cell_formula_units_Z   4
loop_
 _symmetry_equiv_pos_site_id
 _symmetry_equiv_pos_as_xyz
  1  'x, y, z'
loop_
 _atom_site_type_symbol
 _atom_site_label
 _atom_site_symmetry_multiplicity
 _atom_site_fract_x
 _atom_site_fract_y
 _atom_site_fract_z
 _atom_site_occupancy
  Dy  Dy0  1  0.250000  0.824424  0.051476  1
  Dy  Dy1  1  0.750000  0.675576  0.551476  1
  Dy  Dy2  1  0.250000  0.324424  0.448524  1
  Dy  Dy3  1  0.750000  0.175576  0.948524  1
  Th  Th4  1  0.250000  0.470564  0.785407  1
  Th  Th5  1  0.750000  0.029436  0.285407  1
  Th  Th6  1  0.250000  0.970564  0.714593  1
  Th  Th7  1  0.750000  0.529436  0.214593  1
  Re  Re8  1  0.250000  0.272863  0.136078  1
  Re  Re9  1  0.750000  0.227137  0.636078  1
  Re  Re10  1  0.250000  0.772863  0.363922  1
  Re  Re11  1  0.750000  0.727137  0.863922  1
  C  C12  1  0.250000  0.170176  0.947815  1
  C  C13  1  0.750000  0.829824  0.052185  1
  C  C14  1  0.250000  0.670176  0.552185  1
  C  C15  1  0.750000  0.329824  0.447815  1
  C  C16  1  0.250000  0.041456  0.261378  1
  C  C17  1  0.750000  0.458544  0.761378  1
  C  C18  1  0.250000  0.541456  0.238622  1
  C  C19  1  0.750000  0.958544  0.738622  1
