# generated using pymatgen
data_Eu20(CdAu3)3
_symmetry_space_group_name_H-M   'P 1'
_cell_length_a   8.36097200
_cell_length_b   8.36097200
_cell_length_c   14.69635400
_cell_angle_alpha   90.00000000
_cell_angle_beta   90.00000000
_cell_angle_gamma   90.00000000
_symmetry_Int_Tables_number   1
_chemical_formula_structural   Eu20(CdAu3)3
_chemical_formula_sum   'Eu20 Cd3 Au9'
_cell_volume   1027.36115920
_cell_formula_units_Z   1
loop_
 _symmetry_equiv_pos_site_id
 _symmetry_equiv_pos_as_xyz
  1  'x, y, z'
loop_
 _atom_site_type_symbol
 _atom_site_label
 _atom_site_symmetry_multiplicity
 _atom_site_fract_x
 _atom_site_fract_y
 _atom_site_fract_z
 _atom_site_occupancy
  Eu  Eu0  1  0.000000  0.000000  0.754548  1
  Eu  Eu1  1  0.500000  0.500000  0.249495  1
  Eu  Eu2  1  0.000000  0.000000  0.245452  1
  Eu  Eu3  1  0.500000  0.500000  0.750505  1
  Eu  Eu4  1  0.170791  0.656822  0.106951  1
  Eu  Eu5  1  0.663093  0.163343  0.610561  1
  Eu  Eu6  1  0.829209  0.343178  0.106951  1
  Eu  Eu7  1  0.336907  0.836657  0.610561  1
  Eu  Eu8  1  0.343178  0.170791  0.106951  1
  Eu  Eu9  1  0.836657  0.663093  0.610561  1
  Eu  Eu10  1  0.656822  0.829209  0.106951  1
  Eu  Eu11  1  0.163343  0.336907  0.610561  1
  Eu  Eu12  1  0.343178  0.829209  0.893049  1
  Eu  Eu13  1  0.836657  0.336907  0.389439  1
  Eu  Eu14  1  0.656822  0.170791  0.893049  1
  Eu  Eu15  1  0.163343  0.663093  0.389439  1
  Eu  Eu16  1  0.170791  0.343178  0.893049  1
  Eu  Eu17  1  0.663093  0.836657  0.389439  1
  Eu  Eu18  1  0.829209  0.656822  0.893049  1
  Eu  Eu19  1  0.336907  0.163343  0.389439  1
  Cd  Cd20  1  0.000000  0.000000  0.500000  1
  Cd  Cd21  1  0.000000  0.000000  0.000000  1
  Cd  Cd22  1  0.500000  0.500000  0.500000  1
  Au  Au23  1  0.632798  0.131492  0.248223  1
  Au  Au24  1  0.131492  0.632798  0.751777  1
  Au  Au25  1  0.868508  0.367202  0.751777  1
  Au  Au26  1  0.367202  0.868508  0.248223  1
  Au  Au27  1  0.367202  0.131492  0.751777  1
  Au  Au28  1  0.868508  0.632798  0.248223  1
  Au  Au29  1  0.131492  0.367202  0.248223  1
  Au  Au30  1  0.632798  0.868508  0.751777  1
  Au  Au31  1  0.500000  0.500000  0.000000  1
