# generated using pymatgen
data_Ca7ThP6
_symmetry_space_group_name_H-M   'P 1'
_cell_length_a   7.62327650
_cell_length_b   7.62327801
_cell_length_c   7.55513600
_cell_angle_alpha   109.29025223
_cell_angle_beta   109.29025620
_cell_angle_gamma   109.65158074
_symmetry_Int_Tables_number   1
_chemical_formula_structural   Ca7ThP6
_chemical_formula_sum   'Ca7 Th1 P6'
_cell_volume   338.74187514
_cell_formula_units_Z   1
loop_
 _symmetry_equiv_pos_site_id
 _symmetry_equiv_pos_as_xyz
  1  'x, y, z'
loop_
 _atom_site_type_symbol
 _atom_site_label
 _atom_site_symmetry_multiplicity
 _atom_site_fract_x
 _atom_site_fract_y
 _atom_site_fract_z
 _atom_site_occupancy
  Ca  Ca0  1  0.634443  0.633737  0.635128  1
  Ca  Ca1  1  0.013877  0.383072  0.509657  1
  Ca  Ca2  1  0.369195  0.486123  0.995780  1
  Ca  Ca3  1  0.999295  0.865557  0.500686  1
  Ca  Ca4  1  0.866263  0.500705  0.001392  1
  Ca  Ca5  1  0.500000  0.000000  0.864131  1
  Ca  Ca6  1  0.116928  0.130805  0.126585  1
  Th  Th7  1  0.500000  0.000000  0.358708  1
  P  P8  1  0.868049  0.122962  0.740552  1
  P  P9  1  0.377038  0.245087  0.617591  1
  P  P10  1  0.134581  0.758658  0.890175  1
  P  P11  1  0.741342  0.875923  0.131518  1
  P  P12  1  0.254913  0.631951  0.372504  1
  P  P13  1  0.624077  0.365419  0.255594  1
