# generated using pymatgen
data_TbYb2UN4
_symmetry_space_group_name_H-M   'P 1'
_cell_length_a   6.88816729
_cell_length_b   9.16965160
_cell_length_c   6.05274173
_cell_angle_alpha   29.09641006
_cell_angle_beta   55.31863945
_cell_angle_gamma   41.30629093
_symmetry_Int_Tables_number   1
_chemical_formula_structural   TbYb2UN4
_chemical_formula_sum   'Tb1 Yb2 U1 N4'
_cell_volume   118.07967456
_cell_formula_units_Z   1
loop_
 _symmetry_equiv_pos_site_id
 _symmetry_equiv_pos_as_xyz
  1  'x, y, z'
loop_
 _atom_site_type_symbol
 _atom_site_label
 _atom_site_symmetry_multiplicity
 _atom_site_fract_x
 _atom_site_fract_y
 _atom_site_fract_z
 _atom_site_occupancy
  Tb  Tb0  1  0.250000  0.500000  0.000000  1
  Yb  Yb1  1  0.750000  0.500000  0.000000  1
  Yb  Yb2  1  0.500000  0.000000  0.000000  1
  U  U3  1  0.000000  0.000000  0.000000  1
  N  N4  1  0.492857  0.500000  0.514286  1
  N  N5  1  0.213229  0.000000  0.573542  1
  N  N6  1  0.007143  0.500000  0.485714  1
  N  N7  1  0.786771  0.000000  0.426458  1
