# generated using pymatgen
data_Tb7DyB20
_symmetry_space_group_name_H-M   'P 1'
_cell_length_a   7.11684810
_cell_length_b   7.12710041
_cell_length_c   7.14451972
_cell_angle_alpha   77.11446140
_cell_angle_beta   89.99683657
_cell_angle_gamma   90.04547326
_symmetry_Int_Tables_number   1
_chemical_formula_structural   Tb7DyB20
_chemical_formula_sum   'Tb7 Dy1 B20'
_cell_volume   353.26188839
_cell_formula_units_Z   1
loop_
 _symmetry_equiv_pos_site_id
 _symmetry_equiv_pos_as_xyz
  1  'x, y, z'
loop_
 _atom_site_type_symbol
 _atom_site_label
 _atom_site_symmetry_multiplicity
 _atom_site_fract_x
 _atom_site_fract_y
 _atom_site_fract_z
 _atom_site_occupancy
  Tb  Tb0  1  0.815210  0.242320  0.245229  1
  Tb  Tb1  1  0.684376  0.242092  0.745389  1
  Tb  Tb2  1  0.185013  0.758011  0.754594  1
  Tb  Tb3  1  0.692649  0.765961  0.629434  1
  Tb  Tb4  1  0.191980  0.234069  0.870663  1
  Tb  Tb5  1  0.307399  0.233572  0.370438  1
  Tb  Tb6  1  0.807792  0.765932  0.129412  1
  Dy  Dy7  1  0.315541  0.756724  0.254751  1
  B  B8  1  0.501434  0.314444  0.039928  1
  B  B9  1  0.002332  0.685591  0.460040  1
  B  B10  1  0.498080  0.685217  0.960667  1
  B  B11  1  0.998201  0.314753  0.539607  1
  B  B12  1  0.491475  0.924278  0.927377  1
  B  B13  1  0.991904  0.075437  0.573366  1
  B  B14  1  0.507080  0.074989  0.074376  1
  B  B15  1  0.009057  0.924935  0.425802  1
  B  B16  1  0.326220  0.497113  0.039294  1
  B  B17  1  0.826422  0.502952  0.460636  1
  B  B18  1  0.673629  0.502720  0.960645  1
  B  B19  1  0.173896  0.497382  0.539086  1
  B  B20  1  0.911147  0.499332  0.910867  1
  B  B21  1  0.411308  0.501266  0.588835  1
  B  B22  1  0.088814  0.501123  0.088897  1
  B  B23  1  0.588880  0.499493  0.410916  1
  B  B24  1  0.962004  0.497002  0.673996  1
  B  B25  1  0.461913  0.503163  0.825820  1
  B  B26  1  0.038218  0.503372  0.325720  1
  B  B27  1  0.538028  0.496758  0.174217  1
