# generated using pymatgen
data_Cs2Li2Ta3(NbBr6)3
_symmetry_space_group_name_H-M   'P 1'
_cell_length_a   10.10504120
_cell_length_b   10.14199061
_cell_length_c   10.21070238
_cell_angle_alpha   119.55432986
_cell_angle_beta   104.97464220
_cell_angle_gamma   96.79425320
_symmetry_Int_Tables_number   1
_chemical_formula_structural   Cs2Li2Ta3(NbBr6)3
_chemical_formula_sum   'Cs2 Li2 Ta3 Nb3 Br18'
_cell_volume   840.93370233
_cell_formula_units_Z   1
loop_
 _symmetry_equiv_pos_site_id
 _symmetry_equiv_pos_as_xyz
  1  'x, y, z'
loop_
 _atom_site_type_symbol
 _atom_site_label
 _atom_site_symmetry_multiplicity
 _atom_site_fract_x
 _atom_site_fract_y
 _atom_site_fract_z
 _atom_site_occupancy
  Cs  Cs0  1  0.331796  0.265147  0.476364  1
  Cs  Cs1  1  0.668355  0.734745  0.523475  1
  Li  Li2  1  0.618334  0.045046  0.184584  1
  Li  Li3  1  0.381840  0.954760  0.815546  1
  Ta  Ta4  1  0.129676  0.569019  0.231930  1
  Ta  Ta5  1  0.870277  0.430959  0.768054  1
  Ta  Ta6  1  0.122978  0.354176  0.901407  1
  Nb  Nb7  1  0.865517  0.312575  0.980394  1
  Nb  Nb8  1  0.875999  0.647040  0.099299  1
  Nb  Nb9  1  0.134475  0.687423  0.019634  1
  Br  Br10  1  0.004354  0.645027  0.737166  1
  Br  Br11  1  0.687570  0.593995  0.833113  1
  Br  Br12  1  0.331512  0.954087  0.053622  1
  Br  Br13  1  0.989394  0.089255  0.857001  1
  Br  Br14  1  0.010830  0.764256  0.407494  1
  Br  Br15  1  0.685720  0.332793  0.445880  1
  Br  Br16  1  0.318001  0.550926  0.905145  1
  Br  Br17  1  0.311926  0.404930  0.164783  1
  Br  Br18  1  0.291648  0.156709  0.764096  1
  Br  Br19  1  0.995591  0.355020  0.262876  1
  Br  Br20  1  0.681426  0.447188  0.094518  1
  Br  Br21  1  0.674340  0.182645  0.687336  1
  Br  Br22  1  0.707131  0.844847  0.236942  1
  Br  Br23  1  0.012186  0.911820  0.142893  1
  Br  Br24  1  0.990435  0.235508  0.593675  1
  Br  Br25  1  0.314474  0.666961  0.553981  1
  Br  Br26  1  0.668580  0.045743  0.946111  1
  Br  Br27  1  0.325636  0.817398  0.312681  1
