# generated using pymatgen
data_Pr5OsPb2
_symmetry_space_group_name_H-M   'P 1'
_cell_length_a   8.32778200
_cell_length_b   9.31033200
_cell_length_c   12.98661400
_cell_angle_alpha   90.00000000
_cell_angle_beta   90.00000000
_cell_angle_gamma   90.00000000
_symmetry_Int_Tables_number   1
_chemical_formula_structural   Pr5OsPb2
_chemical_formula_sum   'Pr20 Os4 Pb8'
_cell_volume   1006.90952248
_cell_formula_units_Z   4
loop_
 _symmetry_equiv_pos_site_id
 _symmetry_equiv_pos_as_xyz
  1  'x, y, z'
loop_
 _atom_site_type_symbol
 _atom_site_label
 _atom_site_symmetry_multiplicity
 _atom_site_fract_x
 _atom_site_fract_y
 _atom_site_fract_z
 _atom_site_occupancy
  Pr  Pr0  1  0.651994  0.750000  0.713212  1
  Pr  Pr1  1  0.348006  0.250000  0.286788  1
  Pr  Pr2  1  0.151994  0.250000  0.786788  1
  Pr  Pr3  1  0.848006  0.750000  0.213212  1
  Pr  Pr4  1  0.116678  0.750000  0.806516  1
  Pr  Pr5  1  0.883322  0.250000  0.193484  1
  Pr  Pr6  1  0.616678  0.250000  0.693484  1
  Pr  Pr7  1  0.383322  0.750000  0.306516  1
  Pr  Pr8  1  0.550725  0.750000  0.998149  1
  Pr  Pr9  1  0.449275  0.250000  0.001851  1
  Pr  Pr10  1  0.050725  0.250000  0.501851  1
  Pr  Pr11  1  0.949275  0.750000  0.498149  1
  Pr  Pr12  1  0.826100  0.463921  0.931173  1
  Pr  Pr13  1  0.173900  0.536079  0.068827  1
  Pr  Pr14  1  0.326100  0.536079  0.568827  1
  Pr  Pr15  1  0.173900  0.963921  0.068827  1
  Pr  Pr16  1  0.673900  0.463921  0.431173  1
  Pr  Pr17  1  0.826100  0.036079  0.931173  1
  Pr  Pr18  1  0.673900  0.036079  0.431173  1
  Pr  Pr19  1  0.326100  0.963921  0.568827  1
  Os  Os20  1  0.918670  0.750000  0.991994  1
  Os  Os21  1  0.081330  0.250000  0.008006  1
  Os  Os22  1  0.418670  0.250000  0.508006  1
  Os  Os23  1  0.581330  0.750000  0.491994  1
  Pb  Pb24  1  0.924194  0.005622  0.669256  1
  Pb  Pb25  1  0.075806  0.994378  0.330744  1
  Pb  Pb26  1  0.424194  0.994378  0.830744  1
  Pb  Pb27  1  0.075806  0.505622  0.330744  1
  Pb  Pb28  1  0.575806  0.005622  0.169256  1
  Pb  Pb29  1  0.924194  0.494378  0.669256  1
  Pb  Pb30  1  0.575806  0.494378  0.169256  1
  Pb  Pb31  1  0.424194  0.505622  0.830744  1
