# generated using pymatgen
data_TbHoCo2Hg
_symmetry_space_group_name_H-M   'P 1'
_cell_length_a   7.20369786
_cell_length_b   7.20369774
_cell_length_c   3.87669100
_cell_angle_alpha   90.00000000
_cell_angle_beta   90.00000000
_cell_angle_gamma   149.22909708
_symmetry_Int_Tables_number   1
_chemical_formula_structural   TbHoCo2Hg
_chemical_formula_sum   'Tb1 Ho1 Co2 Hg1'
_cell_volume   102.92201557
_cell_formula_units_Z   1
loop_
 _symmetry_equiv_pos_site_id
 _symmetry_equiv_pos_as_xyz
  1  'x, y, z'
loop_
 _atom_site_type_symbol
 _atom_site_label
 _atom_site_symmetry_multiplicity
 _atom_site_fract_x
 _atom_site_fract_y
 _atom_site_fract_z
 _atom_site_occupancy
  Tb  Tb0  1  0.362619  0.637381  0.500000  1
  Ho  Ho1  1  0.638238  0.361762  0.500000  1
  Co  Co2  1  0.791953  0.208047  0.000000  1
  Co  Co3  1  0.206347  0.793653  0.000000  1
  Hg  Hg4  1  0.000842  0.999158  0.000000  1
