# generated using pymatgen
data_Tb2Er(Ga2Co3)3
_symmetry_space_group_name_H-M   'P 1'
_cell_length_a   4.05318000
_cell_length_b   8.72724256
_cell_length_c   8.72724294
_cell_angle_alpha   60.15159368
_cell_angle_beta   90.00000000
_cell_angle_gamma   90.00000000
_symmetry_Int_Tables_number   1
_chemical_formula_structural   Tb2Er(Ga2Co3)3
_chemical_formula_sum   'Tb2 Er1 Ga6 Co9'
_cell_volume   267.75773207
_cell_formula_units_Z   1
loop_
 _symmetry_equiv_pos_site_id
 _symmetry_equiv_pos_as_xyz
  1  'x, y, z'
loop_
 _atom_site_type_symbol
 _atom_site_label
 _atom_site_symmetry_multiplicity
 _atom_site_fract_x
 _atom_site_fract_y
 _atom_site_fract_z
 _atom_site_occupancy
  Tb  Tb0  1  0.500000  0.333157  0.333336  1
  Tb  Tb1  1  0.500000  0.666664  0.666843  1
  Er  Er2  1  0.000000  0.000194  0.999806  1
  Ga  Ga3  1  0.000000  0.496164  0.503836  1
  Ga  Ga4  1  0.000000  0.503931  0.999822  1
  Ga  Ga5  1  0.000000  0.000178  0.496069  1
  Ga  Ga6  1  0.500000  0.729023  0.270977  1
  Ga  Ga7  1  0.500000  0.270756  0.000095  1
  Ga  Ga8  1  0.500000  0.999905  0.729244  1
  Co  Co9  1  0.000000  0.179207  0.180208  1
  Co  Co10  1  0.000000  0.180279  0.640426  1
  Co  Co11  1  0.000000  0.640566  0.179038  1
  Co  Co12  1  0.000000  0.819792  0.820793  1
  Co  Co13  1  0.000000  0.359574  0.819721  1
  Co  Co14  1  0.000000  0.820962  0.359434  1
  Co  Co15  1  0.500000  0.296822  0.703178  1
  Co  Co16  1  0.500000  0.702959  0.000232  1
  Co  Co17  1  0.500000  0.999768  0.297041  1
