# generated using pymatgen
data_TbEr5Al18
_symmetry_space_group_name_H-M   'P 1'
_cell_length_a   14.48714774
_cell_length_b   14.48714834
_cell_length_c   14.48714984
_cell_angle_alpha   24.50031028
_cell_angle_beta   24.50030569
_cell_angle_gamma   24.50031065
_symmetry_Int_Tables_number   1
_chemical_formula_structural   TbEr5Al18
_chemical_formula_sum   'Tb1 Er5 Al18'
_cell_volume   459.73453922
_cell_formula_units_Z   1
loop_
 _symmetry_equiv_pos_site_id
 _symmetry_equiv_pos_as_xyz
  1  'x, y, z'
loop_
 _atom_site_type_symbol
 _atom_site_label
 _atom_site_symmetry_multiplicity
 _atom_site_fract_x
 _atom_site_fract_y
 _atom_site_fract_z
 _atom_site_occupancy
  Tb  Tb0  1  0.109141  0.109141  0.109141  1
  Er  Er1  1  0.891127  0.891127  0.891127  1
  Er  Er2  1  0.390628  0.390628  0.390628  1
  Er  Er3  1  0.999803  0.999803  0.999803  1
  Er  Er4  1  0.500123  0.500123  0.500123  1
  Er  Er5  1  0.609256  0.609256  0.609256  1
  Al  Al6  1  0.922249  0.371806  0.371806  1
  Al  Al7  1  0.423049  0.870475  0.870475  1
  Al  Al8  1  0.371806  0.371806  0.922249  1
  Al  Al9  1  0.870475  0.870475  0.423049  1
  Al  Al10  1  0.371806  0.922249  0.371806  1
  Al  Al11  1  0.870475  0.423049  0.870475  1
  Al  Al12  1  0.577382  0.128689  0.128689  1
  Al  Al13  1  0.077649  0.628591  0.628591  1
  Al  Al14  1  0.128689  0.128689  0.577382  1
  Al  Al15  1  0.628591  0.628591  0.077649  1
  Al  Al16  1  0.128689  0.577382  0.128689  1
  Al  Al17  1  0.628591  0.077649  0.628591  1
  Al  Al18  1  0.499286  0.499286  0.000824  1
  Al  Al19  1  0.000111  0.000111  0.500848  1
  Al  Al20  1  0.499286  0.000824  0.499286  1
  Al  Al21  1  0.000111  0.500848  0.000111  1
  Al  Al22  1  0.000824  0.499286  0.499286  1
  Al  Al23  1  0.500848  0.000111  0.000111  1
