# generated using pymatgen
data_TcHg3(TeCl3)2
_symmetry_space_group_name_H-M   'P 1'
_cell_length_a   7.79444000
_cell_length_b   6.72364240
_cell_length_c   13.58910400
_cell_angle_alpha   87.98406120
_cell_angle_beta   90.00000000
_cell_angle_gamma   90.00000000
_symmetry_Int_Tables_number   1
_chemical_formula_structural   TcHg3(TeCl3)2
_chemical_formula_sum   'Tc2 Hg6 Te4 Cl12'
_cell_volume   711.72377066
_cell_formula_units_Z   2
loop_
 _symmetry_equiv_pos_site_id
 _symmetry_equiv_pos_as_xyz
  1  'x, y, z'
loop_
 _atom_site_type_symbol
 _atom_site_label
 _atom_site_symmetry_multiplicity
 _atom_site_fract_x
 _atom_site_fract_y
 _atom_site_fract_z
 _atom_site_occupancy
  Tc  Tc0  1  0.500000  0.500000  0.500000  1
  Tc  Tc1  1  0.000000  0.500000  0.000000  1
  Hg  Hg2  1  0.294280  0.007030  0.737955  1
  Hg  Hg3  1  0.794280  0.992970  0.762045  1
  Hg  Hg4  1  0.205720  0.007030  0.237955  1
  Hg  Hg5  1  0.500000  0.000000  0.000000  1
  Hg  Hg6  1  0.705720  0.992970  0.262045  1
  Hg  Hg7  1  0.000000  0.000000  0.500000  1
  Te  Te8  1  0.463820  0.779322  0.169679  1
  Te  Te9  1  0.963820  0.220678  0.330321  1
  Te  Te10  1  0.036180  0.779322  0.669679  1
  Te  Te11  1  0.536180  0.220678  0.830321  1
  Cl  Cl12  1  0.355597  0.792955  0.443997  1
  Cl  Cl13  1  0.238075  0.365369  0.562846  1
  Cl  Cl14  1  0.048268  0.355625  0.845044  1
  Cl  Cl15  1  0.261925  0.365369  0.062846  1
  Cl  Cl16  1  0.761925  0.634631  0.437154  1
  Cl  Cl17  1  0.144403  0.792955  0.943997  1
  Cl  Cl18  1  0.451732  0.355625  0.345044  1
  Cl  Cl19  1  0.855597  0.207045  0.056003  1
  Cl  Cl20  1  0.951732  0.644375  0.154956  1
  Cl  Cl21  1  0.548268  0.644375  0.654956  1
  Cl  Cl22  1  0.644403  0.207045  0.556003  1
  Cl  Cl23  1  0.738075  0.634631  0.937154  1
