# generated using pymatgen
data_Sr5Al3CdGa2
_symmetry_space_group_name_H-M   'P 1'
_cell_length_a   5.84754200
_cell_length_b   5.84754243
_cell_length_c   10.86924900
_cell_angle_alpha   90.00000000
_cell_angle_beta   90.00000000
_cell_angle_gamma   119.99998623
_symmetry_Int_Tables_number   1
_chemical_formula_structural   Sr5Al3CdGa2
_chemical_formula_sum   'Sr5 Al3 Cd1 Ga2'
_cell_volume   321.86737771
_cell_formula_units_Z   1
loop_
 _symmetry_equiv_pos_site_id
 _symmetry_equiv_pos_as_xyz
  1  'x, y, z'
loop_
 _atom_site_type_symbol
 _atom_site_label
 _atom_site_symmetry_multiplicity
 _atom_site_fract_x
 _atom_site_fract_y
 _atom_site_fract_z
 _atom_site_occupancy
  Sr  Sr0  1  0.666667  0.333333  0.833661  1
  Sr  Sr1  1  0.333333  0.666667  0.702859  1
  Sr  Sr2  1  0.333333  0.666667  0.297141  1
  Sr  Sr3  1  0.666667  0.333333  0.166339  1
  Sr  Sr4  1  0.000000  0.000000  0.500000  1
  Al  Al5  1  0.171692  0.828308  0.000000  1
  Al  Al6  1  0.171692  0.343383  0.000000  1
  Al  Al7  1  0.656617  0.828308  0.000000  1
  Cd  Cd8  1  0.666667  0.333333  0.500000  1
  Ga  Ga9  1  0.000000  0.000000  0.195437  1
  Ga  Ga10  1  0.000000  0.000000  0.804563  1
