# generated using pymatgen
data_Th4Al15(GaIr2)3
_symmetry_space_group_name_H-M   'P 1'
_cell_length_a   7.66469909
_cell_length_b   7.66418087
_cell_length_c   9.56882800
_cell_angle_alpha   90.00000000
_cell_angle_beta   90.00000000
_cell_angle_gamma   119.45853539
_symmetry_Int_Tables_number   1
_chemical_formula_structural   Th4Al15(GaIr2)3
_chemical_formula_sum   'Th4 Al15 Ga3 Ir6'
_cell_volume   489.43390234
_cell_formula_units_Z   1
loop_
 _symmetry_equiv_pos_site_id
 _symmetry_equiv_pos_as_xyz
  1  'x, y, z'
loop_
 _atom_site_type_symbol
 _atom_site_label
 _atom_site_symmetry_multiplicity
 _atom_site_fract_x
 _atom_site_fract_y
 _atom_site_fract_z
 _atom_site_occupancy
  Th  Th0  1  0.997019  0.673570  0.250000  1
  Th  Th1  1  0.005698  0.326768  0.750000  1
  Th  Th2  1  0.669713  0.991274  0.250000  1
  Th  Th3  1  0.326231  0.004138  0.750000  1
  Al  Al4  1  0.003602  0.335256  0.072765  1
  Al  Al5  1  0.995506  0.663400  0.927091  1
  Al  Al6  1  0.995506  0.663400  0.572909  1
  Al  Al7  1  0.336573  0.006001  0.427531  1
  Al  Al8  1  0.003602  0.335256  0.427235  1
  Al  Al9  1  0.663707  0.996142  0.572834  1
  Al  Al10  1  0.663707  0.996142  0.927166  1
  Al  Al11  1  0.336573  0.006001  0.072469  1
  Al  Al12  1  0.337137  0.337350  0.551705  1
  Al  Al13  1  0.664117  0.663287  0.452243  1
  Al  Al14  1  0.664117  0.663287  0.047757  1
  Al  Al15  1  0.337137  0.337350  0.948295  1
  Al  Al16  1  0.662492  0.453910  0.750000  1
  Al  Al17  1  0.547170  0.340847  0.250000  1
  Al  Al18  1  0.454725  0.662428  0.750000  1
  Ga  Ga19  1  0.134632  0.136018  0.250000  1
  Ga  Ga20  1  0.862187  0.862108  0.750000  1
  Ga  Ga21  1  0.339069  0.542376  0.250000  1
  Ir  Ir22  1  0.671316  0.328407  0.000009  1
  Ir  Ir23  1  0.327997  0.672782  0.997774  1
  Ir  Ir24  1  0.327997  0.672782  0.502226  1
  Ir  Ir25  1  0.671316  0.328407  0.499991  1
  Ir  Ir26  1  0.000576  0.000658  0.999586  1
  Ir  Ir27  1  0.000576  0.000658  0.500414  1
