# generated using pymatgen
data_Pa4HF10
_symmetry_space_group_name_H-M   'P 1'
_cell_length_a   3.71997383
_cell_length_b   8.73002542
_cell_length_c   9.06456832
_cell_angle_alpha   78.47270859
_cell_angle_beta   96.46090793
_cell_angle_gamma   95.67330637
_symmetry_Int_Tables_number   1
_chemical_formula_structural   Pa4HF10
_chemical_formula_sum   'Pa4 H1 F10'
_cell_volume   285.72341248
_cell_formula_units_Z   1
loop_
 _symmetry_equiv_pos_site_id
 _symmetry_equiv_pos_as_xyz
  1  'x, y, z'
loop_
 _atom_site_type_symbol
 _atom_site_label
 _atom_site_symmetry_multiplicity
 _atom_site_fract_x
 _atom_site_fract_y
 _atom_site_fract_z
 _atom_site_occupancy
  Pa  Pa0  1  0.320224  0.592724  0.218397  1
  Pa  Pa1  1  0.548284  0.244941  0.456904  1
  Pa  Pa2  1  0.354404  0.052778  0.870510  1
  Pa  Pa3  1  0.974429  0.346242  0.123249  1
  H  H4  1  0.470122  0.223545  0.212400  1
  F  F5  1  0.792964  0.602300  0.029148  1
  F  F6  1  0.307166  0.031263  0.616170  1
  F  F7  1  0.861463  0.716121  0.297845  1
  F  F8  1  0.910906  0.102731  0.033634  1
  F  F9  1  0.363304  0.849709  0.073966  1
  F  F10  1  0.978919  0.130552  0.354818  1
  F  F11  1  0.847588  0.215453  0.722064  1
  F  F12  1  0.486553  0.488295  0.480683  1
  F  F13  1  0.450081  0.312413  0.938091  1
  F  F14  1  0.814589  0.905653  0.834123  1
