# generated using pymatgen
data_Nd3Sm(GePd14)2
_symmetry_space_group_name_H-M   'P 1'
_cell_length_a   9.00265200
_cell_length_b   9.00265200
_cell_length_c   7.21744400
_cell_angle_alpha   90.00000000
_cell_angle_beta   90.00000000
_cell_angle_gamma   90.00000000
_symmetry_Int_Tables_number   1
_chemical_formula_structural   Nd3Sm(GePd14)2
_chemical_formula_sum   'Nd3 Sm1 Ge2 Pd28'
_cell_volume   584.95754667
_cell_formula_units_Z   1
loop_
 _symmetry_equiv_pos_site_id
 _symmetry_equiv_pos_as_xyz
  1  'x, y, z'
loop_
 _atom_site_type_symbol
 _atom_site_label
 _atom_site_symmetry_multiplicity
 _atom_site_fract_x
 _atom_site_fract_y
 _atom_site_fract_z
 _atom_site_occupancy
  Nd  Nd0  1  0.500000  0.000000  0.936258  1
  Nd  Nd1  1  0.000000  0.500000  0.063742  1
  Nd  Nd2  1  0.000000  0.000000  0.500000  1
  Sm  Sm3  1  0.500000  0.500000  0.500000  1
  Ge  Ge4  1  0.500000  0.000000  0.449039  1
  Ge  Ge5  1  0.000000  0.500000  0.550961  1
  Pd  Pd6  1  0.330736  0.830439  0.621129  1
  Pd  Pd7  1  0.330736  0.169561  0.621129  1
  Pd  Pd8  1  0.669264  0.830439  0.621129  1
  Pd  Pd9  1  0.669264  0.169561  0.621129  1
  Pd  Pd10  1  0.169561  0.669264  0.378871  1
  Pd  Pd11  1  0.169561  0.330736  0.378871  1
  Pd  Pd12  1  0.830439  0.669264  0.378871  1
  Pd  Pd13  1  0.830439  0.330736  0.378871  1
  Pd  Pd14  1  0.500000  0.765909  0.253398  1
  Pd  Pd15  1  0.500000  0.234091  0.253398  1
  Pd  Pd16  1  0.266484  0.000000  0.252816  1
  Pd  Pd17  1  0.733516  0.000000  0.252816  1
  Pd  Pd18  1  0.000000  0.733516  0.747184  1
  Pd  Pd19  1  0.000000  0.266484  0.747184  1
  Pd  Pd20  1  0.234091  0.500000  0.746602  1
  Pd  Pd21  1  0.765909  0.500000  0.746602  1
  Pd  Pd22  1  0.500000  0.349102  0.856031  1
  Pd  Pd23  1  0.500000  0.650898  0.856031  1
  Pd  Pd24  1  0.848766  0.000000  0.856775  1
  Pd  Pd25  1  0.151234  0.000000  0.856775  1
  Pd  Pd26  1  0.000000  0.151234  0.143225  1
  Pd  Pd27  1  0.000000  0.848766  0.143225  1
  Pd  Pd28  1  0.650898  0.500000  0.143969  1
  Pd  Pd29  1  0.349102  0.500000  0.143969  1
  Pd  Pd30  1  0.250084  0.749916  0.000000  1
  Pd  Pd31  1  0.250084  0.250084  0.000000  1
  Pd  Pd32  1  0.749916  0.749916  0.000000  1
  Pd  Pd33  1  0.749916  0.250084  0.000000  1
