# generated using pymatgen
data_Y4ScBi2As
_symmetry_space_group_name_H-M   'P 1'
_cell_length_a   8.02215300
_cell_length_b   9.27724700
_cell_length_c   11.81792600
_cell_angle_alpha   90.00000000
_cell_angle_beta   90.00000000
_cell_angle_gamma   90.00000000
_symmetry_Int_Tables_number   1
_chemical_formula_structural   Y4ScBi2As
_chemical_formula_sum   'Y16 Sc4 Bi8 As4'
_cell_volume   879.53135483
_cell_formula_units_Z   4
loop_
 _symmetry_equiv_pos_site_id
 _symmetry_equiv_pos_as_xyz
  1  'x, y, z'
loop_
 _atom_site_type_symbol
 _atom_site_label
 _atom_site_symmetry_multiplicity
 _atom_site_fract_x
 _atom_site_fract_y
 _atom_site_fract_z
 _atom_site_occupancy
  Y  Y0  1  0.167830  0.750000  0.712689  1
  Y  Y1  1  0.667830  0.750000  0.787311  1
  Y  Y2  1  0.832170  0.250000  0.287311  1
  Y  Y3  1  0.332170  0.250000  0.212689  1
  Y  Y4  1  0.314153  0.444164  0.942821  1
  Y  Y5  1  0.814153  0.055836  0.557179  1
  Y  Y6  1  0.685847  0.944164  0.057179  1
  Y  Y7  1  0.185847  0.555836  0.442821  1
  Y  Y8  1  0.685847  0.555836  0.057179  1
  Y  Y9  1  0.185847  0.944164  0.442821  1
  Y  Y10  1  0.314153  0.055836  0.942821  1
  Y  Y11  1  0.814153  0.444164  0.557179  1
  Y  Y12  1  0.350820  0.750000  0.207548  1
  Y  Y13  1  0.850820  0.750000  0.292452  1
  Y  Y14  1  0.649180  0.250000  0.792452  1
  Y  Y15  1  0.149180  0.250000  0.707548  1
  Sc  Sc16  1  0.032844  0.750000  0.988763  1
  Sc  Sc17  1  0.532844  0.750000  0.511237  1
  Sc  Sc18  1  0.967156  0.250000  0.011237  1
  Sc  Sc19  1  0.467156  0.250000  0.488763  1
  Bi  Bi20  1  0.435182  0.001974  0.669009  1
  Bi  Bi21  1  0.935182  0.498026  0.830991  1
  Bi  Bi22  1  0.564818  0.501974  0.330991  1
  Bi  Bi23  1  0.064818  0.998026  0.169009  1
  Bi  Bi24  1  0.564818  0.998026  0.330991  1
  Bi  Bi25  1  0.064818  0.501974  0.169009  1
  Bi  Bi26  1  0.435182  0.498026  0.669009  1
  Bi  Bi27  1  0.935182  0.001974  0.830991  1
  As  As28  1  0.408975  0.750000  0.965479  1
  As  As29  1  0.908975  0.750000  0.534521  1
  As  As30  1  0.591025  0.250000  0.034521  1
  As  As31  1  0.091025  0.250000  0.465479  1
