# generated using pymatgen
data_SmGdB6Os
_symmetry_space_group_name_H-M   'P 1'
_cell_length_a   3.70785500
_cell_length_b   9.25526400
_cell_length_c   11.64270900
_cell_angle_alpha   90.00000000
_cell_angle_beta   90.00000000
_cell_angle_gamma   90.00000000
_symmetry_Int_Tables_number   1
_chemical_formula_structural   SmGdB6Os
_chemical_formula_sum   'Sm4 Gd4 B24 Os4'
_cell_volume   399.54490433
_cell_formula_units_Z   4
loop_
 _symmetry_equiv_pos_site_id
 _symmetry_equiv_pos_as_xyz
  1  'x, y, z'
loop_
 _atom_site_type_symbol
 _atom_site_label
 _atom_site_symmetry_multiplicity
 _atom_site_fract_x
 _atom_site_fract_y
 _atom_site_fract_z
 _atom_site_occupancy
  Sm  Sm0  1  0.000000  0.323116  0.413877  1
  Sm  Sm1  1  0.000000  0.676884  0.586123  1
  Sm  Sm2  1  0.000000  0.823116  0.086123  1
  Sm  Sm3  1  0.000000  0.176884  0.913877  1
  Gd  Gd4  1  0.000000  0.944099  0.372827  1
  Gd  Gd5  1  0.000000  0.055901  0.627173  1
  Gd  Gd6  1  0.000000  0.444099  0.127173  1
  Gd  Gd7  1  0.000000  0.555901  0.872827  1
  B  B8  1  0.500000  0.555020  0.431537  1
  B  B9  1  0.500000  0.444980  0.568463  1
  B  B10  1  0.500000  0.055020  0.068463  1
  B  B11  1  0.500000  0.944980  0.931537  1
  B  B12  1  0.500000  0.747829  0.418585  1
  B  B13  1  0.500000  0.252171  0.581415  1
  B  B14  1  0.500000  0.247829  0.081415  1
  B  B15  1  0.500000  0.752171  0.918585  1
  B  B16  1  0.500000  0.789947  0.267293  1
  B  B17  1  0.500000  0.210053  0.732707  1
  B  B18  1  0.500000  0.289947  0.232707  1
  B  B19  1  0.500000  0.710053  0.767293  1
  B  B20  1  0.500000  0.631756  0.185959  1
  B  B21  1  0.500000  0.368244  0.814041  1
  B  B22  1  0.500000  0.131756  0.314041  1
  B  B23  1  0.500000  0.868244  0.685959  1
  B  B24  1  0.500000  0.985528  0.213292  1
  B  B25  1  0.500000  0.014472  0.786708  1
  B  B26  1  0.500000  0.485528  0.286708  1
  B  B27  1  0.500000  0.514472  0.713292  1
  B  B28  1  0.500000  0.607862  0.029820  1
  B  B29  1  0.500000  0.392138  0.970180  1
  B  B30  1  0.500000  0.107862  0.470180  1
  B  B31  1  0.500000  0.892138  0.529820  1
  Os  Os32  1  0.000000  0.638109  0.320959  1
  Os  Os33  1  0.000000  0.361891  0.679041  1
  Os  Os34  1  0.000000  0.138109  0.179041  1
  Os  Os35  1  0.000000  0.861891  0.820959  1
