# generated using pymatgen
data_PuNpCl6
_symmetry_space_group_name_H-M   'P 1'
_cell_length_a   7.51876112
_cell_length_b   4.20875100
_cell_length_c   7.48289100
_cell_angle_alpha   90.00000000
_cell_angle_beta   120.63713059
_cell_angle_gamma   90.00000000
_symmetry_Int_Tables_number   1
_chemical_formula_structural   PuNpCl6
_chemical_formula_sum   'Pu1 Np1 Cl6'
_cell_volume   203.73956651
_cell_formula_units_Z   1
loop_
 _symmetry_equiv_pos_site_id
 _symmetry_equiv_pos_as_xyz
  1  'x, y, z'
loop_
 _atom_site_type_symbol
 _atom_site_label
 _atom_site_symmetry_multiplicity
 _atom_site_fract_x
 _atom_site_fract_y
 _atom_site_fract_z
 _atom_site_occupancy
  Pu  Pu0  1  0.664371  0.500001  0.333247  1
  Np  Np1  1  0.332838  0.000000  0.665070  1
  Cl  Cl2  1  0.693854  0.000000  0.084858  1
  Cl  Cl3  1  0.389106  0.000000  0.304370  1
  Cl  Cl4  1  0.087354  0.500001  0.388534  1
  Cl  Cl5  1  0.919199  0.000000  0.613909  1
  Cl  Cl6  1  0.608788  0.500001  0.698385  1
  Cl  Cl7  1  0.304490  0.500001  0.911627  1
