# generated using pymatgen
data_Tb3Dy13(In3Fe)2
_symmetry_space_group_name_H-M   'P 1'
_cell_length_a   10.36526000
_cell_length_b   10.36525859
_cell_length_c   7.03289100
_cell_angle_alpha   90.00000000
_cell_angle_beta   90.00000000
_cell_angle_gamma   119.99999174
_symmetry_Int_Tables_number   1
_chemical_formula_structural   Tb3Dy13(In3Fe)2
_chemical_formula_sum   'Tb3 Dy13 In6 Fe2'
_cell_volume   654.37228295
_cell_formula_units_Z   1
loop_
 _symmetry_equiv_pos_site_id
 _symmetry_equiv_pos_as_xyz
  1  'x, y, z'
loop_
 _atom_site_type_symbol
 _atom_site_label
 _atom_site_symmetry_multiplicity
 _atom_site_fract_x
 _atom_site_fract_y
 _atom_site_fract_z
 _atom_site_occupancy
  Tb  Tb0  1  0.535197  0.070394  0.791559  1
  Tb  Tb1  1  0.929606  0.464803  0.791559  1
  Tb  Tb2  1  0.535197  0.464803  0.791559  1
  Dy  Dy3  1  0.464231  0.928461  0.292189  1
  Dy  Dy4  1  0.071539  0.535769  0.292189  1
  Dy  Dy5  1  0.464231  0.535769  0.292189  1
  Dy  Dy6  1  0.821800  0.643600  0.497766  1
  Dy  Dy7  1  0.356400  0.178200  0.497766  1
  Dy  Dy8  1  0.821800  0.178200  0.497766  1
  Dy  Dy9  1  0.178339  0.356678  0.999153  1
  Dy  Dy10  1  0.643322  0.821661  0.999153  1
  Dy  Dy11  1  0.178339  0.821661  0.999153  1
  Dy  Dy12  1  0.666667  0.333333  0.180863  1
  Dy  Dy13  1  0.333333  0.666667  0.680357  1
  Dy  Dy14  1  0.000000  0.000000  0.779853  1
  Dy  Dy15  1  0.000000  0.000000  0.280307  1
  In  In16  1  0.837067  0.674135  0.039568  1
  In  In17  1  0.325865  0.162933  0.039568  1
  In  In18  1  0.837067  0.162933  0.039568  1
  In  In19  1  0.163107  0.326213  0.539690  1
  In  In20  1  0.673787  0.836893  0.539690  1
  In  In21  1  0.163107  0.836893  0.539690  1
  Fe  Fe22  1  0.666667  0.333333  0.566824  1
  Fe  Fe23  1  0.333333  0.666667  0.067922  1
