# generated using pymatgen
data_LiPr2Si4Ag
_symmetry_space_group_name_H-M   'P 1'
_cell_length_a   9.17244594
_cell_length_b   9.17244554
_cell_length_c   4.17550300
_cell_angle_alpha   90.00000000
_cell_angle_beta   90.00000000
_cell_angle_gamma   153.35418651
_symmetry_Int_Tables_number   1
_chemical_formula_structural   LiPr2Si4Ag
_chemical_formula_sum   'Li1 Pr2 Si4 Ag1'
_cell_volume   157.54922921
_cell_formula_units_Z   1
loop_
 _symmetry_equiv_pos_site_id
 _symmetry_equiv_pos_as_xyz
  1  'x, y, z'
loop_
 _atom_site_type_symbol
 _atom_site_label
 _atom_site_symmetry_multiplicity
 _atom_site_fract_x
 _atom_site_fract_y
 _atom_site_fract_z
 _atom_site_occupancy
  Li  Li0  1  0.250804  0.749196  0.250000  1
  Pr  Pr1  1  0.597034  0.402966  0.250000  1
  Pr  Pr2  1  0.402616  0.597384  0.750000  1
  Si  Si3  1  0.966703  0.033297  0.250000  1
  Si  Si4  1  0.034071  0.965929  0.750000  1
  Si  Si5  1  0.835240  0.164760  0.250000  1
  Si  Si6  1  0.164749  0.835251  0.750000  1
  Ag  Ag7  1  0.748784  0.251216  0.750000  1
