# generated using pymatgen
data_Er6Tm2Sc12GaSi15
_symmetry_space_group_name_H-M   'P 1'
_cell_length_a   7.06977146
_cell_length_b   7.36493090
_cell_length_c   13.96284003
_cell_angle_alpha   89.93786519
_cell_angle_beta   89.98131958
_cell_angle_gamma   90.00444078
_symmetry_Int_Tables_number   1
_chemical_formula_structural   Er6Tm2Sc12GaSi15
_chemical_formula_sum   'Er6 Tm2 Sc12 Ga1 Si15'
_cell_volume   727.02196708
_cell_formula_units_Z   1
loop_
 _symmetry_equiv_pos_site_id
 _symmetry_equiv_pos_as_xyz
  1  'x, y, z'
loop_
 _atom_site_type_symbol
 _atom_site_label
 _atom_site_symmetry_multiplicity
 _atom_site_fract_x
 _atom_site_fract_y
 _atom_site_fract_z
 _atom_site_occupancy
  Er  Er0  1  0.012042  0.176182  0.096766  1
  Er  Er1  1  0.987913  0.823990  0.903604  1
  Er  Er2  1  0.487775  0.677055  0.903557  1
  Er  Er3  1  0.987426  0.825828  0.597261  1
  Er  Er4  1  0.512087  0.323163  0.096626  1
  Er  Er5  1  0.011088  0.174759  0.401995  1
  Tm  Tm6  1  0.512790  0.322826  0.401945  1
  Tm  Tm7  1  0.489878  0.678829  0.597293  1
  Sc  Sc8  1  0.161265  0.503677  0.751504  1
  Sc  Sc9  1  0.838691  0.496499  0.249978  1
  Sc  Sc10  1  0.338825  0.003765  0.249742  1
  Sc  Sc11  1  0.661547  0.995451  0.750101  1
  Sc  Sc12  1  0.332440  0.174064  0.626009  1
  Sc  Sc13  1  0.668476  0.824030  0.374418  1
  Sc  Sc14  1  0.169944  0.677668  0.373599  1
  Sc  Sc15  1  0.669498  0.823569  0.125311  1
  Sc  Sc16  1  0.828475  0.323091  0.625474  1
  Sc  Sc17  1  0.330280  0.176003  0.874968  1
  Sc  Sc18  1  0.830670  0.322906  0.874939  1
  Sc  Sc19  1  0.169099  0.676975  0.125347  1
  Ga  Ga20  1  0.161120  0.463232  0.539291  1
  Si  Si21  1  0.033214  0.115764  0.750546  1
  Si  Si22  1  0.966962  0.885244  0.249766  1
  Si  Si23  1  0.467928  0.614222  0.250034  1
  Si  Si24  1  0.531777  0.386324  0.749729  1
  Si  Si25  1  0.284512  0.871008  0.750246  1
  Si  Si26  1  0.714816  0.129118  0.249687  1
  Si  Si27  1  0.214757  0.370769  0.249497  1
  Si  Si28  1  0.785311  0.628883  0.750633  1
  Si  Si29  1  0.840113  0.535187  0.460301  1
  Si  Si30  1  0.340799  0.964995  0.460304  1
  Si  Si31  1  0.840911  0.534950  0.038700  1
  Si  Si32  1  0.658587  0.035002  0.539112  1
  Si  Si33  1  0.159038  0.464842  0.961549  1
  Si  Si34  1  0.658692  0.034836  0.960668  1
  Si  Si35  1  0.341253  0.965295  0.039502  1
