# generated using pymatgen
data_Pr5EuDyFeI12
_symmetry_space_group_name_H-M   'P 1'
_cell_length_a   10.18798465
_cell_length_b   10.04641925
_cell_length_c   10.04834396
_cell_angle_alpha   106.81629334
_cell_angle_beta   106.41076027
_cell_angle_gamma   107.05844188
_symmetry_Int_Tables_number   1
_chemical_formula_structural   Pr5EuDyFeI12
_chemical_formula_sum   'Pr5 Eu1 Dy1 Fe1 I12'
_cell_volume   862.00693564
_cell_formula_units_Z   1
loop_
 _symmetry_equiv_pos_site_id
 _symmetry_equiv_pos_as_xyz
  1  'x, y, z'
loop_
 _atom_site_type_symbol
 _atom_site_label
 _atom_site_symmetry_multiplicity
 _atom_site_fract_x
 _atom_site_fract_y
 _atom_site_fract_z
 _atom_site_occupancy
  Pr  Pr0  1  0.526031  0.594676  0.790480  1
  Pr  Pr1  1  0.194308  0.475044  0.401110  1
  Pr  Pr2  1  0.477943  0.405584  0.211073  1
  Pr  Pr3  1  0.597077  0.791124  0.525232  1
  Pr  Pr4  1  0.408199  0.209475  0.476414  1
  Eu  Eu5  1  0.000108  0.999817  0.999910  1
  Dy  Dy6  1  0.792841  0.524536  0.594813  1
  Fe  Fe7  1  0.502456  0.500541  0.500688  1
  I  I8  1  0.727091  0.192033  0.574784  1
  I  I9  1  0.953028  0.868769  0.647725  1
  I  I10  1  0.574261  0.725494  0.183241  1
  I  I11  1  0.124040  0.350492  0.043469  1
  I  I12  1  0.651295  0.956895  0.878513  1
  I  I13  1  0.875612  0.645308  0.946348  1
  I  I14  1  0.045311  0.122142  0.351235  1
  I  I15  1  0.817207  0.429136  0.285342  1
  I  I16  1  0.348746  0.043228  0.121461  1
  I  I17  1  0.277798  0.817574  0.426799  1
  I  I18  1  0.180937  0.573656  0.724546  1
  I  I19  1  0.425709  0.274478  0.816818  1
