# generated using pymatgen
data_Sc12Si12TcIrRh2
_symmetry_space_group_name_H-M   'P 1'
_cell_length_a   4.02993100
_cell_length_b   10.27520327
_cell_length_c   11.70809138
_cell_angle_alpha   90.09040805
_cell_angle_beta   90.00000000
_cell_angle_gamma   90.00000000
_symmetry_Int_Tables_number   1
_chemical_formula_structural   Sc12Si12TcIrRh2
_chemical_formula_sum   'Sc12 Si12 Tc1 Ir1 Rh2'
_cell_volume   484.81226174
_cell_formula_units_Z   1
loop_
 _symmetry_equiv_pos_site_id
 _symmetry_equiv_pos_as_xyz
  1  'x, y, z'
loop_
 _atom_site_type_symbol
 _atom_site_label
 _atom_site_symmetry_multiplicity
 _atom_site_fract_x
 _atom_site_fract_y
 _atom_site_fract_z
 _atom_site_occupancy
  Sc  Sc0  1  0.250000  0.876378  0.019728  1
  Sc  Sc1  1  0.250000  0.622448  0.521306  1
  Sc  Sc2  1  0.750000  0.121853  0.981311  1
  Sc  Sc3  1  0.750000  0.376365  0.481720  1
  Sc  Sc4  1  0.250000  0.920534  0.601311  1
  Sc  Sc5  1  0.250000  0.580369  0.102943  1
  Sc  Sc6  1  0.750000  0.078924  0.396350  1
  Sc  Sc7  1  0.750000  0.419971  0.896400  1
  Sc  Sc8  1  0.250000  0.661325  0.798012  1
  Sc  Sc9  1  0.250000  0.842074  0.299213  1
  Sc  Sc10  1  0.750000  0.342092  0.200887  1
  Sc  Sc11  1  0.750000  0.157092  0.701198  1
  Si  Si12  1  0.250000  0.014119  0.822452  1
  Si  Si13  1  0.250000  0.485147  0.322786  1
  Si  Si14  1  0.750000  0.985214  0.177886  1
  Si  Si15  1  0.750000  0.516623  0.679064  1
  Si  Si16  1  0.250000  0.249524  0.842650  1
  Si  Si17  1  0.250000  0.249451  0.341605  1
  Si  Si18  1  0.750000  0.750018  0.157935  1
  Si  Si19  1  0.750000  0.753161  0.657295  1
  Si  Si20  1  0.250000  0.192164  0.543995  1
  Si  Si21  1  0.250000  0.305220  0.045514  1
  Si  Si22  1  0.750000  0.806502  0.454692  1
  Si  Si23  1  0.750000  0.692189  0.955190  1
  Tc  Tc24  1  0.250000  0.391126  0.676313  1
  Ir  Ir25  1  0.250000  0.110053  0.176014  1
  Rh  Rh26  1  0.750000  0.610912  0.322365  1
  Rh  Rh27  1  0.750000  0.889148  0.823863  1
