# generated using pymatgen
data_Tb3Co7(NiAs3)2
_symmetry_space_group_name_H-M   'P 1'
_cell_length_a   3.85430100
_cell_length_b   10.84773600
_cell_length_c   12.75772000
_cell_angle_alpha   90.00000000
_cell_angle_beta   90.00000000
_cell_angle_gamma   90.00000000
_symmetry_Int_Tables_number   1
_chemical_formula_structural   Tb3Co7(NiAs3)2
_chemical_formula_sum   'Tb6 Co14 Ni4 As12'
_cell_volume   533.40588293
_cell_formula_units_Z   2
loop_
 _symmetry_equiv_pos_site_id
 _symmetry_equiv_pos_as_xyz
  1  'x, y, z'
loop_
 _atom_site_type_symbol
 _atom_site_label
 _atom_site_symmetry_multiplicity
 _atom_site_fract_x
 _atom_site_fract_y
 _atom_site_fract_z
 _atom_site_occupancy
  Tb  Tb0  1  0.000000  0.500000  0.521659  1
  Tb  Tb1  1  0.500000  0.000000  0.478341  1
  Tb  Tb2  1  0.500000  0.814203  0.206356  1
  Tb  Tb3  1  0.500000  0.185797  0.206356  1
  Tb  Tb4  1  0.000000  0.685797  0.793644  1
  Tb  Tb5  1  0.000000  0.314203  0.793644  1
  Co  Co6  1  0.000000  0.500000  0.981533  1
  Co  Co7  1  0.500000  0.000000  0.018467  1
  Co  Co8  1  0.500000  0.334422  0.996954  1
  Co  Co9  1  0.500000  0.665578  0.996954  1
  Co  Co10  1  0.000000  0.165578  0.003046  1
  Co  Co11  1  0.000000  0.834422  0.003046  1
  Co  Co12  1  0.500000  0.299800  0.429312  1
  Co  Co13  1  0.500000  0.700200  0.429312  1
  Co  Co14  1  0.000000  0.200200  0.570688  1
  Co  Co15  1  0.000000  0.799800  0.570688  1
  Co  Co16  1  0.500000  0.881555  0.709634  1
  Co  Co17  1  0.500000  0.118445  0.709634  1
  Co  Co18  1  0.000000  0.618445  0.290366  1
  Co  Co19  1  0.000000  0.381555  0.290366  1
  Ni  Ni20  1  0.500000  0.500000  0.160321  1
  Ni  Ni21  1  0.000000  0.000000  0.839679  1
  Ni  Ni22  1  0.500000  0.500000  0.701377  1
  Ni  Ni23  1  0.000000  0.000000  0.298623  1
  As  As24  1  0.500000  0.500000  0.880183  1
  As  As25  1  0.000000  0.000000  0.119817  1
  As  As26  1  0.500000  0.500000  0.347733  1
  As  As27  1  0.000000  0.000000  0.652267  1
  As  As28  1  0.500000  0.311053  0.614552  1
  As  As29  1  0.500000  0.688947  0.614552  1
  As  As30  1  0.000000  0.188947  0.385448  1
  As  As31  1  0.000000  0.811053  0.385448  1
  As  As32  1  0.500000  0.847488  0.893430  1
  As  As33  1  0.500000  0.152512  0.893430  1
  As  As34  1  0.000000  0.652512  0.106570  1
  As  As35  1  0.000000  0.347488  0.106570  1
