# generated using pymatgen
data_NdTh3(ReB2)6
_symmetry_space_group_name_H-M   'P 1'
_cell_length_a   6.35844886
_cell_length_b   6.35612017
_cell_length_c   7.63859078
_cell_angle_alpha   90.70705376
_cell_angle_beta   90.88816986
_cell_angle_gamma   115.07493948
_symmetry_Int_Tables_number   1
_chemical_formula_structural   NdTh3(ReB2)6
_chemical_formula_sum   'Nd1 Th3 Re6 B12'
_cell_volume   279.52460348
_cell_formula_units_Z   1
loop_
 _symmetry_equiv_pos_site_id
 _symmetry_equiv_pos_as_xyz
  1  'x, y, z'
loop_
 _atom_site_type_symbol
 _atom_site_label
 _atom_site_symmetry_multiplicity
 _atom_site_fract_x
 _atom_site_fract_y
 _atom_site_fract_z
 _atom_site_occupancy
  Nd  Nd0  1  0.439828  0.095839  0.823818  1
  Th  Th1  1  0.095095  0.440963  0.326164  1
  Th  Th2  1  0.560346  0.906506  0.172957  1
  Th  Th3  1  0.905341  0.559730  0.675013  1
  Re  Re4  1  0.587939  0.412361  0.250734  1
  Re  Re5  1  0.411933  0.586695  0.749316  1
  Re  Re6  1  0.990882  0.804671  0.086466  1
  Re  Re7  1  0.194247  0.008237  0.412522  1
  Re  Re8  1  0.008119  0.195017  0.914361  1
  Re  Re9  1  0.806850  0.992775  0.586868  1
  B  B10  1  0.246730  0.152777  0.131579  1
  B  B11  1  0.846536  0.752859  0.366789  1
  B  B12  1  0.754329  0.847024  0.866257  1
  B  B13  1  0.154789  0.247436  0.634077  1
  B  B14  1  0.583091  0.160265  0.481617  1
  B  B15  1  0.838253  0.413970  0.019672  1
  B  B16  1  0.416051  0.838558  0.519786  1
  B  B17  1  0.161729  0.584587  0.981366  1
  B  B18  1  0.443083  0.349246  0.534486  1
  B  B19  1  0.649386  0.555908  0.966317  1
  B  B20  1  0.555750  0.650757  0.466041  1
  B  B21  1  0.349693  0.443818  0.033795  1
