# generated using pymatgen
data_TbYbCe4(Cu3Bi4)2
_symmetry_space_group_name_H-M   'P 1'
_cell_length_a   8.64858584
_cell_length_b   8.64858599
_cell_length_c   8.64858632
_cell_angle_alpha   109.86137708
_cell_angle_beta   108.69371221
_cell_angle_gamma   109.86134892
_symmetry_Int_Tables_number   1
_chemical_formula_structural   TbYbCe4(Cu3Bi4)2
_chemical_formula_sum   'Tb1 Yb1 Ce4 Cu6 Bi8'
_cell_volume   497.91316607
_cell_formula_units_Z   1
loop_
 _symmetry_equiv_pos_site_id
 _symmetry_equiv_pos_as_xyz
  1  'x, y, z'
loop_
 _atom_site_type_symbol
 _atom_site_label
 _atom_site_symmetry_multiplicity
 _atom_site_fract_x
 _atom_site_fract_y
 _atom_site_fract_z
 _atom_site_occupancy
  Tb  Tb0  1  0.875000  0.250000  0.125000  1
  Yb  Yb1  1  0.625000  0.750000  0.375000  1
  Ce  Ce2  1  0.249245  0.126156  0.875803  1
  Ce  Ce3  1  0.749647  0.373844  0.623089  1
  Ce  Ce4  1  0.124197  0.873442  0.250353  1
  Ce  Ce5  1  0.376911  0.626558  0.750755  1
  Cu  Cu6  1  0.375000  0.250000  0.625000  1
  Cu  Cu7  1  0.125000  0.750000  0.875000  1
  Cu  Cu8  1  0.250701  0.620220  0.370933  1
  Cu  Cu9  1  0.750713  0.879780  0.130481  1
  Cu  Cu10  1  0.629067  0.379767  0.249287  1
  Cu  Cu11  1  0.869519  0.120233  0.749299  1
  Bi  Bi12  1  0.663388  0.501362  0.000698  1
  Bi  Bi13  1  0.499336  0.998638  0.662026  1
  Bi  Bi14  1  0.001027  0.661216  0.498084  1
  Bi  Bi15  1  0.836868  0.838784  0.839811  1
  Bi  Bi16  1  0.501916  0.002944  0.163132  1
  Bi  Bi17  1  0.160189  0.497056  0.998973  1
  Bi  Bi18  1  0.999302  0.162690  0.500664  1
  Bi  Bi19  1  0.337974  0.337310  0.336612  1
