# generated using pymatgen
data_TmTa(Ni7B2)3
_symmetry_space_group_name_H-M   'P 1'
_cell_length_a   7.47645975
_cell_length_b   7.47645913
_cell_length_c   7.47646000
_cell_angle_alpha   59.99999616
_cell_angle_beta   59.99999889
_cell_angle_gamma   59.99999654
_symmetry_Int_Tables_number   1
_chemical_formula_structural   TmTa(Ni7B2)3
_chemical_formula_sum   'Tm1 Ta1 Ni21 B6'
_cell_volume   295.51052398
_cell_formula_units_Z   1
loop_
 _symmetry_equiv_pos_site_id
 _symmetry_equiv_pos_as_xyz
  1  'x, y, z'
loop_
 _atom_site_type_symbol
 _atom_site_label
 _atom_site_symmetry_multiplicity
 _atom_site_fract_x
 _atom_site_fract_y
 _atom_site_fract_z
 _atom_site_occupancy
  Tm  Tm0  1  0.750000  0.750000  0.750000  1
  Ta  Ta1  1  0.250000  0.250000  0.250000  1
  Ni  Ni2  1  0.000000  0.000000  0.000000  1
  Ni  Ni3  1  0.609941  0.609941  0.170177  1
  Ni  Ni4  1  0.609941  0.170177  0.609941  1
  Ni  Ni5  1  0.170177  0.609941  0.609941  1
  Ni  Ni6  1  0.609941  0.609941  0.609941  1
  Ni  Ni7  1  0.382319  0.382319  0.853041  1
  Ni  Ni8  1  0.382319  0.853041  0.382319  1
  Ni  Ni9  1  0.853041  0.382319  0.382319  1
  Ni  Ni10  1  0.382319  0.382319  0.382319  1
  Ni  Ni11  1  0.002599  0.002599  0.336438  1
  Ni  Ni12  1  0.658364  0.002599  0.336438  1
  Ni  Ni13  1  0.002599  0.658364  0.336438  1
  Ni  Ni14  1  0.658364  0.336438  0.002599  1
  Ni  Ni15  1  0.002599  0.336438  0.002599  1
  Ni  Ni16  1  0.002599  0.336438  0.658364  1
  Ni  Ni17  1  0.336438  0.658364  0.002599  1
  Ni  Ni18  1  0.336438  0.002599  0.658364  1
  Ni  Ni19  1  0.336438  0.002599  0.002599  1
  Ni  Ni20  1  0.002599  0.002599  0.658364  1
  Ni  Ni21  1  0.002599  0.658364  0.002599  1
  Ni  Ni22  1  0.658364  0.002599  0.002599  1
  B  B23  1  0.731404  0.731404  0.268596  1
  B  B24  1  0.268596  0.731404  0.268596  1
  B  B25  1  0.731404  0.268596  0.268596  1
  B  B26  1  0.268596  0.268596  0.731404  1
  B  B27  1  0.731404  0.268596  0.731404  1
  B  B28  1  0.268596  0.731404  0.731404  1
