# generated using pymatgen
data_La3Pr5Cd2RuPt
_symmetry_space_group_name_H-M   'P 1'
_cell_length_a   10.02980805
_cell_length_b   10.06966792
_cell_length_c   10.14724522
_cell_angle_alpha   59.48443194
_cell_angle_beta   59.87298957
_cell_angle_gamma   60.25244029
_symmetry_Int_Tables_number   1
_chemical_formula_structural   La3Pr5Cd2RuPt
_chemical_formula_sum   'La6 Pr10 Cd4 Ru2 Pt2'
_cell_volume   722.46749991
_cell_formula_units_Z   2
loop_
 _symmetry_equiv_pos_site_id
 _symmetry_equiv_pos_as_xyz
  1  'x, y, z'
loop_
 _atom_site_type_symbol
 _atom_site_label
 _atom_site_symmetry_multiplicity
 _atom_site_fract_x
 _atom_site_fract_y
 _atom_site_fract_z
 _atom_site_occupancy
  La  La0  1  0.346251  0.346088  0.355196  1
  La  La1  1  0.346088  0.346251  0.952465  1
  La  La2  1  0.343280  0.958821  0.347685  1
  La  La3  1  0.958821  0.343280  0.350213  1
  La  La4  1  0.820318  0.188241  0.187980  1
  La  La5  1  0.188241  0.820318  0.803460  1
  Pr  Pr6  1  0.191071  0.812930  0.191578  1
  Pr  Pr7  1  0.812930  0.191071  0.804420  1
  Pr  Pr8  1  0.190504  0.190504  0.809496  1
  Pr  Pr9  1  0.805745  0.805745  0.194255  1
  Pr  Pr10  1  0.935423  0.560553  0.566547  1
  Pr  Pr11  1  0.560553  0.935423  0.937477  1
  Pr  Pr12  1  0.560314  0.936226  0.564977  1
  Pr  Pr13  1  0.936226  0.560314  0.938483  1
  Pr  Pr14  1  0.562365  0.562365  0.937635  1
  Pr  Pr15  1  0.936457  0.936457  0.563543  1
  Cd  Cd16  1  0.580872  0.579297  0.579383  1
  Cd  Cd17  1  0.579297  0.580872  0.260446  1
  Cd  Cd18  1  0.580336  0.258615  0.581538  1
  Cd  Cd19  1  0.258615  0.580336  0.579509  1
  Ru  Ru20  1  0.136665  0.147253  0.140948  1
  Ru  Ru21  1  0.147253  0.136665  0.575133  1
  Pt  Pt22  1  0.147443  0.574929  0.136530  1
  Pt  Pt23  1  0.574929  0.147443  0.141098  1
