# generated using pymatgen
data_Fe5Re(SiMo)3
_symmetry_space_group_name_H-M   'P 1'
_cell_length_a   4.71359002
_cell_length_b   4.74540111
_cell_length_c   7.64866101
_cell_angle_alpha   89.99553748
_cell_angle_beta   90.00159905
_cell_angle_gamma   119.78036651
_symmetry_Int_Tables_number   1
_chemical_formula_structural   Fe5Re(SiMo)3
_chemical_formula_sum   'Fe5 Re1 Si3 Mo3'
_cell_volume   148.49016765
_cell_formula_units_Z   1
loop_
 _symmetry_equiv_pos_site_id
 _symmetry_equiv_pos_as_xyz
  1  'x, y, z'
loop_
 _atom_site_type_symbol
 _atom_site_label
 _atom_site_symmetry_multiplicity
 _atom_site_fract_x
 _atom_site_fract_y
 _atom_site_fract_z
 _atom_site_occupancy
  Fe  Fe0  1  0.824276  0.151708  0.750931  1
  Fe  Fe1  1  0.327323  0.151658  0.750876  1
  Fe  Fe2  1  0.173762  0.347445  0.249477  1
  Fe  Fe3  1  0.170763  0.830451  0.248357  1
  Fe  Fe4  1  0.659826  0.830474  0.248345  1
  Re  Re5  1  0.669781  0.339547  0.069860  1
  Si  Si6  1  0.817301  0.634567  0.751314  1
  Si  Si7  1  0.007565  0.015292  0.496669  1
  Si  Si8  1  0.010346  0.020753  0.003175  1
  Mo  Mo9  1  0.336201  0.672362  0.941395  1
  Mo  Mo10  1  0.334557  0.669121  0.562462  1
  Mo  Mo11  1  0.668298  0.336621  0.427138  1
