# generated using pymatgen
data_Li4Ca3ThSi7Ge
_symmetry_space_group_name_H-M   'P 1'
_cell_length_a   3.83733000
_cell_length_b   7.88990705
_cell_length_c   10.62334080
_cell_angle_alpha   89.84076555
_cell_angle_beta   90.00000000
_cell_angle_gamma   90.00000000
_symmetry_Int_Tables_number   1
_chemical_formula_structural   Li4Ca3ThSi7Ge
_chemical_formula_sum   'Li4 Ca3 Th1 Si7 Ge1'
_cell_volume   321.63290428
_cell_formula_units_Z   1
loop_
 _symmetry_equiv_pos_site_id
 _symmetry_equiv_pos_as_xyz
  1  'x, y, z'
loop_
 _atom_site_type_symbol
 _atom_site_label
 _atom_site_symmetry_multiplicity
 _atom_site_fract_x
 _atom_site_fract_y
 _atom_site_fract_z
 _atom_site_occupancy
  Li  Li0  1  0.250000  0.996495  0.388366  1
  Li  Li1  1  0.750000  0.999256  0.605555  1
  Li  Li2  1  0.250000  0.495600  0.112234  1
  Li  Li3  1  0.750000  0.509728  0.887231  1
  Ca  Ca4  1  0.750000  0.866902  0.138829  1
  Ca  Ca5  1  0.250000  0.633246  0.633794  1
  Ca  Ca6  1  0.750000  0.363815  0.368179  1
  Th  Th7  1  0.250000  0.135415  0.864649  1
  Si  Si8  1  0.750000  0.268568  0.065023  1
  Si  Si9  1  0.750000  0.764889  0.430970  1
  Si  Si10  1  0.250000  0.228711  0.571137  1
  Si  Si11  1  0.750000  0.841486  0.817620  1
  Si  Si12  1  0.250000  0.165218  0.172769  1
  Si  Si13  1  0.750000  0.329126  0.683255  1
  Si  Si14  1  0.250000  0.664477  0.324007  1
  Ge  Ge15  1  0.250000  0.737068  0.936382  1
