# generated using pymatgen
data_Tb5(SnSb)2
_symmetry_space_group_name_H-M   'P 1'
_cell_length_a   8.77133683
_cell_length_b   8.77133592
_cell_length_c   8.19929300
_cell_angle_alpha   90.00000000
_cell_angle_beta   90.00000000
_cell_angle_gamma   124.60152987
_symmetry_Int_Tables_number   1
_chemical_formula_structural   Tb5(SnSb)2
_chemical_formula_sum   'Tb10 Sn4 Sb4'
_cell_volume   519.24429016
_cell_formula_units_Z   2
loop_
 _symmetry_equiv_pos_site_id
 _symmetry_equiv_pos_as_xyz
  1  'x, y, z'
loop_
 _atom_site_type_symbol
 _atom_site_label
 _atom_site_symmetry_multiplicity
 _atom_site_fract_x
 _atom_site_fract_y
 _atom_site_fract_z
 _atom_site_occupancy
  Tb  Tb0  1  0.032267  0.304692  0.333472  1
  Tb  Tb1  1  0.967733  0.695308  0.666528  1
  Tb  Tb2  1  0.467733  0.195308  0.833472  1
  Tb  Tb3  1  0.804692  0.532267  0.166528  1
  Tb  Tb4  1  0.532267  0.804692  0.166528  1
  Tb  Tb5  1  0.195308  0.467733  0.833472  1
  Tb  Tb6  1  0.695308  0.967733  0.666528  1
  Tb  Tb7  1  0.304692  0.032267  0.333472  1
  Tb  Tb8  1  0.000000  0.000000  0.000000  1
  Tb  Tb9  1  0.500000  0.500000  0.500000  1
  Sn  Sn10  1  0.366450  0.366450  0.133627  1
  Sn  Sn11  1  0.633550  0.633550  0.866373  1
  Sn  Sn12  1  0.133550  0.133550  0.633627  1
  Sn  Sn13  1  0.866450  0.866450  0.366373  1
  Sb  Sb14  1  0.796895  0.203105  0.000000  1
  Sb  Sb15  1  0.203105  0.796895  0.000000  1
  Sb  Sb16  1  0.703105  0.296895  0.500000  1
  Sb  Sb17  1  0.296895  0.703105  0.500000  1
