# generated using pymatgen
data_Y3Pa(CdPt2)2
_symmetry_space_group_name_H-M   'P 1'
_cell_length_a   7.80060589
_cell_length_b   7.80060589
_cell_length_c   3.68633400
_cell_angle_alpha   90.00000000
_cell_angle_beta   90.00000000
_cell_angle_gamma   91.61624198
_symmetry_Int_Tables_number   1
_chemical_formula_structural   Y3Pa(CdPt2)2
_chemical_formula_sum   'Y3 Pa1 Cd2 Pt4'
_cell_volume   224.22216446
_cell_formula_units_Z   1
loop_
 _symmetry_equiv_pos_site_id
 _symmetry_equiv_pos_as_xyz
  1  'x, y, z'
loop_
 _atom_site_type_symbol
 _atom_site_label
 _atom_site_symmetry_multiplicity
 _atom_site_fract_x
 _atom_site_fract_y
 _atom_site_fract_z
 _atom_site_occupancy
  Y  Y0  1  0.169696  0.332925  0.500000  1
  Y  Y1  1  0.327541  0.827541  0.500000  1
  Y  Y2  1  0.832925  0.669696  0.500000  1
  Pa  Pa3  1  0.666072  0.166072  0.500000  1
  Cd  Cd4  1  0.499355  0.505187  0.000000  1
  Cd  Cd5  1  0.005187  0.999355  0.000000  1
  Pt  Pt6  1  0.636576  0.881601  0.000000  1
  Pt  Pt7  1  0.123969  0.623969  0.000000  1
  Pt  Pt8  1  0.857078  0.357078  0.000000  1
  Pt  Pt9  1  0.381601  0.136576  0.000000  1
