# generated using pymatgen
data_Th8Ni3Os4Pt
_symmetry_space_group_name_H-M   'P 1'
_cell_length_a   4.30534300
_cell_length_b   5.81037553
_cell_length_c   14.63002338
_cell_angle_alpha   90.11938167
_cell_angle_beta   90.00000000
_cell_angle_gamma   90.00000000
_symmetry_Int_Tables_number   1
_chemical_formula_structural   Th8Ni3Os4Pt
_chemical_formula_sum   'Th8 Ni3 Os4 Pt1'
_cell_volume   365.97889051
_cell_formula_units_Z   1
loop_
 _symmetry_equiv_pos_site_id
 _symmetry_equiv_pos_as_xyz
  1  'x, y, z'
loop_
 _atom_site_type_symbol
 _atom_site_label
 _atom_site_symmetry_multiplicity
 _atom_site_fract_x
 _atom_site_fract_y
 _atom_site_fract_z
 _atom_site_occupancy
  Th  Th0  1  0.250000  0.547887  0.290852  1
  Th  Th1  1  0.750000  0.457126  0.716960  1
  Th  Th2  1  0.250000  0.957866  0.784444  1
  Th  Th3  1  0.250000  0.753353  0.537533  1
  Th  Th4  1  0.250000  0.748863  0.028534  1
  Th  Th5  1  0.750000  0.255822  0.961919  1
  Th  Th6  1  0.750000  0.044833  0.215690  1
  Th  Th7  1  0.750000  0.241754  0.463441  1
  Ni  Ni8  1  0.750000  0.768622  0.901754  1
  Ni  Ni9  1  0.250000  0.228471  0.096541  1
  Ni  Ni10  1  0.250000  0.255531  0.603683  1
  Os  Os11  1  0.250000  0.061774  0.347260  1
  Os  Os12  1  0.750000  0.729129  0.404783  1
  Os  Os13  1  0.250000  0.449399  0.855273  1
  Os  Os14  1  0.750000  0.956033  0.649701  1
  Pt  Pt15  1  0.750000  0.543541  0.141634  1
