# generated using pymatgen
data_Nb4V4SiP3
_symmetry_space_group_name_H-M   'P 1'
_cell_length_a   3.43509500
_cell_length_b   6.44362465
_cell_length_c   7.77920531
_cell_angle_alpha   89.87865684
_cell_angle_beta   90.00000000
_cell_angle_gamma   90.00000000
_symmetry_Int_Tables_number   1
_chemical_formula_structural   Nb4V4SiP3
_chemical_formula_sum   'Nb4 V4 Si1 P3'
_cell_volume   172.18814467
_cell_formula_units_Z   1
loop_
 _symmetry_equiv_pos_site_id
 _symmetry_equiv_pos_as_xyz
  1  'x, y, z'
loop_
 _atom_site_type_symbol
 _atom_site_label
 _atom_site_symmetry_multiplicity
 _atom_site_fract_x
 _atom_site_fract_y
 _atom_site_fract_z
 _atom_site_occupancy
  Nb  Nb0  1  0.250000  0.037582  0.830157  1
  Nb  Nb1  1  0.250000  0.538726  0.669627  1
  Nb  Nb2  1  0.750000  0.964603  0.167191  1
  Nb  Nb3  1  0.750000  0.455396  0.329863  1
  V  V4  1  0.250000  0.138762  0.443212  1
  V  V5  1  0.250000  0.633765  0.054509  1
  V  V6  1  0.750000  0.868109  0.562601  1
  V  V7  1  0.750000  0.363781  0.941823  1
  Si  Si8  1  0.250000  0.758452  0.360675  1
  P  P9  1  0.250000  0.260128  0.138545  1
  P  P10  1  0.750000  0.241787  0.640042  1
  P  P11  1  0.750000  0.738910  0.861757  1
