# generated using pymatgen
data_Zr5Tc24
_symmetry_space_group_name_H-M   'P 1'
_cell_length_a   8.42810958
_cell_length_b   8.43888513
_cell_length_c   8.42811000
_cell_angle_alpha   109.52648090
_cell_angle_beta   109.32277366
_cell_angle_gamma   109.52648787
_symmetry_Int_Tables_number   1
_chemical_formula_structural   Zr5Tc24
_chemical_formula_sum   'Zr5 Tc24'
_cell_volume   461.66319708
_cell_formula_units_Z   1
loop_
 _symmetry_equiv_pos_site_id
 _symmetry_equiv_pos_as_xyz
  1  'x, y, z'
loop_
 _atom_site_type_symbol
 _atom_site_label
 _atom_site_symmetry_multiplicity
 _atom_site_fract_x
 _atom_site_fract_y
 _atom_site_fract_z
 _atom_site_occupancy
  Zr  Zr0  1  0.000108  0.000242  0.000108  1
  Zr  Zr1  1  0.623629  0.999997  0.000083  1
  Zr  Zr2  1  0.000306  0.624514  0.000306  1
  Zr  Zr3  1  0.000083  0.999997  0.623629  1
  Zr  Zr4  1  0.375940  0.375439  0.375940  1
  Tc  Tc5  1  0.393573  0.673451  0.999373  1
  Tc  Tc6  1  0.719696  0.325772  0.326036  1
  Tc  Tc7  1  0.394478  0.999730  0.673453  1
  Tc  Tc8  1  0.674149  0.394131  0.000244  1
  Tc  Tc9  1  0.000244  0.394131  0.674149  1
  Tc  Tc10  1  0.325879  0.719160  0.325879  1
  Tc  Tc11  1  0.326036  0.325772  0.719696  1
  Tc  Tc12  1  0.999373  0.673451  0.393573  1
  Tc  Tc13  1  0.673453  0.999730  0.394478  1
  Tc  Tc14  1  0.605459  0.606730  0.280317  1
  Tc  Tc15  1  0.280317  0.606730  0.605459  1
  Tc  Tc16  1  0.606688  0.281401  0.606688  1
  Tc  Tc17  1  0.374975  0.194483  0.999775  1
  Tc  Tc18  1  0.180411  0.805600  0.805317  1
  Tc  Tc19  1  0.374995  0.999851  0.194677  1
  Tc  Tc20  1  0.194551  0.374490  0.999621  1
  Tc  Tc21  1  0.999621  0.374490  0.194551  1
  Tc  Tc22  1  0.805476  0.180551  0.805476  1
  Tc  Tc23  1  0.805317  0.805600  0.180411  1
  Tc  Tc24  1  0.999775  0.194483  0.374975  1
  Tc  Tc25  1  0.194677  0.999851  0.374995  1
  Tc  Tc26  1  0.625129  0.625189  0.819971  1
  Tc  Tc27  1  0.819971  0.625189  0.625129  1
  Tc  Tc28  1  0.625692  0.819842  0.625692  1
