# generated using pymatgen
data_DyY16(HoRh4)3
_symmetry_space_group_name_H-M   'P 1'
_cell_length_a   10.92610500
_cell_length_b   10.92610500
_cell_length_c   6.38415800
_cell_angle_alpha   90.00000000
_cell_angle_beta   90.00000000
_cell_angle_gamma   90.00000000
_symmetry_Int_Tables_number   1
_chemical_formula_structural   DyY16(HoRh4)3
_chemical_formula_sum   'Dy1 Y16 Ho3 Rh12'
_cell_volume   762.13931669
_cell_formula_units_Z   1
loop_
 _symmetry_equiv_pos_site_id
 _symmetry_equiv_pos_as_xyz
  1  'x, y, z'
loop_
 _atom_site_type_symbol
 _atom_site_label
 _atom_site_symmetry_multiplicity
 _atom_site_fract_x
 _atom_site_fract_y
 _atom_site_fract_z
 _atom_site_occupancy
  Dy  Dy0  1  0.000000  0.000000  0.500000  1
  Y  Y1  1  0.290499  0.088567  0.378174  1
  Y  Y2  1  0.290396  0.911463  0.878237  1
  Y  Y3  1  0.709604  0.088537  0.878237  1
  Y  Y4  1  0.709501  0.911433  0.378174  1
  Y  Y5  1  0.588551  0.790343  0.878207  1
  Y  Y6  1  0.588529  0.209660  0.378228  1
  Y  Y7  1  0.411471  0.790340  0.378228  1
  Y  Y8  1  0.411449  0.209657  0.878207  1
  Y  Y9  1  0.209660  0.411471  0.621772  1
  Y  Y10  1  0.209657  0.588551  0.121793  1
  Y  Y11  1  0.790343  0.411449  0.121793  1
  Y  Y12  1  0.790340  0.588529  0.621772  1
  Y  Y13  1  0.911463  0.709604  0.121763  1
  Y  Y14  1  0.911433  0.290499  0.621826  1
  Y  Y15  1  0.088567  0.709501  0.621826  1
  Y  Y16  1  0.088537  0.290396  0.121763  1
  Ho  Ho17  1  0.000000  0.000000  0.000000  1
  Ho  Ho18  1  0.500000  0.500000  0.000000  1
  Ho  Ho19  1  0.500000  0.500000  0.500000  1
  Rh  Rh20  1  0.847096  0.152911  0.249716  1
  Rh  Rh21  1  0.847089  0.847096  0.750284  1
  Rh  Rh22  1  0.152911  0.152904  0.750284  1
  Rh  Rh23  1  0.152904  0.847089  0.249716  1
  Rh  Rh24  1  0.652753  0.347341  0.749892  1
  Rh  Rh25  1  0.652659  0.652753  0.250108  1
  Rh  Rh26  1  0.347341  0.347247  0.250108  1
  Rh  Rh27  1  0.347247  0.652659  0.749892  1
  Rh  Rh28  1  0.500000  0.000000  0.123082  1
  Rh  Rh29  1  0.500000  0.000000  0.623058  1
  Rh  Rh30  1  0.000000  0.500000  0.876918  1
  Rh  Rh31  1  0.000000  0.500000  0.376942  1
