# generated using pymatgen
data_Y4Ga18Pd3Ru2Rh
_symmetry_space_group_name_H-M   'P 1'
_cell_length_a   7.61801783
_cell_length_b   7.61798740
_cell_length_c   9.56657109
_cell_angle_alpha   90.01754188
_cell_angle_beta   90.01726317
_cell_angle_gamma   119.64063198
_symmetry_Int_Tables_number   1
_chemical_formula_structural   Y4Ga18Pd3Ru2Rh
_chemical_formula_sum   'Y4 Ga18 Pd3 Ru2 Rh1'
_cell_volume   482.53676413
_cell_formula_units_Z   1
loop_
 _symmetry_equiv_pos_site_id
 _symmetry_equiv_pos_as_xyz
  1  'x, y, z'
loop_
 _atom_site_type_symbol
 _atom_site_label
 _atom_site_symmetry_multiplicity
 _atom_site_fract_x
 _atom_site_fract_y
 _atom_site_fract_z
 _atom_site_occupancy
  Y  Y0  1  0.999044  0.669850  0.249275  1
  Y  Y1  1  0.003613  0.332179  0.750493  1
  Y  Y2  1  0.667822  0.996388  0.249507  1
  Y  Y3  1  0.330149  0.000955  0.750726  1
  Ga  Ga4  1  0.122567  0.124109  0.249543  1
  Ga  Ga5  1  0.875892  0.877432  0.750457  1
  Ga  Ga6  1  0.995402  0.329712  0.078951  1
  Ga  Ga7  1  0.996043  0.666450  0.920705  1
  Ga  Ga8  1  0.998722  0.669573  0.581102  1
  Ga  Ga9  1  0.330426  0.001278  0.418899  1
  Ga  Ga10  1  0.000290  0.330415  0.419407  1
  Ga  Ga11  1  0.669587  0.999709  0.580594  1
  Ga  Ga12  1  0.670286  0.004594  0.921048  1
  Ga  Ga13  1  0.333552  0.003959  0.079294  1
  Ga  Ga14  1  0.327727  0.327496  0.566132  1
  Ga  Ga15  1  0.672502  0.672270  0.433868  1
  Ga  Ga16  1  0.673117  0.670127  0.062577  1
  Ga  Ga17  1  0.329875  0.326882  0.937423  1
  Ga  Ga18  1  0.342114  0.544630  0.249415  1
  Ga  Ga19  1  0.656994  0.451455  0.752804  1
  Ga  Ga20  1  0.548544  0.343006  0.247198  1
  Ga  Ga21  1  0.455372  0.657889  0.750587  1
  Pd  Pd22  1  0.328890  0.671109  0.999998  1
  Pd  Pd23  1  0.329230  0.670765  0.499998  1
  Pd  Pd24  1  0.671344  0.328657  0.499999  1
  Ru  Ru25  1  0.999852  0.000147  0.000000  1
  Ru  Ru26  1  0.000104  0.999903  0.500000  1
  Rh  Rh27  1  0.670940  0.329060  0.000000  1
