# generated using pymatgen
data_Sr2Zn8PtAu3
_symmetry_space_group_name_H-M   'P 1'
_cell_length_a   8.08673600
_cell_length_b   8.08673596
_cell_length_c   4.21412200
_cell_angle_alpha   90.00000000
_cell_angle_beta   90.00000000
_cell_angle_gamma   90.50728957
_symmetry_Int_Tables_number   1
_chemical_formula_structural   Sr2Zn8PtAu3
_chemical_formula_sum   'Sr2 Zn8 Pt1 Au3'
_cell_volume   275.57296589
_cell_formula_units_Z   1
loop_
 _symmetry_equiv_pos_site_id
 _symmetry_equiv_pos_as_xyz
  1  'x, y, z'
loop_
 _atom_site_type_symbol
 _atom_site_label
 _atom_site_symmetry_multiplicity
 _atom_site_fract_x
 _atom_site_fract_y
 _atom_site_fract_z
 _atom_site_occupancy
  Sr  Sr0  1  0.505422  0.505422  0.500000  1
  Sr  Sr1  1  0.996312  0.996312  0.000000  1
  Zn  Zn2  1  0.352131  0.085967  0.500000  1
  Zn  Zn3  1  0.652645  0.906415  0.500000  1
  Zn  Zn4  1  0.842533  0.420992  0.000000  1
  Zn  Zn5  1  0.147002  0.586248  0.000000  1
  Zn  Zn6  1  0.085967  0.352131  0.500000  1
  Zn  Zn7  1  0.906415  0.652645  0.500000  1
  Zn  Zn8  1  0.420992  0.842533  0.000000  1
  Zn  Zn9  1  0.586248  0.147002  0.000000  1
  Pt  Pt10  1  0.720513  0.720513  0.000000  1
  Au  Au11  1  0.783365  0.217078  0.500000  1
  Au  Au12  1  0.217078  0.783365  0.500000  1
  Au  Au13  1  0.283376  0.283376  0.000000  1
