# generated using pymatgen
data_Tb4InIr3O14
_symmetry_space_group_name_H-M   'P 1'
_cell_length_a   7.31147244
_cell_length_b   7.37521209
_cell_length_c   7.31147200
_cell_angle_alpha   60.28548135
_cell_angle_beta   60.00000199
_cell_angle_gamma   60.28547553
_symmetry_Int_Tables_number   1
_chemical_formula_structural   Tb4InIr3O14
_chemical_formula_sum   'Tb4 In1 Ir3 O14'
_cell_volume   279.98177246
_cell_formula_units_Z   1
loop_
 _symmetry_equiv_pos_site_id
 _symmetry_equiv_pos_as_xyz
  1  'x, y, z'
loop_
 _atom_site_type_symbol
 _atom_site_label
 _atom_site_symmetry_multiplicity
 _atom_site_fract_x
 _atom_site_fract_y
 _atom_site_fract_z
 _atom_site_occupancy
  Tb  Tb0  1  0.125000  0.125000  0.125000  1
  Tb  Tb1  1  0.625000  0.125000  0.125000  1
  Tb  Tb2  1  0.125000  0.125000  0.625000  1
  Tb  Tb3  1  0.125000  0.625000  0.125000  1
  In  In4  1  0.625000  0.125000  0.625000  1
  Ir  Ir5  1  0.625000  0.625000  0.625000  1
  Ir  Ir6  1  0.125000  0.625000  0.625000  1
  Ir  Ir7  1  0.625000  0.625000  0.125000  1
  O  O8  1  0.003287  0.990139  0.003287  1
  O  O9  1  0.246713  0.259861  0.246713  1
  O  O10  1  0.261981  0.290275  0.723872  1
  O  O11  1  0.530292  0.566786  0.951461  1
  O  O12  1  0.723872  0.290275  0.723872  1
  O  O13  1  0.723872  0.290275  0.261981  1
  O  O14  1  0.298539  0.683214  0.719708  1
  O  O15  1  0.298539  0.683214  0.298539  1
  O  O16  1  0.719708  0.683214  0.298539  1
  O  O17  1  0.951461  0.566786  0.530292  1
  O  O18  1  0.526128  0.959725  0.988019  1
  O  O19  1  0.988019  0.959725  0.526128  1
  O  O20  1  0.951461  0.566786  0.951461  1
  O  O21  1  0.526128  0.959725  0.526128  1
