# generated using pymatgen
data_NdTmHf2(NiAs)4
_symmetry_space_group_name_H-M   'P 1'
_cell_length_a   4.00206200
_cell_length_b   4.00206169
_cell_length_c   14.91651200
_cell_angle_alpha   90.00000000
_cell_angle_beta   90.00000000
_cell_angle_gamma   120.00000257
_symmetry_Int_Tables_number   1
_chemical_formula_structural   NdTmHf2(NiAs)4
_chemical_formula_sum   'Nd1 Tm1 Hf2 Ni4 As4'
_cell_volume   206.90238333
_cell_formula_units_Z   1
loop_
 _symmetry_equiv_pos_site_id
 _symmetry_equiv_pos_as_xyz
  1  'x, y, z'
loop_
 _atom_site_type_symbol
 _atom_site_label
 _atom_site_symmetry_multiplicity
 _atom_site_fract_x
 _atom_site_fract_y
 _atom_site_fract_z
 _atom_site_occupancy
  Nd  Nd0  1  0.000000  0.000000  0.000000  1
  Tm  Tm1  1  0.000000  0.000000  0.500000  1
  Hf  Hf2  1  0.000000  0.000000  0.254219  1
  Hf  Hf3  1  0.000000  0.000000  0.745781  1
  Ni  Ni4  1  0.333333  0.666667  0.164360  1
  Ni  Ni5  1  0.666667  0.333333  0.835640  1
  Ni  Ni6  1  0.666667  0.333333  0.652509  1
  Ni  Ni7  1  0.333333  0.666667  0.347491  1
  As  As8  1  0.333333  0.666667  0.617947  1
  As  As9  1  0.666667  0.333333  0.382053  1
  As  As10  1  0.666667  0.333333  0.129255  1
  As  As11  1  0.333333  0.666667  0.870745  1
