# generated using pymatgen
data_Sr8Cd9In7Au12
_symmetry_space_group_name_H-M   'P 1'
_cell_length_a   15.42978400
_cell_length_b   15.42978544
_cell_length_c   4.53777900
_cell_angle_alpha   90.00000000
_cell_angle_beta   90.00000000
_cell_angle_gamma   120.00000121
_symmetry_Int_Tables_number   1
_chemical_formula_structural   Sr8Cd9In7Au12
_chemical_formula_sum   'Sr8 Cd9 In7 Au12'
_cell_volume   935.60751329
_cell_formula_units_Z   1
loop_
 _symmetry_equiv_pos_site_id
 _symmetry_equiv_pos_as_xyz
  1  'x, y, z'
loop_
 _atom_site_type_symbol
 _atom_site_label
 _atom_site_symmetry_multiplicity
 _atom_site_fract_x
 _atom_site_fract_y
 _atom_site_fract_z
 _atom_site_occupancy
  Sr  Sr0  1  0.451367  0.000000  0.000000  1
  Sr  Sr1  1  0.000000  0.451367  0.000000  1
  Sr  Sr2  1  0.548633  0.548633  0.000000  1
  Sr  Sr3  1  0.333333  0.666667  0.000000  1
  Sr  Sr4  1  0.666667  0.333333  0.000000  1
  Sr  Sr5  1  0.821479  0.000000  0.500000  1
  Sr  Sr6  1  0.000000  0.821479  0.500000  1
  Sr  Sr7  1  0.178521  0.178521  0.500000  1
  Cd  Cd8  1  0.279046  0.000000  0.500000  1
  Cd  Cd9  1  0.000000  0.279046  0.500000  1
  Cd  Cd10  1  0.720954  0.720954  0.500000  1
  Cd  Cd11  1  0.349842  0.473835  0.500000  1
  Cd  Cd12  1  0.526165  0.876006  0.500000  1
  Cd  Cd13  1  0.473835  0.349842  0.500000  1
  Cd  Cd14  1  0.123994  0.650158  0.500000  1
  Cd  Cd15  1  0.876006  0.526165  0.500000  1
  Cd  Cd16  1  0.650158  0.123994  0.500000  1
  In  In17  1  0.182518  0.380566  0.000000  1
  In  In18  1  0.619434  0.801953  0.000000  1
  In  In19  1  0.380566  0.182518  0.000000  1
  In  In20  1  0.198047  0.817482  0.000000  1
  In  In21  1  0.801953  0.619434  0.000000  1
  In  In22  1  0.817482  0.198047  0.000000  1
  In  In23  1  0.000000  0.000000  0.000000  1
  Au  Au24  1  0.171226  0.492738  0.500000  1
  Au  Au25  1  0.507262  0.678488  0.500000  1
  Au  Au26  1  0.492738  0.171226  0.500000  1
  Au  Au27  1  0.321512  0.828774  0.500000  1
  Au  Au28  1  0.678488  0.507262  0.500000  1
  Au  Au29  1  0.828774  0.321512  0.500000  1
  Au  Au30  1  0.174303  0.000000  0.000000  1
  Au  Au31  1  0.000000  0.174303  0.000000  1
  Au  Au32  1  0.825697  0.825697  0.000000  1
  Au  Au33  1  0.657698  0.000000  0.000000  1
  Au  Au34  1  0.000000  0.657698  0.000000  1
  Au  Au35  1  0.342302  0.342302  0.000000  1
