# generated using pymatgen
data_Er3Tm2FeSb2
_symmetry_space_group_name_H-M   'P 1'
_cell_length_a   7.75244900
_cell_length_b   8.75631300
_cell_length_c   12.07994700
_cell_angle_alpha   90.00000000
_cell_angle_beta   90.00000000
_cell_angle_gamma   90.00000000
_symmetry_Int_Tables_number   1
_chemical_formula_structural   Er3Tm2FeSb2
_chemical_formula_sum   'Er12 Tm8 Fe4 Sb8'
_cell_volume   820.02147133
_cell_formula_units_Z   4
loop_
 _symmetry_equiv_pos_site_id
 _symmetry_equiv_pos_as_xyz
  1  'x, y, z'
loop_
 _atom_site_type_symbol
 _atom_site_label
 _atom_site_symmetry_multiplicity
 _atom_site_fract_x
 _atom_site_fract_y
 _atom_site_fract_z
 _atom_site_occupancy
  Er  Er0  1  0.156372  0.750000  0.205564  1
  Er  Er1  1  0.656372  0.250000  0.294436  1
  Er  Er2  1  0.843628  0.250000  0.794436  1
  Er  Er3  1  0.343628  0.750000  0.705564  1
  Er  Er4  1  0.448768  0.750000  0.995602  1
  Er  Er5  1  0.948768  0.250000  0.504398  1
  Er  Er6  1  0.551232  0.250000  0.004398  1
  Er  Er7  1  0.051232  0.750000  0.495602  1
  Er  Er8  1  0.624117  0.750000  0.309344  1
  Er  Er9  1  0.124117  0.250000  0.190656  1
  Er  Er10  1  0.375883  0.250000  0.690656  1
  Er  Er11  1  0.875883  0.750000  0.809344  1
  Tm  Tm12  1  0.825254  0.964344  0.064466  1
  Tm  Tm13  1  0.325254  0.035656  0.435534  1
  Tm  Tm14  1  0.174746  0.464344  0.935534  1
  Tm  Tm15  1  0.674746  0.535656  0.564466  1
  Tm  Tm16  1  0.174746  0.035656  0.935534  1
  Tm  Tm17  1  0.674746  0.964344  0.564466  1
  Tm  Tm18  1  0.825254  0.535656  0.064466  1
  Tm  Tm19  1  0.325254  0.464344  0.435534  1
  Fe  Fe20  1  0.430259  0.750000  0.490350  1
  Fe  Fe21  1  0.930259  0.250000  0.009650  1
  Fe  Fe22  1  0.569741  0.250000  0.509650  1
  Fe  Fe23  1  0.069741  0.750000  0.990350  1
  Sb  Sb24  1  0.931836  0.993966  0.327815  1
  Sb  Sb25  1  0.431836  0.006034  0.172185  1
  Sb  Sb26  1  0.068164  0.493966  0.672185  1
  Sb  Sb27  1  0.568164  0.506034  0.827815  1
  Sb  Sb28  1  0.068164  0.006034  0.672185  1
  Sb  Sb29  1  0.568164  0.993966  0.827815  1
  Sb  Sb30  1  0.931836  0.506034  0.327815  1
  Sb  Sb31  1  0.431836  0.493966  0.172185  1
