# generated using pymatgen
data_Er4Cr4Fe5Co2(Ni3P4)3
_symmetry_space_group_name_H-M   'P 1'
_cell_length_a   3.64813100
_cell_length_b   10.33567500
_cell_length_c   11.85449900
_cell_angle_alpha   90.00000000
_cell_angle_beta   90.00000000
_cell_angle_gamma   90.00000000
_symmetry_Int_Tables_number   1
_chemical_formula_structural   Er4Cr4Fe5Co2(Ni3P4)3
_chemical_formula_sum   'Er4 Cr4 Fe5 Co2 Ni9 P12'
_cell_volume   446.98451085
_cell_formula_units_Z   1
loop_
 _symmetry_equiv_pos_site_id
 _symmetry_equiv_pos_as_xyz
  1  'x, y, z'
loop_
 _atom_site_type_symbol
 _atom_site_label
 _atom_site_symmetry_multiplicity
 _atom_site_fract_x
 _atom_site_fract_y
 _atom_site_fract_z
 _atom_site_occupancy
  Er  Er0  1  0.250000  0.577892  0.706046  1
  Er  Er1  1  0.250000  0.920190  0.205283  1
  Er  Er2  1  0.750000  0.419709  0.294602  1
  Er  Er3  1  0.750000  0.082074  0.794435  1
  Cr  Cr4  1  0.250000  0.704870  0.990503  1
  Cr  Cr5  1  0.250000  0.794312  0.489433  1
  Cr  Cr6  1  0.750000  0.296719  0.010268  1
  Cr  Cr7  1  0.750000  0.205416  0.511617  1
  Fe  Fe8  1  0.750000  0.378192  0.799645  1
  Fe  Fe9  1  0.250000  0.464746  0.934479  1
  Fe  Fe10  1  0.250000  0.035368  0.432590  1
  Fe  Fe11  1  0.750000  0.536409  0.067651  1
  Fe  Fe12  1  0.750000  0.964010  0.567616  1
  Co  Co13  1  0.250000  0.407597  0.487353  1
  Co  Co14  1  0.250000  0.093969  0.987223  1
  Ni  Ni15  1  0.750000  0.591563  0.511589  1
  Ni  Ni16  1  0.750000  0.907703  0.010772  1
  Ni  Ni17  1  0.250000  0.222135  0.176920  1
  Ni  Ni18  1  0.250000  0.277725  0.674726  1
  Ni  Ni19  1  0.750000  0.777451  0.823645  1
  Ni  Ni20  1  0.750000  0.720981  0.323315  1
  Ni  Ni21  1  0.250000  0.878539  0.701698  1
  Ni  Ni22  1  0.250000  0.621996  0.201354  1
  Ni  Ni23  1  0.750000  0.121497  0.298343  1
  P  P24  1  0.250000  0.422389  0.112626  1
  P  P25  1  0.250000  0.076948  0.611840  1
  P  P26  1  0.750000  0.574123  0.886793  1
  P  P27  1  0.750000  0.922197  0.388082  1
  P  P28  1  0.250000  0.269835  0.867243  1
  P  P29  1  0.250000  0.234276  0.372169  1
  P  P30  1  0.750000  0.734293  0.128745  1
  P  P31  1  0.750000  0.765626  0.629532  1
  P  P32  1  0.250000  0.600445  0.393764  1
  P  P33  1  0.250000  0.898742  0.894314  1
  P  P34  1  0.750000  0.397632  0.609267  1
  P  P35  1  0.750000  0.102428  0.104520  1
