# generated using pymatgen
data_PtI10Cl
_symmetry_space_group_name_H-M   'P 1'
_cell_length_a   9.13785798
_cell_length_b   8.25594110
_cell_length_c   8.97126375
_cell_angle_alpha   90.64811388
_cell_angle_beta   88.62007000
_cell_angle_gamma   119.32587644
_symmetry_Int_Tables_number   1
_chemical_formula_structural   PtI10Cl
_chemical_formula_sum   'Pt1 I10 Cl1'
_cell_volume   589.90141284
_cell_formula_units_Z   1
loop_
 _symmetry_equiv_pos_site_id
 _symmetry_equiv_pos_as_xyz
  1  'x, y, z'
loop_
 _atom_site_type_symbol
 _atom_site_label
 _atom_site_symmetry_multiplicity
 _atom_site_fract_x
 _atom_site_fract_y
 _atom_site_fract_z
 _atom_site_occupancy
  Pt  Pt0  1  0.995658  0.500019  0.499061  1
  I  I1  1  0.008805  0.000532  0.007364  1
  I  I2  1  0.666799  0.815077  0.897760  1
  I  I3  1  0.349416  0.186052  0.119245  1
  I  I4  1  0.664288  0.290160  0.526374  1
  I  I5  1  0.328627  0.709786  0.480172  1
  I  I6  1  0.480126  0.756190  0.180089  1
  I  I7  1  0.532141  0.248138  0.833056  1
  I  I8  1  0.925429  0.799827  0.502448  1
  I  I9  1  0.064282  0.198444  0.487916  1
  I  I10  1  0.943322  0.467017  0.207601  1
  Cl  Cl11  1  0.041105  0.528755  0.758915  1
