# generated using pymatgen
data_Ca(PPt3)2
_symmetry_space_group_name_H-M   'P 1'
_cell_length_a   8.54012700
_cell_length_b   8.54012700
_cell_length_c   8.54012700
_cell_angle_alpha   90.00000000
_cell_angle_beta   90.00000000
_cell_angle_gamma   90.00000000
_symmetry_Int_Tables_number   1
_chemical_formula_structural   Ca(PPt3)2
_chemical_formula_sum   'Ca4 P8 Pt24'
_cell_volume   622.86365135
_cell_formula_units_Z   4
loop_
 _symmetry_equiv_pos_site_id
 _symmetry_equiv_pos_as_xyz
  1  'x, y, z'
loop_
 _atom_site_type_symbol
 _atom_site_label
 _atom_site_symmetry_multiplicity
 _atom_site_fract_x
 _atom_site_fract_y
 _atom_site_fract_z
 _atom_site_occupancy
  Ca  Ca0  1  0.500000  0.500000  0.000000  1
  Ca  Ca1  1  0.500000  0.000000  0.500000  1
  Ca  Ca2  1  0.000000  0.500000  0.500000  1
  Ca  Ca3  1  0.000000  0.000000  0.000000  1
  P  P4  1  0.806146  0.306146  0.193854  1
  P  P5  1  0.193854  0.806146  0.306146  1
  P  P6  1  0.693854  0.693854  0.693854  1
  P  P7  1  0.306146  0.193854  0.806146  1
  P  P8  1  0.193854  0.693854  0.806146  1
  P  P9  1  0.806146  0.193854  0.693854  1
  P  P10  1  0.306146  0.306146  0.306146  1
  P  P11  1  0.693854  0.806146  0.193854  1
  Pt  Pt12  1  0.422445  0.842581  0.158034  1
  Pt  Pt13  1  0.577555  0.342581  0.341966  1
  Pt  Pt14  1  0.077555  0.157419  0.658034  1
  Pt  Pt15  1  0.922445  0.657419  0.841966  1
  Pt  Pt16  1  0.158034  0.422445  0.842581  1
  Pt  Pt17  1  0.341966  0.577555  0.342581  1
  Pt  Pt18  1  0.658034  0.077555  0.157419  1
  Pt  Pt19  1  0.841966  0.922445  0.657419  1
  Pt  Pt20  1  0.842581  0.158034  0.422445  1
  Pt  Pt21  1  0.342581  0.341966  0.577555  1
  Pt  Pt22  1  0.157419  0.658034  0.077555  1
  Pt  Pt23  1  0.657419  0.841966  0.922445  1
  Pt  Pt24  1  0.577555  0.157419  0.841966  1
  Pt  Pt25  1  0.422445  0.657419  0.658034  1
  Pt  Pt26  1  0.922445  0.842581  0.341966  1
  Pt  Pt27  1  0.077555  0.342581  0.158034  1
  Pt  Pt28  1  0.841966  0.577555  0.157419  1
  Pt  Pt29  1  0.658034  0.422445  0.657419  1
  Pt  Pt30  1  0.341966  0.922445  0.842581  1
  Pt  Pt31  1  0.158034  0.077555  0.342581  1
  Pt  Pt32  1  0.157419  0.841966  0.577555  1
  Pt  Pt33  1  0.657419  0.658034  0.422445  1
  Pt  Pt34  1  0.842581  0.341966  0.922445  1
  Pt  Pt35  1  0.342581  0.158034  0.077555  1
