# generated using pymatgen
data_La7PrSnPd24
_symmetry_space_group_name_H-M   'P 1'
_cell_length_a   8.59854615
_cell_length_b   8.59854615
_cell_length_c   8.59854615
_cell_angle_alpha   90.01529821
_cell_angle_beta   90.01529821
_cell_angle_gamma   90.01529821
_symmetry_Int_Tables_number   1
_chemical_formula_structural   La7PrSnPd24
_chemical_formula_sum   'La7 Pr1 Sn1 Pd24'
_cell_volume   635.73340702
_cell_formula_units_Z   1
loop_
 _symmetry_equiv_pos_site_id
 _symmetry_equiv_pos_as_xyz
  1  'x, y, z'
loop_
 _atom_site_type_symbol
 _atom_site_label
 _atom_site_symmetry_multiplicity
 _atom_site_fract_x
 _atom_site_fract_y
 _atom_site_fract_z
 _atom_site_occupancy
  La  La0  1  0.747781  0.747781  0.747781  1
  La  La1  1  0.747785  0.747785  0.252276  1
  La  La2  1  0.747785  0.252276  0.747785  1
  La  La3  1  0.252428  0.252428  0.747524  1
  La  La4  1  0.252428  0.747524  0.252428  1
  La  La5  1  0.252276  0.747785  0.747785  1
  La  La6  1  0.747524  0.252428  0.252428  1
  Pr  Pr7  1  0.251525  0.251525  0.251525  1
  Sn  Sn8  1  0.999689  0.999689  0.999689  1
  Pd  Pd9  1  0.267199  0.500012  0.000025  1
  Pd  Pd10  1  0.732929  0.499999  0.000099  1
  Pd  Pd11  1  0.000025  0.267199  0.500012  1
  Pd  Pd12  1  0.500012  0.267199  0.000025  1
  Pd  Pd13  1  0.000099  0.732929  0.499999  1
  Pd  Pd14  1  0.499999  0.732929  0.000099  1
  Pd  Pd15  1  0.500012  0.000025  0.267199  1
  Pd  Pd16  1  0.267199  0.000025  0.500012  1
  Pd  Pd17  1  0.499999  0.000099  0.732929  1
  Pd  Pd18  1  0.732929  0.000099  0.499999  1
  Pd  Pd19  1  0.000025  0.500012  0.267199  1
  Pd  Pd20  1  0.000099  0.499999  0.732929  1
  Pd  Pd21  1  0.255693  0.499901  0.499901  1
  Pd  Pd22  1  0.744359  0.500041  0.500041  1
  Pd  Pd23  1  0.499901  0.255693  0.499901  1
  Pd  Pd24  1  0.500041  0.744359  0.500041  1
  Pd  Pd25  1  0.499901  0.499901  0.255693  1
  Pd  Pd26  1  0.500041  0.500041  0.744359  1
  Pd  Pd27  1  0.313601  0.000150  0.000150  1
  Pd  Pd28  1  0.686229  0.000095  0.000095  1
  Pd  Pd29  1  0.000150  0.313601  0.000150  1
  Pd  Pd30  1  0.000095  0.686229  0.000095  1
  Pd  Pd31  1  0.000150  0.000150  0.313601  1
  Pd  Pd32  1  0.000095  0.000095  0.686229  1
