# generated using pymatgen
data_Yb5(GaN2)2
_symmetry_space_group_name_H-M   'P 1'
_cell_length_a   6.02043422
_cell_length_b   6.02043502
_cell_length_c   14.11729400
_cell_angle_alpha   90.00000000
_cell_angle_beta   90.00000000
_cell_angle_gamma   132.80503331
_symmetry_Int_Tables_number   1
_chemical_formula_structural   Yb5(GaN2)2
_chemical_formula_sum   'Yb10 Ga4 N8'
_cell_volume   375.41188062
_cell_formula_units_Z   2
loop_
 _symmetry_equiv_pos_site_id
 _symmetry_equiv_pos_as_xyz
  1  'x, y, z'
loop_
 _atom_site_type_symbol
 _atom_site_label
 _atom_site_symmetry_multiplicity
 _atom_site_fract_x
 _atom_site_fract_y
 _atom_site_fract_z
 _atom_site_occupancy
  Yb  Yb0  1  0.383755  0.616245  0.325988  1
  Yb  Yb1  1  0.116245  0.883755  0.825988  1
  Yb  Yb2  1  0.616245  0.383755  0.674012  1
  Yb  Yb3  1  0.500000  0.500000  0.000000  1
  Yb  Yb4  1  0.229584  0.770416  0.080650  1
  Yb  Yb5  1  0.729584  0.270416  0.419350  1
  Yb  Yb6  1  0.270416  0.729584  0.580650  1
  Yb  Yb7  1  0.000000  0.000000  0.500000  1
  Yb  Yb8  1  0.883755  0.116245  0.174012  1
  Yb  Yb9  1  0.770416  0.229584  0.919350  1
  Ga  Ga10  1  0.905551  0.094449  0.694167  1
  Ga  Ga11  1  0.094449  0.905551  0.305833  1
  Ga  Ga12  1  0.405551  0.594449  0.805833  1
  Ga  Ga13  1  0.594449  0.405551  0.194167  1
  N  N14  1  0.081828  0.918172  0.656469  1
  N  N15  1  0.195014  0.804986  0.421277  1
  N  N16  1  0.804986  0.195014  0.578723  1
  N  N17  1  0.581828  0.418172  0.843531  1
  N  N18  1  0.418172  0.581828  0.156469  1
  N  N19  1  0.304986  0.695014  0.921277  1
  N  N20  1  0.918172  0.081828  0.343531  1
  N  N21  1  0.695014  0.304986  0.078723  1
