# generated using pymatgen
data_Rb2Ta5BiO15
_symmetry_space_group_name_H-M   'P 1'
_cell_length_a   9.32820900
_cell_length_b   9.32820806
_cell_length_c   3.96730400
_cell_angle_alpha   90.00000000
_cell_angle_beta   90.00000000
_cell_angle_gamma   111.84680796
_symmetry_Int_Tables_number   1
_chemical_formula_structural   Rb2Ta5BiO15
_chemical_formula_sum   'Rb2 Ta5 Bi1 O15'
_cell_volume   320.42410049
_cell_formula_units_Z   1
loop_
 _symmetry_equiv_pos_site_id
 _symmetry_equiv_pos_as_xyz
  1  'x, y, z'
loop_
 _atom_site_type_symbol
 _atom_site_label
 _atom_site_symmetry_multiplicity
 _atom_site_fract_x
 _atom_site_fract_y
 _atom_site_fract_z
 _atom_site_occupancy
  Rb  Rb0  1  0.298231  0.701769  0.000000  1
  Rb  Rb1  1  0.701769  0.298231  0.000000  1
  Ta  Ta2  1  0.321062  0.061441  0.500000  1
  Ta  Ta3  1  0.061441  0.321062  0.500000  1
  Ta  Ta4  1  0.678938  0.938559  0.500000  1
  Ta  Ta5  1  0.938559  0.678938  0.500000  1
  Ta  Ta6  1  0.500000  0.500000  0.500000  1
  Bi  Bi7  1  0.000000  0.000000  0.000000  1
  O  O8  1  0.136353  0.136353  0.500000  1
  O  O9  1  0.154189  0.845811  0.500000  1
  O  O10  1  0.274146  0.457331  0.500000  1
  O  O11  1  0.845811  0.154189  0.500000  1
  O  O12  1  0.863647  0.863647  0.500000  1
  O  O13  1  0.292337  0.050232  0.000000  1
  O  O14  1  0.707663  0.949768  0.000000  1
  O  O15  1  0.542669  0.725854  0.500000  1
  O  O16  1  0.050232  0.292337  0.000000  1
  O  O17  1  0.500000  0.000000  0.500000  1
  O  O18  1  0.457331  0.274146  0.500000  1
  O  O19  1  0.949768  0.707663  0.000000  1
  O  O20  1  0.500000  0.500000  0.000000  1
  O  O21  1  0.725854  0.542669  0.500000  1
  O  O22  1  0.000000  0.500000  0.500000  1
