# generated using pymatgen
data_ErTh5NiBr15
_symmetry_space_group_name_H-M   'P 1'
_cell_length_a   10.11666551
_cell_length_b   10.11666626
_cell_length_c   10.11666603
_cell_angle_alpha   109.96529193
_cell_angle_beta   109.22475081
_cell_angle_gamma   109.22475145
_symmetry_Int_Tables_number   1
_chemical_formula_structural   ErTh5NiBr15
_chemical_formula_sum   'Er1 Th5 Ni1 Br15'
_cell_volume   797.01426360
_cell_formula_units_Z   1
loop_
 _symmetry_equiv_pos_site_id
 _symmetry_equiv_pos_as_xyz
  1  'x, y, z'
loop_
 _atom_site_type_symbol
 _atom_site_label
 _atom_site_symmetry_multiplicity
 _atom_site_fract_x
 _atom_site_fract_y
 _atom_site_fract_z
 _atom_site_occupancy
  Er  Er0  1  0.000000  0.241597  0.241597  1
  Th  Th1  1  0.000000  0.755736  0.755736  1
  Th  Th2  1  0.238790  0.003011  0.241801  1
  Th  Th3  1  0.761210  0.003011  0.764221  1
  Th  Th4  1  0.238790  0.241801  0.003011  1
  Th  Th5  1  0.761210  0.764221  0.003011  1
  Ni  Ni6  1  0.000000  0.992826  0.992826  1
  Br  Br7  1  0.499591  0.249710  0.249710  1
  Br  Br8  1  0.500409  0.750119  0.750119  1
  Br  Br9  1  0.000000  0.249710  0.750119  1
  Br  Br10  1  0.000000  0.750119  0.249710  1
  Br  Br11  1  0.241447  0.493503  0.252056  1
  Br  Br12  1  0.758553  0.010608  0.252056  1
  Br  Br13  1  0.749614  0.499989  0.750375  1
  Br  Br14  1  0.250386  0.000760  0.750375  1
  Br  Br15  1  0.241447  0.252056  0.493503  1
  Br  Br16  1  0.749614  0.750375  0.499989  1
  Br  Br17  1  0.758553  0.252056  0.010608  1
  Br  Br18  1  0.250386  0.750375  0.000760  1
  Br  Br19  1  0.000000  0.493558  0.493558  1
  Br  Br20  1  0.500000  0.997429  0.497429  1
  Br  Br21  1  0.500000  0.497429  0.997429  1
