# generated using pymatgen
data_CsTe24
_symmetry_space_group_name_H-M   'P 1'
_cell_length_a   9.49964910
_cell_length_b   9.49501932
_cell_length_c   12.39122009
_cell_angle_alpha   112.30835357
_cell_angle_beta   112.43880556
_cell_angle_gamma   90.35875130
_symmetry_Int_Tables_number   1
_chemical_formula_structural   CsTe24
_chemical_formula_sum   'Cs1 Te24'
_cell_volume   940.68882586
_cell_formula_units_Z   1
loop_
 _symmetry_equiv_pos_site_id
 _symmetry_equiv_pos_as_xyz
  1  'x, y, z'
loop_
 _atom_site_type_symbol
 _atom_site_label
 _atom_site_symmetry_multiplicity
 _atom_site_fract_x
 _atom_site_fract_y
 _atom_site_fract_z
 _atom_site_occupancy
  Cs  Cs0  1  0.185967  0.186605  0.373971  1
  Te  Te1  1  0.733629  0.732976  0.464108  1
  Te  Te2  1  0.432542  0.433922  0.865189  1
  Te  Te3  1  0.891971  0.808830  0.014914  1
  Te  Te4  1  0.112473  0.526708  0.790253  1
  Te  Te5  1  0.262081  0.112552  0.789440  1
  Te  Te6  1  0.001323  0.199658  0.626642  1
  Te  Te7  1  0.316862  0.762452  0.229735  1
  Te  Te8  1  0.994775  0.803398  0.402086  1
  Te  Te9  1  0.676061  0.265985  0.789644  1
  Te  Te10  1  0.466411  0.313693  0.231026  1
  Te  Te11  1  0.813774  0.128764  0.016630  1
  Te  Te12  1  0.524646  0.676678  0.788354  1
  Te  Te13  1  0.765367  0.916428  0.228920  1
  Te  Te14  1  0.914298  0.467716  0.229245  1
  Te  Te15  1  0.427624  0.000949  0.629239  1
  Te  Te16  1  0.602161  0.992714  0.400907  1
  Te  Te17  1  0.198965  0.629799  0.628323  1
  Te  Te18  1  0.204401  0.890917  0.018742  1
  Te  Te19  1  0.619370  0.426764  0.622829  1
  Te  Te20  1  0.012003  0.512217  0.022505  1
  Te  Te21  1  0.801835  0.408592  0.401053  1
  Te  Te22  1  0.124327  0.208372  0.016354  1
  Te  Te23  1  0.512194  0.012123  0.023141  1
  Te  Te24  1  0.410982  0.599672  0.403800  1
