# generated using pymatgen
data_Mn3AlCr17(WC3)2
_symmetry_space_group_name_H-M   'P 1'
_cell_length_a   7.51938440
_cell_length_b   7.51938529
_cell_length_c   7.51938515
_cell_angle_alpha   60.06966718
_cell_angle_beta   60.06966359
_cell_angle_gamma   60.06966394
_symmetry_Int_Tables_number   1
_chemical_formula_structural   Mn3AlCr17(WC3)2
_chemical_formula_sum   'Mn3 Al1 Cr17 W2 C6'
_cell_volume   301.10438087
_cell_formula_units_Z   1
loop_
 _symmetry_equiv_pos_site_id
 _symmetry_equiv_pos_as_xyz
  1  'x, y, z'
loop_
 _atom_site_type_symbol
 _atom_site_label
 _atom_site_symmetry_multiplicity
 _atom_site_fract_x
 _atom_site_fract_y
 _atom_site_fract_z
 _atom_site_occupancy
  Mn  Mn0  1  0.616642  0.616642  0.149342  1
  Mn  Mn1  1  0.616642  0.149341  0.616642  1
  Mn  Mn2  1  0.149342  0.616642  0.616642  1
  Al  Al3  1  0.999449  0.999449  0.999449  1
  Cr  Cr4  1  0.616894  0.616894  0.616894  1
  Cr  Cr5  1  0.385317  0.385317  0.844544  1
  Cr  Cr6  1  0.385317  0.844544  0.385317  1
  Cr  Cr7  1  0.844544  0.385317  0.385317  1
  Cr  Cr8  1  0.385750  0.385750  0.385750  1
  Cr  Cr9  1  0.998783  0.998783  0.343772  1
  Cr  Cr10  1  0.657403  0.000139  0.343155  1
  Cr  Cr11  1  0.000139  0.657403  0.343155  1
  Cr  Cr12  1  0.657403  0.343155  0.000139  1
  Cr  Cr13  1  0.998783  0.343772  0.998783  1
  Cr  Cr14  1  0.000139  0.343155  0.657403  1
  Cr  Cr15  1  0.343155  0.657403  0.000139  1
  Cr  Cr16  1  0.343155  0.000139  0.657403  1
  Cr  Cr17  1  0.343772  0.998783  0.998783  1
  Cr  Cr18  1  0.999386  0.999386  0.656392  1
  Cr  Cr19  1  0.999386  0.656392  0.999386  1
  Cr  Cr20  1  0.656392  0.999386  0.999386  1
  W  W21  1  0.751152  0.751152  0.751152  1
  W  W22  1  0.250281  0.250281  0.250281  1
  C  C23  1  0.723207  0.723207  0.275371  1
  C  C24  1  0.278334  0.722326  0.278334  1
  C  C25  1  0.722326  0.278334  0.278334  1
  C  C26  1  0.278334  0.278334  0.722326  1
  C  C27  1  0.723207  0.275371  0.723207  1
  C  C28  1  0.275371  0.723207  0.723207  1
