# generated using pymatgen
data_Pu(PS3)2
_symmetry_space_group_name_H-M   'P 1'
_cell_length_a   7.03872300
_cell_length_b   7.03823101
_cell_length_c   9.72914600
_cell_angle_alpha   90.00000000
_cell_angle_beta   90.00000000
_cell_angle_gamma   89.99555535
_symmetry_Int_Tables_number   1
_chemical_formula_structural   Pu(PS3)2
_chemical_formula_sum   'Pu2 P4 S12'
_cell_volume   481.98343340
_cell_formula_units_Z   2
loop_
 _symmetry_equiv_pos_site_id
 _symmetry_equiv_pos_as_xyz
  1  'x, y, z'
loop_
 _atom_site_type_symbol
 _atom_site_label
 _atom_site_symmetry_multiplicity
 _atom_site_fract_x
 _atom_site_fract_y
 _atom_site_fract_z
 _atom_site_occupancy
  Pu  Pu0  1  0.000000  0.000000  0.750007  1
  Pu  Pu1  1  0.000000  0.000000  0.249993  1
  P  P2  1  0.652436  0.057487  0.000000  1
  P  P3  1  0.347564  0.942513  0.000000  1
  P  P4  1  0.057488  0.347552  0.500000  1
  P  P5  1  0.942512  0.652448  0.500000  1
  S  S6  1  0.210713  0.312370  0.673767  1
  S  S7  1  0.687607  0.210722  0.173762  1
  S  S8  1  0.173007  0.174478  0.000000  1
  S  S9  1  0.825548  0.173035  0.500000  1
  S  S10  1  0.174452  0.826965  0.500000  1
  S  S11  1  0.826993  0.825522  0.000000  1
  S  S12  1  0.210713  0.312370  0.326233  1
  S  S13  1  0.687607  0.210722  0.826238  1
  S  S14  1  0.312393  0.789278  0.826238  1
  S  S15  1  0.789287  0.687630  0.326233  1
  S  S16  1  0.789287  0.687630  0.673767  1
  S  S17  1  0.312393  0.789278  0.173762  1
