# generated using pymatgen
data_Sm3PtRh2Pb3
_symmetry_space_group_name_H-M   'P 1'
_cell_length_a   7.83661800
_cell_length_b   7.83661863
_cell_length_c   3.95274600
_cell_angle_alpha   90.00000000
_cell_angle_beta   90.00000000
_cell_angle_gamma   119.99999732
_symmetry_Int_Tables_number   1
_chemical_formula_structural   Sm3PtRh2Pb3
_chemical_formula_sum   'Sm3 Pt1 Rh2 Pb3'
_cell_volume   210.22624888
_cell_formula_units_Z   1
loop_
 _symmetry_equiv_pos_site_id
 _symmetry_equiv_pos_as_xyz
  1  'x, y, z'
loop_
 _atom_site_type_symbol
 _atom_site_label
 _atom_site_symmetry_multiplicity
 _atom_site_fract_x
 _atom_site_fract_y
 _atom_site_fract_z
 _atom_site_occupancy
  Sm  Sm0  1  0.003845  0.592891  0.000000  1
  Sm  Sm1  1  0.407109  0.410955  0.000000  1
  Sm  Sm2  1  0.589045  0.996155  0.000000  1
  Pt  Pt3  1  0.666667  0.333333  0.500000  1
  Rh  Rh4  1  0.000000  0.000000  0.000000  1
  Rh  Rh5  1  0.333333  0.666667  0.500000  1
  Pb  Pb6  1  0.738454  0.743338  0.500000  1
  Pb  Pb7  1  0.004884  0.261546  0.500000  1
  Pb  Pb8  1  0.256662  0.995116  0.500000  1
