# generated using pymatgen
data_Tm6Al24Ru5Pt2Au
_symmetry_space_group_name_H-M   'P 1'
_cell_length_a   8.84094991
_cell_length_b   8.84094890
_cell_length_c   9.47555323
_cell_angle_alpha   89.62841192
_cell_angle_beta   90.37158795
_cell_angle_gamma   120.03288480
_symmetry_Int_Tables_number   1
_chemical_formula_structural   Tm6Al24Ru5Pt2Au
_chemical_formula_sum   'Tm6 Al24 Ru5 Pt2 Au1'
_cell_volume   641.17537821
_cell_formula_units_Z   1
loop_
 _symmetry_equiv_pos_site_id
 _symmetry_equiv_pos_as_xyz
  1  'x, y, z'
loop_
 _atom_site_type_symbol
 _atom_site_label
 _atom_site_symmetry_multiplicity
 _atom_site_fract_x
 _atom_site_fract_y
 _atom_site_fract_z
 _atom_site_occupancy
  Tm  Tm0  1  0.807233  0.192767  0.747000  1
  Tm  Tm1  1  0.192767  0.807233  0.253000  1
  Tm  Tm2  1  0.385661  0.192781  0.751621  1
  Tm  Tm3  1  0.614339  0.807219  0.248379  1
  Tm  Tm4  1  0.807219  0.614339  0.751621  1
  Tm  Tm5  1  0.192781  0.385661  0.248379  1
  Al  Al6  1  0.672317  0.327683  0.970986  1
  Al  Al7  1  0.327683  0.672317  0.029014  1
  Al  Al8  1  0.336218  0.663782  0.470286  1
  Al  Al9  1  0.663782  0.336218  0.529714  1
  Al  Al10  1  0.838253  0.161747  0.420354  1
  Al  Al11  1  0.161747  0.838253  0.579646  1
  Al  Al12  1  0.324451  0.166879  0.423025  1
  Al  Al13  1  0.162907  0.837093  0.922496  1
  Al  Al14  1  0.675549  0.833121  0.576975  1
  Al  Al15  1  0.837093  0.162907  0.077504  1
  Al  Al16  1  0.833121  0.675549  0.423025  1
  Al  Al17  1  0.677163  0.849131  0.920758  1
  Al  Al18  1  0.166879  0.324451  0.576975  1
  Al  Al19  1  0.322837  0.150869  0.079242  1
  Al  Al20  1  0.150869  0.322837  0.920758  1
  Al  Al21  1  0.849131  0.677163  0.079242  1
  Al  Al22  1  0.436246  0.563754  0.741771  1
  Al  Al23  1  0.563754  0.436246  0.258229  1
  Al  Al24  1  0.123400  0.562034  0.753374  1
  Al  Al25  1  0.876600  0.437966  0.246626  1
  Al  Al26  1  0.437966  0.876600  0.753374  1
  Al  Al27  1  0.562034  0.123400  0.246626  1
  Al  Al28  1  0.000370  0.999630  0.749951  1
  Al  Al29  1  0.999630  0.000370  0.250049  1
  Ru  Ru30  1  0.000000  0.500000  0.000000  1
  Ru  Ru31  1  0.500000  0.500000  0.500000  1
  Ru  Ru32  1  0.500000  0.000000  0.000000  1
  Ru  Ru33  1  0.000000  0.000000  0.000000  1
  Ru  Ru34  1  0.000000  0.000000  0.500000  1
  Pt  Pt35  1  0.000000  0.500000  0.500000  1
  Pt  Pt36  1  0.500000  0.000000  0.500000  1
  Au  Au37  1  0.500000  0.500000  0.000000  1
