# generated using pymatgen
data_Ca6TaOsO12
_symmetry_space_group_name_H-M   'P 1'
_cell_length_a   5.89394129
_cell_length_b   5.60945691
_cell_length_c   9.83713465
_cell_angle_alpha   55.31886645
_cell_angle_beta   90.00058153
_cell_angle_gamma   90.01906466
_symmetry_Int_Tables_number   1
_chemical_formula_structural   Ca6TaOsO12
_chemical_formula_sum   'Ca6 Ta1 Os1 O12'
_cell_volume   267.44969318
_cell_formula_units_Z   1
loop_
 _symmetry_equiv_pos_site_id
 _symmetry_equiv_pos_as_xyz
  1  'x, y, z'
loop_
 _atom_site_type_symbol
 _atom_site_label
 _atom_site_symmetry_multiplicity
 _atom_site_fract_x
 _atom_site_fract_y
 _atom_site_fract_z
 _atom_site_occupancy
  Ca  Ca0  1  0.054219  0.719988  0.766688  1
  Ca  Ca1  1  0.945781  0.280012  0.233312  1
  Ca  Ca2  1  0.562819  0.269803  0.754187  1
  Ca  Ca3  1  0.437181  0.730197  0.245813  1
  Ca  Ca4  1  0.500000  0.500000  0.000000  1
  Ca  Ca5  1  0.000000  0.500000  0.500000  1
  Ta  Ta6  1  0.000000  0.000000  0.000000  1
  Os  Os7  1  0.500000  0.000000  0.500000  1
  O  O8  1  0.450086  0.897153  0.717890  1
  O  O9  1  0.549914  0.102847  0.282110  1
  O  O10  1  0.940150  0.109817  0.768533  1
  O  O11  1  0.059850  0.890183  0.231467  1
  O  O12  1  0.770616  0.763632  0.571788  1
  O  O13  1  0.229384  0.236368  0.428212  1
  O  O14  1  0.280829  0.252143  0.923128  1
  O  O15  1  0.719171  0.747857  0.076872  1
  O  O16  1  0.326680  0.669020  0.553041  1
  O  O17  1  0.673320  0.330980  0.446959  1
  O  O18  1  0.816678  0.343053  0.946089  1
  O  O19  1  0.183322  0.656947  0.053911  1
