# generated using pymatgen
data_TmCo3Ni2As3
_symmetry_space_group_name_H-M   'P 1'
_cell_length_a   3.79041000
_cell_length_b   10.63677400
_cell_length_c   12.24238700
_cell_angle_alpha   90.00000000
_cell_angle_beta   90.00000000
_cell_angle_gamma   90.00000000
_symmetry_Int_Tables_number   1
_chemical_formula_structural   TmCo3Ni2As3
_chemical_formula_sum   'Tm4 Co12 Ni8 As12'
_cell_volume   493.58530917
_cell_formula_units_Z   4
loop_
 _symmetry_equiv_pos_site_id
 _symmetry_equiv_pos_as_xyz
  1  'x, y, z'
loop_
 _atom_site_type_symbol
 _atom_site_label
 _atom_site_symmetry_multiplicity
 _atom_site_fract_x
 _atom_site_fract_y
 _atom_site_fract_z
 _atom_site_occupancy
  Tm  Tm0  1  0.250000  0.580346  0.703824  1
  Tm  Tm1  1  0.250000  0.919654  0.203824  1
  Tm  Tm2  1  0.750000  0.419654  0.296176  1
  Tm  Tm3  1  0.750000  0.080346  0.796176  1
  Co  Co4  1  0.250000  0.216312  0.178540  1
  Co  Co5  1  0.250000  0.283688  0.678540  1
  Co  Co6  1  0.750000  0.783688  0.821460  1
  Co  Co7  1  0.750000  0.716312  0.321460  1
  Co  Co8  1  0.250000  0.882289  0.696129  1
  Co  Co9  1  0.250000  0.617711  0.196129  1
  Co  Co10  1  0.750000  0.117711  0.303871  1
  Co  Co11  1  0.750000  0.382289  0.803871  1
  Co  Co12  1  0.250000  0.468915  0.932084  1
  Co  Co13  1  0.250000  0.031085  0.432084  1
  Co  Co14  1  0.750000  0.531085  0.067916  1
  Co  Co15  1  0.750000  0.968915  0.567916  1
  Ni  Ni16  1  0.250000  0.710584  0.990751  1
  Ni  Ni17  1  0.250000  0.789416  0.490751  1
  Ni  Ni18  1  0.750000  0.289416  0.009249  1
  Ni  Ni19  1  0.750000  0.210584  0.509249  1
  Ni  Ni20  1  0.250000  0.409690  0.485380  1
  Ni  Ni21  1  0.250000  0.090310  0.985380  1
  Ni  Ni22  1  0.750000  0.590310  0.514620  1
  Ni  Ni23  1  0.750000  0.909690  0.014620  1
  As  As24  1  0.250000  0.415883  0.114421  1
  As  As25  1  0.250000  0.084117  0.614421  1
  As  As26  1  0.750000  0.584117  0.885579  1
  As  As27  1  0.750000  0.915883  0.385579  1
  As  As28  1  0.250000  0.268366  0.868213  1
  As  As29  1  0.250000  0.231634  0.368213  1
  As  As30  1  0.750000  0.731634  0.131787  1
  As  As31  1  0.750000  0.768366  0.631787  1
  As  As32  1  0.250000  0.603084  0.386838  1
  As  As33  1  0.250000  0.896916  0.886838  1
  As  As34  1  0.750000  0.396916  0.613162  1
  As  As35  1  0.750000  0.103084  0.113162  1
