# generated using pymatgen
data_Er9Tm7(ScBi3)4
_symmetry_space_group_name_H-M   'P 1'
_cell_length_a   8.06378387
_cell_length_b   9.31768832
_cell_length_c   11.86004400
_cell_angle_alpha   89.99328514
_cell_angle_beta   89.93703973
_cell_angle_gamma   89.98653216
_symmetry_Int_Tables_number   1
_chemical_formula_structural   Er9Tm7(ScBi3)4
_chemical_formula_sum   'Er9 Tm7 Sc4 Bi12'
_cell_volume   891.11361909
_cell_formula_units_Z   1
loop_
 _symmetry_equiv_pos_site_id
 _symmetry_equiv_pos_as_xyz
  1  'x, y, z'
loop_
 _atom_site_type_symbol
 _atom_site_label
 _atom_site_symmetry_multiplicity
 _atom_site_fract_x
 _atom_site_fract_y
 _atom_site_fract_z
 _atom_site_occupancy
  Er  Er0  1  0.355207  0.250325  0.283650  1
  Er  Er1  1  0.645363  0.750048  0.716491  1
  Er  Er2  1  0.145214  0.750270  0.783474  1
  Er  Er3  1  0.854590  0.250486  0.216579  1
  Er  Er4  1  0.185801  0.250152  0.781236  1
  Er  Er5  1  0.814189  0.750000  0.218614  1
  Er  Er6  1  0.314203  0.750070  0.281327  1
  Er  Er7  1  0.685926  0.250102  0.718566  1
  Er  Er8  1  0.194636  0.065543  0.058449  1
  Tm  Tm9  1  0.804879  0.932820  0.941436  1
  Tm  Tm10  1  0.304681  0.932767  0.558537  1
  Tm  Tm11  1  0.804369  0.567074  0.941377  1
  Tm  Tm12  1  0.695416  0.067106  0.441416  1
  Tm  Tm13  1  0.195488  0.432773  0.058632  1
  Tm  Tm14  1  0.695484  0.432970  0.441514  1
  Tm  Tm15  1  0.304542  0.567150  0.558612  1
  Sc  Sc16  1  0.023522  0.249862  0.512296  1
  Sc  Sc17  1  0.976435  0.750381  0.487891  1
  Sc  Sc18  1  0.476700  0.750317  0.012381  1
  Sc  Sc19  1  0.524041  0.250162  0.987719  1
  Bi  Bi20  1  0.400710  0.249900  0.543103  1
  Bi  Bi21  1  0.599403  0.749965  0.456850  1
  Bi  Bi22  1  0.098886  0.748341  0.042749  1
  Bi  Bi23  1  0.900429  0.250329  0.956857  1
  Bi  Bi24  1  0.065556  0.004173  0.330460  1
  Bi  Bi25  1  0.934166  0.995938  0.669450  1
  Bi  Bi26  1  0.434288  0.996204  0.830205  1
  Bi  Bi27  1  0.934206  0.504270  0.669601  1
  Bi  Bi28  1  0.565922  0.004142  0.169885  1
  Bi  Bi29  1  0.065666  0.495998  0.330525  1
  Bi  Bi30  1  0.565646  0.496185  0.169763  1
  Bi  Bi31  1  0.434438  0.504178  0.830356  1
