# generated using pymatgen
data_Dy2Co9TcP6
_symmetry_space_group_name_H-M   'P 1'
_cell_length_a   3.68696500
_cell_length_b   10.32988800
_cell_length_c   11.78223500
_cell_angle_alpha   90.00000000
_cell_angle_beta   90.00000000
_cell_angle_gamma   90.00000000
_symmetry_Int_Tables_number   1
_chemical_formula_structural   Dy2Co9TcP6
_chemical_formula_sum   'Dy4 Co18 Tc2 P12'
_cell_volume   448.73744237
_cell_formula_units_Z   2
loop_
 _symmetry_equiv_pos_site_id
 _symmetry_equiv_pos_as_xyz
  1  'x, y, z'
loop_
 _atom_site_type_symbol
 _atom_site_label
 _atom_site_symmetry_multiplicity
 _atom_site_fract_x
 _atom_site_fract_y
 _atom_site_fract_z
 _atom_site_occupancy
  Dy  Dy0  1  0.250000  0.582424  0.702967  1
  Dy  Dy1  1  0.250000  0.917576  0.202967  1
  Dy  Dy2  1  0.750000  0.415196  0.295603  1
  Dy  Dy3  1  0.750000  0.084804  0.795603  1
  Co  Co4  1  0.750000  0.284907  0.010249  1
  Co  Co5  1  0.750000  0.215093  0.510249  1
  Co  Co6  1  0.250000  0.406036  0.488136  1
  Co  Co7  1  0.250000  0.093964  0.988136  1
  Co  Co8  1  0.750000  0.591933  0.510912  1
  Co  Co9  1  0.750000  0.908067  0.010912  1
  Co  Co10  1  0.250000  0.220776  0.176550  1
  Co  Co11  1  0.250000  0.279224  0.676550  1
  Co  Co12  1  0.750000  0.778869  0.822875  1
  Co  Co13  1  0.750000  0.721131  0.322875  1
  Co  Co14  1  0.250000  0.885766  0.701047  1
  Co  Co15  1  0.250000  0.614234  0.201047  1
  Co  Co16  1  0.750000  0.116727  0.301320  1
  Co  Co17  1  0.750000  0.383273  0.801320  1
  Co  Co18  1  0.250000  0.464444  0.932766  1
  Co  Co19  1  0.250000  0.035556  0.432766  1
  Co  Co20  1  0.750000  0.533082  0.068334  1
  Co  Co21  1  0.750000  0.966918  0.568334  1
  Tc  Tc22  1  0.250000  0.710370  0.988858  1
  Tc  Tc23  1  0.250000  0.789630  0.488858  1
  P  P24  1  0.250000  0.417557  0.112409  1
  P  P25  1  0.250000  0.082443  0.612409  1
  P  P26  1  0.750000  0.578751  0.886763  1
  P  P27  1  0.750000  0.921249  0.386763  1
  P  P28  1  0.250000  0.269756  0.868441  1
  P  P29  1  0.250000  0.230244  0.368441  1
  P  P30  1  0.750000  0.729182  0.133164  1
  P  P31  1  0.750000  0.770818  0.633164  1
  P  P32  1  0.250000  0.595889  0.390998  1
  P  P33  1  0.250000  0.904111  0.890998  1
  P  P34  1  0.750000  0.397381  0.608607  1
  P  P35  1  0.750000  0.102619  0.108607  1
