# generated using pymatgen
data_SmY2Ho3(Si3Ru)8
_symmetry_space_group_name_H-M   'P 1'
_cell_length_a   10.12447563
_cell_length_b   10.12447783
_cell_length_c   8.14496505
_cell_angle_alpha   90.10212453
_cell_angle_beta   89.89787991
_cell_angle_gamma   132.57856613
_symmetry_Int_Tables_number   1
_chemical_formula_structural   SmY2Ho3(Si3Ru)8
_chemical_formula_sum   'Sm1 Y2 Ho3 Si24 Ru8'
_cell_volume   614.77756918
_cell_formula_units_Z   1
loop_
 _symmetry_equiv_pos_site_id
 _symmetry_equiv_pos_as_xyz
  1  'x, y, z'
loop_
 _atom_site_type_symbol
 _atom_site_label
 _atom_site_symmetry_multiplicity
 _atom_site_fract_x
 _atom_site_fract_y
 _atom_site_fract_z
 _atom_site_occupancy
  Sm  Sm0  1  0.002808  0.502808  0.250000  1
  Y  Y1  1  0.997556  0.497556  0.750000  1
  Y  Y2  1  0.502531  0.002531  0.250000  1
  Ho  Ho3  1  0.000070  0.000041  0.999890  1
  Ho  Ho4  1  0.500041  0.500070  0.500110  1
  Ho  Ho5  1  0.497815  0.997815  0.750000  1
  Si  Si6  1  0.295340  0.706565  0.998824  1
  Si  Si7  1  0.793685  0.204805  0.501278  1
  Si  Si8  1  0.704805  0.293685  0.998722  1
  Si  Si9  1  0.206565  0.795340  0.501176  1
  Si  Si10  1  0.832383  0.832183  0.332870  1
  Si  Si11  1  0.167660  0.167822  0.666856  1
  Si  Si12  1  0.667822  0.667660  0.833144  1
  Si  Si13  1  0.332183  0.332383  0.167130  1
  Si  Si14  1  0.621518  0.387430  0.228184  1
  Si  Si15  1  0.613242  0.379724  0.771888  1
  Si  Si16  1  0.111396  0.877531  0.727703  1
  Si  Si17  1  0.121664  0.887254  0.271174  1
  Si  Si18  1  0.377531  0.611396  0.772297  1
  Si  Si19  1  0.387254  0.621664  0.228826  1
  Si  Si20  1  0.887430  0.121518  0.271816  1
  Si  Si21  1  0.879724  0.113242  0.728112  1
  Si  Si22  1  0.845633  0.612151  0.003558  1
  Si  Si23  1  0.388947  0.156539  0.995771  1
  Si  Si24  1  0.887864  0.653825  0.505479  1
  Si  Si25  1  0.343608  0.111199  0.495576  1
  Si  Si26  1  0.153825  0.387864  0.994521  1
  Si  Si27  1  0.611199  0.843608  0.004424  1
  Si  Si28  1  0.112151  0.345633  0.496442  1
  Si  Si29  1  0.656539  0.888947  0.504229  1
  Ru  Ru30  1  0.171411  0.834455  0.997804  1
  Ru  Ru31  1  0.665498  0.328457  0.500993  1
  Ru  Ru32  1  0.828457  0.165498  0.999007  1
  Ru  Ru33  1  0.334455  0.671411  0.502196  1
  Ru  Ru34  1  0.625728  0.625756  0.127219  1
  Ru  Ru35  1  0.373722  0.374185  0.873179  1
  Ru  Ru36  1  0.874185  0.873722  0.626821  1
  Ru  Ru37  1  0.125756  0.125728  0.372781  1
