# generated using pymatgen
data_Ca3Zn(BrO3)8
_symmetry_space_group_name_H-M   'P 1'
_cell_length_a   5.79758982
_cell_length_b   11.21025495
_cell_length_c   11.29471960
_cell_angle_alpha   119.37804424
_cell_angle_beta   90.28147087
_cell_angle_gamma   90.14348029
_symmetry_Int_Tables_number   1
_chemical_formula_structural   Ca3Zn(BrO3)8
_chemical_formula_sum   'Ca3 Zn1 Br8 O24'
_cell_volume   639.65347838
_cell_formula_units_Z   1
loop_
 _symmetry_equiv_pos_site_id
 _symmetry_equiv_pos_as_xyz
  1  'x, y, z'
loop_
 _atom_site_type_symbol
 _atom_site_label
 _atom_site_symmetry_multiplicity
 _atom_site_fract_x
 _atom_site_fract_y
 _atom_site_fract_z
 _atom_site_occupancy
  Ca  Ca0  1  0.640523  0.237981  0.492438  1
  Ca  Ca1  1  0.140463  0.266401  0.007844  1
  Ca  Ca2  1  0.634937  0.733354  0.993907  1
  Zn  Zn3  1  0.155527  0.762289  0.508672  1
  Br  Br4  1  0.264206  0.431358  0.359122  1
  Br  Br5  1  0.780840  0.592561  0.646314  1
  Br  Br6  1  0.262733  0.911469  0.836869  1
  Br  Br7  1  0.764299  0.083094  0.145665  1
  Br  Br8  1  0.792391  0.066822  0.676957  1
  Br  Br9  1  0.272691  0.904792  0.318858  1
  Br  Br10  1  0.279144  0.413446  0.803409  1
  Br  Br11  1  0.789511  0.594126  0.209693  1
  O  O12  1  0.419506  0.875745  0.940807  1
  O  O13  1  0.922680  0.109210  0.036672  1
  O  O14  1  0.368965  0.804984  0.679002  1
  O  O15  1  0.865176  0.196175  0.301391  1
  O  O16  1  0.369884  0.323886  0.203468  1
  O  O17  1  0.878870  0.698822  0.805117  1
  O  O18  1  0.915328  0.202774  0.810637  1
  O  O19  1  0.408954  0.776876  0.186140  1
  O  O20  1  0.945416  0.928345  0.653766  1
  O  O21  1  0.410791  0.047816  0.344999  1
  O  O22  1  0.362523  0.067640  0.873990  1
  O  O23  1  0.857939  0.930929  0.122661  1
  O  O24  1  0.410900  0.277712  0.677227  1
  O  O25  1  0.937763  0.725151  0.337127  1
  O  O26  1  0.346787  0.404603  0.944138  1
  O  O27  1  0.852205  0.608873  0.071727  1
  O  O28  1  0.425691  0.551378  0.822095  1
  O  O29  1  0.922738  0.448755  0.179952  1
  O  O30  1  0.360914  0.587911  0.389630  1
  O  O31  1  0.871474  0.436779  0.615992  1
  O  O32  1  0.424796  0.399318  0.464429  1
  O  O33  1  0.945241  0.622120  0.539985  1
  O  O34  1  0.856893  0.090398  0.544491  1
  O  O35  1  0.350901  0.886111  0.454805  1
