# generated using pymatgen
data_TcNiI18
_symmetry_space_group_name_H-M   'P 1'
_cell_length_a   10.15774074
_cell_length_b   10.15774130
_cell_length_c   10.15774396
_cell_angle_alpha   90.70555776
_cell_angle_beta   90.70555661
_cell_angle_gamma   90.70556003
_symmetry_Int_Tables_number   1
_chemical_formula_structural   TcNiI18
_chemical_formula_sum   'Tc1 Ni1 I18'
_cell_volume   1047.83263074
_cell_formula_units_Z   1
loop_
 _symmetry_equiv_pos_site_id
 _symmetry_equiv_pos_as_xyz
  1  'x, y, z'
loop_
 _atom_site_type_symbol
 _atom_site_label
 _atom_site_symmetry_multiplicity
 _atom_site_fract_x
 _atom_site_fract_y
 _atom_site_fract_z
 _atom_site_occupancy
  Tc  Tc0  1  0.500000  0.500000  0.500000  1
  Ni  Ni1  1  0.000000  0.000000  0.000000  1
  I  I2  1  0.751135  0.127842  0.617835  1
  I  I3  1  0.990284  0.032149  0.735534  1
  I  I4  1  0.617835  0.751135  0.127842  1
  I  I5  1  0.967851  0.264466  0.009716  1
  I  I6  1  0.735534  0.990284  0.032149  1
  I  I7  1  0.032149  0.735534  0.990284  1
  I  I8  1  0.009716  0.967851  0.264466  1
  I  I9  1  0.872158  0.382165  0.248865  1
  I  I10  1  0.264466  0.009716  0.967851  1
  I  I11  1  0.248865  0.872158  0.382165  1
  I  I12  1  0.127842  0.617835  0.751135  1
  I  I13  1  0.382165  0.248865  0.872158  1
  I  I14  1  0.767324  0.531174  0.484625  1
  I  I15  1  0.531174  0.484625  0.767324  1
  I  I16  1  0.232676  0.468826  0.515375  1
  I  I17  1  0.468826  0.515375  0.232676  1
  I  I18  1  0.484625  0.767324  0.531174  1
  I  I19  1  0.515375  0.232676  0.468826  1
