# generated using pymatgen
data_Cs2KRh3F12
_symmetry_space_group_name_H-M   'P 1'
_cell_length_a   7.51376478
_cell_length_b   7.51376504
_cell_length_c   13.73818695
_cell_angle_alpha   75.30125676
_cell_angle_beta   75.30125719
_cell_angle_gamma   60.11598468
_symmetry_Int_Tables_number   1
_chemical_formula_structural   Cs2KRh3F12
_chemical_formula_sum   'Cs4 K2 Rh6 F24'
_cell_volume   642.93659544
_cell_formula_units_Z   2
loop_
 _symmetry_equiv_pos_site_id
 _symmetry_equiv_pos_as_xyz
  1  'x, y, z'
loop_
 _atom_site_type_symbol
 _atom_site_label
 _atom_site_symmetry_multiplicity
 _atom_site_fract_x
 _atom_site_fract_y
 _atom_site_fract_z
 _atom_site_occupancy
  Cs  Cs0  1  0.895209  0.471906  0.689054  1
  Cs  Cs1  1  0.104791  0.528094  0.310946  1
  Cs  Cs2  1  0.528094  0.104791  0.810946  1
  Cs  Cs3  1  0.471906  0.895209  0.189054  1
  K  K4  1  0.227427  0.772573  0.750000  1
  K  K5  1  0.772573  0.227427  0.250000  1
  Rh  Rh6  1  0.500000  0.000000  0.500000  1
  Rh  Rh7  1  0.000000  0.500000  0.000000  1
  Rh  Rh8  1  0.000000  0.000000  0.500000  1
  Rh  Rh9  1  0.000000  0.000000  0.000000  1
  Rh  Rh10  1  0.500000  0.500000  0.500000  1
  Rh  Rh11  1  0.500000  0.500000  0.000000  1
  F  F12  1  0.897670  0.969465  0.649522  1
  F  F13  1  0.516542  0.890962  0.648036  1
  F  F14  1  0.284435  0.397262  0.035916  1
  F  F15  1  0.690129  0.189132  0.027480  1
  F  F16  1  0.890962  0.516542  0.148036  1
  F  F17  1  0.109038  0.483458  0.851964  1
  F  F18  1  0.483458  0.109038  0.351964  1
  F  F19  1  0.810868  0.309871  0.472520  1
  F  F20  1  0.102330  0.030535  0.350478  1
  F  F21  1  0.602738  0.715565  0.464084  1
  F  F22  1  0.464675  0.510402  0.147341  1
  F  F23  1  0.397262  0.284435  0.535916  1
  F  F24  1  0.510402  0.464675  0.647341  1
  F  F25  1  0.807200  0.920536  0.463111  1
  F  F26  1  0.192800  0.079464  0.536889  1
  F  F27  1  0.535325  0.489598  0.852659  1
  F  F28  1  0.920536  0.807200  0.963111  1
  F  F29  1  0.489598  0.535325  0.352659  1
  F  F30  1  0.715565  0.602738  0.964084  1
  F  F31  1  0.969465  0.897670  0.149522  1
  F  F32  1  0.079464  0.192800  0.036889  1
  F  F33  1  0.309871  0.810868  0.972520  1
  F  F34  1  0.030535  0.102330  0.850478  1
  F  F35  1  0.189132  0.690129  0.527480  1
