# generated using pymatgen
data_Yb3LuOs5Ru3
_symmetry_space_group_name_H-M   'P 1'
_cell_length_a   5.24844801
_cell_length_b   5.17323569
_cell_length_c   8.88703366
_cell_angle_alpha   89.99738226
_cell_angle_beta   89.92401829
_cell_angle_gamma   119.57974023
_symmetry_Int_Tables_number   1
_chemical_formula_structural   Yb3LuOs5Ru3
_chemical_formula_sum   'Yb3 Lu1 Os5 Ru3'
_cell_volume   209.84746271
_cell_formula_units_Z   1
loop_
 _symmetry_equiv_pos_site_id
 _symmetry_equiv_pos_as_xyz
  1  'x, y, z'
loop_
 _atom_site_type_symbol
 _atom_site_label
 _atom_site_symmetry_multiplicity
 _atom_site_fract_x
 _atom_site_fract_y
 _atom_site_fract_z
 _atom_site_occupancy
  Yb  Yb0  1  0.332245  0.665842  0.430403  1
  Yb  Yb1  1  0.331652  0.665544  0.064937  1
  Yb  Yb2  1  0.664986  0.332455  0.939743  1
  Lu  Lu3  1  0.667707  0.333878  0.568131  1
  Os  Os4  1  0.174541  0.345423  0.747863  1
  Os  Os5  1  0.174303  0.828998  0.747845  1
  Os  Os6  1  0.661214  0.830568  0.749094  1
  Os  Os7  1  0.835183  0.661716  0.250743  1
  Os  Os8  1  0.834509  0.174214  0.250816  1
  Ru  Ru9  1  0.987044  0.993345  0.499219  1
  Ru  Ru10  1  0.986409  0.992988  0.999170  1
  Ru  Ru11  1  0.350205  0.175031  0.252037  1
