# generated using pymatgen
data_Y2Pa2Pd3PtPb2
_symmetry_space_group_name_H-M   'P 1'
_cell_length_a   7.91880413
_cell_length_b   7.90359111
_cell_length_c   3.66036700
_cell_angle_alpha   90.00000000
_cell_angle_beta   90.00000000
_cell_angle_gamma   90.06098049
_symmetry_Int_Tables_number   1
_chemical_formula_structural   Y2Pa2Pd3PtPb2
_chemical_formula_sum   'Y2 Pa2 Pd3 Pt1 Pb2'
_cell_volume   229.09122281
_cell_formula_units_Z   1
loop_
 _symmetry_equiv_pos_site_id
 _symmetry_equiv_pos_as_xyz
  1  'x, y, z'
loop_
 _atom_site_type_symbol
 _atom_site_label
 _atom_site_symmetry_multiplicity
 _atom_site_fract_x
 _atom_site_fract_y
 _atom_site_fract_z
 _atom_site_occupancy
  Y  Y0  1  0.823574  0.669083  0.500000  1
  Y  Y1  1  0.327753  0.828792  0.500000  1
  Pa  Pa2  1  0.673912  0.174320  0.500000  1
  Pa  Pa3  1  0.165625  0.327433  0.500000  1
  Pd  Pd4  1  0.373572  0.140398  0.000000  1
  Pd  Pd5  1  0.627981  0.891631  0.000000  1
  Pd  Pd6  1  0.128957  0.613458  0.000000  1
  Pt  Pt7  1  0.877267  0.360931  0.000000  1
  Pb  Pb8  1  0.003236  0.983526  0.000000  1
  Pb  Pb9  1  0.498123  0.510428  0.000000  1
