# generated using pymatgen
data_AcZr4U3F28
_symmetry_space_group_name_H-M   'P 1'
_cell_length_a   5.92730578
_cell_length_b   9.59548242
_cell_length_c   12.80003151
_cell_angle_alpha   61.21683752
_cell_angle_beta   90.01729999
_cell_angle_gamma   89.92911698
_symmetry_Int_Tables_number   1
_chemical_formula_structural   AcZr4U3F28
_chemical_formula_sum   'Ac1 Zr4 U3 F28'
_cell_volume   638.05906983
_cell_formula_units_Z   1
loop_
 _symmetry_equiv_pos_site_id
 _symmetry_equiv_pos_as_xyz
  1  'x, y, z'
loop_
 _atom_site_type_symbol
 _atom_site_label
 _atom_site_symmetry_multiplicity
 _atom_site_fract_x
 _atom_site_fract_y
 _atom_site_fract_z
 _atom_site_occupancy
  Ac  Ac0  1  0.743919  0.812983  0.265324  1
  Zr  Zr1  1  0.745711  0.270429  0.457058  1
  Zr  Zr2  1  0.246632  0.723302  0.040505  1
  Zr  Zr3  1  0.255914  0.723342  0.549925  1
  Zr  Zr4  1  0.754952  0.280475  0.952446  1
  U  U5  1  0.241357  0.189179  0.234097  1
  U  U6  1  0.257062  0.187719  0.734825  1
  U  U7  1  0.757830  0.815266  0.764991  1
  F  F8  1  0.461742  0.715428  0.918283  1
  F  F9  1  0.962503  0.280820  0.578839  1
  F  F10  1  0.537577  0.285367  0.075900  1
  F  F11  1  0.047292  0.710465  0.427870  1
  F  F12  1  0.464536  0.277559  0.551068  1
  F  F13  1  0.960107  0.717352  0.950553  1
  F  F14  1  0.537669  0.714199  0.460709  1
  F  F15  1  0.035839  0.283768  0.047546  1
  F  F16  1  0.761385  0.523085  0.858492  1
  F  F17  1  0.258980  0.480143  0.643029  1
  F  F18  1  0.238123  0.480834  0.135987  1
  F  F19  1  0.733338  0.511888  0.363717  1
  F  F20  1  0.763778  0.037693  0.050314  1
  F  F21  1  0.262982  0.966572  0.442826  1
  F  F22  1  0.237867  0.967923  0.938765  1
  F  F23  1  0.735950  0.026555  0.559224  1
  F  F24  1  0.988974  0.736465  0.647315  1
  F  F25  1  0.490738  0.266864  0.853244  1
  F  F26  1  0.013889  0.264453  0.357817  1
  F  F27  1  0.514211  0.731480  0.137738  1
  F  F28  1  0.048723  0.741429  0.164865  1
  F  F29  1  0.533531  0.256395  0.334355  1
  F  F30  1  0.967533  0.264434  0.830075  1
  F  F31  1  0.462251  0.738619  0.673882  1
  F  F32  1  0.399440  0.975195  0.229852  1
  F  F33  1  0.916919  0.041480  0.267889  1
  F  F34  1  0.580320  0.028407  0.767207  1
  F  F35  1  0.080425  0.972432  0.733467  1
