# generated using pymatgen
data_Rb2Mn2FeSe4
_symmetry_space_group_name_H-M   'P 1'
_cell_length_a   9.93098264
_cell_length_b   9.93098225
_cell_length_c   9.93098200
_cell_angle_alpha   144.87926258
_cell_angle_beta   105.32913932
_cell_angle_gamma   85.27892223
_symmetry_Int_Tables_number   1
_chemical_formula_structural   Rb2Mn2FeSe4
_chemical_formula_sum   'Rb4 Mn4 Fe2 Se8'
_cell_volume   527.35554715
_cell_formula_units_Z   2
loop_
 _symmetry_equiv_pos_site_id
 _symmetry_equiv_pos_as_xyz
  1  'x, y, z'
loop_
 _atom_site_type_symbol
 _atom_site_label
 _atom_site_symmetry_multiplicity
 _atom_site_fract_x
 _atom_site_fract_y
 _atom_site_fract_z
 _atom_site_occupancy
  Rb  Rb0  1  0.120616  0.233047  0.357270  1
  Rb  Rb1  1  0.379384  0.736653  0.112430  1
  Rb  Rb2  1  0.624222  0.266953  0.887570  1
  Rb  Rb3  1  0.875778  0.763347  0.642730  1
  Mn  Mn4  1  0.483751  0.250000  0.233751  1
  Mn  Mn5  1  0.750000  0.250000  0.500000  1
  Mn  Mn6  1  0.250000  0.750000  0.500000  1
  Mn  Mn7  1  0.016249  0.250000  0.766249  1
  Fe  Fe8  1  0.506005  0.750000  0.756005  1
  Fe  Fe9  1  0.993995  0.750000  0.243995  1
  Se  Se10  1  0.216340  0.070500  0.587776  1
  Se  Se11  1  0.283660  0.871437  0.854160  1
  Se  Se12  1  0.017277  0.429500  0.145840  1
  Se  Se13  1  0.482723  0.628563  0.412224  1
  Se  Se14  1  0.790952  0.917225  0.394733  1
  Se  Se15  1  0.709048  0.103779  0.126272  1
  Se  Se16  1  0.977506  0.582775  0.873728  1
  Se  Se17  1  0.522494  0.396221  0.605267  1
