# generated using pymatgen
data_Li2La2Sn3
_symmetry_space_group_name_H-M   'P 1'
_cell_length_a   10.45418831
_cell_length_b   10.45418845
_cell_length_c   7.47693500
_cell_angle_alpha   90.00000000
_cell_angle_beta   90.00000000
_cell_angle_gamma   153.43552993
_symmetry_Int_Tables_number   1
_chemical_formula_structural   Li2La2Sn3
_chemical_formula_sum   'Li4 La4 Sn6'
_cell_volume   365.43524959
_cell_formula_units_Z   2
loop_
 _symmetry_equiv_pos_site_id
 _symmetry_equiv_pos_as_xyz
  1  'x, y, z'
loop_
 _atom_site_type_symbol
 _atom_site_label
 _atom_site_symmetry_multiplicity
 _atom_site_fract_x
 _atom_site_fract_y
 _atom_site_fract_z
 _atom_site_occupancy
  Li  Li0  1  0.806846  0.193154  0.437291  1
  Li  Li1  1  0.193154  0.806846  0.562709  1
  Li  Li2  1  0.806846  0.193154  0.062709  1
  Li  Li3  1  0.193154  0.806846  0.937291  1
  La  La4  1  0.550114  0.449886  0.750000  1
  La  La5  1  0.449886  0.550114  0.250000  1
  La  La6  1  0.341025  0.658975  0.750000  1
  La  La7  1  0.658975  0.341025  0.250000  1
  Sn  Sn8  1  0.933163  0.066837  0.942065  1
  Sn  Sn9  1  0.066837  0.933163  0.057935  1
  Sn  Sn10  1  0.933163  0.066837  0.557935  1
  Sn  Sn11  1  0.066837  0.933163  0.442065  1
  Sn  Sn12  1  0.719864  0.280136  0.750000  1
  Sn  Sn13  1  0.280136  0.719864  0.250000  1
