# generated using pymatgen
data_Tb16Er4Ir5Rh7
_symmetry_space_group_name_H-M   'P 1'
_cell_length_a   10.92837610
_cell_length_b   10.92837583
_cell_length_c   6.39636800
_cell_angle_alpha   89.99207282
_cell_angle_beta   89.99207282
_cell_angle_gamma   90.04043697
_symmetry_Int_Tables_number   1
_chemical_formula_structural   Tb16Er4Ir5Rh7
_chemical_formula_sum   'Tb16 Er4 Ir5 Rh7'
_cell_volume   763.91419549
_cell_formula_units_Z   1
loop_
 _symmetry_equiv_pos_site_id
 _symmetry_equiv_pos_as_xyz
  1  'x, y, z'
loop_
 _atom_site_type_symbol
 _atom_site_label
 _atom_site_symmetry_multiplicity
 _atom_site_fract_x
 _atom_site_fract_y
 _atom_site_fract_z
 _atom_site_occupancy
  Tb  Tb0  1  0.290388  0.088287  0.379293  1
  Tb  Tb1  1  0.290369  0.909626  0.880670  1
  Tb  Tb2  1  0.709105  0.089898  0.880005  1
  Tb  Tb3  1  0.708824  0.909966  0.379360  1
  Tb  Tb4  1  0.587699  0.789425  0.880626  1
  Tb  Tb5  1  0.587410  0.210369  0.380402  1
  Tb  Tb6  1  0.410787  0.789843  0.380568  1
  Tb  Tb7  1  0.412231  0.210284  0.880228  1
  Tb  Tb8  1  0.210575  0.412301  0.619374  1
  Tb  Tb9  1  0.210157  0.589213  0.119432  1
  Tb  Tb10  1  0.789631  0.412590  0.119598  1
  Tb  Tb11  1  0.789716  0.587769  0.619772  1
  Tb  Tb12  1  0.911713  0.709612  0.120707  1
  Tb  Tb13  1  0.910102  0.290895  0.619995  1
  Tb  Tb14  1  0.090374  0.709631  0.619330  1
  Tb  Tb15  1  0.090034  0.291176  0.120640  1
  Er  Er16  1  0.000066  0.999759  0.500100  1
  Er  Er17  1  0.000241  0.999934  0.999900  1
  Er  Er18  1  0.499930  0.499692  0.000155  1
  Er  Er19  1  0.500308  0.500070  0.499845  1
  Ir  Ir20  1  0.151775  0.848225  0.250000  1
  Ir  Ir21  1  0.653112  0.346888  0.750000  1
  Ir  Ir22  1  0.653406  0.652861  0.249722  1
  Ir  Ir23  1  0.347139  0.346594  0.250278  1
  Ir  Ir24  1  0.347583  0.652417  0.750000  1
  Rh  Rh25  1  0.847322  0.152678  0.250000  1
  Rh  Rh26  1  0.846602  0.847385  0.749942  1
  Rh  Rh27  1  0.152615  0.153398  0.750058  1
  Rh  Rh28  1  0.500691  0.000227  0.124228  1
  Rh  Rh29  1  0.500489  0.000170  0.624872  1
  Rh  Rh30  1  0.999830  0.499511  0.875128  1
  Rh  Rh31  1  0.999773  0.499309  0.375772  1
