# generated using pymatgen
data_Ta8VReSi6B
_symmetry_space_group_name_H-M   'P 1'
_cell_length_a   7.50238000
_cell_length_b   7.50238029
_cell_length_c   5.19378700
_cell_angle_alpha   90.00000000
_cell_angle_beta   90.00000000
_cell_angle_gamma   119.99999874
_symmetry_Int_Tables_number   1
_chemical_formula_structural   Ta8VReSi6B
_chemical_formula_sum   'Ta8 V1 Re1 Si6 B1'
_cell_volume   253.17038622
_cell_formula_units_Z   1
loop_
 _symmetry_equiv_pos_site_id
 _symmetry_equiv_pos_as_xyz
  1  'x, y, z'
loop_
 _atom_site_type_symbol
 _atom_site_label
 _atom_site_symmetry_multiplicity
 _atom_site_fract_x
 _atom_site_fract_y
 _atom_site_fract_z
 _atom_site_occupancy
  Ta  Ta0  1  0.000661  0.754831  0.252277  1
  Ta  Ta1  1  0.245169  0.245830  0.252277  1
  Ta  Ta2  1  0.754170  0.999339  0.252277  1
  Ta  Ta3  1  0.000661  0.245830  0.747723  1
  Ta  Ta4  1  0.754170  0.754831  0.747723  1
  Ta  Ta5  1  0.245169  0.999339  0.747723  1
  Ta  Ta6  1  0.333333  0.666667  0.500000  1
  Ta  Ta7  1  0.666667  0.333333  0.500000  1
  V  V8  1  0.333333  0.666667  0.000000  1
  Re  Re9  1  0.666667  0.333333  0.000000  1
  Si  Si10  1  0.002543  0.402188  0.229420  1
  Si  Si11  1  0.597812  0.600355  0.229420  1
  Si  Si12  1  0.399645  0.997457  0.229420  1
  Si  Si13  1  0.002543  0.600355  0.770580  1
  Si  Si14  1  0.399645  0.402188  0.770580  1
  Si  Si15  1  0.597812  0.997457  0.770580  1
  B  B16  1  0.000000  0.000000  0.500000  1
