# generated using pymatgen
data_Er8SiPd23Au
_symmetry_space_group_name_H-M   'P 1'
_cell_length_a   8.27746100
_cell_length_b   8.32615800
_cell_length_c   8.32572100
_cell_angle_alpha   90.00000000
_cell_angle_beta   90.00000000
_cell_angle_gamma   90.00000000
_symmetry_Int_Tables_number   1
_chemical_formula_structural   Er8SiPd23Au
_chemical_formula_sum   'Er8 Si1 Pd23 Au1'
_cell_volume   573.80409656
_cell_formula_units_Z   1
loop_
 _symmetry_equiv_pos_site_id
 _symmetry_equiv_pos_as_xyz
  1  'x, y, z'
loop_
 _atom_site_type_symbol
 _atom_site_label
 _atom_site_symmetry_multiplicity
 _atom_site_fract_x
 _atom_site_fract_y
 _atom_site_fract_z
 _atom_site_occupancy
  Er  Er0  1  0.254132  0.250498  0.258531  1
  Er  Er1  1  0.745717  0.745951  0.745199  1
  Er  Er2  1  0.745717  0.745951  0.254801  1
  Er  Er3  1  0.745717  0.254049  0.745199  1
  Er  Er4  1  0.254132  0.250498  0.741469  1
  Er  Er5  1  0.254132  0.749502  0.258531  1
  Er  Er6  1  0.254132  0.749502  0.741469  1
  Er  Er7  1  0.745717  0.254049  0.254801  1
  Si  Si8  1  0.000061  0.000000  0.000000  1
  Pd  Pd9  1  0.743115  0.500000  0.000000  1
  Pd  Pd10  1  0.999870  0.256630  0.500000  1
  Pd  Pd11  1  0.499869  0.255734  0.000000  1
  Pd  Pd12  1  0.999870  0.743370  0.500000  1
  Pd  Pd13  1  0.499869  0.744266  0.000000  1
  Pd  Pd14  1  0.500248  0.000000  0.256855  1
  Pd  Pd15  1  0.256738  0.000000  0.500000  1
  Pd  Pd16  1  0.500248  0.000000  0.743145  1
  Pd  Pd17  1  0.743136  0.000000  0.500000  1
  Pd  Pd18  1  0.000314  0.500000  0.257567  1
  Pd  Pd19  1  0.000314  0.500000  0.742433  1
  Pd  Pd20  1  0.251976  0.500000  0.500000  1
  Pd  Pd21  1  0.747950  0.500000  0.500000  1
  Pd  Pd22  1  0.500272  0.252111  0.500000  1
  Pd  Pd23  1  0.500272  0.747889  0.500000  1
  Pd  Pd24  1  0.499765  0.500000  0.253379  1
  Pd  Pd25  1  0.499765  0.500000  0.746621  1
  Pd  Pd26  1  0.279515  0.000000  0.000000  1
  Pd  Pd27  1  0.720206  0.000000  0.000000  1
  Pd  Pd28  1  0.999852  0.278427  0.000000  1
  Pd  Pd29  1  0.999852  0.721573  0.000000  1
  Pd  Pd30  1  0.999502  0.000000  0.279050  1
  Pd  Pd31  1  0.999502  0.000000  0.720950  1
  Au  Au32  1  0.258523  0.500000  0.000000  1
