# generated using pymatgen
data_Tm3BeGe2Ir3
_symmetry_space_group_name_H-M   'P 1'
_cell_length_a   6.91411800
_cell_length_b   6.91411814
_cell_length_c   3.75605700
_cell_angle_alpha   90.00000000
_cell_angle_beta   90.00000000
_cell_angle_gamma   119.99999931
_symmetry_Int_Tables_number   1
_chemical_formula_structural   Tm3BeGe2Ir3
_chemical_formula_sum   'Tm3 Be1 Ge2 Ir3'
_cell_volume   155.50214800
_cell_formula_units_Z   1
loop_
 _symmetry_equiv_pos_site_id
 _symmetry_equiv_pos_as_xyz
  1  'x, y, z'
loop_
 _atom_site_type_symbol
 _atom_site_label
 _atom_site_symmetry_multiplicity
 _atom_site_fract_x
 _atom_site_fract_y
 _atom_site_fract_z
 _atom_site_occupancy
  Tm  Tm0  1  0.604415  0.000000  0.500000  1
  Tm  Tm1  1  0.395585  0.395585  0.500000  1
  Tm  Tm2  1  0.000000  0.604414  0.500000  1
  Be  Be3  1  0.000000  0.000000  0.500000  1
  Ge  Ge4  1  0.666667  0.333333  0.000000  1
  Ge  Ge5  1  0.333333  0.666666  0.000000  1
  Ir  Ir6  1  0.231557  0.000000  0.000000  1
  Ir  Ir7  1  0.000000  0.231557  0.000000  1
  Ir  Ir8  1  0.768444  0.768444  0.000000  1
