# generated using pymatgen
data_Zr8CdFe2Rh
_symmetry_space_group_name_H-M   'P 1'
_cell_length_a   8.74319506
_cell_length_b   8.74319583
_cell_length_c   8.73527100
_cell_angle_alpha   60.02999029
_cell_angle_beta   60.02998739
_cell_angle_gamma   60.28299446
_symmetry_Int_Tables_number   1
_chemical_formula_structural   Zr8CdFe2Rh
_chemical_formula_sum   'Zr16 Cd2 Fe4 Rh2'
_cell_volume   473.39051428
_cell_formula_units_Z   2
loop_
 _symmetry_equiv_pos_site_id
 _symmetry_equiv_pos_as_xyz
  1  'x, y, z'
loop_
 _atom_site_type_symbol
 _atom_site_label
 _atom_site_symmetry_multiplicity
 _atom_site_fract_x
 _atom_site_fract_y
 _atom_site_fract_z
 _atom_site_occupancy
  Zr  Zr0  1  0.048873  0.650153  0.650488  1
  Zr  Zr1  1  0.650153  0.048873  0.650488  1
  Zr  Zr2  1  0.652094  0.652094  0.043900  1
  Zr  Zr3  1  0.652094  0.652094  0.651912  1
  Zr  Zr4  1  0.812435  0.812435  0.187565  1
  Zr  Zr5  1  0.195154  0.195154  0.804846  1
  Zr  Zr6  1  0.810434  0.190246  0.808587  1
  Zr  Zr7  1  0.190246  0.810434  0.190732  1
  Zr  Zr8  1  0.190246  0.810434  0.808587  1
  Zr  Zr9  1  0.810434  0.190246  0.190732  1
  Zr  Zr10  1  0.441228  0.441228  0.058772  1
  Zr  Zr11  1  0.068674  0.068674  0.431326  1
  Zr  Zr12  1  0.442128  0.068083  0.436083  1
  Zr  Zr13  1  0.068083  0.442128  0.053705  1
  Zr  Zr14  1  0.068083  0.442128  0.436083  1
  Zr  Zr15  1  0.442128  0.068083  0.053705  1
  Cd  Cd16  1  0.736332  0.416315  0.423677  1
  Cd  Cd17  1  0.416315  0.736332  0.423677  1
  Fe  Fe18  1  0.421368  0.857898  0.860366  1
  Fe  Fe19  1  0.857898  0.421368  0.860366  1
  Fe  Fe20  1  0.859961  0.859961  0.420851  1
  Fe  Fe21  1  0.859961  0.859961  0.859227  1
  Rh  Rh22  1  0.402838  0.402838  0.778034  1
  Rh  Rh23  1  0.402838  0.402838  0.416292  1
