# generated using pymatgen
data_TbDy3CoB14
_symmetry_space_group_name_H-M   'P 1'
_cell_length_a   7.22351400
_cell_length_b   7.22352100
_cell_length_c   7.51611700
_cell_angle_alpha   90.00000000
_cell_angle_beta   90.00000000
_cell_angle_gamma   89.99996827
_symmetry_Int_Tables_number   1
_chemical_formula_structural   TbDy3CoB14
_chemical_formula_sum   'Tb2 Dy6 Co2 B28'
_cell_volume   392.18501029
_cell_formula_units_Z   2
loop_
 _symmetry_equiv_pos_site_id
 _symmetry_equiv_pos_as_xyz
  1  'x, y, z'
loop_
 _atom_site_type_symbol
 _atom_site_label
 _atom_site_symmetry_multiplicity
 _atom_site_fract_x
 _atom_site_fract_y
 _atom_site_fract_z
 _atom_site_occupancy
  Tb  Tb0  1  0.193061  0.329986  0.000000  1
  Tb  Tb1  1  0.670091  0.193124  0.000000  1
  Dy  Dy2  1  0.330015  0.806958  0.000000  1
  Dy  Dy3  1  0.693050  0.170013  0.500000  1
  Dy  Dy4  1  0.306893  0.829953  0.500000  1
  Dy  Dy5  1  0.806893  0.670064  0.000000  1
  Dy  Dy6  1  0.829982  0.693093  0.500000  1
  Dy  Dy7  1  0.170043  0.306936  0.500000  1
  Co  Co8  1  0.000135  0.999476  0.000000  1
  Co  Co9  1  0.500026  0.500082  0.500000  1
  B  B10  1  0.174073  0.038597  0.231256  1
  B  B11  1  0.961178  0.173916  0.231421  1
  B  B12  1  0.038835  0.825814  0.231117  1
  B  B13  1  0.674097  0.461329  0.269184  1
  B  B14  1  0.325941  0.539037  0.269245  1
  B  B15  1  0.825972  0.960942  0.231284  1
  B  B16  1  0.538853  0.674223  0.269131  1
  B  B17  1  0.461145  0.326067  0.269298  1
  B  B18  1  0.825972  0.960942  0.768716  1
  B  B19  1  0.038835  0.825814  0.768883  1
  B  B20  1  0.961178  0.173916  0.768579  1
  B  B21  1  0.325941  0.539037  0.730755  1
  B  B22  1  0.674097  0.461329  0.730816  1
  B  B23  1  0.174073  0.038597  0.768744  1
  B  B24  1  0.461145  0.326067  0.730702  1
  B  B25  1  0.538853  0.674223  0.730869  1
  B  B26  1  0.088299  0.588509  0.250289  1
  B  B27  1  0.411518  0.088268  0.250296  1
  B  B28  1  0.588325  0.911549  0.250176  1
  B  B29  1  0.911580  0.411704  0.250183  1
  B  B30  1  0.911580  0.411704  0.749817  1
  B  B31  1  0.588325  0.911549  0.749824  1
  B  B32  1  0.411518  0.088268  0.749704  1
  B  B33  1  0.088299  0.588509  0.749711  1
  B  B34  1  0.000007  0.999876  0.388448  1
  B  B35  1  0.500082  0.500325  0.111814  1
  B  B36  1  0.000007  0.999876  0.611552  1
  B  B37  1  0.500082  0.500325  0.888186  1
