# generated using pymatgen
data_Ho4ErGaSiB8
_symmetry_space_group_name_H-M   'P 1'
_cell_length_a   7.21792401
_cell_length_b   7.21792262
_cell_length_c   8.07821200
_cell_angle_alpha   90.00000000
_cell_angle_beta   90.00000000
_cell_angle_gamma   89.65595768
_symmetry_Int_Tables_number   1
_chemical_formula_structural   Ho4ErGaSiB8
_chemical_formula_sum   'Ho8 Er2 Ga2 Si2 B16'
_cell_volume   420.85447012
_cell_formula_units_Z   2
loop_
 _symmetry_equiv_pos_site_id
 _symmetry_equiv_pos_as_xyz
  1  'x, y, z'
loop_
 _atom_site_type_symbol
 _atom_site_label
 _atom_site_symmetry_multiplicity
 _atom_site_fract_x
 _atom_site_fract_y
 _atom_site_fract_z
 _atom_site_occupancy
  Ho  Ho0  1  0.679385  0.179385  0.224043  1
  Ho  Ho1  1  0.320615  0.820615  0.775957  1
  Ho  Ho2  1  0.320615  0.820615  0.224043  1
  Ho  Ho3  1  0.815567  0.684433  0.219593  1
  Ho  Ho4  1  0.815567  0.684433  0.780407  1
  Ho  Ho5  1  0.679385  0.179385  0.775957  1
  Ho  Ho6  1  0.184433  0.315567  0.780407  1
  Ho  Ho7  1  0.184433  0.315567  0.219593  1
  Er  Er8  1  0.000000  0.000000  0.500000  1
  Er  Er9  1  0.500000  0.500000  0.500000  1
  Ga  Ga10  1  0.117797  0.617797  0.500000  1
  Ga  Ga11  1  0.882203  0.382203  0.500000  1
  Si  Si12  1  0.383659  0.116341  0.500000  1
  Si  Si13  1  0.616341  0.883659  0.500000  1
  B  B14  1  0.172035  0.039186  0.000000  1
  B  B15  1  0.827965  0.960814  0.000000  1
  B  B16  1  0.959463  0.172297  0.000000  1
  B  B17  1  0.327703  0.540537  0.000000  1
  B  B18  1  0.040537  0.827703  0.000000  1
  B  B19  1  0.672297  0.459463  0.000000  1
  B  B20  1  0.539186  0.672035  0.000000  1
  B  B21  1  0.460814  0.327965  0.000000  1
  B  B22  1  0.090479  0.590479  0.000000  1
  B  B23  1  0.909521  0.409521  0.000000  1
  B  B24  1  0.408739  0.091261  0.000000  1
  B  B25  1  0.591261  0.908739  0.000000  1
  B  B26  1  0.000000  0.000000  0.163447  1
  B  B27  1  0.000000  0.000000  0.836553  1
  B  B28  1  0.500000  0.500000  0.836553  1
  B  B29  1  0.500000  0.500000  0.163447  1
