# generated using pymatgen
data_Ca6Al4Ga5Ge
_symmetry_space_group_name_H-M   'P 1'
_cell_length_a   5.92064108
_cell_length_b   5.92064008
_cell_length_c   14.68836000
_cell_angle_alpha   90.00000000
_cell_angle_beta   90.00000000
_cell_angle_gamma   134.63291015
_symmetry_Int_Tables_number   1
_chemical_formula_structural   Ca6Al4Ga5Ge
_chemical_formula_sum   'Ca6 Al4 Ga5 Ge1'
_cell_volume   366.40420287
_cell_formula_units_Z   1
loop_
 _symmetry_equiv_pos_site_id
 _symmetry_equiv_pos_as_xyz
  1  'x, y, z'
loop_
 _atom_site_type_symbol
 _atom_site_label
 _atom_site_symmetry_multiplicity
 _atom_site_fract_x
 _atom_site_fract_y
 _atom_site_fract_z
 _atom_site_occupancy
  Ca  Ca0  1  0.866752  0.133248  0.750000  1
  Ca  Ca1  1  0.131944  0.868056  0.250000  1
  Ca  Ca2  1  0.414883  0.585117  0.111892  1
  Ca  Ca3  1  0.586595  0.413405  0.886877  1
  Ca  Ca4  1  0.586595  0.413405  0.613123  1
  Ca  Ca5  1  0.414883  0.585117  0.388108  1
  Al  Al6  1  0.709640  0.290360  0.406544  1
  Al  Al7  1  0.289569  0.710431  0.594314  1
  Al  Al8  1  0.289569  0.710431  0.905686  1
  Al  Al9  1  0.709640  0.290360  0.093456  1
  Ga  Ga10  1  0.836009  0.163991  0.250000  1
  Ga  Ga11  1  0.888332  0.111668  0.537328  1
  Ga  Ga12  1  0.110823  0.889177  0.465156  1
  Ga  Ga13  1  0.110823  0.889177  0.034844  1
  Ga  Ga14  1  0.888332  0.111668  0.962672  1
  Ge  Ge15  1  0.165611  0.834389  0.750000  1
