# generated using pymatgen
data_Zr6Fe11Co7P12
_symmetry_space_group_name_H-M   'P 1'
_cell_length_a   3.63992600
_cell_length_b   10.29742357
_cell_length_c   11.92389643
_cell_angle_alpha   89.82133720
_cell_angle_beta   90.00000000
_cell_angle_gamma   90.00000000
_symmetry_Int_Tables_number   1
_chemical_formula_structural   Zr6Fe11Co7P12
_chemical_formula_sum   'Zr6 Fe11 Co7 P12'
_cell_volume   446.92764123
_cell_formula_units_Z   1
loop_
 _symmetry_equiv_pos_site_id
 _symmetry_equiv_pos_as_xyz
  1  'x, y, z'
loop_
 _atom_site_type_symbol
 _atom_site_label
 _atom_site_symmetry_multiplicity
 _atom_site_fract_x
 _atom_site_fract_y
 _atom_site_fract_z
 _atom_site_occupancy
  Zr  Zr0  1  0.000000  0.499717  0.523842  1
  Zr  Zr1  1  0.500000  0.999869  0.476481  1
  Zr  Zr2  1  0.500000  0.818628  0.206792  1
  Zr  Zr3  1  0.500000  0.179512  0.207147  1
  Zr  Zr4  1  0.000000  0.681981  0.793434  1
  Zr  Zr5  1  0.000000  0.318975  0.792597  1
  Fe  Fe6  1  0.000000  0.500054  0.987180  1
  Fe  Fe7  1  0.500000  0.999932  0.013036  1
  Fe  Fe8  1  0.500000  0.299968  0.427698  1
  Fe  Fe9  1  0.500000  0.701762  0.429959  1
  Fe  Fe10  1  0.000000  0.201457  0.569781  1
  Fe  Fe11  1  0.000000  0.799789  0.570308  1
  Fe  Fe12  1  0.500000  0.879561  0.710684  1
  Fe  Fe13  1  0.500000  0.120633  0.710249  1
  Fe  Fe14  1  0.000000  0.621259  0.289624  1
  Fe  Fe15  1  0.500000  0.497916  0.156615  1
  Fe  Fe16  1  0.000000  0.999931  0.845179  1
  Co  Co17  1  0.000000  0.378953  0.288553  1
  Co  Co18  1  0.500000  0.331179  0.991946  1
  Co  Co19  1  0.500000  0.668169  0.992270  1
  Co  Co20  1  0.000000  0.168291  0.008051  1
  Co  Co21  1  0.000000  0.831182  0.008492  1
  Co  Co22  1  0.500000  0.499957  0.701668  1
  Co  Co23  1  0.000000  0.000532  0.297922  1
  P  P24  1  0.500000  0.312104  0.614987  1
  P  P25  1  0.500000  0.688570  0.615886  1
  P  P26  1  0.000000  0.187122  0.384982  1
  P  P27  1  0.000000  0.811947  0.384174  1
  P  P28  1  0.500000  0.500207  0.880153  1
  P  P29  1  0.000000  0.999420  0.119627  1
  P  P30  1  0.500000  0.847386  0.890493  1
  P  P31  1  0.500000  0.152705  0.889859  1
  P  P32  1  0.000000  0.652394  0.110070  1
  P  P33  1  0.000000  0.346139  0.108808  1
  P  P34  1  0.500000  0.502637  0.348332  1
  P  P35  1  0.000000  0.000163  0.653122  1
