# generated using pymatgen
data_Gd2Ga9Os2Au
_symmetry_space_group_name_H-M   'P 1'
_cell_length_a   7.62242100
_cell_length_b   7.62242259
_cell_length_c   9.53616100
_cell_angle_alpha   90.00000000
_cell_angle_beta   90.00000000
_cell_angle_gamma   119.26010967
_symmetry_Int_Tables_number   1
_chemical_formula_structural   Gd2Ga9Os2Au
_chemical_formula_sum   'Gd4 Ga18 Os4 Au2'
_cell_volume   483.37040182
_cell_formula_units_Z   2
loop_
 _symmetry_equiv_pos_site_id
 _symmetry_equiv_pos_as_xyz
  1  'x, y, z'
loop_
 _atom_site_type_symbol
 _atom_site_label
 _atom_site_symmetry_multiplicity
 _atom_site_fract_x
 _atom_site_fract_y
 _atom_site_fract_z
 _atom_site_occupancy
  Gd  Gd0  1  0.997451  0.678205  0.750000  1
  Gd  Gd1  1  0.002549  0.321795  0.250000  1
  Gd  Gd2  1  0.678205  0.997451  0.750000  1
  Gd  Gd3  1  0.321795  0.002549  0.250000  1
  Ga  Ga4  1  0.149164  0.149164  0.750000  1
  Ga  Ga5  1  0.850836  0.850836  0.250000  1
  Ga  Ga6  1  0.002524  0.347623  0.580961  1
  Ga  Ga7  1  0.997476  0.652377  0.419039  1
  Ga  Ga8  1  0.997476  0.652377  0.080961  1
  Ga  Ga9  1  0.347623  0.002524  0.919039  1
  Ga  Ga10  1  0.002524  0.347623  0.919039  1
  Ga  Ga11  1  0.652377  0.997476  0.080961  1
  Ga  Ga12  1  0.652377  0.997476  0.419039  1
  Ga  Ga13  1  0.347623  0.002524  0.580961  1
  Ga  Ga14  1  0.346376  0.346376  0.066773  1
  Ga  Ga15  1  0.653624  0.653624  0.933227  1
  Ga  Ga16  1  0.653624  0.653624  0.566773  1
  Ga  Ga17  1  0.346376  0.346376  0.433227  1
  Ga  Ga18  1  0.335289  0.554151  0.750000  1
  Ga  Ga19  1  0.664711  0.445849  0.250000  1
  Ga  Ga20  1  0.554151  0.335289  0.750000  1
  Ga  Ga21  1  0.445849  0.664711  0.250000  1
  Os  Os22  1  0.673401  0.326599  0.500000  1
  Os  Os23  1  0.326599  0.673401  0.500000  1
  Os  Os24  1  0.326599  0.673401  0.000000  1
  Os  Os25  1  0.673401  0.326599  0.000000  1
  Au  Au26  1  0.000000  0.000000  0.500000  1
  Au  Au27  1  0.000000  0.000000  0.000000  1
