# generated using pymatgen
data_SrYIO6
_symmetry_space_group_name_H-M   'P 1'
_cell_length_a   5.63871900
_cell_length_b   5.63872020
_cell_length_c   5.23841100
_cell_angle_alpha   90.00000000
_cell_angle_beta   90.00000000
_cell_angle_gamma   119.99999881
_symmetry_Int_Tables_number   1
_chemical_formula_structural   SrYIO6
_chemical_formula_sum   'Sr1 Y1 I1 O6'
_cell_volume   144.24182357
_cell_formula_units_Z   1
loop_
 _symmetry_equiv_pos_site_id
 _symmetry_equiv_pos_as_xyz
  1  'x, y, z'
loop_
 _atom_site_type_symbol
 _atom_site_label
 _atom_site_symmetry_multiplicity
 _atom_site_fract_x
 _atom_site_fract_y
 _atom_site_fract_z
 _atom_site_occupancy
  Sr  Sr0  1  0.000000  0.000000  0.000000  1
  Y  Y1  1  0.333333  0.666667  0.500000  1
  I  I2  1  0.666667  0.333333  0.500000  1
  O  O3  1  0.392717  0.047905  0.706544  1
  O  O4  1  0.952095  0.344811  0.706544  1
  O  O5  1  0.655189  0.607283  0.706544  1
  O  O6  1  0.952095  0.607283  0.293456  1
  O  O7  1  0.655189  0.047905  0.293456  1
  O  O8  1  0.392717  0.344811  0.293456  1
