# generated using pymatgen
data_KBa4Nb5O15
_symmetry_space_group_name_H-M   'P 1'
_cell_length_a   9.26561356
_cell_length_b   9.26561370
_cell_length_c   7.16887538
_cell_angle_alpha   74.88945115
_cell_angle_beta   74.88944966
_cell_angle_gamma   36.75873768
_symmetry_Int_Tables_number   1
_chemical_formula_structural   KBa4Nb5O15
_chemical_formula_sum   'K1 Ba4 Nb5 O15'
_cell_volume   354.15100421
_cell_formula_units_Z   1
loop_
 _symmetry_equiv_pos_site_id
 _symmetry_equiv_pos_as_xyz
  1  'x, y, z'
loop_
 _atom_site_type_symbol
 _atom_site_label
 _atom_site_symmetry_multiplicity
 _atom_site_fract_x
 _atom_site_fract_y
 _atom_site_fract_z
 _atom_site_occupancy
  K  K0  1  0.000000  0.000000  0.000000  1
  Ba  Ba1  1  0.599088  0.599088  0.603133  1
  Ba  Ba2  1  0.198964  0.198964  0.199364  1
  Ba  Ba3  1  0.801036  0.801036  0.800636  1
  Ba  Ba4  1  0.400912  0.400912  0.396867  1
  Nb  Nb5  1  0.198873  0.198873  0.701916  1
  Nb  Nb6  1  0.801127  0.801127  0.298084  1
  Nb  Nb7  1  0.401323  0.401323  0.900575  1
  Nb  Nb8  1  0.000000  0.000000  0.500000  1
  Nb  Nb9  1  0.598677  0.598677  0.099425  1
  O  O10  1  0.402674  0.899101  0.899155  1
  O  O11  1  0.000000  0.500000  0.500000  1
  O  O12  1  0.597326  0.100899  0.100845  1
  O  O13  1  0.201700  0.697941  0.697762  1
  O  O14  1  0.798300  0.302059  0.302238  1
  O  O15  1  0.299897  0.299897  0.800103  1
  O  O16  1  0.899274  0.899274  0.402573  1
  O  O17  1  0.500000  0.500000  0.000000  1
  O  O18  1  0.100726  0.100726  0.597427  1
  O  O19  1  0.700103  0.700103  0.199897  1
  O  O20  1  0.500000  0.000000  0.500000  1
  O  O21  1  0.100899  0.597326  0.100845  1
  O  O22  1  0.697941  0.201700  0.697762  1
  O  O23  1  0.302059  0.798300  0.302238  1
  O  O24  1  0.899101  0.402674  0.899155  1
