# generated using pymatgen
data_Pr18Dy2Si15Ge
_symmetry_space_group_name_H-M   'P 1'
_cell_length_a   7.94189848
_cell_length_b   7.88679928
_cell_length_c   15.30562000
_cell_angle_alpha   89.63827019
_cell_angle_beta   89.16891172
_cell_angle_gamma   90.19484065
_symmetry_Int_Tables_number   1
_chemical_formula_structural   Pr18Dy2Si15Ge
_chemical_formula_sum   'Pr18 Dy2 Si15 Ge1'
_cell_volume   958.55944811
_cell_formula_units_Z   1
loop_
 _symmetry_equiv_pos_site_id
 _symmetry_equiv_pos_as_xyz
  1  'x, y, z'
loop_
 _atom_site_type_symbol
 _atom_site_label
 _atom_site_symmetry_multiplicity
 _atom_site_fract_x
 _atom_site_fract_y
 _atom_site_fract_z
 _atom_site_occupancy
  Pr  Pr0  1  0.804963  0.192845  0.751330  1
  Pr  Pr1  1  0.690124  0.692296  0.498471  1
  Pr  Pr2  1  0.377535  0.010904  0.445903  1
  Pr  Pr3  1  0.489150  0.875828  0.698052  1
  Pr  Pr4  1  0.511825  0.121289  0.195452  1
  Pr  Pr5  1  0.879857  0.486862  0.302662  1
  Pr  Pr6  1  0.122618  0.513779  0.804145  1
  Pr  Pr7  1  0.620978  0.988089  0.946929  1
  Pr  Pr8  1  0.008825  0.379824  0.552566  1
  Pr  Pr9  1  0.990257  0.621121  0.054498  1
  Pr  Pr10  1  0.124753  0.978747  0.879692  1
  Pr  Pr11  1  0.521955  0.627633  0.126818  1
  Pr  Pr12  1  0.480066  0.376525  0.628043  1
  Pr  Pr13  1  0.628075  0.520131  0.874140  1
  Pr  Pr14  1  0.372651  0.477597  0.371846  1
  Pr  Pr15  1  0.872758  0.019818  0.376196  1
  Pr  Pr16  1  0.980775  0.126890  0.122920  1
  Pr  Pr17  1  0.018699  0.874764  0.621334  1
  Dy  Dy18  1  0.312063  0.310179  0.000179  1
  Dy  Dy19  1  0.188986  0.810195  0.249578  1
  Si  Si20  1  0.330260  0.690899  0.955649  1
  Si  Si21  1  0.667845  0.306475  0.453538  1
  Si  Si22  1  0.692503  0.329287  0.045298  1
  Si  Si23  1  0.303887  0.668317  0.545214  1
  Si  Si24  1  0.809632  0.828130  0.205030  1
  Si  Si25  1  0.171099  0.189435  0.293936  1
  Si  Si26  1  0.831882  0.807334  0.796297  1
  Si  Si27  1  0.288384  0.921660  0.062866  1
  Si  Si28  1  0.573771  0.788366  0.308691  1
  Si  Si29  1  0.420062  0.213486  0.815331  1
  Si  Si30  1  0.789165  0.579824  0.690025  1
  Si  Si31  1  0.214161  0.421589  0.187108  1
  Si  Si32  1  0.710663  0.080016  0.560630  1
  Si  Si33  1  0.926590  0.289480  0.941087  1
  Si  Si34  1  0.080758  0.713093  0.436059  1
  Ge  Ge35  1  0.192428  0.167291  0.702488  1
