# generated using pymatgen
data_Tb5Y11Cd3InPd4
_symmetry_space_group_name_H-M   'P 1'
_cell_length_a   9.73957676
_cell_length_b   9.74217941
_cell_length_c   9.74217956
_cell_angle_alpha   60.01945898
_cell_angle_beta   60.03150774
_cell_angle_gamma   60.03151086
_symmetry_Int_Tables_number   1
_chemical_formula_structural   Tb5Y11Cd3InPd4
_chemical_formula_sum   'Tb5 Y11 Cd3 In1 Pd4'
_cell_volume   654.04540972
_cell_formula_units_Z   1
loop_
 _symmetry_equiv_pos_site_id
 _symmetry_equiv_pos_as_xyz
  1  'x, y, z'
loop_
 _atom_site_type_symbol
 _atom_site_label
 _atom_site_symmetry_multiplicity
 _atom_site_fract_x
 _atom_site_fract_y
 _atom_site_fract_z
 _atom_site_occupancy
  Tb  Tb0  1  0.351315  0.351633  0.351633  1
  Tb  Tb1  1  0.355732  0.355761  0.936951  1
  Tb  Tb2  1  0.355732  0.936951  0.355761  1
  Tb  Tb3  1  0.936910  0.355886  0.355886  1
  Tb  Tb4  1  0.811671  0.189338  0.189338  1
  Y  Y5  1  0.190422  0.809701  0.809701  1
  Y  Y6  1  0.189859  0.810768  0.189649  1
  Y  Y7  1  0.809647  0.190620  0.809436  1
  Y  Y8  1  0.189859  0.189649  0.810768  1
  Y  Y9  1  0.809647  0.809436  0.190620  1
  Y  Y10  1  0.936478  0.566240  0.566240  1
  Y  Y11  1  0.564248  0.935869  0.935869  1
  Y  Y12  1  0.566328  0.936579  0.566094  1
  Y  Y13  1  0.936016  0.564268  0.935795  1
  Y  Y14  1  0.566328  0.566094  0.936579  1
  Y  Y15  1  0.936016  0.935795  0.564268  1
  Cd  Cd16  1  0.580678  0.581258  0.252192  1
  Cd  Cd17  1  0.580678  0.252192  0.581258  1
  Cd  Cd18  1  0.251960  0.581019  0.581019  1
  In  In19  1  0.582418  0.582471  0.582471  1
  Pd  Pd20  1  0.145108  0.146038  0.146038  1
  Pd  Pd21  1  0.143187  0.143029  0.566082  1
  Pd  Pd22  1  0.143187  0.566082  0.143029  1
  Pd  Pd23  1  0.566574  0.143322  0.143322  1
