# generated using pymatgen
data_Ce3HoF15
_symmetry_space_group_name_H-M   'P 1'
_cell_length_a   8.58961297
_cell_length_b   8.58961254
_cell_length_c   8.57616024
_cell_angle_alpha   79.62980543
_cell_angle_beta   79.62980777
_cell_angle_gamma   100.13543493
_symmetry_Int_Tables_number   1
_chemical_formula_structural   Ce3HoF15
_chemical_formula_sum   'Ce6 Ho2 F30'
_cell_volume   597.89202622
_cell_formula_units_Z   2
loop_
 _symmetry_equiv_pos_site_id
 _symmetry_equiv_pos_as_xyz
  1  'x, y, z'
loop_
 _atom_site_type_symbol
 _atom_site_label
 _atom_site_symmetry_multiplicity
 _atom_site_fract_x
 _atom_site_fract_y
 _atom_site_fract_z
 _atom_site_occupancy
  Ce  Ce0  1  0.750282  0.249718  0.250000  1
  Ce  Ce1  1  0.249718  0.750282  0.750000  1
  Ce  Ce2  1  0.754326  0.678755  0.672891  1
  Ce  Ce3  1  0.321245  0.245674  0.827109  1
  Ce  Ce4  1  0.245674  0.321245  0.327109  1
  Ce  Ce5  1  0.678755  0.754326  0.172891  1
  Ho  Ho6  1  0.178679  0.821321  0.250000  1
  Ho  Ho7  1  0.821321  0.178679  0.750000  1
  F  F8  1  0.466147  0.533853  0.250000  1
  F  F9  1  0.750540  0.963505  0.963605  1
  F  F10  1  0.036495  0.249460  0.536395  1
  F  F11  1  0.249460  0.036495  0.036395  1
  F  F12  1  0.963505  0.750540  0.463605  1
  F  F13  1  0.533853  0.466147  0.750000  1
  F  F14  1  0.220474  0.490134  0.776644  1
  F  F15  1  0.224753  0.724605  0.010230  1
  F  F16  1  0.988112  0.724924  0.783545  1
  F  F17  1  0.724924  0.988112  0.283545  1
  F  F18  1  0.724605  0.224753  0.510230  1
  F  F19  1  0.490134  0.220474  0.276644  1
  F  F20  1  0.779527  0.509866  0.223356  1
  F  F21  1  0.775247  0.275395  0.989770  1
  F  F22  1  0.011888  0.275076  0.216455  1
  F  F23  1  0.275076  0.011888  0.716455  1
  F  F24  1  0.275395  0.775247  0.489770  1
  F  F25  1  0.509866  0.779526  0.723356  1
  F  F26  1  0.549722  0.155004  0.815989  1
  F  F27  1  0.186713  0.054611  0.345009  1
  F  F28  1  0.649220  0.681692  0.447114  1
  F  F29  1  0.681692  0.649220  0.947114  1
  F  F30  1  0.054611  0.186713  0.845009  1
  F  F31  1  0.155004  0.549722  0.315989  1
  F  F32  1  0.450278  0.844996  0.184011  1
  F  F33  1  0.813287  0.945389  0.654991  1
  F  F34  1  0.350780  0.318308  0.552886  1
  F  F35  1  0.318308  0.350780  0.052886  1
  F  F36  1  0.945389  0.813287  0.154991  1
  F  F37  1  0.844996  0.450278  0.684011  1
