# generated using pymatgen
data_YbY(Al5Os)4
_symmetry_space_group_name_H-M   'P 1'
_cell_length_a   6.87616048
_cell_length_b   6.87615954
_cell_length_c   9.16460800
_cell_angle_alpha   90.00000000
_cell_angle_beta   90.00000000
_cell_angle_gamma   96.41995394
_symmetry_Int_Tables_number   1
_chemical_formula_structural   YbY(Al5Os)4
_chemical_formula_sum   'Yb1 Y1 Al20 Os4'
_cell_volume   430.59979889
_cell_formula_units_Z   1
loop_
 _symmetry_equiv_pos_site_id
 _symmetry_equiv_pos_as_xyz
  1  'x, y, z'
loop_
 _atom_site_type_symbol
 _atom_site_label
 _atom_site_symmetry_multiplicity
 _atom_site_fract_x
 _atom_site_fract_y
 _atom_site_fract_z
 _atom_site_occupancy
  Yb  Yb0  1  0.372951  0.627049  0.250000  1
  Y  Y1  1  0.627389  0.372611  0.750000  1
  Al  Al2  1  0.281985  0.019185  0.750000  1
  Al  Al3  1  0.021034  0.282822  0.250000  1
  Al  Al4  1  0.717178  0.978966  0.250000  1
  Al  Al5  1  0.980815  0.718015  0.750000  1
  Al  Al6  1  0.876607  0.123393  0.952287  1
  Al  Al7  1  0.123825  0.876175  0.043902  1
  Al  Al8  1  0.876607  0.123393  0.547713  1
  Al  Al9  1  0.123825  0.876175  0.456098  1
  Al  Al10  1  0.644921  0.916998  0.750000  1
  Al  Al11  1  0.914952  0.644701  0.250000  1
  Al  Al12  1  0.355299  0.085048  0.250000  1
  Al  Al13  1  0.083002  0.355079  0.750000  1
  Al  Al14  1  0.344791  0.655209  0.899484  1
  Al  Al15  1  0.658494  0.341506  0.101741  1
  Al  Al16  1  0.344791  0.655209  0.600516  1
  Al  Al17  1  0.658494  0.341506  0.398259  1
  Al  Al18  1  0.723477  0.724975  0.999918  1
  Al  Al19  1  0.723477  0.724975  0.500082  1
  Al  Al20  1  0.275025  0.276523  0.999918  1
  Al  Al21  1  0.275025  0.276523  0.500082  1
  Os  Os22  1  0.499436  0.001417  0.999533  1
  Os  Os23  1  0.998583  0.500564  0.999533  1
  Os  Os24  1  0.499436  0.001417  0.500467  1
  Os  Os25  1  0.998583  0.500564  0.500467  1
