# generated using pymatgen
data_BeNi3As2Pd3
_symmetry_space_group_name_H-M   'P 1'
_cell_length_a   6.26596500
_cell_length_b   6.26596486
_cell_length_c   3.45716300
_cell_angle_alpha   90.00000000
_cell_angle_beta   90.00000000
_cell_angle_gamma   119.99999544
_symmetry_Int_Tables_number   1
_chemical_formula_structural   BeNi3As2Pd3
_chemical_formula_sum   'Be1 Ni3 As2 Pd3'
_cell_volume   117.55102704
_cell_formula_units_Z   1
loop_
 _symmetry_equiv_pos_site_id
 _symmetry_equiv_pos_as_xyz
  1  'x, y, z'
loop_
 _atom_site_type_symbol
 _atom_site_label
 _atom_site_symmetry_multiplicity
 _atom_site_fract_x
 _atom_site_fract_y
 _atom_site_fract_z
 _atom_site_occupancy
  Be  Be0  1  0.333333  0.666667  0.000000  1
  Ni  Ni1  1  0.989172  0.735554  0.000000  1
  Ni  Ni2  1  0.264446  0.253618  0.000000  1
  Ni  Ni3  1  0.746382  0.010828  0.000000  1
  As  As4  1  0.666667  0.333333  0.000000  1
  As  As5  1  0.000000  0.000000  0.500000  1
  Pd  Pd6  1  0.040607  0.427756  0.500000  1
  Pd  Pd7  1  0.572244  0.612852  0.500000  1
  Pd  Pd8  1  0.387148  0.959393  0.500000  1
