# generated using pymatgen
data_SrLa2Er4CoI12
_symmetry_space_group_name_H-M   'P 1'
_cell_length_a   9.89050909
_cell_length_b   9.85257442
_cell_length_c   9.82092106
_cell_angle_alpha   106.93852017
_cell_angle_beta   105.52697012
_cell_angle_gamma   106.02324904
_symmetry_Int_Tables_number   1
_chemical_formula_structural   SrLa2Er4CoI12
_chemical_formula_sum   'Sr1 La2 Er4 Co1 I12'
_cell_volume   814.42972721
_cell_formula_units_Z   1
loop_
 _symmetry_equiv_pos_site_id
 _symmetry_equiv_pos_as_xyz
  1  'x, y, z'
loop_
 _atom_site_type_symbol
 _atom_site_label
 _atom_site_symmetry_multiplicity
 _atom_site_fract_x
 _atom_site_fract_y
 _atom_site_fract_z
 _atom_site_occupancy
  Sr  Sr0  1  0.500000  0.500000  0.500000  1
  La  La1  1  0.983201  0.907884  0.714031  1
  La  La2  1  0.016799  0.092116  0.285969  1
  Er  Er3  1  0.092296  0.291224  0.021852  1
  Er  Er4  1  0.289558  0.019422  0.092271  1
  Er  Er5  1  0.907704  0.708776  0.978148  1
  Er  Er6  1  0.710442  0.980578  0.907729  1
  Co  Co7  1  0.000000  0.000000  0.000000  1
  I  I8  1  0.558462  0.636372  0.867992  1
  I  I9  1  0.441538  0.363628  0.132008  1
  I  I10  1  0.335959  0.930152  0.785250  1
  I  I11  1  0.375027  0.136307  0.446009  1
  I  I12  1  0.918655  0.761539  0.311258  1
  I  I13  1  0.664041  0.069848  0.214750  1
  I  I14  1  0.081345  0.238461  0.688742  1
  I  I15  1  0.782026  0.321645  0.930803  1
  I  I16  1  0.217974  0.678355  0.069197  1
  I  I17  1  0.857080  0.539212  0.633460  1
  I  I18  1  0.142920  0.460788  0.366540  1
  I  I19  1  0.624973  0.863693  0.553991  1
