# generated using pymatgen
data_SrP2IrRh
_symmetry_space_group_name_H-M   'P 1'
_cell_length_a   6.77964356
_cell_length_b   6.77489061
_cell_length_c   7.11670331
_cell_angle_alpha   89.93200666
_cell_angle_beta   90.08778828
_cell_angle_gamma   119.81120328
_symmetry_Int_Tables_number   1
_chemical_formula_structural   SrP2IrRh
_chemical_formula_sum   'Sr3 P6 Ir3 Rh3'
_cell_volume   283.62281247
_cell_formula_units_Z   3
loop_
 _symmetry_equiv_pos_site_id
 _symmetry_equiv_pos_as_xyz
  1  'x, y, z'
loop_
 _atom_site_type_symbol
 _atom_site_label
 _atom_site_symmetry_multiplicity
 _atom_site_fract_x
 _atom_site_fract_y
 _atom_site_fract_z
 _atom_site_occupancy
  Sr  Sr0  1  0.999103  0.601603  0.833540  1
  Sr  Sr1  1  0.399240  0.399666  0.500044  1
  Sr  Sr2  1  0.601105  0.999459  0.166502  1
  P  P3  1  0.878834  0.217643  0.542224  1
  P  P4  1  0.218097  0.877702  0.458469  1
  P  P5  1  0.120635  0.338007  0.124471  1
  P  P6  1  0.781288  0.661668  0.208463  1
  P  P7  1  0.338857  0.121809  0.874643  1
  P  P8  1  0.662830  0.782596  0.791996  1
  Ir  Ir9  1  0.999035  0.514294  0.332773  1
  Ir  Ir10  1  0.513545  0.999664  0.666617  1
  Ir  Ir11  1  0.000590  0.129412  0.833193  1
  Rh  Rh12  1  0.870850  0.870377  0.498922  1
  Rh  Rh13  1  0.130094  0.999759  0.167766  1
  Rh  Rh14  1  0.485897  0.486342  0.000379  1
