# generated using pymatgen
data_SmHo7TiPt24
_symmetry_space_group_name_H-M   'P 1'
_cell_length_a   8.37090146
_cell_length_b   8.37090092
_cell_length_c   8.37090100
_cell_angle_alpha   90.01898702
_cell_angle_beta   89.98101298
_cell_angle_gamma   89.98101242
_symmetry_Int_Tables_number   1
_chemical_formula_structural   SmHo7TiPt24
_chemical_formula_sum   'Sm1 Ho7 Ti1 Pt24'
_cell_volume   586.56556711
_cell_formula_units_Z   1
loop_
 _symmetry_equiv_pos_site_id
 _symmetry_equiv_pos_as_xyz
  1  'x, y, z'
loop_
 _atom_site_type_symbol
 _atom_site_label
 _atom_site_symmetry_multiplicity
 _atom_site_fract_x
 _atom_site_fract_y
 _atom_site_fract_z
 _atom_site_occupancy
  Sm  Sm0  1  0.748752  0.251248  0.251248  1
  Ho  Ho1  1  0.252111  0.251434  0.251434  1
  Ho  Ho2  1  0.748321  0.748498  0.748498  1
  Ho  Ho3  1  0.748566  0.747889  0.251434  1
  Ho  Ho4  1  0.748566  0.251434  0.747889  1
  Ho  Ho5  1  0.251502  0.251679  0.748498  1
  Ho  Ho6  1  0.251502  0.748498  0.251679  1
  Ho  Ho7  1  0.251432  0.748568  0.748568  1
  Ti  Ti8  1  0.000160  0.999840  0.999840  1
  Pt  Pt9  1  0.263890  0.500512  0.999910  1
  Pt  Pt10  1  0.736018  0.501227  0.997587  1
  Pt  Pt11  1  0.002413  0.263982  0.501227  1
  Pt  Pt12  1  0.498773  0.263982  0.997587  1
  Pt  Pt13  1  0.000090  0.736110  0.500512  1
  Pt  Pt14  1  0.499488  0.736110  0.999910  1
  Pt  Pt15  1  0.498773  0.997587  0.263982  1
  Pt  Pt16  1  0.263890  0.999910  0.500512  1
  Pt  Pt17  1  0.499488  0.999910  0.736110  1
  Pt  Pt18  1  0.736018  0.997587  0.501227  1
  Pt  Pt19  1  0.002413  0.501227  0.263982  1
  Pt  Pt20  1  0.000090  0.500512  0.736110  1
  Pt  Pt21  1  0.254660  0.500424  0.500424  1
  Pt  Pt22  1  0.745446  0.501706  0.501706  1
  Pt  Pt23  1  0.498294  0.254554  0.501706  1
  Pt  Pt24  1  0.499576  0.745340  0.500424  1
  Pt  Pt25  1  0.498294  0.501706  0.254554  1
  Pt  Pt26  1  0.499576  0.500424  0.745340  1
  Pt  Pt27  1  0.300417  0.000066  0.000066  1
  Pt  Pt28  1  0.698772  0.998577  0.998577  1
  Pt  Pt29  1  0.001423  0.301228  0.998577  1
  Pt  Pt30  1  0.999934  0.699583  0.000066  1
  Pt  Pt31  1  0.001423  0.998577  0.301228  1
  Pt  Pt32  1  0.999934  0.000066  0.699583  1
