# generated using pymatgen
data_Yb10PdAu7
_symmetry_space_group_name_H-M   'P 1'
_cell_length_a   7.73426200
_cell_length_b   7.86609382
_cell_length_c   14.96481100
_cell_angle_alpha   90.00000000
_cell_angle_beta   90.00000000
_cell_angle_gamma   89.59160327
_symmetry_Int_Tables_number   1
_chemical_formula_structural   Yb10PdAu7
_chemical_formula_sum   'Yb20 Pd2 Au14'
_cell_volume   910.41248676
_cell_formula_units_Z   2
loop_
 _symmetry_equiv_pos_site_id
 _symmetry_equiv_pos_as_xyz
  1  'x, y, z'
loop_
 _atom_site_type_symbol
 _atom_site_label
 _atom_site_symmetry_multiplicity
 _atom_site_fract_x
 _atom_site_fract_y
 _atom_site_fract_z
 _atom_site_occupancy
  Yb  Yb0  1  0.003785  0.184677  0.402755  1
  Yb  Yb1  1  0.845498  0.660711  0.377139  1
  Yb  Yb2  1  0.510186  0.323339  0.099090  1
  Yb  Yb3  1  0.157911  0.336877  0.623364  1
  Yb  Yb4  1  0.350815  0.835343  0.377297  1
  Yb  Yb5  1  0.157911  0.336877  0.876636  1
  Yb  Yb6  1  0.350815  0.835343  0.122703  1
  Yb  Yb7  1  0.180258  0.494291  0.250000  1
  Yb  Yb8  1  0.510186  0.323339  0.400910  1
  Yb  Yb9  1  0.812244  0.502766  0.750000  1
  Yb  Yb10  1  0.991949  0.820011  0.902475  1
  Yb  Yb11  1  0.991949  0.820011  0.597525  1
  Yb  Yb12  1  0.492102  0.674092  0.599015  1
  Yb  Yb13  1  0.645232  0.166809  0.623058  1
  Yb  Yb14  1  0.315331  0.993368  0.750000  1
  Yb  Yb15  1  0.645232  0.166809  0.876942  1
  Yb  Yb16  1  0.687105  0.015123  0.250000  1
  Yb  Yb17  1  0.845498  0.660711  0.122861  1
  Yb  Yb18  1  0.492102  0.674092  0.900985  1
  Yb  Yb19  1  0.003785  0.184677  0.097245  1
  Pd  Pd20  1  0.818581  0.360438  0.250000  1
  Pd  Pd21  1  0.451944  0.382737  0.750000  1
  Au  Au22  1  0.687041  0.858732  0.750000  1
  Au  Au23  1  0.815902  0.466368  0.543893  1
  Au  Au24  1  0.685263  0.970293  0.044058  1
  Au  Au25  1  0.815902  0.466368  0.956107  1
  Au  Au26  1  0.185712  0.533714  0.456900  1
  Au  Au27  1  0.185712  0.533714  0.043100  1
  Au  Au28  1  0.189807  0.638447  0.750000  1
  Au  Au29  1  0.312507  0.140705  0.250000  1
  Au  Au30  1  0.549810  0.611012  0.250000  1
  Au  Au31  1  0.048090  0.879542  0.250000  1
  Au  Au32  1  0.313600  0.028733  0.956086  1
  Au  Au33  1  0.951374  0.120899  0.750000  1
  Au  Au34  1  0.685263  0.970293  0.455942  1
  Au  Au35  1  0.313600  0.028733  0.543914  1
