# generated using pymatgen
data_Tb2CeY(ReB6)2
_symmetry_space_group_name_H-M   'P 1'
_cell_length_a   3.71933600
_cell_length_b   9.21997496
_cell_length_c   11.60715601
_cell_angle_alpha   89.85970934
_cell_angle_beta   90.00000000
_cell_angle_gamma   90.00000000
_symmetry_Int_Tables_number   1
_chemical_formula_structural   Tb2CeY(ReB6)2
_chemical_formula_sum   'Tb4 Ce2 Y2 Re4 B24'
_cell_volume   398.03354525
_cell_formula_units_Z   2
loop_
 _symmetry_equiv_pos_site_id
 _symmetry_equiv_pos_as_xyz
  1  'x, y, z'
loop_
 _atom_site_type_symbol
 _atom_site_label
 _atom_site_symmetry_multiplicity
 _atom_site_fract_x
 _atom_site_fract_y
 _atom_site_fract_z
 _atom_site_occupancy
  Tb  Tb0  1  0.000000  0.324064  0.414510  1
  Tb  Tb1  1  0.000000  0.675936  0.585490  1
  Tb  Tb2  1  0.000000  0.443142  0.129618  1
  Tb  Tb3  1  0.000000  0.556858  0.870382  1
  Ce  Ce4  1  0.000000  0.822354  0.086239  1
  Ce  Ce5  1  0.000000  0.177646  0.913761  1
  Y  Y6  1  0.000000  0.942739  0.371299  1
  Y  Y7  1  0.000000  0.057261  0.628701  1
  Re  Re8  1  0.000000  0.136877  0.177763  1
  Re  Re9  1  0.000000  0.863123  0.822237  1
  Re  Re10  1  0.000000  0.639071  0.320146  1
  Re  Re11  1  0.000000  0.360929  0.679854  1
  B  B12  1  0.500000  0.053972  0.068376  1
  B  B13  1  0.500000  0.946028  0.931625  1
  B  B14  1  0.500000  0.553436  0.432922  1
  B  B15  1  0.500000  0.446564  0.567077  1
  B  B16  1  0.500000  0.248287  0.082597  1
  B  B17  1  0.500000  0.751713  0.917403  1
  B  B18  1  0.500000  0.748001  0.418767  1
  B  B19  1  0.500000  0.251999  0.581233  1
  B  B20  1  0.500000  0.290901  0.234786  1
  B  B21  1  0.500000  0.709099  0.765214  1
  B  B22  1  0.500000  0.790577  0.266174  1
  B  B23  1  0.500000  0.209423  0.733826  1
  B  B24  1  0.500000  0.130809  0.314477  1
  B  B25  1  0.500000  0.869191  0.685523  1
  B  B26  1  0.500000  0.631002  0.186749  1
  B  B27  1  0.500000  0.368998  0.813251  1
  B  B28  1  0.500000  0.482887  0.288592  1
  B  B29  1  0.500000  0.517113  0.711408  1
  B  B30  1  0.500000  0.983357  0.212770  1
  B  B31  1  0.500000  0.016643  0.787230  1
  B  B32  1  0.500000  0.101813  0.471464  1
  B  B33  1  0.500000  0.898187  0.528536  1
  B  B34  1  0.500000  0.603469  0.028901  1
  B  B35  1  0.500000  0.396531  0.971099  1
