# generated using pymatgen
data_U2Pa4P13Rh20
_symmetry_space_group_name_H-M   'P 1'
_cell_length_a   13.38754406
_cell_length_b   13.39050058
_cell_length_c   3.91905580
_cell_angle_alpha   89.89895699
_cell_angle_beta   90.01092031
_cell_angle_gamma   119.98709427
_symmetry_Int_Tables_number   1
_chemical_formula_structural   U2Pa4P13Rh20
_chemical_formula_sum   'U2 Pa4 P13 Rh20'
_cell_volume   608.50682661
_cell_formula_units_Z   1
loop_
 _symmetry_equiv_pos_site_id
 _symmetry_equiv_pos_as_xyz
  1  'x, y, z'
loop_
 _atom_site_type_symbol
 _atom_site_label
 _atom_site_symmetry_multiplicity
 _atom_site_fract_x
 _atom_site_fract_y
 _atom_site_fract_z
 _atom_site_occupancy
  U  U0  1  0.718051  0.188977  0.750320  1
  U  U1  1  0.811807  0.529615  0.749873  1
  Pa  Pa2  1  0.528757  0.717724  0.248094  1
  Pa  Pa3  1  0.281263  0.810737  0.248531  1
  Pa  Pa4  1  0.190407  0.471178  0.248425  1
  Pa  Pa5  1  0.472692  0.282441  0.751337  1
  P  P6  1  0.527540  0.137869  0.252332  1
  P  P7  1  0.861021  0.387585  0.251213  1
  P  P8  1  0.615030  0.475617  0.250425  1
  P  P9  1  0.943578  0.714790  0.253857  1
  P  P10  1  0.282232  0.228152  0.254429  1
  P  P11  1  0.770947  0.056790  0.254746  1
  P  P12  1  0.388197  0.527715  0.748947  1
  P  P13  1  0.472923  0.860391  0.749824  1
  P  P14  1  0.138527  0.611749  0.749922  1
  P  P15  1  0.718397  0.771646  0.746621  1
  P  P16  1  0.227849  0.946377  0.746276  1
  P  P17  1  0.053564  0.281925  0.746900  1
  P  P18  1  0.999986  0.999950  0.998752  1
  Rh  Rh19  1  0.332448  0.666815  0.749472  1
  Rh  Rh20  1  0.922590  0.252565  0.254224  1
  Rh  Rh21  1  0.747578  0.671758  0.253314  1
  Rh  Rh22  1  0.332193  0.081955  0.253893  1
  Rh  Rh23  1  0.434250  0.014772  0.752484  1
  Rh  Rh24  1  0.984451  0.419447  0.751901  1
  Rh  Rh25  1  0.580165  0.563750  0.750541  1
  Rh  Rh26  1  0.665565  0.333151  0.245063  1
  Rh  Rh27  1  0.092082  0.183102  0.253651  1
  Rh  Rh28  1  0.816124  0.910743  0.251284  1
  Rh  Rh29  1  0.090998  0.906007  0.252800  1
  Rh  Rh30  1  0.018700  0.580762  0.249359  1
  Rh  Rh31  1  0.419936  0.433806  0.248431  1
  Rh  Rh32  1  0.562439  0.980941  0.249230  1
  Rh  Rh33  1  0.667460  0.916990  0.746930  1
  Rh  Rh34  1  0.082016  0.749632  0.747258  1
  Rh  Rh35  1  0.250172  0.332697  0.745913  1
  Rh  Rh36  1  0.907506  0.814704  0.747061  1
  Rh  Rh37  1  0.184281  0.092035  0.748142  1
  Rh  Rh38  1  0.906278  0.093139  0.748224  1
