# generated using pymatgen
data_YbPu4O10
_symmetry_space_group_name_H-M   'P 1'
_cell_length_a   6.46911392
_cell_length_b   6.46911118
_cell_length_c   6.46918800
_cell_angle_alpha   99.60003086
_cell_angle_beta   99.60131127
_cell_angle_gamma   131.79275446
_symmetry_Int_Tables_number   1
_chemical_formula_structural   YbPu4O10
_chemical_formula_sum   'Yb1 Pu4 O10'
_cell_volume   184.24761536
_cell_formula_units_Z   1
loop_
 _symmetry_equiv_pos_site_id
 _symmetry_equiv_pos_as_xyz
  1  'x, y, z'
loop_
 _atom_site_type_symbol
 _atom_site_label
 _atom_site_symmetry_multiplicity
 _atom_site_fract_x
 _atom_site_fract_y
 _atom_site_fract_z
 _atom_site_occupancy
  Yb  Yb0  1  0.000000  0.000000  0.000000  1
  Pu  Pu1  1  0.601581  0.201534  0.803115  1
  Pu  Pu2  1  0.398419  0.798466  0.196885  1
  Pu  Pu3  1  0.798463  0.601591  0.400057  1
  Pu  Pu4  1  0.201537  0.398409  0.599943  1
  O  O5  1  0.950465  0.643349  0.105673  1
  O  O6  1  0.462324  0.155209  0.105673  1
  O  O7  1  0.537676  0.844791  0.894327  1
  O  O8  1  0.749997  0.249997  0.500000  1
  O  O9  1  0.250003  0.750003  0.500000  1
  O  O10  1  0.155216  0.049538  0.692891  1
  O  O11  1  0.643352  0.537676  0.692891  1
  O  O12  1  0.049535  0.356651  0.894327  1
  O  O13  1  0.356648  0.462324  0.307109  1
  O  O14  1  0.844784  0.950462  0.307109  1
