# generated using pymatgen
data_Ho20Ir4PdRh7
_symmetry_space_group_name_H-M   'P 1'
_cell_length_a   10.89035533
_cell_length_b   10.88730555
_cell_length_c   6.34098404
_cell_angle_alpha   89.99800425
_cell_angle_beta   89.98143176
_cell_angle_gamma   90.37916276
_symmetry_Int_Tables_number   1
_chemical_formula_structural   Ho20Ir4PdRh7
_chemical_formula_sum   'Ho20 Ir4 Pd1 Rh7'
_cell_volume   751.81258073
_cell_formula_units_Z   1
loop_
 _symmetry_equiv_pos_site_id
 _symmetry_equiv_pos_as_xyz
  1  'x, y, z'
loop_
 _atom_site_type_symbol
 _atom_site_label
 _atom_site_symmetry_multiplicity
 _atom_site_fract_x
 _atom_site_fract_y
 _atom_site_fract_z
 _atom_site_occupancy
  Ho  Ho0  1  0.290751  0.088688  0.378445  1
  Ho  Ho1  1  0.290452  0.909552  0.880030  1
  Ho  Ho2  1  0.708526  0.090810  0.878972  1
  Ho  Ho3  1  0.709020  0.915435  0.378588  1
  Ho  Ho4  1  0.585510  0.792857  0.872829  1
  Ho  Ho5  1  0.587646  0.210798  0.379015  1
  Ho  Ho6  1  0.406062  0.792124  0.380927  1
  Ho  Ho7  1  0.411835  0.209326  0.877918  1
  Ho  Ho8  1  0.209646  0.412147  0.621511  1
  Ho  Ho9  1  0.210431  0.589722  0.120564  1
  Ho  Ho10  1  0.791962  0.407698  0.119368  1
  Ho  Ho11  1  0.793192  0.585775  0.627498  1
  Ho  Ho12  1  0.917327  0.710054  0.121441  1
  Ho  Ho13  1  0.909935  0.291003  0.620522  1
  Ho  Ho14  1  0.091197  0.709123  0.620370  1
  Ho  Ho15  1  0.090845  0.291684  0.121824  1
  Ho  Ho16  1  0.000205  0.999404  0.500716  1
  Ho  Ho17  1  0.999981  0.000539  0.999253  1
  Ho  Ho18  1  0.498183  0.497647  0.999211  1
  Ho  Ho19  1  0.498384  0.498488  0.500902  1
  Ir  Ir20  1  0.152557  0.846550  0.249196  1
  Ir  Ir21  1  0.654806  0.346642  0.750387  1
  Ir  Ir22  1  0.344824  0.344170  0.250382  1
  Ir  Ir23  1  0.347307  0.653908  0.749606  1
  Pd  Pd24  1  0.655655  0.655312  0.249833  1
  Rh  Rh25  1  0.846480  0.153038  0.250516  1
  Rh  Rh26  1  0.843801  0.844636  0.750014  1
  Rh  Rh27  1  0.153553  0.154398  0.750119  1
  Rh  Rh28  1  0.501048  0.999046  0.124517  1
  Rh  Rh29  1  0.501104  0.999437  0.623321  1
  Rh  Rh30  1  0.999083  0.500221  0.876673  1
  Rh  Rh31  1  0.998689  0.499773  0.375531  1
