# generated using pymatgen
data_Tl2AgHg(NO3)8
_symmetry_space_group_name_H-M   'P 1'
_cell_length_a   8.00232591
_cell_length_b   8.24211536
_cell_length_c   8.13966900
_cell_angle_alpha   90.59499005
_cell_angle_beta   87.76584867
_cell_angle_gamma   88.44563035
_symmetry_Int_Tables_number   1
_chemical_formula_structural   Tl2AgHg(NO3)8
_chemical_formula_sum   'Tl2 Ag1 Hg1 N8 O24'
_cell_volume   536.22009870
_cell_formula_units_Z   1
loop_
 _symmetry_equiv_pos_site_id
 _symmetry_equiv_pos_as_xyz
  1  'x, y, z'
loop_
 _atom_site_type_symbol
 _atom_site_label
 _atom_site_symmetry_multiplicity
 _atom_site_fract_x
 _atom_site_fract_y
 _atom_site_fract_z
 _atom_site_occupancy
  Tl  Tl0  1  0.500000  0.500000  0.500000  1
  Tl  Tl1  1  0.500000  0.000000  0.000000  1
  Ag  Ag2  1  0.000000  0.500000  0.000000  1
  Hg  Hg3  1  0.000000  0.000000  0.500000  1
  N  N4  1  0.657901  0.149794  0.311297  1
  N  N5  1  0.677292  0.320496  0.861123  1
  N  N6  1  0.830526  0.837349  0.822901  1
  N  N7  1  0.851392  0.684601  0.338507  1
  N  N8  1  0.169474  0.162651  0.177099  1
  N  N9  1  0.148608  0.315399  0.661493  1
  N  N10  1  0.322708  0.679504  0.138877  1
  N  N11  1  0.342099  0.850206  0.688703  1
  O  O12  1  0.555380  0.223607  0.833232  1
  O  O13  1  0.542633  0.247526  0.275592  1
  O  O14  1  0.694138  0.439809  0.768797  1
  O  O15  1  0.687650  0.022040  0.220476  1
  O  O16  1  0.748238  0.713257  0.456860  1
  O  O17  1  0.728942  0.815362  0.947320  1
  O  O18  1  0.772559  0.293027  0.976607  1
  O  O19  1  0.745972  0.172800  0.434075  1
  O  O20  1  0.804618  0.959887  0.732854  1
  O  O21  1  0.830283  0.568590  0.240029  1
  O  O22  1  0.948878  0.738815  0.795930  1
  O  O23  1  0.978672  0.773436  0.318071  1
  O  O24  1  0.021328  0.226564  0.681929  1
  O  O25  1  0.051122  0.261185  0.204070  1
  O  O26  1  0.169717  0.431410  0.759971  1
  O  O27  1  0.195382  0.040113  0.267146  1
  O  O28  1  0.227441  0.706973  0.023393  1
  O  O29  1  0.254028  0.827200  0.565925  1
  O  O30  1  0.271058  0.184638  0.052680  1
  O  O31  1  0.251762  0.286743  0.543140  1
  O  O32  1  0.305862  0.560191  0.231203  1
  O  O33  1  0.312350  0.977960  0.779524  1
  O  O34  1  0.457367  0.752474  0.724408  1
  O  O35  1  0.444620  0.776393  0.166768  1
