# generated using pymatgen
data_HoEr2In3SnPt2
_symmetry_space_group_name_H-M   'P 1'
_cell_length_a   7.58662118
_cell_length_b   7.59110234
_cell_length_c   4.15471300
_cell_angle_alpha   90.00000000
_cell_angle_beta   90.00000000
_cell_angle_gamma   120.00545564
_symmetry_Int_Tables_number   1
_chemical_formula_structural   HoEr2In3SnPt2
_chemical_formula_sum   'Ho1 Er2 In3 Sn1 Pt2'
_cell_volume   207.20538042
_cell_formula_units_Z   1
loop_
 _symmetry_equiv_pos_site_id
 _symmetry_equiv_pos_as_xyz
  1  'x, y, z'
loop_
 _atom_site_type_symbol
 _atom_site_label
 _atom_site_symmetry_multiplicity
 _atom_site_fract_x
 _atom_site_fract_y
 _atom_site_fract_z
 _atom_site_occupancy
  Ho  Ho0  1  0.607357  0.021648  0.500000  1
  Er  Er1  1  0.414239  0.392288  0.500000  1
  Er  Er2  1  0.977986  0.585750  0.500000  1
  In  In3  1  0.755188  0.744261  0.000000  1
  In  In4  1  0.989400  0.244982  0.000000  1
  In  In5  1  0.255558  0.010822  0.000000  1
  Sn  Sn6  1  0.333103  0.666332  0.000000  1
  Pt  Pt7  1  0.666801  0.333898  0.000000  1
  Pt  Pt8  1  0.000369  0.000018  0.500000  1
