# generated using pymatgen
data_SrPr5SmOsI12
_symmetry_space_group_name_H-M   'P 1'
_cell_length_a   10.08690756
_cell_length_b   10.09528062
_cell_length_c   10.17419065
_cell_angle_alpha   106.39040719
_cell_angle_beta   106.74834662
_cell_angle_gamma   106.45904638
_symmetry_Int_Tables_number   1
_chemical_formula_structural   SrPr5SmOsI12
_chemical_formula_sum   'Sr1 Pr5 Sm1 Os1 I12'
_cell_volume   873.58382456
_cell_formula_units_Z   1
loop_
 _symmetry_equiv_pos_site_id
 _symmetry_equiv_pos_as_xyz
  1  'x, y, z'
loop_
 _atom_site_type_symbol
 _atom_site_label
 _atom_site_symmetry_multiplicity
 _atom_site_fract_x
 _atom_site_fract_y
 _atom_site_fract_z
 _atom_site_occupancy
  Sr  Sr0  1  0.498885  0.499620  0.500387  1
  Pr  Pr1  1  0.298885  0.023750  0.097473  1
  Pr  Pr2  1  0.095749  0.297438  0.022487  1
  Pr  Pr3  1  0.976352  0.900071  0.689703  1
  Pr  Pr4  1  0.702060  0.977000  0.905088  1
  Pr  Pr5  1  0.904605  0.702812  0.976885  1
  Sm  Sm6  1  0.023948  0.098828  0.304093  1
  Os  Os7  1  0.000688  0.000329  0.000120  1
  I  I8  1  0.544137  0.624305  0.852922  1
  I  I9  1  0.854580  0.544533  0.626056  1
  I  I10  1  0.624252  0.854742  0.546066  1
  I  I11  1  0.456391  0.375896  0.148216  1
  I  I12  1  0.141299  0.449228  0.373228  1
  I  I13  1  0.369158  0.144125  0.454249  1
  I  I14  1  0.073901  0.226011  0.678630  1
  I  I15  1  0.687219  0.075383  0.229329  1
  I  I16  1  0.227626  0.681819  0.075452  1
  I  I17  1  0.927433  0.779277  0.318367  1
  I  I18  1  0.320099  0.926468  0.776001  1
  I  I19  1  0.772733  0.318368  0.925250  1
