# generated using pymatgen
data_Ta12Al8CuNi3C4
_symmetry_space_group_name_H-M   'P 1'
_cell_length_a   8.24599576
_cell_length_b   8.24599536
_cell_length_c   8.24599544
_cell_angle_alpha   60.07183363
_cell_angle_beta   60.07183767
_cell_angle_gamma   60.07183158
_symmetry_Int_Tables_number   1
_chemical_formula_structural   Ta12Al8CuNi3C4
_chemical_formula_sum   'Ta12 Al8 Cu1 Ni3 C4'
_cell_volume   397.11903970
_cell_formula_units_Z   1
loop_
 _symmetry_equiv_pos_site_id
 _symmetry_equiv_pos_as_xyz
  1  'x, y, z'
loop_
 _atom_site_type_symbol
 _atom_site_label
 _atom_site_symmetry_multiplicity
 _atom_site_fract_x
 _atom_site_fract_y
 _atom_site_fract_z
 _atom_site_occupancy
  Ta  Ta0  1  0.563655  0.935636  0.563655  1
  Ta  Ta1  1  0.314364  0.686345  0.686345  1
  Ta  Ta2  1  0.682585  0.315950  0.315950  1
  Ta  Ta3  1  0.315950  0.682585  0.315950  1
  Ta  Ta4  1  0.686345  0.686345  0.314364  1
  Ta  Ta5  1  0.315950  0.315950  0.682585  1
  Ta  Ta6  1  0.563655  0.563655  0.935636  1
  Ta  Ta7  1  0.935636  0.563655  0.563655  1
  Ta  Ta8  1  0.567415  0.934050  0.934050  1
  Ta  Ta9  1  0.934050  0.934050  0.567415  1
  Ta  Ta10  1  0.686345  0.314364  0.686345  1
  Ta  Ta11  1  0.934050  0.567415  0.934050  1
  Al  Al12  1  0.918279  0.918279  0.918279  1
  Al  Al13  1  0.000938  0.334069  0.334069  1
  Al  Al14  1  0.334069  0.000938  0.334069  1
  Al  Al15  1  0.334069  0.334069  0.000938  1
  Al  Al16  1  0.915931  0.249062  0.915931  1
  Al  Al17  1  0.915931  0.915931  0.249062  1
  Al  Al18  1  0.249062  0.915931  0.915931  1
  Al  Al19  1  0.331721  0.331721  0.331721  1
  Cu  Cu20  1  0.125000  0.125000  0.125000  1
  Ni  Ni21  1  0.625000  0.125000  0.125000  1
  Ni  Ni22  1  0.125000  0.625000  0.125000  1
  Ni  Ni23  1  0.125000  0.125000  0.625000  1
  C  C24  1  0.625000  0.625000  0.625000  1
  C  C25  1  0.125000  0.625000  0.625000  1
  C  C26  1  0.625000  0.125000  0.625000  1
  C  C27  1  0.625000  0.625000  0.125000  1
