# generated using pymatgen
data_Tb7Dy3Si5As
_symmetry_space_group_name_H-M   'P 1'
_cell_length_a   8.47839100
_cell_length_b   8.49495781
_cell_length_c   6.36084600
_cell_angle_alpha   89.99797042
_cell_angle_beta   90.00104280
_cell_angle_gamma   119.93668463
_symmetry_Int_Tables_number   1
_chemical_formula_structural   Tb7Dy3Si5As
_chemical_formula_sum   'Tb7 Dy3 Si5 As1'
_cell_volume   397.00585330
_cell_formula_units_Z   1
loop_
 _symmetry_equiv_pos_site_id
 _symmetry_equiv_pos_as_xyz
  1  'x, y, z'
loop_
 _atom_site_type_symbol
 _atom_site_label
 _atom_site_symmetry_multiplicity
 _atom_site_fract_x
 _atom_site_fract_y
 _atom_site_fract_z
 _atom_site_occupancy
  Tb  Tb0  1  0.996685  0.753337  0.749966  1
  Tb  Tb1  1  0.000170  0.244415  0.250033  1
  Tb  Tb2  1  0.755798  0.755546  0.250036  1
  Tb  Tb3  1  0.757787  0.000035  0.749968  1
  Tb  Tb4  1  0.243376  0.246626  0.749969  1
  Tb  Tb5  1  0.243481  0.000036  0.250026  1
  Tb  Tb6  1  0.333032  0.664080  0.001181  1
  Dy  Dy7  1  0.333030  0.664061  0.498801  1
  Dy  Dy8  1  0.668981  0.335957  0.001224  1
  Dy  Dy9  1  0.668968  0.335937  0.498783  1
  Si  Si10  1  0.393839  0.392948  0.250109  1
  Si  Si11  1  0.000645  0.606925  0.250108  1
  Si  Si12  1  0.999743  0.393498  0.749894  1
  Si  Si13  1  0.606362  0.606365  0.749895  1
  Si  Si14  1  0.607128  0.000120  0.250097  1
  As  As15  1  0.390974  0.000117  0.749910  1
