# generated using pymatgen
data_VAs6RhO18
_symmetry_space_group_name_H-M   'P 1'
_cell_length_a   5.35884548
_cell_length_b   7.50034981
_cell_length_c   10.60309709
_cell_angle_alpha   97.41021154
_cell_angle_beta   94.15989224
_cell_angle_gamma   93.03760681
_symmetry_Int_Tables_number   1
_chemical_formula_structural   VAs6RhO18
_chemical_formula_sum   'V1 As6 Rh1 O18'
_cell_volume   420.66156621
_cell_formula_units_Z   1
loop_
 _symmetry_equiv_pos_site_id
 _symmetry_equiv_pos_as_xyz
  1  'x, y, z'
loop_
 _atom_site_type_symbol
 _atom_site_label
 _atom_site_symmetry_multiplicity
 _atom_site_fract_x
 _atom_site_fract_y
 _atom_site_fract_z
 _atom_site_occupancy
  V  V0  1  0.499919  0.500023  0.499925  1
  As  As1  1  0.039425  0.985993  0.180720  1
  As  As2  1  0.724932  0.332739  0.216738  1
  As  As3  1  0.997745  0.680970  0.363933  1
  As  As4  1  0.002286  0.319108  0.636041  1
  As  As5  1  0.275050  0.667283  0.783243  1
  As  As6  1  0.960556  0.014012  0.819303  1
  Rh  Rh7  1  0.499991  0.999930  0.000033  1
  O  O8  1  0.582995  0.269094  0.068791  1
  O  O9  1  0.824646  0.893874  0.060653  1
  O  O10  1  0.345902  0.950272  0.163632  1
  O  O11  1  0.008488  0.217586  0.232031  1
  O  O12  1  0.860396  0.554900  0.216343  1
  O  O13  1  0.569738  0.319873  0.347950  1
  O  O14  1  0.971263  0.903553  0.326635  1
  O  O15  1  0.304610  0.642187  0.380126  1
  O  O16  1  0.181376  0.338396  0.514739  1
  O  O17  1  0.818753  0.661628  0.485247  1
  O  O18  1  0.695460  0.357922  0.619797  1
  O  O19  1  0.028744  0.096516  0.673393  1
  O  O20  1  0.430257  0.680222  0.652037  1
  O  O21  1  0.139652  0.445120  0.783625  1
  O  O22  1  0.991485  0.782426  0.767988  1
  O  O23  1  0.654075  0.049642  0.836464  1
  O  O24  1  0.175401  0.105979  0.939372  1
  O  O25  1  0.416857  0.730752  0.931242  1
