# generated using pymatgen
data_DyTm3(CBr)2
_symmetry_space_group_name_H-M   'P 1'
_cell_length_a   3.64919500
_cell_length_b   3.64919425
_cell_length_c   13.94406200
_cell_angle_alpha   90.00000000
_cell_angle_beta   90.00000000
_cell_angle_gamma   119.99999770
_symmetry_Int_Tables_number   1
_chemical_formula_structural   DyTm3(CBr)2
_chemical_formula_sum   'Dy1 Tm3 C2 Br2'
_cell_volume   160.81035116
_cell_formula_units_Z   1
loop_
 _symmetry_equiv_pos_site_id
 _symmetry_equiv_pos_as_xyz
  1  'x, y, z'
loop_
 _atom_site_type_symbol
 _atom_site_label
 _atom_site_symmetry_multiplicity
 _atom_site_fract_x
 _atom_site_fract_y
 _atom_site_fract_z
 _atom_site_occupancy
  Dy  Dy0  1  0.333333  0.666667  0.910154  1
  Tm  Tm1  1  0.333333  0.666667  0.587865  1
  Tm  Tm2  1  0.666667  0.333333  0.410829  1
  Tm  Tm3  1  0.666667  0.333333  0.090324  1
  C  C4  1  0.000000  0.000000  0.004544  1
  C  C5  1  0.000000  0.000000  0.499268  1
  Br  Br6  1  0.333333  0.666667  0.251455  1
  Br  Br7  1  0.666667  0.333333  0.745562  1
