# generated using pymatgen
data_Sc3Zn3Ge2Pt
_symmetry_space_group_name_H-M   'P 1'
_cell_length_a   6.65712100
_cell_length_b   6.65711947
_cell_length_c   4.12064800
_cell_angle_alpha   90.00000000
_cell_angle_beta   90.00000000
_cell_angle_gamma   119.99999270
_symmetry_Int_Tables_number   1
_chemical_formula_structural   Sc3Zn3Ge2Pt
_chemical_formula_sum   'Sc3 Zn3 Ge2 Pt1'
_cell_volume   158.14992215
_cell_formula_units_Z   1
loop_
 _symmetry_equiv_pos_site_id
 _symmetry_equiv_pos_as_xyz
  1  'x, y, z'
loop_
 _atom_site_type_symbol
 _atom_site_label
 _atom_site_symmetry_multiplicity
 _atom_site_fract_x
 _atom_site_fract_y
 _atom_site_fract_z
 _atom_site_occupancy
  Sc  Sc0  1  0.414795  0.000000  0.000000  1
  Sc  Sc1  1  0.000000  0.414796  0.000000  1
  Sc  Sc2  1  0.585206  0.585205  0.000000  1
  Zn  Zn3  1  0.757065  0.000000  0.500000  1
  Zn  Zn4  1  0.242935  0.242934  0.500000  1
  Zn  Zn5  1  0.000000  0.757065  0.500000  1
  Ge  Ge6  1  0.666667  0.333333  0.500000  1
  Ge  Ge7  1  0.333333  0.666666  0.500000  1
  Pt  Pt8  1  0.000000  0.000000  0.000000  1
