# generated using pymatgen
data_Ho2Tm10TcOs3
_symmetry_space_group_name_H-M   'P 1'
_cell_length_a   7.36842290
_cell_length_b   8.90447900
_cell_length_c   6.23255711
_cell_angle_alpha   90.00000000
_cell_angle_beta   89.93842979
_cell_angle_gamma   90.00000000
_symmetry_Int_Tables_number   1
_chemical_formula_structural   Ho2Tm10TcOs3
_chemical_formula_sum   'Ho2 Tm10 Tc1 Os3'
_cell_volume   408.93009544
_cell_formula_units_Z   1
loop_
 _symmetry_equiv_pos_site_id
 _symmetry_equiv_pos_as_xyz
  1  'x, y, z'
loop_
 _atom_site_type_symbol
 _atom_site_label
 _atom_site_symmetry_multiplicity
 _atom_site_fract_x
 _atom_site_fract_y
 _atom_site_fract_z
 _atom_site_occupancy
  Ho  Ho0  1  0.040092  0.250000  0.626821  1
  Ho  Ho1  1  0.539270  0.250000  0.874898  1
  Tm  Tm2  1  0.959537  0.750000  0.371016  1
  Tm  Tm3  1  0.460383  0.750000  0.129314  1
  Tm  Tm4  1  0.174528  0.061999  0.164087  1
  Tm  Tm5  1  0.824859  0.937598  0.833678  1
  Tm  Tm6  1  0.325387  0.936908  0.664919  1
  Tm  Tm7  1  0.824859  0.562402  0.833678  1
  Tm  Tm8  1  0.675086  0.062188  0.334915  1
  Tm  Tm9  1  0.174528  0.438001  0.164087  1
  Tm  Tm10  1  0.675086  0.437812  0.334915  1
  Tm  Tm11  1  0.325387  0.563092  0.664919  1
  Tc  Tc12  1  0.382439  0.250000  0.463067  1
  Os  Os13  1  0.618770  0.750000  0.538669  1
  Os  Os14  1  0.117744  0.750000  0.962089  1
  Os  Os15  1  0.882044  0.250000  0.038929  1
