# generated using pymatgen
data_La8Hg2OsRu
_symmetry_space_group_name_H-M   'P 1'
_cell_length_a   10.06588337
_cell_length_b   10.06588249
_cell_length_c   10.12303500
_cell_angle_alpha   59.81199673
_cell_angle_beta   59.81199963
_cell_angle_gamma   59.69318711
_symmetry_Int_Tables_number   1
_chemical_formula_structural   La8Hg2OsRu
_chemical_formula_sum   'La16 Hg4 Os2 Ru2'
_cell_volume   721.51955280
_cell_formula_units_Z   2
loop_
 _symmetry_equiv_pos_site_id
 _symmetry_equiv_pos_as_xyz
  1  'x, y, z'
loop_
 _atom_site_type_symbol
 _atom_site_label
 _atom_site_symmetry_multiplicity
 _atom_site_fract_x
 _atom_site_fract_y
 _atom_site_fract_z
 _atom_site_occupancy
  La  La0  1  0.903771  0.903771  0.902505  1
  La  La1  1  0.439257  0.439257  0.060743  1
  La  La2  1  0.060100  0.060100  0.439900  1
  La  La3  1  0.439913  0.060954  0.060494  1
  La  La4  1  0.308883  0.691927  0.308183  1
  La  La5  1  0.690290  0.690290  0.309710  1
  La  La6  1  0.691927  0.308883  0.308183  1
  La  La7  1  0.291138  0.902826  0.903018  1
  La  La8  1  0.902826  0.291138  0.903018  1
  La  La9  1  0.308883  0.691927  0.691008  1
  La  La10  1  0.903771  0.903771  0.289955  1
  La  La11  1  0.060954  0.439913  0.060494  1
  La  La12  1  0.306493  0.306493  0.693507  1
  La  La13  1  0.060954  0.439913  0.438638  1
  La  La14  1  0.439913  0.060954  0.438638  1
  La  La15  1  0.691927  0.308883  0.691008  1
  Hg  Hg16  1  0.667530  0.667530  0.998191  1
  Hg  Hg17  1  0.998265  0.667877  0.666928  1
  Hg  Hg18  1  0.667877  0.998265  0.666928  1
  Hg  Hg19  1  0.667530  0.667530  0.666746  1
  Os  Os20  1  0.112288  0.112288  0.664484  1
  Os  Os21  1  0.112288  0.112288  0.110938  1
  Ru  Ru22  1  0.114747  0.658474  0.113389  1
  Ru  Ru23  1  0.658474  0.114747  0.113389  1
