# generated using pymatgen
data_SmU(Tl2Br5)2
_symmetry_space_group_name_H-M   'P 1'
_cell_length_a   8.92540004
_cell_length_b   9.34914000
_cell_length_c   14.41474300
_cell_angle_alpha   90.00000000
_cell_angle_beta   89.84889981
_cell_angle_gamma   90.00000000
_symmetry_Int_Tables_number   1
_chemical_formula_structural   SmU(Tl2Br5)2
_chemical_formula_sum   'Sm2 U2 Tl8 Br20'
_cell_volume   1202.83137301
_cell_formula_units_Z   2
loop_
 _symmetry_equiv_pos_site_id
 _symmetry_equiv_pos_as_xyz
  1  'x, y, z'
loop_
 _atom_site_type_symbol
 _atom_site_label
 _atom_site_symmetry_multiplicity
 _atom_site_fract_x
 _atom_site_fract_y
 _atom_site_fract_z
 _atom_site_occupancy
  Sm  Sm0  1  0.429941  0.250000  0.996135  1
  Sm  Sm1  1  0.570059  0.750000  0.003865  1
  U  U2  1  0.931293  0.750000  0.502871  1
  U  U3  1  0.068707  0.250000  0.497129  1
  Tl  Tl4  1  0.943922  0.002859  0.828397  1
  Tl  Tl5  1  0.056078  0.997141  0.171603  1
  Tl  Tl6  1  0.445078  0.996821  0.672604  1
  Tl  Tl7  1  0.056078  0.502859  0.171603  1
  Tl  Tl8  1  0.554922  0.003179  0.327396  1
  Tl  Tl9  1  0.943922  0.497141  0.828397  1
  Tl  Tl10  1  0.554922  0.496821  0.327396  1
  Tl  Tl11  1  0.445078  0.503179  0.672604  1
  Br  Br12  1  0.114222  0.750000  0.676895  1
  Br  Br13  1  0.885778  0.250000  0.323105  1
  Br  Br14  1  0.613429  0.250000  0.826145  1
  Br  Br15  1  0.386571  0.750000  0.173855  1
  Br  Br16  1  0.839375  0.043658  0.573412  1
  Br  Br17  1  0.160625  0.956342  0.426588  1
  Br  Br18  1  0.341705  0.956964  0.930150  1
  Br  Br19  1  0.160625  0.543658  0.426588  1
  Br  Br20  1  0.658295  0.043036  0.069850  1
  Br  Br21  1  0.839375  0.456342  0.573412  1
  Br  Br22  1  0.658295  0.456964  0.069850  1
  Br  Br23  1  0.341705  0.543036  0.930150  1
  Br  Br24  1  0.592058  0.750000  0.510881  1
  Br  Br25  1  0.407942  0.250000  0.489119  1
  Br  Br26  1  0.097488  0.250000  0.987607  1
  Br  Br27  1  0.902512  0.750000  0.012393  1
  Br  Br28  1  0.653329  0.750000  0.805930  1
  Br  Br29  1  0.346671  0.250000  0.194070  1
  Br  Br30  1  0.155511  0.250000  0.696589  1
  Br  Br31  1  0.844489  0.750000  0.303411  1
