# generated using pymatgen
data_Sc8Ta10Nb2Si15Sn
_symmetry_space_group_name_H-M   'P 1'
_cell_length_a   6.73776845
_cell_length_b   6.91355398
_cell_length_c   13.23561194
_cell_angle_alpha   89.74992542
_cell_angle_beta   90.30310750
_cell_angle_gamma   89.94244501
_symmetry_Int_Tables_number   1
_chemical_formula_structural   Sc8Ta10Nb2Si15Sn
_chemical_formula_sum   'Sc8 Ta10 Nb2 Si15 Sn1'
_cell_volume   616.52546929
_cell_formula_units_Z   1
loop_
 _symmetry_equiv_pos_site_id
 _symmetry_equiv_pos_as_xyz
  1  'x, y, z'
loop_
 _atom_site_type_symbol
 _atom_site_label
 _atom_site_symmetry_multiplicity
 _atom_site_fract_x
 _atom_site_fract_y
 _atom_site_fract_z
 _atom_site_occupancy
  Sc  Sc0  1  0.494346  0.668257  0.599057  1
  Sc  Sc1  1  0.999511  0.826914  0.904619  1
  Sc  Sc2  1  0.499476  0.325736  0.093310  1
  Sc  Sc3  1  0.015526  0.183639  0.400609  1
  Sc  Sc4  1  0.497899  0.334852  0.403425  1
  Sc  Sc5  1  0.998859  0.172883  0.093865  1
  Sc  Sc6  1  0.500268  0.674718  0.905440  1
  Sc  Sc7  1  0.006216  0.820633  0.600780  1
  Ta  Ta8  1  0.655051  0.186739  0.631511  1
  Ta  Ta9  1  0.159496  0.323714  0.876370  1
  Ta  Ta10  1  0.336331  0.824084  0.123407  1
  Ta  Ta11  1  0.848022  0.658259  0.369498  1
  Ta  Ta12  1  0.330496  0.823092  0.373418  1
  Ta  Ta13  1  0.837837  0.673243  0.123390  1
  Ta  Ta14  1  0.663148  0.175411  0.876148  1
  Ta  Ta15  1  0.162510  0.327414  0.627244  1
  Ta  Ta16  1  0.835334  0.494995  0.751158  1
  Ta  Ta17  1  0.335556  0.006904  0.751228  1
  Nb  Nb18  1  0.164251  0.504355  0.248706  1
  Nb  Nb19  1  0.663087  0.991754  0.243544  1
  Si  Si20  1  0.168543  0.532105  0.038570  1
  Si  Si21  1  0.330894  0.031488  0.959948  1
  Si  Si22  1  0.829666  0.466741  0.538866  1
  Si  Si23  1  0.321090  0.033624  0.540535  1
  Si  Si24  1  0.829582  0.468381  0.960376  1
  Si  Si25  1  0.668296  0.966489  0.037929  1
  Si  Si26  1  0.172092  0.534833  0.463718  1
  Si  Si27  1  0.454848  0.388600  0.754705  1
  Si  Si28  1  0.957614  0.114545  0.750624  1
  Si  Si29  1  0.541791  0.615366  0.248880  1
  Si  Si30  1  0.040006  0.887293  0.247789  1
  Si  Si31  1  0.703250  0.863979  0.751141  1
  Si  Si32  1  0.202495  0.637352  0.752898  1
  Si  Si33  1  0.297938  0.135724  0.248226  1
  Si  Si34  1  0.793896  0.358344  0.246881  1
  Sn  Sn35  1  0.684780  0.967540  0.462187  1
