# generated using pymatgen
data_NbCdHg3Sb3O14
_symmetry_space_group_name_H-M   'P 1'
_cell_length_a   7.40163364
_cell_length_b   7.40163414
_cell_length_c   7.52515100
_cell_angle_alpha   60.54150441
_cell_angle_beta   60.54150412
_cell_angle_gamma   60.00000417
_symmetry_Int_Tables_number   1
_chemical_formula_structural   NbCdHg3Sb3O14
_chemical_formula_sum   'Nb1 Cd1 Hg3 Sb3 O14'
_cell_volume   293.87455843
_cell_formula_units_Z   1
loop_
 _symmetry_equiv_pos_site_id
 _symmetry_equiv_pos_as_xyz
  1  'x, y, z'
loop_
 _atom_site_type_symbol
 _atom_site_label
 _atom_site_symmetry_multiplicity
 _atom_site_fract_x
 _atom_site_fract_y
 _atom_site_fract_z
 _atom_site_occupancy
  Nb  Nb0  1  0.625000  0.625000  0.125000  1
  Cd  Cd1  1  0.125000  0.125000  0.625000  1
  Hg  Hg2  1  0.625000  0.125000  0.125000  1
  Hg  Hg3  1  0.125000  0.625000  0.125000  1
  Hg  Hg4  1  0.125000  0.125000  0.125000  1
  Sb  Sb5  1  0.125000  0.625000  0.625000  1
  Sb  Sb6  1  0.625000  0.125000  0.625000  1
  Sb  Sb7  1  0.625000  0.625000  0.625000  1
  O  O8  1  0.689763  0.689763  0.313087  1
  O  O9  1  0.301013  0.301013  0.693409  1
  O  O10  1  0.704564  0.301013  0.693409  1
  O  O11  1  0.307387  0.689763  0.313087  1
  O  O12  1  0.301013  0.704564  0.693409  1
  O  O13  1  0.689763  0.307387  0.313087  1
  O  O14  1  0.560237  0.560237  0.936913  1
  O  O15  1  0.948987  0.948987  0.556591  1
  O  O16  1  0.545436  0.948987  0.556591  1
  O  O17  1  0.942613  0.560237  0.936913  1
  O  O18  1  0.948987  0.545436  0.556591  1
  O  O19  1  0.560237  0.942613  0.936913  1
  O  O20  1  0.252018  0.252018  0.243947  1
  O  O21  1  0.997982  0.997982  0.006053  1
