# generated using pymatgen
data_Y3In3CuHgPt
_symmetry_space_group_name_H-M   'P 1'
_cell_length_a   7.80559600
_cell_length_b   7.80559513
_cell_length_c   3.88086000
_cell_angle_alpha   90.00000000
_cell_angle_beta   90.00000000
_cell_angle_gamma   119.99999521
_symmetry_Int_Tables_number   1
_chemical_formula_structural   Y3In3CuHgPt
_chemical_formula_sum   'Y3 In3 Cu1 Hg1 Pt1'
_cell_volume   204.77206936
_cell_formula_units_Z   1
loop_
 _symmetry_equiv_pos_site_id
 _symmetry_equiv_pos_as_xyz
  1  'x, y, z'
loop_
 _atom_site_type_symbol
 _atom_site_label
 _atom_site_symmetry_multiplicity
 _atom_site_fract_x
 _atom_site_fract_y
 _atom_site_fract_z
 _atom_site_occupancy
  Y  Y0  1  0.395160  0.978728  0.500000  1
  Y  Y1  1  0.021272  0.416432  0.500000  1
  Y  Y2  1  0.583568  0.604840  0.500000  1
  In  In3  1  0.752469  0.997816  0.000000  1
  In  In4  1  0.002184  0.754651  0.000000  1
  In  In5  1  0.245349  0.247531  0.000000  1
  Cu  Cu6  1  0.000000  0.000000  0.500000  1
  Hg  Hg7  1  0.666667  0.333333  0.000000  1
  Pt  Pt8  1  0.333333  0.666667  0.000000  1
