# generated using pymatgen
data_CeEr5(Al3Ru)8
_symmetry_space_group_name_H-M   'P 1'
_cell_length_a   8.81549000
_cell_length_b   8.80152396
_cell_length_c   9.55211600
_cell_angle_alpha   90.00000000
_cell_angle_beta   90.00000000
_cell_angle_gamma   120.05249649
_symmetry_Int_Tables_number   1
_chemical_formula_structural   CeEr5(Al3Ru)8
_chemical_formula_sum   'Ce1 Er5 Al24 Ru8'
_cell_volume   641.51168551
_cell_formula_units_Z   1
loop_
 _symmetry_equiv_pos_site_id
 _symmetry_equiv_pos_as_xyz
  1  'x, y, z'
loop_
 _atom_site_type_symbol
 _atom_site_label
 _atom_site_symmetry_multiplicity
 _atom_site_fract_x
 _atom_site_fract_y
 _atom_site_fract_z
 _atom_site_occupancy
  Ce  Ce0  1  0.194310  0.388620  0.250000  1
  Er  Er1  1  0.807458  0.614915  0.750000  1
  Er  Er2  1  0.610628  0.803456  0.250000  1
  Er  Er3  1  0.388590  0.193990  0.750000  1
  Er  Er4  1  0.192827  0.803456  0.250000  1
  Er  Er5  1  0.805399  0.193990  0.750000  1
  Al  Al6  1  0.334667  0.669335  0.013069  1
  Al  Al7  1  0.667159  0.334318  0.983692  1
  Al  Al8  1  0.667159  0.334318  0.516308  1
  Al  Al9  1  0.334667  0.669335  0.486931  1
  Al  Al10  1  0.161853  0.323707  0.580125  1
  Al  Al11  1  0.837809  0.675619  0.422865  1
  Al  Al12  1  0.676707  0.838325  0.579061  1
  Al  Al13  1  0.837809  0.675619  0.077135  1
  Al  Al14  1  0.324368  0.160521  0.421993  1
  Al  Al15  1  0.161853  0.323707  0.919875  1
  Al  Al16  1  0.161618  0.838325  0.579061  1
  Al  Al17  1  0.324368  0.160521  0.078007  1
  Al  Al18  1  0.836153  0.160521  0.421993  1
  Al  Al19  1  0.676707  0.838325  0.920939  1
  Al  Al20  1  0.836153  0.160521  0.078007  1
  Al  Al21  1  0.161618  0.838325  0.920939  1
  Al  Al22  1  0.559880  0.119759  0.250000  1
  Al  Al23  1  0.439425  0.878850  0.750000  1
  Al  Al24  1  0.874632  0.437946  0.250000  1
  Al  Al25  1  0.120309  0.560633  0.750000  1
  Al  Al26  1  0.563314  0.437946  0.250000  1
  Al  Al27  1  0.440324  0.560633  0.750000  1
  Al  Al28  1  0.998632  0.997264  0.250000  1
  Al  Al29  1  0.001196  0.002392  0.750000  1
  Ru  Ru30  1  0.500766  0.001533  0.998506  1
  Ru  Ru31  1  0.000652  0.500681  0.000940  1
  Ru  Ru32  1  0.500766  0.001533  0.501494  1
  Ru  Ru33  1  0.500029  0.500681  0.000940  1
  Ru  Ru34  1  0.000652  0.500681  0.499060  1
  Ru  Ru35  1  0.500029  0.500681  0.499060  1
  Ru  Ru36  1  0.999754  0.999509  0.999772  1
  Ru  Ru37  1  0.999754  0.999509  0.500228  1
