# generated using pymatgen
data_Ta12AlCr11N4
_symmetry_space_group_name_H-M   'P 1'
_cell_length_a   8.12845921
_cell_length_b   8.10080245
_cell_length_c   8.10080200
_cell_angle_alpha   60.00000183
_cell_angle_beta   60.11249061
_cell_angle_gamma   60.11249477
_symmetry_Int_Tables_number   1
_chemical_formula_structural   Ta12AlCr11N4
_chemical_formula_sum   'Ta12 Al1 Cr11 N4'
_cell_volume   377.82061507
_cell_formula_units_Z   1
loop_
 _symmetry_equiv_pos_site_id
 _symmetry_equiv_pos_as_xyz
  1  'x, y, z'
loop_
 _atom_site_type_symbol
 _atom_site_label
 _atom_site_symmetry_multiplicity
 _atom_site_fract_x
 _atom_site_fract_y
 _atom_site_fract_z
 _atom_site_occupancy
  Ta  Ta0  1  0.806847  0.808096  0.192528  1
  Ta  Ta1  1  0.191865  0.192698  0.807719  1
  Ta  Ta2  1  0.806847  0.192528  0.808096  1
  Ta  Ta3  1  0.191865  0.807719  0.192698  1
  Ta  Ta4  1  0.191865  0.807719  0.807719  1
  Ta  Ta5  1  0.806847  0.192528  0.192528  1
  Ta  Ta6  1  0.442444  0.443460  0.057048  1
  Ta  Ta7  1  0.056677  0.053540  0.444892  1
  Ta  Ta8  1  0.442444  0.057048  0.443460  1
  Ta  Ta9  1  0.056677  0.444892  0.053540  1
  Ta  Ta10  1  0.056677  0.444892  0.444892  1
  Ta  Ta11  1  0.442444  0.057048  0.057048  1
  Al  Al12  1  0.744006  0.418665  0.418665  1
  Cr  Cr13  1  0.127587  0.624138  0.624138  1
  Cr  Cr14  1  0.625394  0.114584  0.630011  1
  Cr  Cr15  1  0.625394  0.630011  0.114584  1
  Cr  Cr16  1  0.625394  0.630011  0.630011  1
  Cr  Cr17  1  0.419205  0.733581  0.423607  1
  Cr  Cr18  1  0.419205  0.423607  0.733581  1
  Cr  Cr19  1  0.419205  0.423607  0.423607  1
  Cr  Cr20  1  0.509711  0.830097  0.830097  1
  Cr  Cr21  1  0.830785  0.511584  0.828816  1
  Cr  Cr22  1  0.830785  0.828816  0.511584  1
  Cr  Cr23  1  0.830785  0.828816  0.828816  1
  N  N24  1  0.623756  0.125415  0.125415  1
  N  N25  1  0.125098  0.625022  0.124940  1
  N  N26  1  0.125098  0.124940  0.625022  1
  N  N27  1  0.125098  0.124940  0.124940  1
