# generated using pymatgen
data_ErHf7Zr(In2Co)7
_symmetry_space_group_name_H-M   'P 1'
_cell_length_a   9.44022690
_cell_length_b   9.44022615
_cell_length_c   9.43706626
_cell_angle_alpha   59.98891628
_cell_angle_beta   59.98891625
_cell_angle_gamma   59.99999883
_symmetry_Int_Tables_number   1
_chemical_formula_structural   ErHf7Zr(In2Co)7
_chemical_formula_sum   'Er1 Hf7 Zr1 In14 Co7'
_cell_volume   594.58514715
_cell_formula_units_Z   1
loop_
 _symmetry_equiv_pos_site_id
 _symmetry_equiv_pos_as_xyz
  1  'x, y, z'
loop_
 _atom_site_type_symbol
 _atom_site_label
 _atom_site_symmetry_multiplicity
 _atom_site_fract_x
 _atom_site_fract_y
 _atom_site_fract_z
 _atom_site_occupancy
  Er  Er0  1  0.499962  0.499962  0.500115  1
  Hf  Hf1  1  0.119176  0.642335  0.119315  1
  Hf  Hf2  1  0.357787  0.880239  0.881734  1
  Hf  Hf3  1  0.880239  0.880239  0.881734  1
  Hf  Hf4  1  0.642335  0.119176  0.119315  1
  Hf  Hf5  1  0.880592  0.880592  0.358223  1
  Hf  Hf6  1  0.119176  0.119176  0.119315  1
  Hf  Hf7  1  0.880239  0.357787  0.881734  1
  Zr  Zr8  1  0.121221  0.121221  0.636340  1
  In  In9  1  0.500127  0.844219  0.155526  1
  In  In10  1  0.500443  0.843924  0.500077  1
  In  In11  1  0.500443  0.155556  0.500077  1
  In  In12  1  0.499761  0.499761  0.844758  1
  In  In13  1  0.155556  0.500443  0.500077  1
  In  In14  1  0.843924  0.155556  0.500077  1
  In  In15  1  0.155556  0.843924  0.500077  1
  In  In16  1  0.499761  0.155720  0.844758  1
  In  In17  1  0.155720  0.499761  0.844758  1
  In  In18  1  0.500127  0.500127  0.155526  1
  In  In19  1  0.843924  0.500443  0.500077  1
  In  In20  1  0.844219  0.500127  0.155526  1
  In  In21  1  0.251315  0.251315  0.246056  1
  In  In22  1  0.750041  0.750041  0.749876  1
  Co  Co23  1  0.781576  0.781576  0.218318  1
  Co  Co24  1  0.999425  0.999425  0.001724  1
  Co  Co25  1  0.218531  0.781576  0.218318  1
  Co  Co26  1  0.218212  0.780826  0.782750  1
  Co  Co27  1  0.218212  0.218212  0.782750  1
  Co  Co28  1  0.780826  0.218212  0.782750  1
  Co  Co29  1  0.781576  0.218531  0.218318  1
