# generated using pymatgen
data_Sr3Yb2P3O12F
_symmetry_space_group_name_H-M   'P 1'
_cell_length_a   7.16272753
_cell_length_b   9.72650945
_cell_length_c   9.73040900
_cell_angle_alpha   119.91256018
_cell_angle_beta   90.06445722
_cell_angle_gamma   90.01821604
_symmetry_Int_Tables_number   1
_chemical_formula_structural   Sr3Yb2P3O12F
_chemical_formula_sum   'Sr6 Yb4 P6 O24 F2'
_cell_volume   587.59576455
_cell_formula_units_Z   2
loop_
 _symmetry_equiv_pos_site_id
 _symmetry_equiv_pos_as_xyz
  1  'x, y, z'
loop_
 _atom_site_type_symbol
 _atom_site_label
 _atom_site_symmetry_multiplicity
 _atom_site_fract_x
 _atom_site_fract_y
 _atom_site_fract_z
 _atom_site_occupancy
  Sr  Sr0  1  0.239028  0.008560  0.241270  1
  Sr  Sr1  1  0.742559  0.257878  0.246230  1
  Sr  Sr2  1  0.741148  0.753711  0.009217  1
  Sr  Sr3  1  0.739370  0.986980  0.753978  1
  Sr  Sr4  1  0.992962  0.333964  0.669501  1
  Sr  Sr5  1  0.492652  0.667874  0.332418  1
  Yb  Yb6  1  0.489036  0.329133  0.665347  1
  Yb  Yb7  1  0.993253  0.670975  0.332451  1
  Yb  Yb8  1  0.242653  0.755639  0.742204  1
  Yb  Yb9  1  0.243861  0.251653  0.003998  1
  P  P10  1  0.745758  0.602467  0.629071  1
  P  P11  1  0.745536  0.369580  0.972565  1
  P  P12  1  0.743864  0.033116  0.406096  1
  P  P13  1  0.245351  0.401028  0.369374  1
  P  P14  1  0.245331  0.624321  0.027779  1
  P  P15  1  0.242466  0.967208  0.599144  1
  O  O16  1  0.575595  0.687113  0.739334  1
  O  O17  1  0.574222  0.259665  0.945080  1
  O  O18  1  0.574123  0.069407  0.329751  1
  O  O19  1  0.081179  0.321620  0.250453  1
  O  O20  1  0.073402  0.735643  0.070905  1
  O  O21  1  0.072888  0.918217  0.665056  1
  O  O22  1  0.763784  0.652266  0.500309  1
  O  O23  1  0.763821  0.497089  0.151289  1
  O  O24  1  0.763006  0.851714  0.341907  1
  O  O25  1  0.262341  0.334459  0.484715  1
  O  O26  1  0.263158  0.512332  0.845788  1
  O  O27  1  0.259101  0.150287  0.674361  1
  O  O28  1  0.926681  0.648432  0.732644  1
  O  O29  1  0.926074  0.265997  0.915415  1
  O  O30  1  0.921962  0.099354  0.367527  1
  O  O31  1  0.421042  0.361802  0.262223  1
  O  O32  1  0.420834  0.732197  0.095307  1
  O  O33  1  0.417678  0.897122  0.637363  1
  O  O34  1  0.717623  0.419034  0.549161  1
  O  O35  1  0.718616  0.451456  0.870376  1
  O  O36  1  0.717451  0.125285  0.589837  1
  O  O37  1  0.218549  0.584859  0.462964  1
  O  O38  1  0.224644  0.528668  0.117284  1
  O  O39  1  0.221949  0.881221  0.414877  1
  F  F40  1  0.260305  0.999361  0.976288  1
  F  F41  1  0.769145  0.001312  0.009143  1
