# generated using pymatgen
data_TmBi3(AuO3)4
_symmetry_space_group_name_H-M   'P 1'
_cell_length_a   3.96394878
_cell_length_b   5.62967700
_cell_length_c   13.24009200
_cell_angle_alpha   90.00000000
_cell_angle_beta   91.41207431
_cell_angle_gamma   90.00000000
_symmetry_Int_Tables_number   1
_chemical_formula_structural   TmBi3(AuO3)4
_chemical_formula_sum   'Tm1 Bi3 Au4 O12'
_cell_volume   295.37287326
_cell_formula_units_Z   1
loop_
 _symmetry_equiv_pos_site_id
 _symmetry_equiv_pos_as_xyz
  1  'x, y, z'
loop_
 _atom_site_type_symbol
 _atom_site_label
 _atom_site_symmetry_multiplicity
 _atom_site_fract_x
 _atom_site_fract_y
 _atom_site_fract_z
 _atom_site_occupancy
  Tm  Tm0  1  0.750223  0.750000  0.578530  1
  Bi  Bi1  1  0.264290  0.750000  0.074981  1
  Bi  Bi2  1  0.284076  0.250000  0.429625  1
  Bi  Bi3  1  0.718868  0.250000  0.924717  1
  Au  Au4  1  0.069126  0.750000  0.823339  1
  Au  Au5  1  0.083786  0.250000  0.665827  1
  Au  Au6  1  0.918514  0.250000  0.172604  1
  Au  Au7  1  0.919875  0.750000  0.335431  1
  O  O8  1  0.165632  0.499450  0.254989  1
  O  O9  1  0.823356  0.987184  0.733841  1
  O  O10  1  0.823356  0.512816  0.733841  1
  O  O11  1  0.165632  0.000550  0.254989  1
  O  O12  1  0.738131  0.489543  0.070424  1
  O  O13  1  0.747483  0.510351  0.434804  1
  O  O14  1  0.244965  0.990224  0.925921  1
  O  O15  1  0.276055  0.993898  0.577494  1
  O  O16  1  0.747483  0.989649  0.434804  1
  O  O17  1  0.738131  0.010457  0.070424  1
  O  O18  1  0.276055  0.506102  0.577494  1
  O  O19  1  0.244965  0.509776  0.925921  1
