# generated using pymatgen
data_LaCdGa2Au3
_symmetry_space_group_name_H-M   'P 1'
_cell_length_a   4.47281200
_cell_length_b   7.41086800
_cell_length_c   8.96394700
_cell_angle_alpha   90.00000000
_cell_angle_beta   90.00000000
_cell_angle_gamma   90.00000000
_symmetry_Int_Tables_number   1
_chemical_formula_structural   LaCdGa2Au3
_chemical_formula_sum   'La2 Cd2 Ga4 Au6'
_cell_volume   297.13170998
_cell_formula_units_Z   2
loop_
 _symmetry_equiv_pos_site_id
 _symmetry_equiv_pos_as_xyz
  1  'x, y, z'
loop_
 _atom_site_type_symbol
 _atom_site_label
 _atom_site_symmetry_multiplicity
 _atom_site_fract_x
 _atom_site_fract_y
 _atom_site_fract_z
 _atom_site_occupancy
  La  La0  1  0.500000  0.000000  0.750975  1
  La  La1  1  0.000000  0.500000  0.249025  1
  Cd  Cd2  1  0.000000  0.000000  0.358513  1
  Cd  Cd3  1  0.500000  0.500000  0.641487  1
  Ga  Ga4  1  0.000000  0.308886  0.888318  1
  Ga  Ga5  1  0.500000  0.191114  0.111682  1
  Ga  Ga6  1  0.000000  0.691114  0.888318  1
  Ga  Ga7  1  0.500000  0.808886  0.111682  1
  Au  Au8  1  0.000000  0.746172  0.603338  1
  Au  Au9  1  0.500000  0.753828  0.396662  1
  Au  Au10  1  0.500000  0.500000  0.959350  1
  Au  Au11  1  0.000000  0.000000  0.040650  1
  Au  Au12  1  0.500000  0.246172  0.396662  1
  Au  Au13  1  0.000000  0.253828  0.603338  1
