# generated using pymatgen
data_Ho9Tm(ThCo2)2
_symmetry_space_group_name_H-M   'P 1'
_cell_length_a   6.26123368
_cell_length_b   6.89393130
_cell_length_c   9.53147300
_cell_angle_alpha   90.00000000
_cell_angle_beta   90.00000000
_cell_angle_gamma   87.92195547
_symmetry_Int_Tables_number   1
_chemical_formula_structural   Ho9Tm(ThCo2)2
_chemical_formula_sum   'Ho9 Tm1 Th2 Co4'
_cell_volume   411.15084117
_cell_formula_units_Z   1
loop_
 _symmetry_equiv_pos_site_id
 _symmetry_equiv_pos_as_xyz
  1  'x, y, z'
loop_
 _atom_site_type_symbol
 _atom_site_label
 _atom_site_symmetry_multiplicity
 _atom_site_fract_x
 _atom_site_fract_y
 _atom_site_fract_z
 _atom_site_occupancy
  Ho  Ho0  1  0.674010  0.174044  0.068461  1
  Ho  Ho1  1  0.825345  0.671115  0.429326  1
  Ho  Ho2  1  0.325501  0.825773  0.932174  1
  Ho  Ho3  1  0.174344  0.328538  0.570114  1
  Ho  Ho4  1  0.674010  0.174044  0.431539  1
  Ho  Ho5  1  0.174344  0.328538  0.929886  1
  Ho  Ho6  1  0.325501  0.825773  0.567826  1
  Ho  Ho7  1  0.642612  0.457293  0.750000  1
  Ho  Ho8  1  0.825345  0.671115  0.070674  1
  Tm  Tm9  1  0.354726  0.544299  0.250000  1
  Th  Th10  1  0.157970  0.049791  0.250000  1
  Th  Th11  1  0.843809  0.950900  0.750000  1
  Co  Co12  1  0.959932  0.368637  0.250000  1
  Co  Co13  1  0.464574  0.111833  0.750000  1
  Co  Co14  1  0.536028  0.886439  0.250000  1
  Co  Co15  1  0.041948  0.631867  0.750000  1
