# generated using pymatgen
data_Ho4Tm4Ga3Os
_symmetry_space_group_name_H-M   'P 1'
_cell_length_a   9.91342100
_cell_length_b   9.91342088
_cell_length_c   7.04135900
_cell_angle_alpha   90.00000000
_cell_angle_beta   90.00000000
_cell_angle_gamma   120.00000373
_symmetry_Int_Tables_number   1
_chemical_formula_structural   Ho4Tm4Ga3Os
_chemical_formula_sum   'Ho8 Tm8 Ga6 Os2'
_cell_volume   599.28609008
_cell_formula_units_Z   2
loop_
 _symmetry_equiv_pos_site_id
 _symmetry_equiv_pos_as_xyz
  1  'x, y, z'
loop_
 _atom_site_type_symbol
 _atom_site_label
 _atom_site_symmetry_multiplicity
 _atom_site_fract_x
 _atom_site_fract_y
 _atom_site_fract_z
 _atom_site_occupancy
  Ho  Ho0  1  0.465860  0.534140  0.205028  1
  Ho  Ho1  1  0.068278  0.534140  0.205028  1
  Ho  Ho2  1  0.465860  0.931722  0.205028  1
  Ho  Ho3  1  0.534140  0.465860  0.705028  1
  Ho  Ho4  1  0.931722  0.465860  0.705028  1
  Ho  Ho5  1  0.534140  0.068278  0.705028  1
  Ho  Ho6  1  0.000000  0.000000  0.234252  1
  Ho  Ho7  1  0.000000  0.000000  0.734252  1
  Tm  Tm8  1  0.171837  0.828163  0.511335  1
  Tm  Tm9  1  0.656324  0.828163  0.511335  1
  Tm  Tm10  1  0.171837  0.343676  0.511335  1
  Tm  Tm11  1  0.828163  0.171837  0.011335  1
  Tm  Tm12  1  0.343676  0.171837  0.011335  1
  Tm  Tm13  1  0.828163  0.656324  0.011335  1
  Tm  Tm14  1  0.333333  0.666667  0.838520  1
  Tm  Tm15  1  0.666667  0.333333  0.338520  1
  Ga  Ga16  1  0.163825  0.836175  0.956190  1
  Ga  Ga17  1  0.672350  0.836175  0.956190  1
  Ga  Ga18  1  0.163825  0.327650  0.956190  1
  Ga  Ga19  1  0.836175  0.163825  0.456190  1
  Ga  Ga20  1  0.327650  0.163825  0.456190  1
  Ga  Ga21  1  0.836175  0.672350  0.456190  1
  Os  Os22  1  0.333333  0.666667  0.446589  1
  Os  Os23  1  0.666667  0.333333  0.946589  1
