# generated using pymatgen
data_Sr2ThCu2S5
_symmetry_space_group_name_H-M   'P 1'
_cell_length_a   4.04949128
_cell_length_b   6.88228597
_cell_length_c   9.07522942
_cell_angle_alpha   101.70326521
_cell_angle_beta   102.89158503
_cell_angle_gamma   107.10936986
_symmetry_Int_Tables_number   1
_chemical_formula_structural   Sr2ThCu2S5
_chemical_formula_sum   'Sr2 Th1 Cu2 S5'
_cell_volume   225.64179491
_cell_formula_units_Z   1
loop_
 _symmetry_equiv_pos_site_id
 _symmetry_equiv_pos_as_xyz
  1  'x, y, z'
loop_
 _atom_site_type_symbol
 _atom_site_label
 _atom_site_symmetry_multiplicity
 _atom_site_fract_x
 _atom_site_fract_y
 _atom_site_fract_z
 _atom_site_occupancy
  Sr  Sr0  1  0.486628  0.657392  0.315863  1
  Sr  Sr1  1  0.513372  0.342608  0.684137  1
  Th  Th2  1  0.000000  0.000000  0.000000  1
  Cu  Cu3  1  0.740336  0.183183  0.297491  1
  Cu  Cu4  1  0.259664  0.816817  0.702509  1
  S  S5  1  0.692705  0.310795  0.074616  1
  S  S6  1  0.157306  0.000476  0.314135  1
  S  S7  1  0.000001  0.500001  0.500000  1
  S  S8  1  0.842694  0.999524  0.685866  1
  S  S9  1  0.307296  0.689207  0.925384  1
