# generated using pymatgen
data_Sc6Al5Zn(Ga2Au)2
_symmetry_space_group_name_H-M   'P 1'
_cell_length_a   6.73812916
_cell_length_b   6.73791649
_cell_length_c   8.33910400
_cell_angle_alpha   89.99866483
_cell_angle_beta   90.00110906
_cell_angle_gamma   119.93703672
_symmetry_Int_Tables_number   1
_chemical_formula_structural   Sc6Al5Zn(Ga2Au)2
_chemical_formula_sum   'Sc6 Al5 Zn1 Ga4 Au2'
_cell_volume   328.08786676
_cell_formula_units_Z   1
loop_
 _symmetry_equiv_pos_site_id
 _symmetry_equiv_pos_as_xyz
  1  'x, y, z'
loop_
 _atom_site_type_symbol
 _atom_site_label
 _atom_site_symmetry_multiplicity
 _atom_site_fract_x
 _atom_site_fract_y
 _atom_site_fract_z
 _atom_site_occupancy
  Sc  Sc0  1  0.573450  0.998762  0.749837  1
  Sc  Sc1  1  0.999004  0.573574  0.749853  1
  Sc  Sc2  1  0.428953  0.429091  0.751497  1
  Sc  Sc3  1  0.998762  0.573447  0.250161  1
  Sc  Sc4  1  0.573582  0.999005  0.250151  1
  Sc  Sc5  1  0.429083  0.428944  0.248505  1
  Al  Al6  1  0.240910  0.997699  0.999996  1
  Al  Al7  1  0.997694  0.240903  0.999998  1
  Al  Al8  1  0.754773  0.754778  0.500001  1
  Al  Al9  1  0.247729  0.001265  0.500002  1
  Al  Al10  1  0.001255  0.247722  0.500001  1
  Zn  Zn11  1  0.747930  0.747929  0.000000  1
  Ga  Ga12  1  0.666406  0.332284  0.999896  1
  Ga  Ga13  1  0.666874  0.333864  0.500107  1
  Ga  Ga14  1  0.333852  0.666869  0.499897  1
  Ga  Ga15  1  0.332262  0.666382  0.000099  1
  Au  Au16  1  0.003738  0.003742  0.747552  1
  Au  Au17  1  0.003742  0.003738  0.252447  1
