# generated using pymatgen
data_Hf6UTc12Sn5
_symmetry_space_group_name_H-M   'P 1'
_cell_length_a   4.60808500
_cell_length_b   6.58922700
_cell_length_c   13.75459000
_cell_angle_alpha   89.99930644
_cell_angle_beta   89.99810945
_cell_angle_gamma   90.00010190
_symmetry_Int_Tables_number   1
_chemical_formula_structural   Hf6UTc12Sn5
_chemical_formula_sum   'Hf6 U1 Tc12 Sn5'
_cell_volume   417.64049322
_cell_formula_units_Z   1
loop_
 _symmetry_equiv_pos_site_id
 _symmetry_equiv_pos_as_xyz
  1  'x, y, z'
loop_
 _atom_site_type_symbol
 _atom_site_label
 _atom_site_symmetry_multiplicity
 _atom_site_fract_x
 _atom_site_fract_y
 _atom_site_fract_z
 _atom_site_occupancy
  Hf  Hf0  1  0.000000  0.000014  0.000005  1
  Hf  Hf1  1  0.499943  0.500003  0.179032  1
  Hf  Hf2  1  0.999930  0.999973  0.331272  1
  Hf  Hf3  1  0.499998  0.500039  0.500012  1
  Hf  Hf4  1  0.000068  0.999986  0.668744  1
  Hf  Hf5  1  0.500057  0.499989  0.820892  1
  U  U6  1  0.999998  0.499995  0.000022  1
  Tc  Tc7  1  0.499999  0.269453  0.000018  1
  Tc  Tc8  1  0.499999  0.730543  0.000019  1
  Tc  Tc9  1  0.999952  0.261341  0.158242  1
  Tc  Tc10  1  0.999952  0.738659  0.158239  1
  Tc  Tc11  1  0.499918  0.244530  0.334198  1
  Tc  Tc12  1  0.499918  0.755473  0.334189  1
  Tc  Tc13  1  0.999999  0.248202  0.499994  1
  Tc  Tc14  1  0.999999  0.751799  0.499999  1
  Tc  Tc15  1  0.500081  0.244556  0.665771  1
  Tc  Tc16  1  0.500081  0.755447  0.665774  1
  Tc  Tc17  1  0.000048  0.261328  0.841786  1
  Tc  Tc18  1  0.000047  0.738670  0.841783  1
  Sn  Sn19  1  0.499953  0.999995  0.166259  1
  Sn  Sn20  1  0.999937  0.500017  0.335648  1
  Sn  Sn21  1  0.499993  0.999979  0.499985  1
  Sn  Sn22  1  0.000077  0.500014  0.664356  1
  Sn  Sn23  1  0.500053  0.999994  0.833757  1
