# generated using pymatgen
data_Ca2CoPdN2
_symmetry_space_group_name_H-M   'P 1'
_cell_length_a   5.23780500
_cell_length_b   5.23780500
_cell_length_c   7.04313500
_cell_angle_alpha   90.00000000
_cell_angle_beta   90.00000000
_cell_angle_gamma   90.00000000
_symmetry_Int_Tables_number   1
_chemical_formula_structural   Ca2CoPdN2
_chemical_formula_sum   'Ca4 Co2 Pd2 N4'
_cell_volume   193.22560005
_cell_formula_units_Z   2
loop_
 _symmetry_equiv_pos_site_id
 _symmetry_equiv_pos_as_xyz
  1  'x, y, z'
loop_
 _atom_site_type_symbol
 _atom_site_label
 _atom_site_symmetry_multiplicity
 _atom_site_fract_x
 _atom_site_fract_y
 _atom_site_fract_z
 _atom_site_occupancy
  Ca  Ca0  1  0.000000  0.500000  0.250000  1
  Ca  Ca1  1  0.000000  0.500000  0.750000  1
  Ca  Ca2  1  0.500000  0.000000  0.250000  1
  Ca  Ca3  1  0.500000  0.000000  0.750000  1
  Co  Co4  1  0.000000  0.000000  0.000000  1
  Co  Co5  1  0.500000  0.500000  0.500000  1
  Pd  Pd6  1  0.000000  0.000000  0.500000  1
  Pd  Pd7  1  0.500000  0.500000  0.000000  1
  N  N8  1  0.232815  0.232815  0.000000  1
  N  N9  1  0.767185  0.767185  0.000000  1
  N  N10  1  0.267185  0.732815  0.500000  1
  N  N11  1  0.732815  0.267185  0.500000  1
