# generated using pymatgen
data_Ba14YbBi11
_symmetry_space_group_name_H-M   'P 1'
_cell_length_a   18.69209710
_cell_length_b   18.69209659
_cell_length_c   18.69209700
_cell_angle_alpha   117.45216392
_cell_angle_beta   117.45216311
_cell_angle_gamma   94.47270914
_symmetry_Int_Tables_number   1
_chemical_formula_structural   Ba14YbBi11
_chemical_formula_sum   'Ba56 Yb4 Bi44'
_cell_volume   4780.14041685
_cell_formula_units_Z   4
loop_
 _symmetry_equiv_pos_site_id
 _symmetry_equiv_pos_as_xyz
  1  'x, y, z'
loop_
 _atom_site_type_symbol
 _atom_site_label
 _atom_site_symmetry_multiplicity
 _atom_site_fract_x
 _atom_site_fract_y
 _atom_site_fract_z
 _atom_site_occupancy
  Ba  Ba0  1  0.591259  0.871798  0.367710  1
  Ba  Ba1  1  0.123559  0.960671  0.520277  1
  Ba  Ba2  1  0.768817  0.375000  0.893817  1
  Ba  Ba3  1  0.125000  0.731183  0.106183  1
  Ba  Ba4  1  0.853283  0.190394  0.979723  1
  Ba  Ba5  1  0.126441  0.146717  0.337111  1
  Ba  Ba6  1  0.353005  0.751165  0.346203  1
  Ba  Ba7  1  0.896717  0.059606  0.520277  1
  Ba  Ba8  1  0.940394  0.460671  0.837111  1
  Ba  Ba9  1  0.039329  0.559606  0.162889  1
  Ba  Ba10  1  0.158741  0.378202  0.132290  1
  Ba  Ba11  1  0.004088  0.371798  0.280539  1
  Ba  Ba12  1  0.440394  0.603283  0.479723  1
  Ba  Ba13  1  0.309606  0.646717  0.020277  1
  Ba  Ba14  1  0.621798  0.754088  0.780539  1
  Ba  Ba15  1  0.245912  0.026450  0.867710  1
  Ba  Ba16  1  0.125000  0.231183  0.606183  1
  Ba  Ba17  1  0.493198  0.095039  0.346203  1
  Ba  Ba18  1  0.404961  0.006802  0.653797  1
  Ba  Ba19  1  0.345039  0.243198  0.846203  1
  Ba  Ba20  1  0.623559  0.103283  0.162889  1
  Ba  Ba21  1  0.481183  0.875000  0.106183  1
  Ba  Ba22  1  0.276450  0.995912  0.367710  1
  Ba  Ba23  1  0.756802  0.603005  0.101841  1
  Ba  Ba24  1  0.625000  0.018817  0.893817  1
  Ba  Ba25  1  0.501165  0.654961  0.898159  1
  Ba  Ba26  1  0.973550  0.841259  0.219461  1
  Ba  Ba27  1  0.993198  0.646995  0.398159  1
  Ba  Ba28  1  0.256802  0.154961  0.153797  1
  Ba  Ba29  1  0.396717  0.876441  0.837111  1
  Ba  Ba30  1  0.625000  0.518817  0.393817  1
  Ba  Ba31  1  0.001165  0.103005  0.846203  1
  Ba  Ba32  1  0.658741  0.526450  0.780539  1
  Ba  Ba33  1  0.628202  0.908741  0.632290  1
  Ba  Ba34  1  0.776450  0.408741  0.280539  1
  Ba  Ba35  1  0.210671  0.873559  0.020277  1
  Ba  Ba36  1  0.904961  0.251165  0.398159  1
  Ba  Ba37  1  0.809606  0.789329  0.662889  1
  Ba  Ba38  1  0.853005  0.506802  0.601841  1
  Ba  Ba39  1  0.745912  0.878202  0.219461  1
  Ba  Ba40  1  0.626441  0.289329  0.979723  1
  Ba  Ba41  1  0.748835  0.146995  0.653797  1
  Ba  Ba42  1  0.128202  0.495912  0.719461  1
  Ba  Ba43  1  0.981183  0.875000  0.606183  1
  Ba  Ba44  1  0.091259  0.723550  0.719461  1
  Ba  Ba45  1  0.121798  0.341259  0.867710  1
  Ba  Ba46  1  0.248835  0.595039  0.601841  1
  Ba  Ba47  1  0.396995  0.498835  0.153797  1
  Ba  Ba48  1  0.353283  0.373559  0.662889  1
  Ba  Ba49  1  0.845039  0.998835  0.101841  1
  Ba  Ba50  1  0.473550  0.254088  0.132290  1
  Ba  Ba51  1  0.268817  0.375000  0.393817  1
  Ba  Ba52  1  0.504088  0.223550  0.632290  1
  Ba  Ba53  1  0.539329  0.376441  0.479723  1
  Ba  Ba54  1  0.896995  0.743198  0.898159  1
  Ba  Ba55  1  0.710671  0.690394  0.337111  1
  Yb  Yb56  1  0.000000  0.000000  0.000000  1
  Yb  Yb57  1  0.250000  0.750000  0.500000  1
  Yb  Yb58  1  0.750000  0.250000  0.500000  1
  Yb  Yb59  1  0.500000  0.500000  0.000000  1
  Bi  Bi60  1  0.554052  0.697200  0.408674  1
  Bi  Bi61  1  0.131236  0.368764  0.500000  1
  Bi  Bi62  1  0.456373  0.818998  0.645951  1
  Bi  Bi63  1  0.060423  0.923049  0.854049  1
  Bi  Bi64  1  0.293627  0.431002  0.854049  1
  Bi  Bi65  1  0.854622  0.445948  0.143148  1
  Bi  Bi66  1  0.368764  0.868764  0.237528  1
  Bi  Bi67  1  0.250000  0.250000  0.000000  1
  Bi  Bi68  1  0.076951  0.931002  0.137375  1
  Bi  Bi69  1  0.961474  0.052800  0.356852  1
  Bi  Bi70  1  0.302800  0.711474  0.856852  1
  Bi  Bi71  1  0.631236  0.131236  0.762472  1
  Bi  Bi72  1  0.788526  0.197200  0.143148  1
  Bi  Bi73  1  0.881236  0.618764  0.000000  1
  Bi  Bi74  1  0.447200  0.538526  0.643148  1
  Bi  Bi75  1  0.395378  0.038526  0.091326  1
  Bi  Bi76  1  0.288526  0.145378  0.591326  1
  Bi  Bi77  1  0.560423  0.706373  0.137375  1
  Bi  Bi78  1  0.956373  0.310423  0.637375  1
  Bi  Bi79  1  0.689577  0.326951  0.645951  1
  Bi  Bi80  1  0.500000  0.000000  0.500000  1
  Bi  Bi81  1  0.618764  0.881236  0.000000  1
  Bi  Bi82  1  0.461474  0.104622  0.908674  1
  Bi  Bi83  1  0.947200  0.304052  0.908674  1
  Bi  Bi84  1  0.381236  0.381236  0.262472  1
  Bi  Bi85  1  0.181002  0.826951  0.637375  1
  Bi  Bi86  1  0.195948  0.552800  0.091326  1
  Bi  Bi87  1  0.802800  0.945948  0.591326  1
  Bi  Bi88  1  0.681002  0.043627  0.354049  1
  Bi  Bi89  1  0.695948  0.604622  0.643148  1
  Bi  Bi90  1  0.576951  0.439577  0.145951  1
  Bi  Bi91  1  0.895378  0.804052  0.356852  1
  Bi  Bi92  1  0.054052  0.645378  0.856852  1
  Bi  Bi93  1  0.673049  0.318998  0.362625  1
  Bi  Bi94  1  0.793627  0.939577  0.862625  1
  Bi  Bi95  1  0.068998  0.206373  0.145951  1
  Bi  Bi96  1  0.568998  0.423049  0.862625  1
  Bi  Bi97  1  0.173049  0.810423  0.354049  1
  Bi  Bi98  1  0.868764  0.631236  0.500000  1
  Bi  Bi99  1  0.750000  0.750000  0.000000  1
  Bi  Bi100  1  0.118764  0.118764  0.737528  1
  Bi  Bi101  1  0.189577  0.543627  0.362625  1
  Bi  Bi102  1  0.000000  0.500000  0.500000  1
  Bi  Bi103  1  0.354622  0.211474  0.408674  1
