# generated using pymatgen
data_Eu8Er7Sc5Sn16
_symmetry_space_group_name_H-M   'P 1'
_cell_length_a   8.06859553
_cell_length_b   8.26875548
_cell_length_c   15.63368400
_cell_angle_alpha   90.16969612
_cell_angle_beta   89.74085213
_cell_angle_gamma   90.01387742
_symmetry_Int_Tables_number   1
_chemical_formula_structural   Eu8Er7Sc5Sn16
_chemical_formula_sum   'Eu8 Er7 Sc5 Sn16'
_cell_volume   1043.02103195
_cell_formula_units_Z   1
loop_
 _symmetry_equiv_pos_site_id
 _symmetry_equiv_pos_as_xyz
  1  'x, y, z'
loop_
 _atom_site_type_symbol
 _atom_site_label
 _atom_site_symmetry_multiplicity
 _atom_site_fract_x
 _atom_site_fract_y
 _atom_site_fract_z
 _atom_site_occupancy
  Eu  Eu0  1  0.503593  0.324431  0.906320  1
  Eu  Eu1  1  0.003873  0.175193  0.594431  1
  Eu  Eu2  1  0.496415  0.675549  0.406402  1
  Eu  Eu3  1  0.996955  0.823220  0.093333  1
  Eu  Eu4  1  0.496821  0.675822  0.092198  1
  Eu  Eu5  1  0.996407  0.824189  0.406250  1
  Eu  Eu6  1  0.502287  0.324116  0.595364  1
  Eu  Eu7  1  0.003286  0.176870  0.906335  1
  Er  Er8  1  0.831898  0.662872  0.627245  1
  Er  Er9  1  0.667442  0.161654  0.374224  1
  Er  Er10  1  0.169693  0.338269  0.123803  1
  Er  Er11  1  0.667336  0.160323  0.124605  1
  Er  Er12  1  0.167345  0.337985  0.374199  1
  Er  Er13  1  0.333068  0.837541  0.625881  1
  Er  Er14  1  0.832486  0.660744  0.874975  1
  Sc  Sc15  1  0.332144  0.840093  0.873008  1
  Sc  Sc16  1  0.168353  0.499454  0.750992  1
  Sc  Sc17  1  0.667818  0.001094  0.751005  1
  Sc  Sc18  1  0.831569  0.501633  0.250273  1
  Sc  Sc19  1  0.331902  0.998036  0.249420  1
  Sn  Sn20  1  0.331216  0.037348  0.040560  1
  Sn  Sn21  1  0.830688  0.460889  0.456143  1
  Sn  Sn22  1  0.669409  0.960818  0.544878  1
  Sn  Sn23  1  0.173937  0.544680  0.953405  1
  Sn  Sn24  1  0.662319  0.959598  0.953197  1
  Sn  Sn25  1  0.167856  0.539132  0.545004  1
  Sn  Sn26  1  0.330787  0.039485  0.455422  1
  Sn  Sn27  1  0.832423  0.459962  0.044605  1
  Sn  Sn28  1  0.523684  0.626185  0.753062  1
  Sn  Sn29  1  0.030419  0.878748  0.752722  1
  Sn  Sn30  1  0.473867  0.378124  0.249318  1
  Sn  Sn31  1  0.973928  0.121997  0.249075  1
  Sn  Sn32  1  0.307097  0.139762  0.752075  1
  Sn  Sn33  1  0.806779  0.355573  0.750575  1
  Sn  Sn34  1  0.691522  0.854577  0.249789  1
  Sn  Sn35  1  0.193374  0.644034  0.249904  1
