# generated using pymatgen
data_Ca3Nd9(GaRh)8
_symmetry_space_group_name_H-M   'P 1'
_cell_length_a   5.73673568
_cell_length_b   8.06962132
_cell_length_c   13.72362913
_cell_angle_alpha   90.13946041
_cell_angle_beta   89.88022705
_cell_angle_gamma   90.23629414
_symmetry_Int_Tables_number   1
_chemical_formula_structural   Ca3Nd9(GaRh)8
_chemical_formula_sum   'Ca3 Nd9 Ga8 Rh8'
_cell_volume   635.30320851
_cell_formula_units_Z   1
loop_
 _symmetry_equiv_pos_site_id
 _symmetry_equiv_pos_as_xyz
  1  'x, y, z'
loop_
 _atom_site_type_symbol
 _atom_site_label
 _atom_site_symmetry_multiplicity
 _atom_site_fract_x
 _atom_site_fract_y
 _atom_site_fract_z
 _atom_site_occupancy
  Ca  Ca0  1  0.855927  0.104993  0.100296  1
  Ca  Ca1  1  0.143995  0.893126  0.598443  1
  Ca  Ca2  1  0.141791  0.606179  0.401316  1
  Nd  Nd3  1  0.146563  0.604507  0.096124  1
  Nd  Nd4  1  0.138643  0.899941  0.905742  1
  Nd  Nd5  1  0.859267  0.102583  0.406456  1
  Nd  Nd6  1  0.856011  0.399471  0.595786  1
  Nd  Nd7  1  0.852806  0.393782  0.903622  1
  Nd  Nd8  1  0.372254  0.246637  0.248361  1
  Nd  Nd9  1  0.372158  0.251028  0.749623  1
  Nd  Nd10  1  0.625578  0.748352  0.250254  1
  Nd  Nd11  1  0.627725  0.754614  0.747806  1
  Ga  Ga12  1  0.375282  0.248414  0.000785  1
  Ga  Ga13  1  0.616638  0.748664  0.499240  1
  Ga  Ga14  1  0.631755  0.749608  0.998609  1
  Ga  Ga15  1  0.371091  0.249743  0.500410  1
  Ga  Ga16  1  0.867889  0.399638  0.250895  1
  Ga  Ga17  1  0.866081  0.101512  0.748456  1
  Ga  Ga18  1  0.133479  0.901944  0.250037  1
  Ga  Ga19  1  0.134021  0.601167  0.750451  1
  Rh  Rh20  1  0.640436  0.471865  0.093985  1
  Rh  Rh21  1  0.635697  0.029354  0.906945  1
  Rh  Rh22  1  0.369991  0.973159  0.405347  1
  Rh  Rh23  1  0.366598  0.527926  0.594316  1
  Rh  Rh24  1  0.357247  0.529666  0.908141  1
  Rh  Rh25  1  0.360705  0.965172  0.090705  1
  Rh  Rh26  1  0.641162  0.031023  0.589945  1
  Rh  Rh27  1  0.639209  0.465932  0.407903  1
