# generated using pymatgen
data_Dy7YTi3Si16Tc9
_symmetry_space_group_name_H-M   'P 1'
_cell_length_a   6.78926777
_cell_length_b   6.78940227
_cell_length_c   12.97949302
_cell_angle_alpha   90.07890333
_cell_angle_beta   89.92212650
_cell_angle_gamma   89.41563249
_symmetry_Int_Tables_number   1
_chemical_formula_structural   Dy7YTi3Si16Tc9
_chemical_formula_sum   'Dy7 Y1 Ti3 Si16 Tc9'
_cell_volume   598.25839009
_cell_formula_units_Z   1
loop_
 _symmetry_equiv_pos_site_id
 _symmetry_equiv_pos_as_xyz
  1  'x, y, z'
loop_
 _atom_site_type_symbol
 _atom_site_label
 _atom_site_symmetry_multiplicity
 _atom_site_fract_x
 _atom_site_fract_y
 _atom_site_fract_z
 _atom_site_occupancy
  Dy  Dy0  1  0.999956  0.339125  0.528786  1
  Dy  Dy1  1  0.662504  0.998039  0.970465  1
  Dy  Dy2  1  0.175046  0.490477  0.781934  1
  Dy  Dy3  1  0.822384  0.511693  0.282758  1
  Dy  Dy4  1  0.490436  0.175062  0.218064  1
  Dy  Dy5  1  0.511689  0.822372  0.717216  1
  Dy  Dy6  1  0.339101  0.999989  0.471262  1
  Y  Y7  1  0.997801  0.662711  0.029599  1
  Ti  Ti8  1  0.844698  0.155727  0.749313  1
  Ti  Ti9  1  0.155748  0.844700  0.250710  1
  Ti  Ti10  1  0.333721  0.333135  0.999800  1
  Si  Si11  1  0.015567  0.735731  0.444889  1
  Si  Si12  1  0.976146  0.272302  0.942516  1
  Si  Si13  1  0.735754  0.015617  0.555166  1
  Si  Si14  1  0.198852  0.472945  0.186897  1
  Si  Si15  1  0.798959  0.528902  0.684425  1
  Si  Si16  1  0.473151  0.198541  0.813153  1
  Si  Si17  1  0.528941  0.798955  0.315639  1
  Si  Si18  1  0.272618  0.976282  0.057438  1
  Si  Si19  1  0.789503  0.883279  0.181657  1
  Si  Si20  1  0.317801  0.602894  0.559390  1
  Si  Si21  1  0.690681  0.388518  0.061239  1
  Si  Si22  1  0.602936  0.317785  0.440640  1
  Si  Si23  1  0.388894  0.690837  0.938712  1
  Si  Si24  1  0.116560  0.211211  0.318319  1
  Si  Si25  1  0.211214  0.116577  0.681696  1
  Si  Si26  1  0.882960  0.789776  0.818391  1
  Tc  Tc27  1  0.307983  0.525272  0.368370  1
  Tc  Tc28  1  0.819014  0.015286  0.364935  1
  Tc  Tc29  1  0.992453  0.180843  0.134667  1
  Tc  Tc30  1  0.015254  0.819044  0.635129  1
  Tc  Tc31  1  0.525221  0.307928  0.631643  1
  Tc  Tc32  1  0.180731  0.992467  0.865212  1
  Tc  Tc33  1  0.666333  0.666312  0.500037  1
  Tc  Tc34  1  0.474931  0.684677  0.132219  1
  Tc  Tc35  1  0.684461  0.474988  0.867713  1
