# generated using pymatgen
data_Y2Ga2IrPt
_symmetry_space_group_name_H-M   'P 1'
_cell_length_a   4.43694700
_cell_length_b   6.86770400
_cell_length_c   7.71455900
_cell_angle_alpha   90.00000000
_cell_angle_beta   90.00000000
_cell_angle_gamma   90.00000000
_symmetry_Int_Tables_number   1
_chemical_formula_structural   Y2Ga2IrPt
_chemical_formula_sum   'Y4 Ga4 Ir2 Pt2'
_cell_volume   235.07525427
_cell_formula_units_Z   2
loop_
 _symmetry_equiv_pos_site_id
 _symmetry_equiv_pos_as_xyz
  1  'x, y, z'
loop_
 _atom_site_type_symbol
 _atom_site_label
 _atom_site_symmetry_multiplicity
 _atom_site_fract_x
 _atom_site_fract_y
 _atom_site_fract_z
 _atom_site_occupancy
  Y  Y0  1  0.250000  0.986246  0.303670  1
  Y  Y1  1  0.250000  0.486246  0.196330  1
  Y  Y2  1  0.750000  0.019822  0.690950  1
  Y  Y3  1  0.750000  0.519822  0.809050  1
  Ga  Ga4  1  0.250000  0.332054  0.570325  1
  Ga  Ga5  1  0.250000  0.832054  0.929675  1
  Ga  Ga6  1  0.750000  0.663340  0.423808  1
  Ga  Ga7  1  0.750000  0.163340  0.076192  1
  Ir  Ir8  1  0.750000  0.774460  0.101652  1
  Ir  Ir9  1  0.750000  0.274460  0.398348  1
  Pt  Pt10  1  0.250000  0.224078  0.897335  1
  Pt  Pt11  1  0.250000  0.724078  0.602665  1
