# generated using pymatgen
data_YbSe2O5
_symmetry_space_group_name_H-M   'P 1'
_cell_length_a   7.12863810
_cell_length_b   7.12863702
_cell_length_c   6.22931055
_cell_angle_alpha   74.39324275
_cell_angle_beta   74.39323741
_cell_angle_gamma   109.04475530
_symmetry_Int_Tables_number   1
_chemical_formula_structural   YbSe2O5
_chemical_formula_sum   'Yb2 Se4 O10'
_cell_volume   265.14065643
_cell_formula_units_Z   2
loop_
 _symmetry_equiv_pos_site_id
 _symmetry_equiv_pos_as_xyz
  1  'x, y, z'
loop_
 _atom_site_type_symbol
 _atom_site_label
 _atom_site_symmetry_multiplicity
 _atom_site_fract_x
 _atom_site_fract_y
 _atom_site_fract_z
 _atom_site_occupancy
  Yb  Yb0  1  0.584921  0.415079  0.250000  1
  Yb  Yb1  1  0.415079  0.584921  0.750000  1
  Se  Se2  1  0.291185  0.012907  0.869445  1
  Se  Se3  1  0.987093  0.708815  0.630555  1
  Se  Se4  1  0.708815  0.987093  0.130555  1
  Se  Se5  1  0.012907  0.291185  0.369445  1
  O  O6  1  0.079033  0.920967  0.750000  1
  O  O7  1  0.920967  0.079033  0.250000  1
  O  O8  1  0.407971  0.276760  0.672892  1
  O  O9  1  0.723240  0.592029  0.827108  1
  O  O10  1  0.592029  0.723240  0.327108  1
  O  O11  1  0.276760  0.407971  0.172892  1
  O  O12  1  0.912587  0.465931  0.274025  1
  O  O13  1  0.534069  0.087413  0.225975  1
  O  O14  1  0.087413  0.534069  0.725975  1
  O  O15  1  0.465931  0.912587  0.774025  1
