# generated using pymatgen
data_TbTiCrO5
_symmetry_space_group_name_H-M   'P 1'
_cell_length_a   5.86144300
_cell_length_b   7.47348700
_cell_length_c   8.62175000
_cell_angle_alpha   90.00000000
_cell_angle_beta   90.00000000
_cell_angle_gamma   90.00000000
_symmetry_Int_Tables_number   1
_chemical_formula_structural   TbTiCrO5
_chemical_formula_sum   'Tb4 Ti4 Cr4 O20'
_cell_volume   377.67936317
_cell_formula_units_Z   4
loop_
 _symmetry_equiv_pos_site_id
 _symmetry_equiv_pos_as_xyz
  1  'x, y, z'
loop_
 _atom_site_type_symbol
 _atom_site_label
 _atom_site_symmetry_multiplicity
 _atom_site_fract_x
 _atom_site_fract_y
 _atom_site_fract_z
 _atom_site_occupancy
  Tb  Tb0  1  0.500000  0.359848  0.329786  1
  Tb  Tb1  1  0.500000  0.640152  0.670214  1
  Tb  Tb2  1  0.500000  0.140152  0.829786  1
  Tb  Tb3  1  0.500000  0.859848  0.170214  1
  Ti  Ti4  1  0.000000  0.118080  0.146408  1
  Ti  Ti5  1  0.000000  0.881920  0.853592  1
  Ti  Ti6  1  0.000000  0.381920  0.646408  1
  Ti  Ti7  1  0.000000  0.618080  0.353592  1
  Cr  Cr8  1  0.253869  0.000000  0.500000  1
  Cr  Cr9  1  0.746131  0.000000  0.500000  1
  Cr  Cr10  1  0.746131  0.500000  0.000000  1
  Cr  Cr11  1  0.253869  0.500000  0.000000  1
  O  O12  1  0.252333  0.110379  0.287701  1
  O  O13  1  0.747667  0.889621  0.712299  1
  O  O14  1  0.252333  0.889621  0.712299  1
  O  O15  1  0.747667  0.389621  0.787701  1
  O  O16  1  0.747667  0.110379  0.287701  1
  O  O17  1  0.252333  0.610379  0.212299  1
  O  O18  1  0.747667  0.610379  0.212299  1
  O  O19  1  0.252333  0.389621  0.787701  1
  O  O20  1  0.000000  0.342337  0.077386  1
  O  O21  1  0.000000  0.657663  0.922614  1
  O  O22  1  0.000000  0.157663  0.577386  1
  O  O23  1  0.000000  0.842337  0.422614  1
  O  O24  1  0.500000  0.332948  0.059660  1
  O  O25  1  0.500000  0.667052  0.940340  1
  O  O26  1  0.500000  0.167052  0.559660  1
  O  O27  1  0.500000  0.832948  0.440340  1
  O  O28  1  0.219895  0.000000  0.000000  1
  O  O29  1  0.780105  0.000000  0.000000  1
  O  O30  1  0.780105  0.500000  0.500000  1
  O  O31  1  0.219895  0.500000  0.500000  1
