# generated using pymatgen
data_Ho5Er3(ScSi3)2
_symmetry_space_group_name_H-M   'P 1'
_cell_length_a   8.31145210
_cell_length_b   8.31145339
_cell_length_c   6.16698101
_cell_angle_alpha   89.99506727
_cell_angle_beta   89.99506806
_cell_angle_gamma   119.98275283
_symmetry_Int_Tables_number   1
_chemical_formula_structural   Ho5Er3(ScSi3)2
_chemical_formula_sum   'Ho5 Er3 Sc2 Si6'
_cell_volume   369.00526915
_cell_formula_units_Z   1
loop_
 _symmetry_equiv_pos_site_id
 _symmetry_equiv_pos_as_xyz
  1  'x, y, z'
loop_
 _atom_site_type_symbol
 _atom_site_label
 _atom_site_symmetry_multiplicity
 _atom_site_fract_x
 _atom_site_fract_y
 _atom_site_fract_z
 _atom_site_occupancy
  Ho  Ho0  1  0.244749  0.000042  0.503936  1
  Ho  Ho1  1  0.000042  0.244749  0.503936  1
  Ho  Ho2  1  0.245466  0.245466  0.996121  1
  Ho  Ho3  1  0.755165  0.999674  0.996212  1
  Ho  Ho4  1  0.999674  0.755165  0.996212  1
  Er  Er5  1  0.666620  0.333330  0.250071  1
  Er  Er6  1  0.333330  0.666620  0.250071  1
  Er  Er7  1  0.754741  0.754741  0.504205  1
  Sc  Sc8  1  0.333398  0.666895  0.749960  1
  Sc  Sc9  1  0.666895  0.333398  0.749960  1
  Si  Si10  1  0.397599  0.397599  0.513987  1
  Si  Si11  1  0.603221  0.999318  0.513679  1
  Si  Si12  1  0.999318  0.603221  0.513679  1
  Si  Si13  1  0.602987  0.602987  0.985720  1
  Si  Si14  1  0.396918  0.999925  0.986126  1
  Si  Si15  1  0.999925  0.396918  0.986126  1
