# generated using pymatgen
data_Yb10Si5Pb
_symmetry_space_group_name_H-M   'P 1'
_cell_length_a   7.65789465
_cell_length_b   7.65789348
_cell_length_c   9.23839501
_cell_angle_alpha   114.48533614
_cell_angle_beta   114.48533140
_cell_angle_gamma   89.99999318
_symmetry_Int_Tables_number   1
_chemical_formula_structural   Yb10Si5Pb
_chemical_formula_sum   'Yb10 Si5 Pb1'
_cell_volume   438.94946678
_cell_formula_units_Z   1
loop_
 _symmetry_equiv_pos_site_id
 _symmetry_equiv_pos_as_xyz
  1  'x, y, z'
loop_
 _atom_site_type_symbol
 _atom_site_label
 _atom_site_symmetry_multiplicity
 _atom_site_fract_x
 _atom_site_fract_y
 _atom_site_fract_z
 _atom_site_occupancy
  Yb  Yb0  1  0.508745  0.508745  0.017490  1
  Yb  Yb1  1  0.991255  0.991255  0.982510  1
  Yb  Yb2  1  0.967953  0.826781  0.276687  1
  Yb  Yb3  1  0.308734  0.449905  0.276687  1
  Yb  Yb4  1  0.826781  0.308734  0.276687  1
  Yb  Yb5  1  0.449905  0.967953  0.276687  1
  Yb  Yb6  1  0.050095  0.191266  0.723313  1
  Yb  Yb7  1  0.673219  0.532047  0.723313  1
  Yb  Yb8  1  0.191266  0.673219  0.723313  1
  Yb  Yb9  1  0.532047  0.050095  0.723313  1
  Si  Si10  1  0.250000  0.250000  0.500000  1
  Si  Si11  1  0.612449  0.887551  0.000000  1
  Si  Si12  1  0.387551  0.112449  0.000000  1
  Si  Si13  1  0.887551  0.387551  0.000000  1
  Si  Si14  1  0.112449  0.612449  0.000000  1
  Pb  Pb15  1  0.750000  0.750000  0.500000  1
