# generated using pymatgen
data_Li8Tb5Dy3Sn7Sb
_symmetry_space_group_name_H-M   'P 1'
_cell_length_a   9.39251500
_cell_length_b   9.39284314
_cell_length_c   7.30929701
_cell_angle_alpha   90.07092707
_cell_angle_beta   90.00332106
_cell_angle_gamma   119.99857751
_symmetry_Int_Tables_number   1
_chemical_formula_structural   Li8Tb5Dy3Sn7Sb
_chemical_formula_sum   'Li8 Tb5 Dy3 Sn7 Sb1'
_cell_volume   558.45857988
_cell_formula_units_Z   1
loop_
 _symmetry_equiv_pos_site_id
 _symmetry_equiv_pos_as_xyz
  1  'x, y, z'
loop_
 _atom_site_type_symbol
 _atom_site_label
 _atom_site_symmetry_multiplicity
 _atom_site_fract_x
 _atom_site_fract_y
 _atom_site_fract_z
 _atom_site_occupancy
  Li  Li0  1  0.166574  0.333313  0.288546  1
  Li  Li1  1  0.166699  0.833259  0.289006  1
  Li  Li2  1  0.666578  0.833342  0.288998  1
  Li  Li3  1  0.833510  0.666796  0.788757  1
  Li  Li4  1  0.832706  0.166340  0.789717  1
  Li  Li5  1  0.333596  0.166207  0.789635  1
  Li  Li6  1  0.333577  0.667252  0.668703  1
  Li  Li7  1  0.666828  0.333451  0.169544  1
  Tb  Tb8  1  0.512452  0.024867  0.494037  1
  Tb  Tb9  1  0.515024  0.489452  0.492065  1
  Tb  Tb10  1  0.974515  0.489474  0.492014  1
  Tb  Tb11  1  0.487574  0.975249  0.994490  1
  Tb  Tb12  1  0.489608  0.512788  0.995175  1
  Dy  Dy13  1  0.023093  0.512812  0.995193  1
  Dy  Dy14  1  0.998933  0.997839  0.498703  1
  Dy  Dy15  1  0.999005  0.998018  0.001606  1
  Sn  Sn16  1  0.166253  0.832805  0.729783  1
  Sn  Sn17  1  0.666648  0.832981  0.729548  1
  Sn  Sn18  1  0.833548  0.666834  0.230139  1
  Sn  Sn19  1  0.834078  0.167231  0.229739  1
  Sn  Sn20  1  0.333002  0.167012  0.229913  1
  Sn  Sn21  1  0.332685  0.665679  0.261838  1
  Sn  Sn22  1  0.667071  0.333838  0.762608  1
  Sb  Sb23  1  0.166441  0.333164  0.732239  1
