# generated using pymatgen
data_Ac6Nd2Si12PdPt3
_symmetry_space_group_name_H-M   'P 1'
_cell_length_a   8.39926100
_cell_length_b   8.39926127
_cell_length_c   9.03330400
_cell_angle_alpha   90.00000000
_cell_angle_beta   90.00000000
_cell_angle_gamma   119.99999500
_symmetry_Int_Tables_number   1
_chemical_formula_structural   Ac6Nd2Si12PdPt3
_chemical_formula_sum   'Ac6 Nd2 Si12 Pd1 Pt3'
_cell_volume   551.89879659
_cell_formula_units_Z   1
loop_
 _symmetry_equiv_pos_site_id
 _symmetry_equiv_pos_as_xyz
  1  'x, y, z'
loop_
 _atom_site_type_symbol
 _atom_site_label
 _atom_site_symmetry_multiplicity
 _atom_site_fract_x
 _atom_site_fract_y
 _atom_site_fract_z
 _atom_site_occupancy
  Ac  Ac0  1  0.500589  0.001176  0.250085  1
  Ac  Ac1  1  0.500345  0.000691  0.749880  1
  Ac  Ac2  1  0.998824  0.499411  0.250085  1
  Ac  Ac3  1  0.999309  0.499655  0.749880  1
  Ac  Ac4  1  0.500589  0.499411  0.250085  1
  Ac  Ac5  1  0.500345  0.499655  0.749880  1
  Nd  Nd6  1  0.000000  0.000000  0.250661  1
  Nd  Nd7  1  0.000000  0.000000  0.749356  1
  Si  Si8  1  0.164174  0.328348  0.000130  1
  Si  Si9  1  0.836102  0.672202  0.999856  1
  Si  Si10  1  0.671652  0.835826  0.000130  1
  Si  Si11  1  0.836339  0.672682  0.500144  1
  Si  Si12  1  0.327798  0.163898  0.999856  1
  Si  Si13  1  0.163082  0.326162  0.499896  1
  Si  Si14  1  0.164174  0.835826  0.000130  1
  Si  Si15  1  0.327318  0.163661  0.500144  1
  Si  Si16  1  0.836102  0.163898  0.999856  1
  Si  Si17  1  0.673838  0.836918  0.499896  1
  Si  Si18  1  0.836339  0.163661  0.500144  1
  Si  Si19  1  0.163082  0.836918  0.499896  1
  Pd  Pd20  1  0.333333  0.666667  0.499655  1
  Pt  Pt21  1  0.333333  0.666667  0.000246  1
  Pt  Pt22  1  0.666667  0.333333  0.999918  1
  Pt  Pt23  1  0.666667  0.333333  0.500188  1
