# generated using pymatgen
data_CeSmEr(Co3P2)3
_symmetry_space_group_name_H-M   'P 1'
_cell_length_a   3.72032000
_cell_length_b   10.57971900
_cell_length_c   12.21289900
_cell_angle_alpha   90.00000000
_cell_angle_beta   90.00000000
_cell_angle_gamma   90.00000000
_symmetry_Int_Tables_number   1
_chemical_formula_structural   CeSmEr(Co3P2)3
_chemical_formula_sum   'Ce2 Sm2 Er2 Co18 P12'
_cell_volume   480.69897419
_cell_formula_units_Z   2
loop_
 _symmetry_equiv_pos_site_id
 _symmetry_equiv_pos_as_xyz
  1  'x, y, z'
loop_
 _atom_site_type_symbol
 _atom_site_label
 _atom_site_symmetry_multiplicity
 _atom_site_fract_x
 _atom_site_fract_y
 _atom_site_fract_z
 _atom_site_occupancy
  Ce  Ce0  1  0.000000  0.500000  0.526038  1
  Ce  Ce1  1  0.500000  0.000000  0.472459  1
  Sm  Sm2  1  0.000000  0.684964  0.795069  1
  Sm  Sm3  1  0.000000  0.315036  0.795069  1
  Er  Er4  1  0.500000  0.815938  0.205037  1
  Er  Er5  1  0.500000  0.184062  0.205037  1
  Co  Co6  1  0.500000  0.500000  0.157741  1
  Co  Co7  1  0.000000  0.000000  0.842804  1
  Co  Co8  1  0.500000  0.500000  0.698918  1
  Co  Co9  1  0.000000  0.000000  0.299318  1
  Co  Co10  1  0.000000  0.500000  0.987989  1
  Co  Co11  1  0.500000  0.000000  0.017750  1
  Co  Co12  1  0.500000  0.332502  0.996906  1
  Co  Co13  1  0.500000  0.667498  0.996906  1
  Co  Co14  1  0.000000  0.165116  0.007462  1
  Co  Co15  1  0.000000  0.834884  0.007462  1
  Co  Co16  1  0.500000  0.298802  0.428183  1
  Co  Co17  1  0.500000  0.701198  0.428183  1
  Co  Co18  1  0.000000  0.200081  0.567693  1
  Co  Co19  1  0.000000  0.799919  0.567693  1
  Co  Co20  1  0.500000  0.881487  0.710443  1
  Co  Co21  1  0.500000  0.118513  0.710443  1
  Co  Co22  1  0.000000  0.620158  0.287860  1
  Co  Co23  1  0.000000  0.379842  0.287860  1
  P  P24  1  0.500000  0.500000  0.884178  1
  P  P25  1  0.000000  0.000000  0.120611  1
  P  P26  1  0.500000  0.500000  0.341346  1
  P  P27  1  0.000000  0.000000  0.657722  1
  P  P28  1  0.500000  0.305205  0.613733  1
  P  P29  1  0.500000  0.694795  0.613733  1
  P  P30  1  0.000000  0.193178  0.381600  1
  P  P31  1  0.000000  0.806822  0.381600  1
  P  P32  1  0.500000  0.849816  0.896175  1
  P  P33  1  0.500000  0.150184  0.896175  1
  P  P34  1  0.000000  0.654008  0.106402  1
  P  P35  1  0.000000  0.345992  0.106402  1
