# generated using pymatgen
data_YbEr3Ir8
_symmetry_space_group_name_H-M   'P 1'
_cell_length_a   5.33840300
_cell_length_b   5.33840358
_cell_length_c   8.68573100
_cell_angle_alpha   90.00000000
_cell_angle_beta   90.00000000
_cell_angle_gamma   120.00000257
_symmetry_Int_Tables_number   1
_chemical_formula_structural   YbEr3Ir8
_chemical_formula_sum   'Yb1 Er3 Ir8'
_cell_volume   214.36790062
_cell_formula_units_Z   1
loop_
 _symmetry_equiv_pos_site_id
 _symmetry_equiv_pos_as_xyz
  1  'x, y, z'
loop_
 _atom_site_type_symbol
 _atom_site_label
 _atom_site_symmetry_multiplicity
 _atom_site_fract_x
 _atom_site_fract_y
 _atom_site_fract_z
 _atom_site_occupancy
  Yb  Yb0  1  0.666666  0.333334  0.934659  1
  Er  Er1  1  0.333334  0.666667  0.063160  1
  Er  Er2  1  0.333334  0.666667  0.431976  1
  Er  Er3  1  0.666666  0.333334  0.572884  1
  Ir  Ir4  1  0.000000  0.000000  0.999382  1
  Ir  Ir5  1  0.340500  0.170250  0.250689  1
  Ir  Ir6  1  0.829751  0.170250  0.250689  1
  Ir  Ir7  1  0.829749  0.659499  0.250689  1
  Ir  Ir8  1  0.000000  0.000000  0.499650  1
  Ir  Ir9  1  0.169924  0.339849  0.748739  1
  Ir  Ir10  1  0.169924  0.830075  0.748739  1
  Ir  Ir11  1  0.660150  0.830075  0.748739  1
