# generated using pymatgen
data_Tb4DyY(AlC3)2
_symmetry_space_group_name_H-M   'P 1'
_cell_length_a   3.59013100
_cell_length_b   7.09067429
_cell_length_c   10.02543951
_cell_angle_alpha   89.86347757
_cell_angle_beta   90.00000000
_cell_angle_gamma   90.00000000
_symmetry_Int_Tables_number   1
_chemical_formula_structural   Tb4DyY(AlC3)2
_chemical_formula_sum   'Tb4 Dy1 Y1 Al2 C6'
_cell_volume   255.21137101
_cell_formula_units_Z   1
loop_
 _symmetry_equiv_pos_site_id
 _symmetry_equiv_pos_as_xyz
  1  'x, y, z'
loop_
 _atom_site_type_symbol
 _atom_site_label
 _atom_site_symmetry_multiplicity
 _atom_site_fract_x
 _atom_site_fract_y
 _atom_site_fract_z
 _atom_site_occupancy
  Tb  Tb0  1  0.500000  0.509820  0.199290  1
  Tb  Tb1  1  0.500000  0.489959  0.800738  1
  Tb  Tb2  1  0.000000  0.750049  0.458864  1
  Tb  Tb3  1  0.000000  0.249892  0.541519  1
  Dy  Dy4  1  0.500000  0.988915  0.199878  1
  Y  Y5  1  0.500000  0.010004  0.800328  1
  Al  Al6  1  0.000000  0.751597  0.006218  1
  Al  Al7  1  0.000000  0.248518  0.993749  1
  C  C8  1  0.500000  0.508930  0.565676  1
  C  C9  1  0.500000  0.491005  0.434237  1
  C  C10  1  0.500000  0.991001  0.565572  1
  C  C11  1  0.500000  0.008872  0.433966  1
  C  C12  1  0.000000  0.751324  0.208329  1
  C  C13  1  0.000000  0.250112  0.791638  1
