# generated using pymatgen
data_Yb3YLu4(B6Os)4
_symmetry_space_group_name_H-M   'P 1'
_cell_length_a   3.60990300
_cell_length_b   9.08574473
_cell_length_c   11.47708793
_cell_angle_alpha   89.95402544
_cell_angle_beta   90.00000000
_cell_angle_gamma   90.00000000
_symmetry_Int_Tables_number   1
_chemical_formula_structural   Yb3YLu4(B6Os)4
_chemical_formula_sum   'Yb3 Y1 Lu4 B24 Os4'
_cell_volume   376.43295085
_cell_formula_units_Z   1
loop_
 _symmetry_equiv_pos_site_id
 _symmetry_equiv_pos_as_xyz
  1  'x, y, z'
loop_
 _atom_site_type_symbol
 _atom_site_label
 _atom_site_symmetry_multiplicity
 _atom_site_fract_x
 _atom_site_fract_y
 _atom_site_fract_z
 _atom_site_occupancy
  Yb  Yb0  1  0.000000  0.324364  0.414424  1
  Yb  Yb1  1  0.000000  0.675893  0.585006  1
  Yb  Yb2  1  0.000000  0.822775  0.086247  1
  Y  Y3  1  0.000000  0.176506  0.914792  1
  Lu  Lu4  1  0.000000  0.941800  0.368361  1
  Lu  Lu5  1  0.000000  0.057310  0.630263  1
  Lu  Lu6  1  0.000000  0.443778  0.131735  1
  Lu  Lu7  1  0.000000  0.557929  0.869050  1
  B  B8  1  0.500000  0.553575  0.432815  1
  B  B9  1  0.500000  0.446032  0.567605  1
  B  B10  1  0.500000  0.053732  0.067434  1
  B  B11  1  0.500000  0.945194  0.933177  1
  B  B12  1  0.500000  0.749802  0.417619  1
  B  B13  1  0.500000  0.249998  0.582155  1
  B  B14  1  0.500000  0.250256  0.082437  1
  B  B15  1  0.500000  0.750179  0.917948  1
  B  B16  1  0.500000  0.791847  0.264147  1
  B  B17  1  0.500000  0.207914  0.735536  1
  B  B18  1  0.500000  0.292208  0.235293  1
  B  B19  1  0.500000  0.708735  0.764656  1
  B  B20  1  0.500000  0.630652  0.185287  1
  B  B21  1  0.500000  0.369724  0.815302  1
  B  B22  1  0.500000  0.130675  0.314596  1
  B  B23  1  0.500000  0.869491  0.684395  1
  B  B24  1  0.500000  0.982269  0.211544  1
  B  B25  1  0.500000  0.017051  0.787708  1
  B  B26  1  0.500000  0.483178  0.288403  1
  B  B27  1  0.500000  0.516957  0.712108  1
  B  B28  1  0.500000  0.598090  0.027035  1
  B  B29  1  0.500000  0.401888  0.973207  1
  B  B30  1  0.500000  0.096392  0.473088  1
  B  B31  1  0.500000  0.903461  0.526090  1
  Os  Os32  1  0.000000  0.639536  0.320114  1
  Os  Os33  1  0.000000  0.359699  0.680819  1
  Os  Os34  1  0.000000  0.139245  0.180071  1
  Os  Os35  1  0.000000  0.861864  0.819533  1
