# generated using pymatgen
data_Tb24Tc7Au
_symmetry_space_group_name_H-M   'P 1'
_cell_length_a   6.32773980
_cell_length_b   9.22831100
_cell_length_c   14.93564266
_cell_angle_alpha   90.00000000
_cell_angle_beta   89.91736880
_cell_angle_gamma   90.00000000
_symmetry_Int_Tables_number   1
_chemical_formula_structural   Tb24Tc7Au
_chemical_formula_sum   'Tb24 Tc7 Au1'
_cell_volume   872.15625041
_cell_formula_units_Z   1
loop_
 _symmetry_equiv_pos_site_id
 _symmetry_equiv_pos_as_xyz
  1  'x, y, z'
loop_
 _atom_site_type_symbol
 _atom_site_label
 _atom_site_symmetry_multiplicity
 _atom_site_fract_x
 _atom_site_fract_y
 _atom_site_fract_z
 _atom_site_occupancy
  Tb  Tb0  1  0.533316  0.750000  0.353397  1
  Tb  Tb1  1  0.030702  0.250000  0.148223  1
  Tb  Tb2  1  0.467716  0.250000  0.647524  1
  Tb  Tb3  1  0.961535  0.750000  0.858183  1
  Tb  Tb4  1  0.781476  0.750000  0.109524  1
  Tb  Tb5  1  0.288976  0.250000  0.386817  1
  Tb  Tb6  1  0.216725  0.250000  0.890436  1
  Tb  Tb7  1  0.703522  0.750000  0.608261  1
  Tb  Tb8  1  0.446011  0.939018  0.794945  1
  Tb  Tb9  1  0.929701  0.069778  0.707495  1
  Tb  Tb10  1  0.561752  0.435526  0.210344  1
  Tb  Tb11  1  0.062275  0.565434  0.289414  1
  Tb  Tb12  1  0.561752  0.064474  0.210344  1
  Tb  Tb13  1  0.062275  0.934566  0.289414  1
  Tb  Tb14  1  0.446011  0.560982  0.794945  1
  Tb  Tb15  1  0.929701  0.430222  0.707495  1
  Tb  Tb16  1  0.243445  0.945386  0.526446  1
  Tb  Tb17  1  0.742411  0.065729  0.968590  1
  Tb  Tb18  1  0.756174  0.435756  0.465085  1
  Tb  Tb19  1  0.257093  0.563519  0.036190  1
  Tb  Tb20  1  0.756174  0.064244  0.465085  1
  Tb  Tb21  1  0.257093  0.936481  0.036190  1
  Tb  Tb22  1  0.243445  0.554614  0.526446  1
  Tb  Tb23  1  0.742411  0.434271  0.968590  1
  Tc  Tc24  1  0.930368  0.750000  0.446845  1
  Tc  Tc25  1  0.423750  0.250000  0.058973  1
  Tc  Tc26  1  0.077386  0.250000  0.557441  1
  Tc  Tc27  1  0.571074  0.750000  0.941109  1
  Tc  Tc28  1  0.357278  0.750000  0.182779  1
  Tc  Tc29  1  0.859102  0.250000  0.318773  1
  Tc  Tc30  1  0.645511  0.250000  0.817588  1
  Au  Au31  1  0.153839  0.750000  0.677105  1
