# generated using pymatgen
data_HgBi3Pt2(RhO7)2
_symmetry_space_group_name_H-M   'P 1'
_cell_length_a   7.43212554
_cell_length_b   7.29743418
_cell_length_c   7.43357200
_cell_angle_alpha   59.38093567
_cell_angle_beta   59.99356174
_cell_angle_gamma   59.22036093
_symmetry_Int_Tables_number   1
_chemical_formula_structural   HgBi3Pt2(RhO7)2
_chemical_formula_sum   'Hg1 Bi3 Pt2 Rh2 O14'
_cell_volume   282.01407998
_cell_formula_units_Z   1
loop_
 _symmetry_equiv_pos_site_id
 _symmetry_equiv_pos_as_xyz
  1  'x, y, z'
loop_
 _atom_site_type_symbol
 _atom_site_label
 _atom_site_symmetry_multiplicity
 _atom_site_fract_x
 _atom_site_fract_y
 _atom_site_fract_z
 _atom_site_occupancy
  Hg  Hg0  1  0.125000  0.625000  0.125000  1
  Bi  Bi1  1  0.125000  0.125000  0.125000  1
  Bi  Bi2  1  0.625000  0.125000  0.125000  1
  Bi  Bi3  1  0.125000  0.125000  0.625000  1
  Pt  Pt4  1  0.625000  0.625000  0.625000  1
  Pt  Pt5  1  0.625000  0.625000  0.125000  1
  Rh  Rh6  1  0.125000  0.625000  0.625000  1
  Rh  Rh7  1  0.625000  0.125000  0.625000  1
  O  O8  1  0.249186  0.246980  0.251918  1
  O  O9  1  0.294210  0.709091  0.294433  1
  O  O10  1  0.954502  0.957622  0.543938  1
  O  O11  1  0.541808  0.961212  0.541133  1
  O  O12  1  0.702754  0.709368  0.293939  1
  O  O13  1  0.955790  0.540909  0.547734  1
  O  O14  1  0.708192  0.288788  0.708867  1
  O  O15  1  0.295498  0.292378  0.706062  1
  O  O16  1  0.708192  0.288788  0.294152  1
  O  O17  1  0.294210  0.709091  0.702266  1
  O  O18  1  0.955790  0.540909  0.955567  1
  O  O19  1  0.547246  0.540632  0.956061  1
  O  O20  1  0.000814  0.003020  0.998082  1
  O  O21  1  0.541808  0.961212  0.955848  1
