# generated using pymatgen
data_Cd(AuO2)2
_symmetry_space_group_name_H-M   'P 1'
_cell_length_a   6.65891896
_cell_length_b   6.65891809
_cell_length_c   6.65891886
_cell_angle_alpha   125.96520515
_cell_angle_beta   125.96520327
_cell_angle_gamma   79.94533410
_symmetry_Int_Tables_number   1
_chemical_formula_structural   Cd(AuO2)2
_chemical_formula_sum   'Cd2 Au4 O8'
_cell_volume   186.77115849
_cell_formula_units_Z   2
loop_
 _symmetry_equiv_pos_site_id
 _symmetry_equiv_pos_as_xyz
  1  'x, y, z'
loop_
 _atom_site_type_symbol
 _atom_site_label
 _atom_site_symmetry_multiplicity
 _atom_site_fract_x
 _atom_site_fract_y
 _atom_site_fract_z
 _atom_site_occupancy
  Cd  Cd0  1  0.750000  0.250000  0.500000  1
  Cd  Cd1  1  0.000000  0.000000  0.000000  1
  Au  Au2  1  0.375000  0.625000  0.750000  1
  Au  Au3  1  0.375000  0.125000  0.750000  1
  Au  Au4  1  0.875000  0.625000  0.250000  1
  Au  Au5  1  0.375000  0.625000  0.250000  1
  O  O6  1  0.039752  0.403432  0.039550  1
  O  O7  1  0.750203  0.289752  0.136320  1
  O  O8  1  0.153432  0.613881  0.863680  1
  O  O9  1  0.363881  0.000203  0.960450  1
  O  O10  1  0.710248  0.846568  0.460450  1
  O  O11  1  0.999797  0.960248  0.363680  1
  O  O12  1  0.386119  0.249797  0.539550  1
  O  O13  1  0.596568  0.636119  0.636320  1
