# generated using pymatgen
data_LiDy2Co8TcP6
_symmetry_space_group_name_H-M   'P 1'
_cell_length_a   3.69449800
_cell_length_b   10.32684500
_cell_length_c   11.79604300
_cell_angle_alpha   90.00000000
_cell_angle_beta   90.00000000
_cell_angle_gamma   90.00000000
_symmetry_Int_Tables_number   1
_chemical_formula_structural   LiDy2Co8TcP6
_chemical_formula_sum   'Li2 Dy4 Co16 Tc2 P12'
_cell_volume   450.04862727
_cell_formula_units_Z   2
loop_
 _symmetry_equiv_pos_site_id
 _symmetry_equiv_pos_as_xyz
  1  'x, y, z'
loop_
 _atom_site_type_symbol
 _atom_site_label
 _atom_site_symmetry_multiplicity
 _atom_site_fract_x
 _atom_site_fract_y
 _atom_site_fract_z
 _atom_site_occupancy
  Li  Li0  1  0.750000  0.295968  0.009486  1
  Li  Li1  1  0.750000  0.204032  0.509486  1
  Dy  Dy2  1  0.250000  0.582726  0.703151  1
  Dy  Dy3  1  0.250000  0.917274  0.203151  1
  Dy  Dy4  1  0.750000  0.416770  0.295626  1
  Dy  Dy5  1  0.750000  0.083230  0.795626  1
  Co  Co6  1  0.250000  0.409054  0.487685  1
  Co  Co7  1  0.250000  0.090946  0.987685  1
  Co  Co8  1  0.750000  0.593978  0.510939  1
  Co  Co9  1  0.750000  0.906022  0.010939  1
  Co  Co10  1  0.250000  0.218010  0.175760  1
  Co  Co11  1  0.250000  0.281990  0.675760  1
  Co  Co12  1  0.750000  0.777477  0.823202  1
  Co  Co13  1  0.750000  0.722523  0.323202  1
  Co  Co14  1  0.250000  0.884880  0.701919  1
  Co  Co15  1  0.250000  0.615120  0.201919  1
  Co  Co16  1  0.750000  0.116986  0.301055  1
  Co  Co17  1  0.750000  0.383014  0.801055  1
  Co  Co18  1  0.250000  0.464320  0.932960  1
  Co  Co19  1  0.250000  0.035680  0.432960  1
  Co  Co20  1  0.750000  0.533636  0.069685  1
  Co  Co21  1  0.750000  0.966364  0.569685  1
  Tc  Tc22  1  0.250000  0.708902  0.989884  1
  Tc  Tc23  1  0.250000  0.791098  0.489884  1
  P  P24  1  0.250000  0.418494  0.114440  1
  P  P25  1  0.250000  0.081506  0.614440  1
  P  P26  1  0.750000  0.576986  0.887721  1
  P  P27  1  0.750000  0.923014  0.387721  1
  P  P28  1  0.250000  0.270243  0.863890  1
  P  P29  1  0.250000  0.229757  0.363890  1
  P  P30  1  0.750000  0.729805  0.133084  1
  P  P31  1  0.750000  0.770195  0.633084  1
  P  P32  1  0.250000  0.597231  0.391724  1
  P  P33  1  0.250000  0.902769  0.891724  1
  P  P34  1  0.750000  0.398844  0.607790  1
  P  P35  1  0.750000  0.101156  0.107790  1
