# generated using pymatgen
data_Er3AlPt8
_symmetry_space_group_name_H-M   'P 1'
_cell_length_a   17.25903200
_cell_length_b   4.18450500
_cell_length_c   5.78445900
_cell_angle_alpha   90.00000000
_cell_angle_beta   90.00000000
_cell_angle_gamma   90.00000000
_symmetry_Int_Tables_number   1
_chemical_formula_structural   Er3AlPt8
_chemical_formula_sum   'Er6 Al2 Pt16'
_cell_volume   417.75655418
_cell_formula_units_Z   2
loop_
 _symmetry_equiv_pos_site_id
 _symmetry_equiv_pos_as_xyz
  1  'x, y, z'
loop_
 _atom_site_type_symbol
 _atom_site_label
 _atom_site_symmetry_multiplicity
 _atom_site_fract_x
 _atom_site_fract_y
 _atom_site_fract_z
 _atom_site_occupancy
  Er  Er0  1  0.090036  0.000000  0.305077  1
  Er  Er1  1  0.409964  0.000000  0.305077  1
  Er  Er2  1  0.590036  0.000000  0.694923  1
  Er  Er3  1  0.909963  0.000000  0.694923  1
  Er  Er4  1  0.250000  0.000000  0.792796  1
  Er  Er5  1  0.750000  0.000000  0.207205  1
  Al  Al6  1  0.000000  0.499999  0.000000  1
  Al  Al7  1  0.500000  0.499999  0.000000  1
  Pt  Pt8  1  0.250000  0.000000  0.285733  1
  Pt  Pt9  1  0.750000  0.000000  0.714268  1
  Pt  Pt10  1  0.166426  0.499999  0.548878  1
  Pt  Pt11  1  0.333574  0.499999  0.548878  1
  Pt  Pt12  1  0.666425  0.499999  0.451121  1
  Pt  Pt13  1  0.833575  0.499999  0.451121  1
  Pt  Pt14  1  0.161060  0.499999  0.042747  1
  Pt  Pt15  1  0.338941  0.499999  0.042747  1
  Pt  Pt16  1  0.661060  0.499999  0.957252  1
  Pt  Pt17  1  0.838941  0.499999  0.957252  1
  Pt  Pt18  1  0.000000  0.499999  0.499999  1
  Pt  Pt19  1  0.500000  0.499999  0.499999  1
  Pt  Pt20  1  0.072435  0.000000  0.804436  1
  Pt  Pt21  1  0.427565  0.000000  0.804436  1
  Pt  Pt22  1  0.572434  0.000000  0.195564  1
  Pt  Pt23  1  0.927565  0.000000  0.195564  1
