# generated using pymatgen
data_Y20Ir3PtRh8
_symmetry_space_group_name_H-M   'P 1'
_cell_length_a   10.98550162
_cell_length_b   10.98551889
_cell_length_c   6.37589833
_cell_angle_alpha   89.97628653
_cell_angle_beta   89.97626828
_cell_angle_gamma   89.78285775
_symmetry_Int_Tables_number   1
_chemical_formula_structural   Y20Ir3PtRh8
_chemical_formula_sum   'Y20 Ir3 Pt1 Rh8'
_cell_volume   769.44690589
_cell_formula_units_Z   1
loop_
 _symmetry_equiv_pos_site_id
 _symmetry_equiv_pos_as_xyz
  1  'x, y, z'
loop_
 _atom_site_type_symbol
 _atom_site_label
 _atom_site_symmetry_multiplicity
 _atom_site_fract_x
 _atom_site_fract_y
 _atom_site_fract_z
 _atom_site_occupancy
  Y  Y0  1  0.291173  0.090597  0.379322  1
  Y  Y1  1  0.291873  0.908841  0.878667  1
  Y  Y2  1  0.707157  0.087760  0.875921  1
  Y  Y3  1  0.707371  0.908077  0.379885  1
  Y  Y4  1  0.587814  0.789803  0.880717  1
  Y  Y5  1  0.585401  0.209409  0.379552  1
  Y  Y6  1  0.412212  0.790094  0.380057  1
  Y  Y7  1  0.409809  0.209454  0.880509  1
  Y  Y8  1  0.210197  0.412187  0.619284  1
  Y  Y9  1  0.209906  0.587789  0.119942  1
  Y  Y10  1  0.790591  0.414600  0.120446  1
  Y  Y11  1  0.790547  0.590190  0.619492  1
  Y  Y12  1  0.909403  0.708826  0.120677  1
  Y  Y13  1  0.912240  0.292843  0.624079  1
  Y  Y14  1  0.091158  0.708128  0.621332  1
  Y  Y15  1  0.091922  0.292630  0.120114  1
  Y  Y16  1  0.001198  0.998345  0.500357  1
  Y  Y17  1  0.001656  0.998801  0.999643  1
  Y  Y18  1  0.499644  0.500032  0.999798  1
  Y  Y19  1  0.499968  0.500356  0.500201  1
  Ir  Ir20  1  0.654723  0.653693  0.249595  1
  Ir  Ir21  1  0.346306  0.345278  0.250404  1
  Ir  Ir22  1  0.345266  0.654735  0.750000  1
  Pt  Pt23  1  0.845366  0.154634  0.249999  1
  Rh  Rh24  1  0.846239  0.847343  0.750092  1
  Rh  Rh25  1  0.152656  0.153762  0.749902  1
  Rh  Rh26  1  0.153611  0.846389  0.250001  1
  Rh  Rh27  1  0.655543  0.344458  0.750001  1
  Rh  Rh28  1  0.500039  0.000261  0.126484  1
  Rh  Rh29  1  0.500299  0.001028  0.626102  1
  Rh  Rh30  1  0.998970  0.499698  0.873906  1
  Rh  Rh31  1  0.999740  0.499961  0.373518  1
