# generated using pymatgen
data_Ce3Er7(Al2Ru3)2
_symmetry_space_group_name_H-M   'P 1'
_cell_length_a   8.38432090
_cell_length_b   8.38431929
_cell_length_c   8.38432066
_cell_angle_alpha   110.08127620
_cell_angle_beta   110.08128253
_cell_angle_gamma   110.08127407
_symmetry_Int_Tables_number   1
_chemical_formula_structural   Ce3Er7(Al2Ru3)2
_chemical_formula_sum   'Ce3 Er7 Al4 Ru6'
_cell_volume   443.16960845
_cell_formula_units_Z   1
loop_
 _symmetry_equiv_pos_site_id
 _symmetry_equiv_pos_as_xyz
  1  'x, y, z'
loop_
 _atom_site_type_symbol
 _atom_site_label
 _atom_site_symmetry_multiplicity
 _atom_site_fract_x
 _atom_site_fract_y
 _atom_site_fract_z
 _atom_site_occupancy
  Ce  Ce0  1  0.253695  0.199343  0.944445  1
  Ce  Ce1  1  0.944445  0.253695  0.199343  1
  Ce  Ce2  1  0.199343  0.944445  0.253695  1
  Er  Er3  1  0.779893  0.779893  0.779893  1
  Er  Er4  1  0.314789  0.568061  0.750994  1
  Er  Er5  1  0.750994  0.314789  0.568061  1
  Er  Er6  1  0.568061  0.750994  0.314789  1
  Er  Er7  1  0.719970  0.506505  0.995250  1
  Er  Er8  1  0.995250  0.719970  0.506505  1
  Er  Er9  1  0.506505  0.995250  0.719970  1
  Al  Al10  1  0.413021  0.413021  0.413021  1
  Al  Al11  1  0.092963  0.499067  0.000658  1
  Al  Al12  1  0.000658  0.092963  0.499067  1
  Al  Al13  1  0.499067  0.000658  0.092963  1
  Ru  Ru14  1  0.897117  0.119215  0.753528  1
  Ru  Ru15  1  0.753528  0.897117  0.119215  1
  Ru  Ru16  1  0.119215  0.753528  0.897117  1
  Ru  Ru17  1  0.225917  0.598667  0.366902  1
  Ru  Ru18  1  0.366902  0.225917  0.598667  1
  Ru  Ru19  1  0.598667  0.366902  0.225917  1
