# generated using pymatgen
data_Sm3Er4Th(ReB6)4
_symmetry_space_group_name_H-M   'P 1'
_cell_length_a   3.71496300
_cell_length_b   9.20447466
_cell_length_c   11.63607105
_cell_angle_alpha   90.03953512
_cell_angle_beta   90.00000000
_cell_angle_gamma   90.00000000
_symmetry_Int_Tables_number   1
_chemical_formula_structural   Sm3Er4Th(ReB6)4
_chemical_formula_sum   'Sm3 Er4 Th1 Re4 B24'
_cell_volume   397.88700926
_cell_formula_units_Z   1
loop_
 _symmetry_equiv_pos_site_id
 _symmetry_equiv_pos_as_xyz
  1  'x, y, z'
loop_
 _atom_site_type_symbol
 _atom_site_label
 _atom_site_symmetry_multiplicity
 _atom_site_fract_x
 _atom_site_fract_y
 _atom_site_fract_z
 _atom_site_occupancy
  Sm  Sm0  1  0.000000  0.678015  0.586825  1
  Sm  Sm1  1  0.000000  0.822844  0.085234  1
  Sm  Sm2  1  0.000000  0.176556  0.914008  1
  Er  Er3  1  0.000000  0.942139  0.369320  1
  Er  Er4  1  0.000000  0.056286  0.631248  1
  Er  Er5  1  0.000000  0.443380  0.128859  1
  Er  Er6  1  0.000000  0.557323  0.870060  1
  Th  Th7  1  0.000000  0.322402  0.414320  1
  Re  Re8  1  0.000000  0.638572  0.319889  1
  Re  Re9  1  0.000000  0.361251  0.680389  1
  Re  Re10  1  0.000000  0.139489  0.180054  1
  Re  Re11  1  0.000000  0.860908  0.819939  1
  B  B12  1  0.500000  0.555515  0.430955  1
  B  B13  1  0.500000  0.445599  0.569994  1
  B  B14  1  0.500000  0.054162  0.067946  1
  B  B15  1  0.500000  0.945713  0.931586  1
  B  B16  1  0.500000  0.750587  0.416690  1
  B  B17  1  0.500000  0.250132  0.584994  1
  B  B18  1  0.500000  0.249685  0.082068  1
  B  B19  1  0.500000  0.750011  0.917034  1
  B  B20  1  0.500000  0.791725  0.265615  1
  B  B21  1  0.500000  0.208438  0.735106  1
  B  B22  1  0.500000  0.290975  0.232759  1
  B  B23  1  0.500000  0.708272  0.766166  1
  B  B24  1  0.500000  0.630667  0.185057  1
  B  B25  1  0.500000  0.370391  0.814816  1
  B  B26  1  0.500000  0.129292  0.312913  1
  B  B27  1  0.500000  0.869926  0.686214  1
  B  B28  1  0.500000  0.983169  0.212100  1
  B  B29  1  0.500000  0.016478  0.787535  1
  B  B30  1  0.500000  0.484863  0.286075  1
  B  B31  1  0.500000  0.517020  0.714062  1
  B  B32  1  0.500000  0.598285  0.026912  1
  B  B33  1  0.500000  0.402156  0.972442  1
  B  B34  1  0.500000  0.096362  0.473270  1
  B  B35  1  0.500000  0.901412  0.527544  1
