# generated using pymatgen
data_Sc3GaSn3Ir2
_symmetry_space_group_name_H-M   'P 1'
_cell_length_a   7.28656400
_cell_length_b   7.28656577
_cell_length_c   3.90827400
_cell_angle_alpha   90.00000000
_cell_angle_beta   90.00000000
_cell_angle_gamma   120.00000103
_symmetry_Int_Tables_number   1
_chemical_formula_structural   Sc3GaSn3Ir2
_chemical_formula_sum   'Sc3 Ga1 Sn3 Ir2'
_cell_volume   179.70547300
_cell_formula_units_Z   1
loop_
 _symmetry_equiv_pos_site_id
 _symmetry_equiv_pos_as_xyz
  1  'x, y, z'
loop_
 _atom_site_type_symbol
 _atom_site_label
 _atom_site_symmetry_multiplicity
 _atom_site_fract_x
 _atom_site_fract_y
 _atom_site_fract_z
 _atom_site_occupancy
  Sc  Sc0  1  0.982579  0.389726  0.500000  1
  Sc  Sc1  1  0.610274  0.592852  0.500000  1
  Sc  Sc2  1  0.407148  0.017421  0.500000  1
  Ga  Ga3  1  0.333333  0.666667  0.000000  1
  Sn  Sn4  1  0.997746  0.737991  0.000000  1
  Sn  Sn5  1  0.262009  0.259756  0.000000  1
  Sn  Sn6  1  0.740244  0.002254  0.000000  1
  Ir  Ir7  1  0.666667  0.333333  0.000000  1
  Ir  Ir8  1  0.000000  0.000000  0.500000  1
