# generated using pymatgen
data_Pa4ZnGa3Pd4
_symmetry_space_group_name_H-M   'P 1'
_cell_length_a   4.58984800
_cell_length_b   6.40158078
_cell_length_c   7.98433847
_cell_angle_alpha   90.05459881
_cell_angle_beta   90.00000000
_cell_angle_gamma   90.00000000
_symmetry_Int_Tables_number   1
_chemical_formula_structural   Pa4ZnGa3Pd4
_chemical_formula_sum   'Pa4 Zn1 Ga3 Pd4'
_cell_volume   234.59798377
_cell_formula_units_Z   1
loop_
 _symmetry_equiv_pos_site_id
 _symmetry_equiv_pos_as_xyz
  1  'x, y, z'
loop_
 _atom_site_type_symbol
 _atom_site_label
 _atom_site_symmetry_multiplicity
 _atom_site_fract_x
 _atom_site_fract_y
 _atom_site_fract_z
 _atom_site_occupancy
  Pa  Pa0  1  0.250000  0.000616  0.271526  1
  Pa  Pa1  1  0.250000  0.508851  0.227947  1
  Pa  Pa2  1  0.750000  0.994478  0.728615  1
  Pa  Pa3  1  0.750000  0.494570  0.771643  1
  Zn  Zn4  1  0.750000  0.783055  0.082487  1
  Ga  Ga5  1  0.250000  0.715843  0.583360  1
  Ga  Ga6  1  0.250000  0.214454  0.917621  1
  Ga  Ga7  1  0.750000  0.281194  0.416931  1
  Pd  Pd8  1  0.250000  0.269641  0.584684  1
  Pd  Pd9  1  0.250000  0.767652  0.914898  1
  Pd  Pd10  1  0.750000  0.731218  0.415127  1
  Pd  Pd11  1  0.750000  0.238430  0.085163  1
