# generated using pymatgen
data_Tb3In4PtRh
_symmetry_space_group_name_H-M   'P 1'
_cell_length_a   7.88681900
_cell_length_b   7.88681909
_cell_length_c   3.87029000
_cell_angle_alpha   90.00000000
_cell_angle_beta   90.00000000
_cell_angle_gamma   119.99999543
_symmetry_Int_Tables_number   1
_chemical_formula_structural   Tb3In4PtRh
_chemical_formula_sum   'Tb3 In4 Pt1 Rh1'
_cell_volume   208.48648743
_cell_formula_units_Z   1
loop_
 _symmetry_equiv_pos_site_id
 _symmetry_equiv_pos_as_xyz
  1  'x, y, z'
loop_
 _atom_site_type_symbol
 _atom_site_label
 _atom_site_symmetry_multiplicity
 _atom_site_fract_x
 _atom_site_fract_y
 _atom_site_fract_z
 _atom_site_occupancy
  Tb  Tb0  1  0.385394  0.412607  0.500000  1
  Tb  Tb1  1  0.027213  0.614607  0.500000  1
  Tb  Tb2  1  0.587393  0.972787  0.500000  1
  In  In3  1  0.999213  0.252053  0.000000  1
  In  In4  1  0.666667  0.333334  0.000000  1
  In  In5  1  0.747946  0.747161  0.000000  1
  In  In6  1  0.252840  0.000787  0.000000  1
  Pt  Pt7  1  0.333334  0.666667  0.000000  1
  Rh  Rh8  1  0.000000  0.000000  0.500000  1
