# generated using pymatgen
data_TmLu3TaOs7
_symmetry_space_group_name_H-M   'P 1'
_cell_length_a   5.44235700
_cell_length_b   5.27014381
_cell_length_c   8.84815601
_cell_angle_alpha   89.99622818
_cell_angle_beta   90.00000000
_cell_angle_gamma   121.08696229
_symmetry_Int_Tables_number   1
_chemical_formula_structural   TmLu3TaOs7
_chemical_formula_sum   'Tm1 Lu3 Ta1 Os7'
_cell_volume   217.33572104
_cell_formula_units_Z   1
loop_
 _symmetry_equiv_pos_site_id
 _symmetry_equiv_pos_as_xyz
  1  'x, y, z'
loop_
 _atom_site_type_symbol
 _atom_site_label
 _atom_site_symmetry_multiplicity
 _atom_site_fract_x
 _atom_site_fract_y
 _atom_site_fract_z
 _atom_site_occupancy
  Tm  Tm0  1  0.332872  0.665746  0.431119  1
  Lu  Lu1  1  0.669682  0.339364  0.560609  1
  Lu  Lu2  1  0.669659  0.339317  0.939551  1
  Lu  Lu3  1  0.332679  0.665360  0.068772  1
  Ta  Ta4  1  0.164908  0.329816  0.750387  1
  Os  Os5  1  0.175160  0.828149  0.750386  1
  Os  Os6  1  0.346674  0.171852  0.249489  1
  Os  Os7  1  0.828906  0.657812  0.249553  1
  Os  Os8  1  0.652987  0.828149  0.750386  1
  Os  Os9  1  0.000729  0.001457  0.004853  1
  Os  Os10  1  0.825178  0.171852  0.249489  1
  Os  Os11  1  0.000565  0.001129  0.495405  1
