# generated using pymatgen
data_Ce3TiAl11Tc3Ru
_symmetry_space_group_name_H-M   'P 1'
_cell_length_a   8.95414200
_cell_length_b   8.95414112
_cell_length_c   9.65179900
_cell_angle_alpha   90.00000000
_cell_angle_beta   90.00000000
_cell_angle_gamma   119.99999587
_symmetry_Int_Tables_number   1
_chemical_formula_structural   Ce3TiAl11Tc3Ru
_chemical_formula_sum   'Ce6 Ti2 Al22 Tc6 Ru2'
_cell_volume   670.17285175
_cell_formula_units_Z   2
loop_
 _symmetry_equiv_pos_site_id
 _symmetry_equiv_pos_as_xyz
  1  'x, y, z'
loop_
 _atom_site_type_symbol
 _atom_site_label
 _atom_site_symmetry_multiplicity
 _atom_site_fract_x
 _atom_site_fract_y
 _atom_site_fract_z
 _atom_site_occupancy
  Ce  Ce0  1  0.805627  0.611253  0.751257  1
  Ce  Ce1  1  0.194373  0.805627  0.251257  1
  Ce  Ce2  1  0.611253  0.805627  0.251257  1
  Ce  Ce3  1  0.388747  0.194373  0.751257  1
  Ce  Ce4  1  0.805627  0.194373  0.751257  1
  Ce  Ce5  1  0.194373  0.388747  0.251257  1
  Ti  Ti6  1  0.333333  0.666667  0.511520  1
  Ti  Ti7  1  0.666667  0.333333  0.011520  1
  Al  Al8  1  0.666667  0.333333  0.504548  1
  Al  Al9  1  0.333333  0.666667  0.004548  1
  Al  Al10  1  0.158316  0.316634  0.578157  1
  Al  Al11  1  0.683366  0.841684  0.578157  1
  Al  Al12  1  0.158316  0.841684  0.578157  1
  Al  Al13  1  0.841684  0.158316  0.078157  1
  Al  Al14  1  0.839583  0.160417  0.420928  1
  Al  Al15  1  0.841684  0.683366  0.078157  1
  Al  Al16  1  0.316634  0.158316  0.078157  1
  Al  Al17  1  0.679164  0.839583  0.920928  1
  Al  Al18  1  0.160417  0.320836  0.920928  1
  Al  Al19  1  0.839583  0.679164  0.420928  1
  Al  Al20  1  0.000000  0.000000  0.249484  1
  Al  Al21  1  0.000000  0.000000  0.749484  1
  Al  Al22  1  0.561587  0.123174  0.249053  1
  Al  Al23  1  0.438413  0.561587  0.749053  1
  Al  Al24  1  0.123174  0.561587  0.749053  1
  Al  Al25  1  0.876826  0.438413  0.249053  1
  Al  Al26  1  0.561587  0.438413  0.249053  1
  Al  Al27  1  0.438413  0.876826  0.749053  1
  Al  Al28  1  0.160417  0.839583  0.920928  1
  Al  Al29  1  0.320836  0.160417  0.420928  1
  Tc  Tc30  1  0.497955  0.995910  0.495728  1
  Tc  Tc31  1  0.502045  0.497955  0.995728  1
  Tc  Tc32  1  0.995910  0.497955  0.995728  1
  Tc  Tc33  1  0.004090  0.502045  0.495728  1
  Tc  Tc34  1  0.497955  0.502045  0.495728  1
  Tc  Tc35  1  0.502045  0.004090  0.995728  1
  Ru  Ru36  1  0.000000  0.000000  0.499078  1
  Ru  Ru37  1  0.000000  0.000000  0.999078  1
