# generated using pymatgen
data_Ni3Mo6PdN2
_symmetry_space_group_name_H-M   'P 1'
_cell_length_a   6.71389200
_cell_length_b   6.71445223
_cell_length_c   6.72112722
_cell_angle_alpha   90.24491958
_cell_angle_beta   90.00000000
_cell_angle_gamma   90.00000000
_symmetry_Int_Tables_number   1
_chemical_formula_structural   Ni3Mo6PdN2
_chemical_formula_sum   'Ni6 Mo12 Pd2 N4'
_cell_volume   302.98636696
_cell_formula_units_Z   2
loop_
 _symmetry_equiv_pos_site_id
 _symmetry_equiv_pos_as_xyz
  1  'x, y, z'
loop_
 _atom_site_type_symbol
 _atom_site_label
 _atom_site_symmetry_multiplicity
 _atom_site_fract_x
 _atom_site_fract_y
 _atom_site_fract_z
 _atom_site_occupancy
  Ni  Ni0  1  0.184978  0.317180  0.564777  1
  Ni  Ni1  1  0.684978  0.682820  0.435223  1
  Ni  Ni2  1  0.936464  0.437569  0.322832  1
  Ni  Ni3  1  0.566874  0.929094  0.194668  1
  Ni  Ni4  1  0.436464  0.562431  0.677168  1
  Ni  Ni5  1  0.066874  0.070906  0.805332  1
  Mo  Mo6  1  0.376480  0.951755  0.544133  1
  Mo  Mo7  1  0.876480  0.048245  0.455867  1
  Mo  Mo8  1  0.123938  0.446722  0.951391  1
  Mo  Mo9  1  0.623938  0.553278  0.048609  1
  Mo  Mo10  1  0.797289  0.379463  0.695633  1
  Mo  Mo11  1  0.705130  0.872612  0.796256  1
  Mo  Mo12  1  0.205130  0.127388  0.203744  1
  Mo  Mo13  1  0.297289  0.620537  0.304367  1
  Mo  Mo14  1  0.945679  0.791464  0.131219  1
  Mo  Mo15  1  0.048203  0.700251  0.622611  1
  Mo  Mo16  1  0.445679  0.208536  0.868781  1
  Mo  Mo17  1  0.548203  0.299749  0.377389  1
  Pd  Pd18  1  0.313781  0.815317  0.935642  1
  Pd  Pd19  1  0.813781  0.184683  0.064358  1
  N  N20  1  0.625496  0.125578  0.626054  1
  N  N21  1  0.125496  0.874422  0.373946  1
  N  N22  1  0.875689  0.624593  0.876153  1
  N  N23  1  0.375689  0.375407  0.123847  1
