# generated using pymatgen
data_CaHo(Si2Rh3)2
_symmetry_space_group_name_H-M   'P 1'
_cell_length_a   6.65096291
_cell_length_b   6.65096211
_cell_length_c   6.65096297
_cell_angle_alpha   130.13370191
_cell_angle_beta   115.03068873
_cell_angle_gamma   86.11941951
_symmetry_Int_Tables_number   1
_chemical_formula_structural   CaHo(Si2Rh3)2
_chemical_formula_sum   'Ca1 Ho1 Si4 Rh6'
_cell_volume   194.67596279
_cell_formula_units_Z   1
loop_
 _symmetry_equiv_pos_site_id
 _symmetry_equiv_pos_as_xyz
  1  'x, y, z'
loop_
 _atom_site_type_symbol
 _atom_site_label
 _atom_site_symmetry_multiplicity
 _atom_site_fract_x
 _atom_site_fract_y
 _atom_site_fract_z
 _atom_site_occupancy
  Ca  Ca0  1  0.750000  0.033516  0.283516  1
  Ho  Ho1  1  0.250000  0.948097  0.698097  1
  Si  Si2  1  0.580101  0.383825  0.803723  1
  Si  Si3  1  0.919899  0.723621  0.803723  1
  Si  Si4  1  0.424369  0.618669  0.194299  1
  Si  Si5  1  0.075631  0.269930  0.194299  1
  Rh  Rh6  1  0.216924  0.506560  0.718840  1
  Rh  Rh7  1  0.787720  0.506560  0.289636  1
  Rh  Rh8  1  0.494963  0.502696  0.497659  1
  Rh  Rh9  1  0.005037  0.502696  0.007735  1
  Rh  Rh10  1  0.712280  0.001915  0.718840  1
  Rh  Rh11  1  0.283076  0.001915  0.289636  1
