# generated using pymatgen
data_Ca4AgSn2Hg
_symmetry_space_group_name_H-M   'P 1'
_cell_length_a   5.40124400
_cell_length_b   7.57263600
_cell_length_c   16.18056209
_cell_angle_alpha   90.00000000
_cell_angle_beta   89.99631764
_cell_angle_gamma   90.00000000
_symmetry_Int_Tables_number   1
_chemical_formula_structural   Ca4AgSn2Hg
_chemical_formula_sum   'Ca12 Ag3 Sn6 Hg3'
_cell_volume   661.81176344
_cell_formula_units_Z   3
loop_
 _symmetry_equiv_pos_site_id
 _symmetry_equiv_pos_as_xyz
  1  'x, y, z'
loop_
 _atom_site_type_symbol
 _atom_site_label
 _atom_site_symmetry_multiplicity
 _atom_site_fract_x
 _atom_site_fract_y
 _atom_site_fract_z
 _atom_site_occupancy
  Ca  Ca0  1  0.500012  0.251575  0.997777  1
  Ca  Ca1  1  0.500012  0.748425  0.997777  1
  Ca  Ca2  1  0.999900  0.251540  0.166665  1
  Ca  Ca3  1  0.999900  0.748460  0.166665  1
  Ca  Ca4  1  0.499920  0.251578  0.335553  1
  Ca  Ca5  1  0.499920  0.748422  0.335553  1
  Ca  Ca6  1  0.000018  0.252309  0.502444  1
  Ca  Ca7  1  0.000018  0.747691  0.502444  1
  Ca  Ca8  1  0.500083  0.250745  0.666663  1
  Ca  Ca9  1  0.500083  0.749255  0.666663  1
  Ca  Ca10  1  0.000097  0.252289  0.830887  1
  Ca  Ca11  1  0.000097  0.747711  0.830887  1
  Ag  Ag12  1  0.500021  0.500000  0.501317  1
  Ag  Ag13  1  0.000323  0.000000  0.666636  1
  Ag  Ag14  1  0.500081  0.500000  0.832035  1
  Sn  Sn15  1  0.000001  0.500000  0.998511  1
  Sn  Sn16  1  0.499877  0.000000  0.166681  1
  Sn  Sn17  1  0.999934  0.500000  0.334819  1
  Sn  Sn18  1  0.500004  0.000000  0.500287  1
  Sn  Sn19  1  0.000009  0.500000  0.666688  1
  Sn  Sn20  1  0.500039  0.000000  0.833067  1
  Hg  Hg21  1  0.000009  0.000000  0.997554  1
  Hg  Hg22  1  0.499820  0.500000  0.166642  1
  Hg  Hg23  1  0.999822  0.000000  0.335783  1
