# generated using pymatgen
data_Ho3ThPt4
_symmetry_space_group_name_H-M   'P 1'
_cell_length_a   4.55550200
_cell_length_b   5.63738367
_cell_length_c   7.06023999
_cell_angle_alpha   90.54504176
_cell_angle_beta   90.00000000
_cell_angle_gamma   90.00000000
_symmetry_Int_Tables_number   1
_chemical_formula_structural   Ho3ThPt4
_chemical_formula_sum   'Ho3 Th1 Pt4'
_cell_volume   181.30661414
_cell_formula_units_Z   1
loop_
 _symmetry_equiv_pos_site_id
 _symmetry_equiv_pos_as_xyz
  1  'x, y, z'
loop_
 _atom_site_type_symbol
 _atom_site_label
 _atom_site_symmetry_multiplicity
 _atom_site_fract_x
 _atom_site_fract_y
 _atom_site_fract_z
 _atom_site_occupancy
  Ho  Ho0  1  0.250000  0.138609  0.182620  1
  Ho  Ho1  1  0.750000  0.641319  0.314118  1
  Ho  Ho2  1  0.750000  0.859351  0.821697  1
  Th  Th3  1  0.250000  0.361224  0.681976  1
  Pt  Pt4  1  0.250000  0.843163  0.543116  1
  Pt  Pt5  1  0.250000  0.657519  0.044905  1
  Pt  Pt6  1  0.750000  0.156124  0.452999  1
  Pt  Pt7  1  0.750000  0.342691  0.958569  1
