# generated using pymatgen
data_Ho3TmMoSe5O24
_symmetry_space_group_name_H-M   'P 1'
_cell_length_a   10.03990748
_cell_length_b   9.97501730
_cell_length_c   9.97548188
_cell_angle_alpha   58.15189884
_cell_angle_beta   57.91198982
_cell_angle_gamma   57.90543847
_symmetry_Int_Tables_number   1
_chemical_formula_structural   Ho3TmMoSe5O24
_chemical_formula_sum   'Ho3 Tm1 Mo1 Se5 O24'
_cell_volume   673.83382673
_cell_formula_units_Z   1
loop_
 _symmetry_equiv_pos_site_id
 _symmetry_equiv_pos_as_xyz
  1  'x, y, z'
loop_
 _atom_site_type_symbol
 _atom_site_label
 _atom_site_symmetry_multiplicity
 _atom_site_fract_x
 _atom_site_fract_y
 _atom_site_fract_z
 _atom_site_occupancy
  Ho  Ho0  1  0.347365  0.363883  0.355317  1
  Ho  Ho1  1  0.152880  0.144809  0.136141  1
  Ho  Ho2  1  0.859122  0.854997  0.861247  1
  Tm  Tm3  1  0.641642  0.639314  0.645523  1
  Mo  Mo4  1  0.750335  0.037319  0.461642  1
  Se  Se5  1  0.958780  0.533815  0.255324  1
  Se  Se6  1  0.539576  0.248944  0.964658  1
  Se  Se7  1  0.468642  0.749368  0.032168  1
  Se  Se8  1  0.030301  0.466568  0.751034  1
  Se  Se9  1  0.252193  0.963359  0.534981  1
  O  O10  1  0.932460  0.066124  0.280409  1
  O  O11  1  0.775065  0.005958  0.641977  1
  O  O12  1  0.994373  0.367394  0.224840  1
  O  O13  1  0.709820  0.079149  0.943374  1
  O  O14  1  0.568907  0.219166  0.431950  1
  O  O15  1  0.863578  0.493854  0.728917  1
  O  O16  1  0.503993  0.278261  0.131619  1
  O  O17  1  0.788899  0.554984  0.425446  1
  O  O18  1  0.929210  0.706361  0.090140  1
  O  O19  1  0.568843  0.414563  0.792583  1
  O  O20  1  0.375989  0.224110  0.989014  1
  O  O21  1  0.274944  0.131403  0.506153  1
  O  O22  1  0.724636  0.856078  0.495928  1
  O  O23  1  0.634944  0.771124  0.006045  1
  O  O24  1  0.435396  0.583963  0.203281  1
  O  O25  1  0.062653  0.295864  0.917159  1
  O  O26  1  0.198977  0.441529  0.580822  1
  O  O27  1  0.497817  0.724514  0.864946  1
  O  O28  1  0.122860  0.509444  0.279139  1
  O  O29  1  0.420088  0.792842  0.563918  1
  O  O30  1  0.300368  0.920341  0.056180  1
  O  O31  1  0.002350  0.633548  0.775243  1
  O  O32  1  0.228624  0.992233  0.367314  1
  O  O33  1  0.084372  0.934812  0.705572  1
