# generated using pymatgen
data_Ti10CuSn5GeBi
_symmetry_space_group_name_H-M   'P 1'
_cell_length_a   8.26349860
_cell_length_b   8.26349866
_cell_length_c   5.55603867
_cell_angle_alpha   89.97170357
_cell_angle_beta   89.97169986
_cell_angle_gamma   119.75821572
_symmetry_Int_Tables_number   1
_chemical_formula_structural   Ti10CuSn5GeBi
_chemical_formula_sum   'Ti10 Cu1 Sn5 Ge1 Bi1'
_cell_volume   329.36432625
_cell_formula_units_Z   1
loop_
 _symmetry_equiv_pos_site_id
 _symmetry_equiv_pos_as_xyz
  1  'x, y, z'
loop_
 _atom_site_type_symbol
 _atom_site_label
 _atom_site_symmetry_multiplicity
 _atom_site_fract_x
 _atom_site_fract_y
 _atom_site_fract_z
 _atom_site_occupancy
  Ti  Ti0  1  0.266235  0.997853  0.747395  1
  Ti  Ti1  1  0.738386  0.006879  0.253172  1
  Ti  Ti2  1  0.997853  0.266235  0.747395  1
  Ti  Ti3  1  0.006879  0.738386  0.253172  1
  Ti  Ti4  1  0.733943  0.733943  0.746548  1
  Ti  Ti5  1  0.262160  0.262160  0.253129  1
  Ti  Ti6  1  0.330355  0.667149  0.502330  1
  Ti  Ti7  1  0.667149  0.330355  0.502330  1
  Ti  Ti8  1  0.667261  0.330142  0.997651  1
  Ti  Ti9  1  0.330142  0.667261  0.997651  1
  Cu  Cu10  1  0.001110  0.001110  0.996377  1
  Sn  Sn11  1  0.612122  0.998497  0.752629  1
  Sn  Sn12  1  0.389836  0.000831  0.247707  1
  Sn  Sn13  1  0.998497  0.612122  0.752629  1
  Sn  Sn14  1  0.000831  0.389836  0.247707  1
  Sn  Sn15  1  0.383799  0.383799  0.752319  1
  Ge  Ge16  1  0.000468  0.000468  0.502631  1
  Bi  Bi17  1  0.612974  0.612974  0.247226  1
