# generated using pymatgen
data_Lu4AlGa4Sn
_symmetry_space_group_name_H-M   'P 1'
_cell_length_a   7.08022300
_cell_length_b   7.08022300
_cell_length_c   4.28788600
_cell_angle_alpha   90.00000000
_cell_angle_beta   90.00000000
_cell_angle_gamma   90.00000000
_symmetry_Int_Tables_number   1
_chemical_formula_structural   Lu4AlGa4Sn
_chemical_formula_sum   'Lu4 Al1 Ga4 Sn1'
_cell_volume   214.94982878
_cell_formula_units_Z   1
loop_
 _symmetry_equiv_pos_site_id
 _symmetry_equiv_pos_as_xyz
  1  'x, y, z'
loop_
 _atom_site_type_symbol
 _atom_site_label
 _atom_site_symmetry_multiplicity
 _atom_site_fract_x
 _atom_site_fract_y
 _atom_site_fract_z
 _atom_site_occupancy
  Lu  Lu0  1  0.324028  0.170370  0.499999  1
  Lu  Lu1  1  0.829630  0.324028  0.499999  1
  Lu  Lu2  1  0.170370  0.675972  0.499999  1
  Lu  Lu3  1  0.675972  0.829630  0.499999  1
  Al  Al4  1  0.000000  0.000000  0.000000  1
  Ga  Ga5  1  0.635500  0.117984  0.000000  1
  Ga  Ga6  1  0.117984  0.364500  0.000000  1
  Ga  Ga7  1  0.882015  0.635500  0.000000  1
  Ga  Ga8  1  0.364500  0.882015  0.000000  1
  Sn  Sn9  1  0.500000  0.500000  0.000000  1
