# generated using pymatgen
data_Pr3CrFeC6
_symmetry_space_group_name_H-M   'P 1'
_cell_length_a   8.26669600
_cell_length_b   8.26669486
_cell_length_c   5.21917900
_cell_angle_alpha   90.00000000
_cell_angle_beta   90.00000000
_cell_angle_gamma   119.99999657
_symmetry_Int_Tables_number   1
_chemical_formula_structural   Pr3CrFeC6
_chemical_formula_sum   'Pr6 Cr2 Fe2 C12'
_cell_volume   308.88492478
_cell_formula_units_Z   2
loop_
 _symmetry_equiv_pos_site_id
 _symmetry_equiv_pos_as_xyz
  1  'x, y, z'
loop_
 _atom_site_type_symbol
 _atom_site_label
 _atom_site_symmetry_multiplicity
 _atom_site_fract_x
 _atom_site_fract_y
 _atom_site_fract_z
 _atom_site_occupancy
  Pr  Pr0  1  0.613371  0.683460  0.750000  1
  Pr  Pr1  1  0.929913  0.613371  0.250000  1
  Pr  Pr2  1  0.683460  0.070087  0.250000  1
  Pr  Pr3  1  0.316540  0.929913  0.750000  1
  Pr  Pr4  1  0.070087  0.386629  0.750000  1
  Pr  Pr5  1  0.386629  0.316540  0.250000  1
  Cr  Cr6  1  0.000000  0.000000  0.500000  1
  Cr  Cr7  1  0.000000  0.000000  0.000000  1
  Fe  Fe8  1  0.666667  0.333333  0.750000  1
  Fe  Fe9  1  0.333333  0.666667  0.250000  1
  C  C10  1  0.953829  0.768494  0.750000  1
  C  C11  1  0.185335  0.953829  0.250000  1
  C  C12  1  0.768494  0.814665  0.250000  1
  C  C13  1  0.231506  0.185335  0.750000  1
  C  C14  1  0.814665  0.046171  0.750000  1
  C  C15  1  0.046171  0.231506  0.250000  1
  C  C16  1  0.860991  0.577393  0.750000  1
  C  C17  1  0.283597  0.860991  0.250000  1
  C  C18  1  0.577393  0.716403  0.250000  1
  C  C19  1  0.422607  0.283597  0.750000  1
  C  C20  1  0.139009  0.422607  0.250000  1
  C  C21  1  0.716403  0.139009  0.750000  1
