# generated using pymatgen
data_HoEr9(In2Cu)4
_symmetry_space_group_name_H-M   'P 1'
_cell_length_a   3.63579600
_cell_length_b   8.00381414
_cell_length_c   17.89475300
_cell_angle_alpha   90.03051694
_cell_angle_beta   90.00000000
_cell_angle_gamma   90.00000000
_symmetry_Int_Tables_number   1
_chemical_formula_structural   HoEr9(In2Cu)4
_chemical_formula_sum   'Ho1 Er9 In8 Cu4'
_cell_volume   520.74145118
_cell_formula_units_Z   1
loop_
 _symmetry_equiv_pos_site_id
 _symmetry_equiv_pos_as_xyz
  1  'x, y, z'
loop_
 _atom_site_type_symbol
 _atom_site_label
 _atom_site_symmetry_multiplicity
 _atom_site_fract_x
 _atom_site_fract_y
 _atom_site_fract_z
 _atom_site_occupancy
  Ho  Ho0  1  0.000000  0.500000  0.500000  1
  Er  Er1  1  0.000000  0.000000  0.000000  1
  Er  Er2  1  0.000000  0.738990  0.280300  1
  Er  Er3  1  0.000000  0.261010  0.719700  1
  Er  Er4  1  0.000000  0.761131  0.780086  1
  Er  Er5  1  0.000000  0.238869  0.219914  1
  Er  Er6  1  0.000000  0.618123  0.083300  1
  Er  Er7  1  0.000000  0.381877  0.916700  1
  Er  Er8  1  0.000000  0.881814  0.583213  1
  Er  Er9  1  0.000000  0.118186  0.416787  1
  In  In10  1  0.500000  0.707776  0.931114  1
  In  In11  1  0.500000  0.292224  0.068886  1
  In  In12  1  0.500000  0.792991  0.431073  1
  In  In13  1  0.500000  0.207009  0.568927  1
  In  In14  1  0.500000  0.578928  0.650490  1
  In  In15  1  0.500000  0.421072  0.349510  1
  In  In16  1  0.500000  0.921266  0.150408  1
  In  In17  1  0.500000  0.078734  0.849592  1
  Cu  Cu18  1  0.500000  0.524913  0.197442  1
  Cu  Cu19  1  0.500000  0.475087  0.802558  1
  Cu  Cu20  1  0.500000  0.975150  0.697294  1
  Cu  Cu21  1  0.500000  0.024850  0.302706  1
