# generated using pymatgen
data_Pu3Al3Si2Os
_symmetry_space_group_name_H-M   'P 1'
_cell_length_a   6.79633100
_cell_length_b   6.79633136
_cell_length_c   4.34050700
_cell_angle_alpha   90.00000000
_cell_angle_beta   90.00000000
_cell_angle_gamma   119.99999339
_symmetry_Int_Tables_number   1
_chemical_formula_structural   Pu3Al3Si2Os
_chemical_formula_sum   'Pu3 Al3 Si2 Os1'
_cell_volume   173.62817024
_cell_formula_units_Z   1
loop_
 _symmetry_equiv_pos_site_id
 _symmetry_equiv_pos_as_xyz
  1  'x, y, z'
loop_
 _atom_site_type_symbol
 _atom_site_label
 _atom_site_symmetry_multiplicity
 _atom_site_fract_x
 _atom_site_fract_y
 _atom_site_fract_z
 _atom_site_occupancy
  Pu  Pu0  1  0.421553  0.000000  0.000000  1
  Pu  Pu1  1  0.000000  0.421552  0.000000  1
  Pu  Pu2  1  0.578447  0.578447  0.000000  1
  Al  Al3  1  0.767315  0.000000  0.500001  1
  Al  Al4  1  0.232684  0.232685  0.500001  1
  Al  Al5  1  0.000000  0.767316  0.500001  1
  Si  Si6  1  0.666666  0.333333  0.500001  1
  Si  Si7  1  0.333333  0.666667  0.500001  1
  Os  Os8  1  0.000000  0.000000  0.000000  1
