# generated using pymatgen
data_Nd8MgHgOs2
_symmetry_space_group_name_H-M   'P 1'
_cell_length_a   9.96500923
_cell_length_b   9.96500919
_cell_length_c   9.97636400
_cell_angle_alpha   59.96229954
_cell_angle_beta   59.96229967
_cell_angle_gamma   60.15438512
_symmetry_Int_Tables_number   1
_chemical_formula_structural   Nd8MgHgOs2
_chemical_formula_sum   'Nd16 Mg2 Hg2 Os4'
_cell_volume   700.92017764
_cell_formula_units_Z   2
loop_
 _symmetry_equiv_pos_site_id
 _symmetry_equiv_pos_as_xyz
  1  'x, y, z'
loop_
 _atom_site_type_symbol
 _atom_site_label
 _atom_site_symmetry_multiplicity
 _atom_site_fract_x
 _atom_site_fract_y
 _atom_site_fract_z
 _atom_site_occupancy
  Nd  Nd0  1  0.593838  0.593838  0.595217  1
  Nd  Nd1  1  0.593838  0.593838  0.217108  1
  Nd  Nd2  1  0.594658  0.213020  0.596161  1
  Nd  Nd3  1  0.213020  0.594658  0.596161  1
  Nd  Nd4  1  0.188042  0.810283  0.809301  1
  Nd  Nd5  1  0.810283  0.188042  0.192373  1
  Nd  Nd6  1  0.810283  0.188042  0.809301  1
  Nd  Nd7  1  0.188042  0.810283  0.192373  1
  Nd  Nd8  1  0.809993  0.809993  0.190007  1
  Nd  Nd9  1  0.190690  0.190690  0.809310  1
  Nd  Nd10  1  0.059369  0.440811  0.438698  1
  Nd  Nd11  1  0.440811  0.059369  0.061122  1
  Nd  Nd12  1  0.440811  0.059369  0.438698  1
  Nd  Nd13  1  0.059369  0.440811  0.061122  1
  Nd  Nd14  1  0.439642  0.439642  0.060358  1
  Nd  Nd15  1  0.056107  0.056107  0.443893  1
  Mg  Mg16  1  0.830361  0.527369  0.821136  1
  Mg  Mg17  1  0.527369  0.830361  0.821136  1
  Hg  Hg18  1  0.830248  0.830248  0.838958  1
  Hg  Hg19  1  0.830248  0.830248  0.500546  1
  Os  Os20  1  0.386565  0.386565  0.390078  1
  Os  Os21  1  0.386565  0.386565  0.836792  1
  Os  Os22  1  0.385504  0.834343  0.390077  1
  Os  Os23  1  0.834343  0.385504  0.390077  1
