# generated using pymatgen
data_K6PbSe4
_symmetry_space_group_name_H-M   'P 1'
_cell_length_a   10.84436000
_cell_length_b   10.84435979
_cell_length_c   8.12732300
_cell_angle_alpha   90.00000000
_cell_angle_beta   90.00000000
_cell_angle_gamma   120.00000065
_symmetry_Int_Tables_number   1
_chemical_formula_structural   K6PbSe4
_chemical_formula_sum   'K12 Pb2 Se8'
_cell_volume   827.72484865
_cell_formula_units_Z   2
loop_
 _symmetry_equiv_pos_site_id
 _symmetry_equiv_pos_as_xyz
  1  'x, y, z'
loop_
 _atom_site_type_symbol
 _atom_site_label
 _atom_site_symmetry_multiplicity
 _atom_site_fract_x
 _atom_site_fract_y
 _atom_site_fract_z
 _atom_site_occupancy
  K  K0  1  0.146927  0.293854  0.208137  1
  K  K1  1  0.146927  0.853073  0.208137  1
  K  K2  1  0.706146  0.853073  0.208137  1
  K  K3  1  0.853073  0.706146  0.708138  1
  K  K4  1  0.853073  0.146927  0.708138  1
  K  K5  1  0.293854  0.146927  0.708138  1
  K  K6  1  0.531217  0.062432  0.376487  1
  K  K7  1  0.531217  0.468783  0.376487  1
  K  K8  1  0.937568  0.468783  0.376487  1
  K  K9  1  0.468783  0.937568  0.876487  1
  K  K10  1  0.468783  0.531217  0.876487  1
  K  K11  1  0.062432  0.531217  0.876487  1
  Pb  Pb12  1  0.333333  0.666667  0.499709  1
  Pb  Pb13  1  0.666667  0.333333  0.999709  1
  Se  Se14  1  0.333333  0.666667  0.137001  1
  Se  Se15  1  0.666667  0.333333  0.637001  1
  Se  Se16  1  0.816994  0.633988  0.110788  1
  Se  Se17  1  0.816994  0.183006  0.110788  1
  Se  Se18  1  0.366012  0.183006  0.110788  1
  Se  Se19  1  0.183006  0.366012  0.610788  1
  Se  Se20  1  0.183006  0.816994  0.610788  1
  Se  Se21  1  0.633988  0.816994  0.610788  1
