# generated using pymatgen
data_K4Zr6SBr18
_symmetry_space_group_name_H-M   'P 1'
_cell_length_a   10.52325690
_cell_length_b   10.67611485
_cell_length_c   10.77548885
_cell_angle_alpha   118.49963922
_cell_angle_beta   100.09615676
_cell_angle_gamma   103.98846994
_symmetry_Int_Tables_number   1
_chemical_formula_structural   K4Zr6SBr18
_chemical_formula_sum   'K4 Zr6 S1 Br18'
_cell_volume   970.53832437
_cell_formula_units_Z   1
loop_
 _symmetry_equiv_pos_site_id
 _symmetry_equiv_pos_as_xyz
  1  'x, y, z'
loop_
 _atom_site_type_symbol
 _atom_site_label
 _atom_site_symmetry_multiplicity
 _atom_site_fract_x
 _atom_site_fract_y
 _atom_site_fract_z
 _atom_site_occupancy
  K  K0  1  0.186903  0.725045  0.563972  1
  K  K1  1  0.847296  0.962388  0.772727  1
  K  K2  1  0.152704  0.037612  0.227273  1
  K  K3  1  0.813097  0.274955  0.436028  1
  Zr  Zr4  1  0.347200  0.442869  0.765236  1
  Zr  Zr5  1  0.359225  0.629378  0.136074  1
  Zr  Zr6  1  0.647956  0.743868  0.045875  1
  Zr  Zr7  1  0.652800  0.557131  0.234764  1
  Zr  Zr8  1  0.352044  0.256132  0.954125  1
  Zr  Zr9  1  0.640775  0.370622  0.863926  1
  S  S10  1  0.500000  0.500000  0.000000  1
  Br  Br11  1  0.824756  0.421398  0.111305  1
  Br  Br12  1  0.514955  0.707116  0.413756  1
  Br  Br13  1  0.178417  0.978963  0.899682  1
  Br  Br14  1  0.175244  0.578602  0.888695  1
  Br  Br15  1  0.833277  0.838050  0.315192  1
  Br  Br16  1  0.503868  0.293251  0.212006  1
  Br  Br17  1  0.795956  0.224927  0.711926  1
  Br  Br18  1  0.166723  0.161950  0.684808  1
  Br  Br19  1  0.508216  0.915230  0.199830  1
  Br  Br20  1  0.821297  0.629570  0.901938  1
  Br  Br21  1  0.204044  0.775073  0.288074  1
  Br  Br22  1  0.167704  0.379011  0.499467  1
  Br  Br23  1  0.496132  0.706749  0.787994  1
  Br  Br24  1  0.821583  0.021037  0.100318  1
  Br  Br25  1  0.485045  0.292884  0.586244  1
  Br  Br26  1  0.178703  0.370430  0.098062  1
  Br  Br27  1  0.832296  0.620989  0.500533  1
  Br  Br28  1  0.491784  0.084770  0.800170  1
