# generated using pymatgen
data_Lu(HfTc6)4
_symmetry_space_group_name_H-M   'P 1'
_cell_length_a   8.42203335
_cell_length_b   8.42203466
_cell_length_c   8.42203400
_cell_angle_alpha   109.47122146
_cell_angle_beta   109.47122460
_cell_angle_gamma   109.47122374
_symmetry_Int_Tables_number   1
_chemical_formula_structural   Lu(HfTc6)4
_chemical_formula_sum   'Lu1 Hf4 Tc24'
_cell_volume   459.86360390
_cell_formula_units_Z   1
loop_
 _symmetry_equiv_pos_site_id
 _symmetry_equiv_pos_as_xyz
  1  'x, y, z'
loop_
 _atom_site_type_symbol
 _atom_site_label
 _atom_site_symmetry_multiplicity
 _atom_site_fract_x
 _atom_site_fract_y
 _atom_site_fract_z
 _atom_site_occupancy
  Lu  Lu0  1  0.000000  0.000000  0.000000  1
  Hf  Hf1  1  0.623806  0.000000  0.000000  1
  Hf  Hf2  1  0.000000  0.623806  0.000000  1
  Hf  Hf3  1  0.000000  0.000000  0.623806  1
  Hf  Hf4  1  0.376194  0.376194  0.376194  1
  Tc  Tc5  1  0.393934  0.674101  0.000000  1
  Tc  Tc6  1  0.719834  0.325899  0.325899  1
  Tc  Tc7  1  0.393934  0.000000  0.674101  1
  Tc  Tc8  1  0.674101  0.393934  0.000000  1
  Tc  Tc9  1  0.000000  0.393934  0.674101  1
  Tc  Tc10  1  0.325899  0.719834  0.325899  1
  Tc  Tc11  1  0.325899  0.325899  0.719834  1
  Tc  Tc12  1  0.000000  0.674101  0.393934  1
  Tc  Tc13  1  0.674101  0.000000  0.393934  1
  Tc  Tc14  1  0.606066  0.606066  0.280166  1
  Tc  Tc15  1  0.280166  0.606066  0.606066  1
  Tc  Tc16  1  0.606066  0.280166  0.606066  1
  Tc  Tc17  1  0.375200  0.194812  0.000000  1
  Tc  Tc18  1  0.180388  0.805188  0.805188  1
  Tc  Tc19  1  0.375200  0.000000  0.194812  1
  Tc  Tc20  1  0.194812  0.375200  0.000000  1
  Tc  Tc21  1  0.000000  0.375200  0.194812  1
  Tc  Tc22  1  0.805188  0.180388  0.805188  1
  Tc  Tc23  1  0.805188  0.805188  0.180388  1
  Tc  Tc24  1  0.000000  0.194812  0.375200  1
  Tc  Tc25  1  0.194812  0.000000  0.375200  1
  Tc  Tc26  1  0.624800  0.624800  0.819612  1
  Tc  Tc27  1  0.819612  0.624800  0.624800  1
  Tc  Tc28  1  0.624800  0.819612  0.624800  1
