# generated using pymatgen
data_Lu12Mn2TlGaTc
_symmetry_space_group_name_H-M   'P 1'
_cell_length_a   8.16613899
_cell_length_b   8.16591289
_cell_length_c   8.16613868
_cell_angle_alpha   108.18761251
_cell_angle_beta   109.24633486
_cell_angle_gamma   110.99328308
_symmetry_Int_Tables_number   1
_chemical_formula_structural   Lu12Mn2TlGaTc
_chemical_formula_sum   'Lu12 Mn2 Tl1 Ga1 Tc1'
_cell_volume   418.93231293
_cell_formula_units_Z   1
loop_
 _symmetry_equiv_pos_site_id
 _symmetry_equiv_pos_as_xyz
  1  'x, y, z'
loop_
 _atom_site_type_symbol
 _atom_site_label
 _atom_site_symmetry_multiplicity
 _atom_site_fract_x
 _atom_site_fract_y
 _atom_site_fract_z
 _atom_site_occupancy
  Lu  Lu0  1  0.308948  0.305698  0.614735  1
  Lu  Lu1  1  0.691052  0.694302  0.385265  1
  Lu  Lu2  1  0.690964  0.305698  0.996751  1
  Lu  Lu3  1  0.309036  0.694302  0.003249  1
  Lu  Lu4  1  0.191758  0.428669  0.236910  1
  Lu  Lu5  1  0.808242  0.571331  0.763090  1
  Lu  Lu6  1  0.191669  0.954818  0.763151  1
  Lu  Lu7  1  0.945675  0.190067  0.755657  1
  Lu  Lu8  1  0.808331  0.045182  0.236849  1
  Lu  Lu9  1  0.054325  0.809933  0.244343  1
  Lu  Lu10  1  0.434411  0.190067  0.244392  1
  Lu  Lu11  1  0.565589  0.809933  0.755608  1
  Mn  Mn12  1  0.383600  0.383641  0.000041  1
  Mn  Mn13  1  0.616400  0.616359  0.999959  1
  Tl  Tl14  1  0.000000  0.500000  0.500000  1
  Ga  Ga15  1  0.500000  0.000000  0.500000  1
  Tc  Tc16  1  0.000000  0.000000  0.000000  1
