# generated using pymatgen
data_Tb7Y3GaBi5
_symmetry_space_group_name_H-M   'P 1'
_cell_length_a   9.12287694
_cell_length_b   9.12064220
_cell_length_c   6.44081800
_cell_angle_alpha   90.00000000
_cell_angle_beta   90.00000000
_cell_angle_gamma   119.72946489
_symmetry_Int_Tables_number   1
_chemical_formula_structural   Tb7Y3GaBi5
_chemical_formula_sum   'Tb7 Y3 Ga1 Bi5'
_cell_volume   465.37856693
_cell_formula_units_Z   1
loop_
 _symmetry_equiv_pos_site_id
 _symmetry_equiv_pos_as_xyz
  1  'x, y, z'
loop_
 _atom_site_type_symbol
 _atom_site_label
 _atom_site_symmetry_multiplicity
 _atom_site_fract_x
 _atom_site_fract_y
 _atom_site_fract_z
 _atom_site_occupancy
  Tb  Tb0  1  0.657722  0.335681  0.996657  1
  Tb  Tb1  1  0.335669  0.657708  0.996635  1
  Tb  Tb2  1  0.335669  0.657708  0.503365  1
  Tb  Tb3  1  0.657722  0.335681  0.503343  1
  Tb  Tb4  1  0.014662  0.244890  0.750000  1
  Tb  Tb5  1  0.758658  0.000663  0.250000  1
  Tb  Tb6  1  0.000665  0.758687  0.250000  1
  Y  Y7  1  0.749188  0.749190  0.750000  1
  Y  Y8  1  0.244916  0.014656  0.750000  1
  Y  Y9  1  0.242513  0.242522  0.250000  1
  Ga  Ga10  1  0.392839  0.392808  0.750000  1
  Bi  Bi11  1  0.612004  0.002777  0.750000  1
  Bi  Bi12  1  0.002828  0.612112  0.750000  1
  Bi  Bi13  1  0.609179  0.609168  0.250000  1
  Bi  Bi14  1  0.390373  0.995389  0.250000  1
  Bi  Bi15  1  0.995397  0.390363  0.250000  1
