# generated using pymatgen
data_Pa4Tc3Sn2Ru
_symmetry_space_group_name_H-M   'P 1'
_cell_length_a   7.57867800
_cell_length_b   7.57867809
_cell_length_c   3.64041100
_cell_angle_alpha   90.00000000
_cell_angle_beta   90.00000000
_cell_angle_gamma   91.13695917
_symmetry_Int_Tables_number   1
_chemical_formula_structural   Pa4Tc3Sn2Ru
_chemical_formula_sum   'Pa4 Tc3 Sn2 Ru1'
_cell_volume   209.05079403
_cell_formula_units_Z   1
loop_
 _symmetry_equiv_pos_site_id
 _symmetry_equiv_pos_as_xyz
  1  'x, y, z'
loop_
 _atom_site_type_symbol
 _atom_site_label
 _atom_site_symmetry_multiplicity
 _atom_site_fract_x
 _atom_site_fract_y
 _atom_site_fract_z
 _atom_site_occupancy
  Pa  Pa0  1  0.670817  0.162448  0.500000  1
  Pa  Pa1  1  0.337552  0.829183  0.500000  1
  Pa  Pa2  1  0.835943  0.664057  0.500000  1
  Pa  Pa3  1  0.167126  0.332874  0.500000  1
  Tc  Tc4  1  0.627064  0.872936  0.000000  1
  Tc  Tc5  1  0.139429  0.639748  0.000000  1
  Tc  Tc6  1  0.860252  0.360571  0.000000  1
  Sn  Sn7  1  0.503842  0.497846  0.000000  1
  Sn  Sn8  1  0.002154  0.996158  0.000000  1
  Ru  Ru9  1  0.355822  0.144178  0.000000  1
