# generated using pymatgen
data_K3Sr7(Tc2N7)2
_symmetry_space_group_name_H-M   'P 1'
_cell_length_a   6.46426526
_cell_length_b   9.33939210
_cell_length_c   9.45204001
_cell_angle_alpha   115.13032554
_cell_angle_beta   97.54024776
_cell_angle_gamma   89.45281275
_symmetry_Int_Tables_number   1
_chemical_formula_structural   K3Sr7(Tc2N7)2
_chemical_formula_sum   'K3 Sr7 Tc4 N14'
_cell_volume   511.48128296
_cell_formula_units_Z   1
loop_
 _symmetry_equiv_pos_site_id
 _symmetry_equiv_pos_as_xyz
  1  'x, y, z'
loop_
 _atom_site_type_symbol
 _atom_site_label
 _atom_site_symmetry_multiplicity
 _atom_site_fract_x
 _atom_site_fract_y
 _atom_site_fract_z
 _atom_site_occupancy
  K  K0  1  0.865004  0.591255  0.331275  1
  K  K1  1  0.270969  0.992813  0.572501  1
  K  K2  1  0.704466  0.409051  0.849447  1
  Sr  Sr3  1  0.288543  0.588041  0.148337  1
  Sr  Sr4  1  0.401517  0.789591  0.906794  1
  Sr  Sr5  1  0.600263  0.217481  0.076058  1
  Sr  Sr6  1  0.146546  0.405994  0.674233  1
  Sr  Sr7  1  0.894126  0.840292  0.753441  1
  Sr  Sr8  1  0.110059  0.153934  0.239274  1
  Sr  Sr9  1  0.730246  0.011136  0.445438  1
  Tc  Tc10  1  0.581883  0.359191  0.472257  1
  Tc  Tc11  1  0.431364  0.637306  0.522511  1
  Tc  Tc12  1  0.113598  0.209827  0.915998  1
  Tc  Tc13  1  0.870983  0.791624  0.080443  1
  N  N14  1  0.562659  0.553300  0.666929  1
  N  N15  1  0.452087  0.441040  0.322589  1
  N  N16  1  0.179800  0.696727  0.586769  1
  N  N17  1  0.844144  0.284572  0.439559  1
  N  N18  1  0.415096  0.202680  0.470693  1
  N  N19  1  0.589645  0.799210  0.526320  1
  N  N20  1  0.937040  0.125745  0.729738  1
  N  N21  1  0.033378  0.877899  0.271481  1
  N  N22  1  0.238838  0.053427  0.962080  1
  N  N23  1  0.768256  0.949126  0.025762  1
  N  N24  1  0.324460  0.333530  0.905508  1
  N  N25  1  0.973973  0.329515  0.078867  1
  N  N26  1  0.034416  0.662736  0.931185  1
  N  N27  1  0.636643  0.692958  0.094514  1
