# generated using pymatgen
data_PrU3F15
_symmetry_space_group_name_H-M   'P 1'
_cell_length_a   7.92450739
_cell_length_b   7.92450686
_cell_length_c   7.92450807
_cell_angle_alpha   112.83783613
_cell_angle_beta   112.83783944
_cell_angle_gamma   112.83784299
_symmetry_Int_Tables_number   1
_chemical_formula_structural   PrU3F15
_chemical_formula_sum   'Pr1 U3 F15'
_cell_volume   326.75935758
_cell_formula_units_Z   1
loop_
 _symmetry_equiv_pos_site_id
 _symmetry_equiv_pos_as_xyz
  1  'x, y, z'
loop_
 _atom_site_type_symbol
 _atom_site_label
 _atom_site_symmetry_multiplicity
 _atom_site_fract_x
 _atom_site_fract_y
 _atom_site_fract_z
 _atom_site_occupancy
  Pr  Pr0  1  0.495523  0.495523  0.495523  1
  U  U1  1  0.857075  0.286167  0.857075  1
  U  U2  1  0.286167  0.857075  0.857075  1
  U  U3  1  0.857075  0.857075  0.286167  1
  F  F4  1  0.601747  0.932260  0.145118  1
  F  F5  1  0.932260  0.145118  0.601747  1
  F  F6  1  0.145118  0.601747  0.932260  1
  F  F7  1  0.932260  0.601747  0.145118  1
  F  F8  1  0.595442  0.595442  0.260498  1
  F  F9  1  0.260498  0.595442  0.595442  1
  F  F10  1  0.595442  0.260498  0.595442  1
  F  F11  1  0.145215  0.145215  0.361069  1
  F  F12  1  0.361069  0.145215  0.145215  1
  F  F13  1  0.145215  0.361069  0.145215  1
  F  F14  1  0.667263  0.667263  0.895670  1
  F  F15  1  0.895670  0.667263  0.667263  1
  F  F16  1  0.667263  0.895670  0.667263  1
  F  F17  1  0.145118  0.932260  0.601747  1
  F  F18  1  0.601747  0.145118  0.932260  1
