# generated using pymatgen
data_Hf4Al7Tc
_symmetry_space_group_name_H-M   'P 1'
_cell_length_a   5.27643000
_cell_length_b   5.27643087
_cell_length_c   8.57597900
_cell_angle_alpha   90.00000000
_cell_angle_beta   90.00000000
_cell_angle_gamma   119.99998202
_symmetry_Int_Tables_number   1
_chemical_formula_structural   Hf4Al7Tc
_chemical_formula_sum   'Hf4 Al7 Tc1'
_cell_volume   206.77348738
_cell_formula_units_Z   1
loop_
 _symmetry_equiv_pos_site_id
 _symmetry_equiv_pos_as_xyz
  1  'x, y, z'
loop_
 _atom_site_type_symbol
 _atom_site_label
 _atom_site_symmetry_multiplicity
 _atom_site_fract_x
 _atom_site_fract_y
 _atom_site_fract_z
 _atom_site_occupancy
  Hf  Hf0  1  0.333333  0.666667  0.445262  1
  Hf  Hf1  1  0.666667  0.333333  0.554738  1
  Hf  Hf2  1  0.666667  0.333333  0.934246  1
  Hf  Hf3  1  0.333333  0.666667  0.065754  1
  Al  Al4  1  0.000000  0.000000  0.500000  1
  Al  Al5  1  0.830190  0.169810  0.243461  1
  Al  Al6  1  0.830190  0.660380  0.243461  1
  Al  Al7  1  0.339620  0.169810  0.243461  1
  Al  Al8  1  0.169810  0.830190  0.756539  1
  Al  Al9  1  0.169810  0.339620  0.756539  1
  Al  Al10  1  0.660380  0.830190  0.756539  1
  Tc  Tc11  1  0.000000  0.000000  0.000000  1
