# generated using pymatgen
data_VGa3(NiO4)2
_symmetry_space_group_name_H-M   'P 1'
_cell_length_a   5.89842200
_cell_length_b   6.01954492
_cell_length_c   8.37315006
_cell_angle_alpha   89.51877141
_cell_angle_beta   90.00002914
_cell_angle_gamma   90.00000012
_symmetry_Int_Tables_number   1
_chemical_formula_structural   VGa3(NiO4)2
_chemical_formula_sum   'V2 Ga6 Ni4 O16'
_cell_volume   297.28504073
_cell_formula_units_Z   2
loop_
 _symmetry_equiv_pos_site_id
 _symmetry_equiv_pos_as_xyz
  1  'x, y, z'
loop_
 _atom_site_type_symbol
 _atom_site_label
 _atom_site_symmetry_multiplicity
 _atom_site_fract_x
 _atom_site_fract_y
 _atom_site_fract_z
 _atom_site_occupancy
  V  V0  1  0.000000  0.749999  0.624999  1
  V  V1  1  0.500000  0.250001  0.125001  1
  Ga  Ga2  1  0.000000  0.999208  0.992987  1
  Ga  Ga3  1  0.500000  0.499207  0.492991  1
  Ga  Ga4  1  0.000000  0.500792  0.257010  1
  Ga  Ga5  1  0.500000  0.000793  0.757012  1
  Ga  Ga6  1  0.000000  0.250001  0.625001  1
  Ga  Ga7  1  0.500000  0.749999  0.124999  1
  Ni  Ni8  1  0.750000  0.500000  0.875000  1
  Ni  Ni9  1  0.250000  0.500000  0.875000  1
  Ni  Ni10  1  0.250000  0.000000  0.375000  1
  Ni  Ni11  1  0.750000  0.000000  0.375000  1
  O  O12  1  0.000000  0.756655  0.384887  1
  O  O13  1  0.500000  0.256654  0.884888  1
  O  O14  1  0.000000  0.241673  0.387201  1
  O  O15  1  0.500000  0.741673  0.887200  1
  O  O16  1  0.000000  0.258327  0.862801  1
  O  O17  1  0.500000  0.758327  0.362799  1
  O  O18  1  0.000000  0.743347  0.865114  1
  O  O19  1  0.500000  0.243345  0.365112  1
  O  O20  1  0.237465  0.003061  0.624253  1
  O  O21  1  0.737463  0.503060  0.124253  1
  O  O22  1  0.762536  0.003061  0.624253  1
  O  O23  1  0.262537  0.503060  0.124252  1
  O  O24  1  0.237464  0.496939  0.625748  1
  O  O25  1  0.737462  0.996940  0.125747  1
  O  O26  1  0.762536  0.496939  0.625747  1
  O  O27  1  0.262537  0.996940  0.125747  1
