# generated using pymatgen
data_Nd16MgHg3PtRh3
_symmetry_space_group_name_H-M   'P 1'
_cell_length_a   9.94082790
_cell_length_b   9.97642770
_cell_length_c   9.97642761
_cell_angle_alpha   59.92579655
_cell_angle_beta   59.93335444
_cell_angle_gamma   59.93335237
_symmetry_Int_Tables_number   1
_chemical_formula_structural   Nd16MgHg3PtRh3
_chemical_formula_sum   'Nd16 Mg1 Hg3 Pt1 Rh3'
_cell_volume   698.51509437
_cell_formula_units_Z   1
loop_
 _symmetry_equiv_pos_site_id
 _symmetry_equiv_pos_as_xyz
  1  'x, y, z'
loop_
 _atom_site_type_symbol
 _atom_site_label
 _atom_site_symmetry_multiplicity
 _atom_site_fract_x
 _atom_site_fract_y
 _atom_site_fract_z
 _atom_site_occupancy
  Nd  Nd0  1  0.597802  0.597198  0.597198  1
  Nd  Nd1  1  0.602791  0.602121  0.199866  1
  Nd  Nd2  1  0.602791  0.199866  0.602121  1
  Nd  Nd3  1  0.192047  0.604657  0.604657  1
  Nd  Nd4  1  0.053636  0.442384  0.442384  1
  Nd  Nd5  1  0.435240  0.060989  0.060989  1
  Nd  Nd6  1  0.437932  0.057899  0.439452  1
  Nd  Nd7  1  0.056639  0.439940  0.058078  1
  Nd  Nd8  1  0.437932  0.439452  0.057899  1
  Nd  Nd9  1  0.056639  0.058078  0.439940  1
  Nd  Nd10  1  0.188744  0.813522  0.813522  1
  Nd  Nd11  1  0.810703  0.188694  0.188694  1
  Nd  Nd12  1  0.811644  0.189081  0.814066  1
  Nd  Nd13  1  0.188477  0.811770  0.187050  1
  Nd  Nd14  1  0.811644  0.814066  0.189081  1
  Nd  Nd15  1  0.188477  0.187050  0.811770  1
  Mg  Mg16  1  0.536461  0.820404  0.820404  1
  Hg  Hg17  1  0.831606  0.836812  0.836812  1
  Hg  Hg18  1  0.831363  0.837260  0.494405  1
  Hg  Hg19  1  0.831363  0.494405  0.837260  1
  Pt  Pt20  1  0.391426  0.394157  0.394157  1
  Rh  Rh21  1  0.391169  0.393657  0.823320  1
  Rh  Rh22  1  0.391169  0.823320  0.393657  1
  Rh  Rh23  1  0.822310  0.393218  0.393218  1
