# generated using pymatgen
data_Ca8SmLu(Sn3H)2
_symmetry_space_group_name_H-M   'P 1'
_cell_length_a   9.44961849
_cell_length_b   9.43984499
_cell_length_c   9.44938176
_cell_angle_alpha   129.35796773
_cell_angle_beta   129.30069946
_cell_angle_gamma   74.41021686
_symmetry_Int_Tables_number   1
_chemical_formula_structural   Ca8SmLu(Sn3H)2
_chemical_formula_sum   'Ca8 Sm1 Lu1 Sn6 H2'
_cell_volume   491.73352661
_cell_formula_units_Z   1
loop_
 _symmetry_equiv_pos_site_id
 _symmetry_equiv_pos_as_xyz
  1  'x, y, z'
loop_
 _atom_site_type_symbol
 _atom_site_label
 _atom_site_symmetry_multiplicity
 _atom_site_fract_x
 _atom_site_fract_y
 _atom_site_fract_z
 _atom_site_occupancy
  Ca  Ca0  1  0.001430  0.999067  0.000199  1
  Ca  Ca1  1  0.184975  0.684912  0.173207  1
  Ca  Ca2  1  0.009170  0.186559  0.500171  1
  Ca  Ca3  1  0.686843  0.509388  0.500345  1
  Ca  Ca4  1  0.490428  0.989752  0.178363  1
  Ca  Ca5  1  0.812721  0.313189  0.822860  1
  Ca  Ca6  1  0.988265  0.812235  0.498334  1
  Ca  Ca7  1  0.313242  0.488962  0.499832  1
  Sm  Sm8  1  0.513841  0.016154  0.828293  1
  Lu  Lu9  1  0.498783  0.501864  0.999991  1
  Sn  Sn10  1  0.257011  0.249211  0.995825  1
  Sn  Sn11  1  0.743006  0.749085  0.996490  1
  Sn  Sn12  1  0.863107  0.374217  0.238078  1
  Sn  Sn13  1  0.134741  0.623116  0.758641  1
  Sn  Sn14  1  0.374677  0.134810  0.512413  1
  Sn  Sn15  1  0.623686  0.863774  0.491343  1
  H  H16  1  0.254002  0.753745  0.504357  1
  H  H17  1  0.750072  0.249959  0.501257  1
