# generated using pymatgen
data_Ta6Mn2SiOs3C2
_symmetry_space_group_name_H-M   'P 1'
_cell_length_a   8.22057905
_cell_length_b   8.22128178
_cell_length_c   8.22014854
_cell_angle_alpha   119.82828413
_cell_angle_beta   119.93721622
_cell_angle_gamma   90.19830413
_symmetry_Int_Tables_number   1
_chemical_formula_structural   Ta6Mn2SiOs3C2
_chemical_formula_sum   'Ta12 Mn4 Si2 Os6 C4'
_cell_volume   393.54180954
_cell_formula_units_Z   2
loop_
 _symmetry_equiv_pos_site_id
 _symmetry_equiv_pos_as_xyz
  1  'x, y, z'
loop_
 _atom_site_type_symbol
 _atom_site_label
 _atom_site_symmetry_multiplicity
 _atom_site_fract_x
 _atom_site_fract_y
 _atom_site_fract_z
 _atom_site_occupancy
  Ta  Ta0  1  0.178793  0.178776  0.999976  1
  Ta  Ta1  1  0.565917  0.565824  0.999893  1
  Ta  Ta2  1  0.183043  0.567224  0.001244  1
  Ta  Ta3  1  0.565840  0.181646  0.998601  1
  Ta  Ta4  1  0.183042  0.181658  0.615822  1
  Ta  Ta5  1  0.565973  0.567234  0.384189  1
  Ta  Ta6  1  0.317884  0.817681  0.499845  1
  Ta  Ta7  1  0.932639  0.432233  0.499591  1
  Ta  Ta8  1  0.317653  0.431514  0.500892  1
  Ta  Ta9  1  0.930909  0.816971  0.499222  1
  Ta  Ta10  1  0.317713  0.816955  0.886029  1
  Ta  Ta11  1  0.930618  0.431520  0.113844  1
  Mn  Mn12  1  0.754494  0.004493  0.250007  1
  Mn  Mn13  1  0.754991  0.504886  0.749933  1
  Mn  Mn14  1  0.760293  0.998585  0.761485  1
  Mn  Mn15  1  0.237131  0.998571  0.238319  1
  Si  Si16  1  0.957866  0.788777  0.830855  1
  Si  Si17  1  0.957971  0.127165  0.169156  1
  Os  Os18  1  0.962327  0.796627  0.166327  1
  Os  Os19  1  0.630274  0.796591  0.834295  1
  Os  Os20  1  0.543633  0.203399  0.659783  1
  Os  Os21  1  0.543898  0.884364  0.340491  1
  Os  Os22  1  0.542986  0.206122  0.336818  1
  Os  Os23  1  0.869280  0.206103  0.663136  1
  C  C24  1  0.248858  0.497234  0.248366  1
  C  C25  1  0.248924  0.000755  0.751827  1
  C  C26  1  0.249459  0.498545  0.750963  1
  C  C27  1  0.747590  0.498550  0.249091  1
