# generated using pymatgen
data_Pm(GaAu)2
_symmetry_space_group_name_H-M   'P 1'
_cell_length_a   6.06035521
_cell_length_b   6.06035481
_cell_length_c   6.06035536
_cell_angle_alpha   136.67951012
_cell_angle_beta   136.67949652
_cell_angle_gamma   62.93154069
_symmetry_Int_Tables_number   1
_chemical_formula_structural   Pm(GaAu)2
_chemical_formula_sum   'Pm1 Ga2 Au2'
_cell_volume   103.45983377
_cell_formula_units_Z   1
loop_
 _symmetry_equiv_pos_site_id
 _symmetry_equiv_pos_as_xyz
  1  'x, y, z'
loop_
 _atom_site_type_symbol
 _atom_site_label
 _atom_site_symmetry_multiplicity
 _atom_site_fract_x
 _atom_site_fract_y
 _atom_site_fract_z
 _atom_site_occupancy
  Pm  Pm0  1  0.000000  0.000000  0.000000  1
  Ga  Ga1  1  0.381605  0.381605  0.000000  1
  Ga  Ga2  1  0.618394  0.618394  0.000000  1
  Au  Au3  1  0.750000  0.250000  0.500000  1
  Au  Au4  1  0.250000  0.750000  0.500000  1
