# generated using pymatgen
data_P(SF)6
_symmetry_space_group_name_H-M   'P 1'
_cell_length_a   7.19564894
_cell_length_b   8.54103231
_cell_length_c   10.60207569
_cell_angle_alpha   89.94192546
_cell_angle_beta   117.88600741
_cell_angle_gamma   110.13809290
_symmetry_Int_Tables_number   1
_chemical_formula_structural   P(SF)6
_chemical_formula_sum   'P2 S12 F12'
_cell_volume   530.56708923
_cell_formula_units_Z   2
loop_
 _symmetry_equiv_pos_site_id
 _symmetry_equiv_pos_as_xyz
  1  'x, y, z'
loop_
 _atom_site_type_symbol
 _atom_site_label
 _atom_site_symmetry_multiplicity
 _atom_site_fract_x
 _atom_site_fract_y
 _atom_site_fract_z
 _atom_site_occupancy
  P  P0  1  0.815755  0.700120  0.781130  1
  P  P1  1  0.184245  0.299880  0.218870  1
  S  S2  1  0.418743  0.233869  0.919363  1
  S  S3  1  0.419349  0.857984  0.174429  1
  S  S4  1  0.122623  0.302960  0.582761  1
  S  S5  1  0.877377  0.697040  0.417239  1
  S  S6  1  0.581257  0.766131  0.080637  1
  S  S7  1  0.580651  0.142016  0.825571  1
  S  S8  1  0.206449  0.769733  0.553037  1
  S  S9  1  0.610138  0.943520  0.382542  1
  S  S10  1  0.793551  0.230267  0.446963  1
  S  S11  1  0.109293  0.208929  0.765696  1
  S  S12  1  0.389862  0.056480  0.617458  1
  S  S13  1  0.890707  0.791071  0.234304  1
  F  F14  1  0.718555  0.805238  0.651142  1
  F  F15  1  0.552990  0.591382  0.747123  1
  F  F16  1  0.077502  0.810510  0.814454  1
  F  F17  1  0.214958  0.442773  0.337813  1
  F  F18  1  0.447010  0.408618  0.252877  1
  F  F19  1  0.922498  0.189490  0.185546  1
  F  F20  1  0.785042  0.557227  0.662187  1
  F  F21  1  0.910881  0.597154  0.909603  1
  F  F22  1  0.156233  0.155050  0.102895  1
  F  F23  1  0.089119  0.402846  0.090397  1
  F  F24  1  0.281445  0.194762  0.348858  1
  F  F25  1  0.843767  0.844950  0.897105  1
