# generated using pymatgen
data_Y5Er5InBi5
_symmetry_space_group_name_H-M   'P 1'
_cell_length_a   9.12447100
_cell_length_b   9.14290390
_cell_length_c   6.46009000
_cell_angle_alpha   90.00000000
_cell_angle_beta   90.00000000
_cell_angle_gamma   120.06684877
_symmetry_Int_Tables_number   1
_chemical_formula_structural   Y5Er5InBi5
_chemical_formula_sum   'Y5 Er5 In1 Bi5'
_cell_volume   466.41027566
_cell_formula_units_Z   1
loop_
 _symmetry_equiv_pos_site_id
 _symmetry_equiv_pos_as_xyz
  1  'x, y, z'
loop_
 _atom_site_type_symbol
 _atom_site_label
 _atom_site_symmetry_multiplicity
 _atom_site_fract_x
 _atom_site_fract_y
 _atom_site_fract_z
 _atom_site_occupancy
  Y  Y0  1  0.758981  0.757680  0.750000  1
  Y  Y1  1  0.241019  0.998699  0.750000  1
  Y  Y2  1  0.235871  0.243316  0.250000  1
  Y  Y3  1  0.764129  0.007445  0.250000  1
  Y  Y4  1  0.000000  0.755304  0.250000  1
  Er  Er5  1  0.671981  0.334266  0.000922  1
  Er  Er6  1  0.328019  0.662287  0.000922  1
  Er  Er7  1  0.328019  0.662287  0.499078  1
  Er  Er8  1  0.671981  0.334266  0.499078  1
  Er  Er9  1  0.000000  0.241493  0.750000  1
  In  In10  1  0.000000  0.395322  0.250000  1
  Bi  Bi11  1  0.391522  0.389615  0.750000  1
  Bi  Bi12  1  0.608478  0.998093  0.750000  1
  Bi  Bi13  1  0.000000  0.607624  0.750000  1
  Bi  Bi14  1  0.609514  0.610909  0.250000  1
  Bi  Bi15  1  0.390486  0.001394  0.250000  1
