# generated using pymatgen
data_Lu12ZnFe3Hg
_symmetry_space_group_name_H-M   'P 1'
_cell_length_a   8.09507920
_cell_length_b   8.09348119
_cell_length_c   8.09508005
_cell_angle_alpha   108.20923001
_cell_angle_beta   108.76854008
_cell_angle_gamma   111.46299306
_symmetry_Int_Tables_number   1
_chemical_formula_structural   Lu12ZnFe3Hg
_chemical_formula_sum   'Lu12 Zn1 Fe3 Hg1'
_cell_volume   407.85688201
_cell_formula_units_Z   1
loop_
 _symmetry_equiv_pos_site_id
 _symmetry_equiv_pos_as_xyz
  1  'x, y, z'
loop_
 _atom_site_type_symbol
 _atom_site_label
 _atom_site_symmetry_multiplicity
 _atom_site_fract_x
 _atom_site_fract_y
 _atom_site_fract_z
 _atom_site_occupancy
  Lu  Lu0  1  0.309344  0.308228  0.617570  1
  Lu  Lu1  1  0.690656  0.691772  0.382430  1
  Lu  Lu2  1  0.690658  0.308228  0.998884  1
  Lu  Lu3  1  0.309342  0.691772  0.001116  1
  Lu  Lu4  1  0.187961  0.423637  0.235676  1
  Lu  Lu5  1  0.812039  0.576363  0.764324  1
  Lu  Lu6  1  0.188000  0.952450  0.764452  1
  Lu  Lu7  1  0.944052  0.187877  0.756215  1
  Lu  Lu8  1  0.812000  0.047550  0.235548  1
  Lu  Lu9  1  0.055948  0.812123  0.243785  1
  Lu  Lu10  1  0.431662  0.187877  0.243824  1
  Lu  Lu11  1  0.568338  0.812123  0.756176  1
  Zn  Zn12  1  0.500000  0.000000  0.500000  1
  Fe  Fe13  1  0.381408  0.381818  0.000410  1
  Fe  Fe14  1  0.618592  0.618182  0.999590  1
  Fe  Fe15  1  0.000000  0.000000  0.000000  1
  Hg  Hg16  1  0.000000  0.500000  0.500000  1
