# generated using pymatgen
data_PrSm7ZnCu(Si6Pd)2
_symmetry_space_group_name_H-M   'P 1'
_cell_length_a   8.17356100
_cell_length_b   8.17356221
_cell_length_c   8.42567300
_cell_angle_alpha   90.00000000
_cell_angle_beta   90.00000000
_cell_angle_gamma   120.00000723
_symmetry_Int_Tables_number   1
_chemical_formula_structural   PrSm7ZnCu(Si6Pd)2
_chemical_formula_sum   'Pr1 Sm7 Zn1 Cu1 Si12 Pd2'
_cell_volume   487.48121058
_cell_formula_units_Z   1
loop_
 _symmetry_equiv_pos_site_id
 _symmetry_equiv_pos_as_xyz
  1  'x, y, z'
loop_
 _atom_site_type_symbol
 _atom_site_label
 _atom_site_symmetry_multiplicity
 _atom_site_fract_x
 _atom_site_fract_y
 _atom_site_fract_z
 _atom_site_occupancy
  Pr  Pr0  1  0.000000  0.000000  0.249515  1
  Sm  Sm1  1  0.499238  0.500762  0.750406  1
  Sm  Sm2  1  0.499763  0.500237  0.249599  1
  Sm  Sm3  1  0.001524  0.500762  0.750406  1
  Sm  Sm4  1  0.000473  0.500237  0.249599  1
  Sm  Sm5  1  0.499238  0.998476  0.750406  1
  Sm  Sm6  1  0.499763  0.999527  0.249599  1
  Sm  Sm7  1  0.000000  0.000000  0.750349  1
  Zn  Zn8  1  0.666667  0.333333  0.998366  1
  Cu  Cu9  1  0.333333  0.666667  0.001629  1
  Si  Si10  1  0.834279  0.165721  0.998350  1
  Si  Si11  1  0.170668  0.829332  0.998183  1
  Si  Si12  1  0.331441  0.165721  0.998350  1
  Si  Si13  1  0.166363  0.833637  0.501747  1
  Si  Si14  1  0.658664  0.829332  0.998183  1
  Si  Si15  1  0.833673  0.166327  0.501941  1
  Si  Si16  1  0.834279  0.668559  0.998350  1
  Si  Si17  1  0.667276  0.833637  0.501747  1
  Si  Si18  1  0.170668  0.341336  0.998183  1
  Si  Si19  1  0.332652  0.166327  0.501941  1
  Si  Si20  1  0.166363  0.332724  0.501747  1
  Si  Si21  1  0.833673  0.667348  0.501941  1
  Pd  Pd22  1  0.333333  0.666667  0.498895  1
  Pd  Pd23  1  0.666667  0.333333  0.500561  1
