# generated using pymatgen
data_SmTh3(CoB10)2
_symmetry_space_group_name_H-M   'P 1'
_cell_length_a   4.18321600
_cell_length_b   5.61943776
_cell_length_c   11.22925650
_cell_angle_alpha   90.11348412
_cell_angle_beta   90.00000000
_cell_angle_gamma   90.00000000
_symmetry_Int_Tables_number   1
_chemical_formula_structural   SmTh3(CoB10)2
_chemical_formula_sum   'Sm1 Th3 Co2 B20'
_cell_volume   263.96922996
_cell_formula_units_Z   1
loop_
 _symmetry_equiv_pos_site_id
 _symmetry_equiv_pos_as_xyz
  1  'x, y, z'
loop_
 _atom_site_type_symbol
 _atom_site_label
 _atom_site_symmetry_multiplicity
 _atom_site_fract_x
 _atom_site_fract_y
 _atom_site_fract_z
 _atom_site_occupancy
  Sm  Sm0  1  0.500000  0.302942  0.865311  1
  Th  Th1  1  0.500000  0.699167  0.133310  1
  Th  Th2  1  0.500000  0.802832  0.635202  1
  Th  Th3  1  0.500000  0.198490  0.365582  1
  Co  Co4  1  0.000000  0.500377  0.500214  1
  Co  Co5  1  0.000000  0.998410  0.000281  1
  B  B6  1  0.000000  0.126741  0.540615  1
  B  B7  1  0.000000  0.872833  0.460049  1
  B  B8  1  0.000000  0.626367  0.959454  1
  B  B9  1  0.000000  0.371707  0.039552  1
  B  B10  1  0.000000  0.153001  0.697627  1
  B  B11  1  0.000000  0.847742  0.302897  1
  B  B12  1  0.299857  0.200136  0.113221  1
  B  B13  1  0.299967  0.797424  0.886791  1
  B  B14  1  0.699620  0.700819  0.386590  1
  B  B15  1  0.700011  0.298880  0.614002  1
  B  B16  1  0.700033  0.797424  0.886791  1
  B  B17  1  0.700143  0.200136  0.113221  1
  B  B18  1  0.299989  0.298880  0.614002  1
  B  B19  1  0.300380  0.700819  0.386590  1
  B  B20  1  0.000000  0.034935  0.187161  1
  B  B21  1  0.000000  0.966111  0.813535  1
  B  B22  1  0.000000  0.535468  0.312352  1
  B  B23  1  0.000000  0.465905  0.686784  1
  B  B24  1  0.000000  0.348011  0.196308  1
  B  B25  1  0.000000  0.654442  0.802556  1
