# generated using pymatgen
data_Mg(ZrPd4)3
_symmetry_space_group_name_H-M   'P 1'
_cell_length_a   5.69962100
_cell_length_b   5.69962212
_cell_length_c   9.27432000
_cell_angle_alpha   90.00000000
_cell_angle_beta   90.00000000
_cell_angle_gamma   120.00001094
_symmetry_Int_Tables_number   1
_chemical_formula_structural   Mg(ZrPd4)3
_chemical_formula_sum   'Mg1 Zr3 Pd12'
_cell_volume   260.91839681
_cell_formula_units_Z   1
loop_
 _symmetry_equiv_pos_site_id
 _symmetry_equiv_pos_as_xyz
  1  'x, y, z'
loop_
 _atom_site_type_symbol
 _atom_site_label
 _atom_site_symmetry_multiplicity
 _atom_site_fract_x
 _atom_site_fract_y
 _atom_site_fract_z
 _atom_site_occupancy
  Mg  Mg0  1  0.333333  0.666667  0.750000  1
  Zr  Zr1  1  0.000000  0.000000  0.502676  1
  Zr  Zr2  1  0.000000  0.000000  0.997324  1
  Zr  Zr3  1  0.666667  0.333333  0.250000  1
  Pd  Pd4  1  0.500245  0.499755  0.499335  1
  Pd  Pd5  1  0.500245  0.000490  0.499335  1
  Pd  Pd6  1  0.999510  0.499755  0.499335  1
  Pd  Pd7  1  0.500245  0.499755  0.000665  1
  Pd  Pd8  1  0.500245  0.000490  0.000665  1
  Pd  Pd9  1  0.999510  0.499755  0.000665  1
  Pd  Pd10  1  0.168790  0.831210  0.250000  1
  Pd  Pd11  1  0.168790  0.337581  0.250000  1
  Pd  Pd12  1  0.662419  0.831210  0.250000  1
  Pd  Pd13  1  0.830779  0.169221  0.750000  1
  Pd  Pd14  1  0.830779  0.661555  0.750000  1
  Pd  Pd15  1  0.338445  0.169221  0.750000  1
