# generated using pymatgen
data_Ho4Lu6Tl5Bi
_symmetry_space_group_name_H-M   'P 1'
_cell_length_a   6.48717900
_cell_length_b   8.93516802
_cell_length_c   8.92503500
_cell_angle_alpha   120.04091761
_cell_angle_beta   89.99892248
_cell_angle_gamma   90.00284148
_symmetry_Int_Tables_number   1
_chemical_formula_structural   Ho4Lu6Tl5Bi
_chemical_formula_sum   'Ho4 Lu6 Tl5 Bi1'
_cell_volume   447.83697880
_cell_formula_units_Z   1
loop_
 _symmetry_equiv_pos_site_id
 _symmetry_equiv_pos_as_xyz
  1  'x, y, z'
loop_
 _atom_site_type_symbol
 _atom_site_label
 _atom_site_symmetry_multiplicity
 _atom_site_fract_x
 _atom_site_fract_y
 _atom_site_fract_z
 _atom_site_occupancy
  Ho  Ho0  1  0.750029  0.230633  0.000000  1
  Ho  Ho1  1  0.749984  0.766250  0.758139  1
  Ho  Ho2  1  0.749997  0.008108  0.241855  1
  Ho  Ho3  1  0.249974  0.762922  0.999993  1
  Lu  Lu4  1  0.495087  0.327941  0.661405  1
  Lu  Lu5  1  0.495081  0.666550  0.338591  1
  Lu  Lu6  1  0.004923  0.666540  0.338591  1
  Lu  Lu7  1  0.004912  0.327945  0.661418  1
  Lu  Lu8  1  0.250049  0.236619  0.235140  1
  Lu  Lu9  1  0.249994  0.001483  0.764885  1
  Tl  Tl10  1  0.749991  0.404255  0.402539  1
  Tl  Tl11  1  0.750012  0.001715  0.597471  1
  Tl  Tl12  1  0.249987  0.395527  0.999978  1
  Tl  Tl13  1  0.250014  0.600422  0.602216  1
  Tl  Tl14  1  0.249974  0.998188  0.397786  1
  Bi  Bi15  1  0.749996  0.604907  0.999991  1
