# generated using pymatgen
data_YHoMnFeOs2
_symmetry_space_group_name_H-M   'P 1'
_cell_length_a   5.27284870
_cell_length_b   5.27284894
_cell_length_c   5.29144815
_cell_angle_alpha   60.58486094
_cell_angle_beta   60.58485710
_cell_angle_gamma   59.35945639
_symmetry_Int_Tables_number   1
_chemical_formula_structural   YHoMnFeOs2
_chemical_formula_sum   'Y1 Ho1 Mn1 Fe1 Os2'
_cell_volume   104.41212863
_cell_formula_units_Z   1
loop_
 _symmetry_equiv_pos_site_id
 _symmetry_equiv_pos_as_xyz
  1  'x, y, z'
loop_
 _atom_site_type_symbol
 _atom_site_label
 _atom_site_symmetry_multiplicity
 _atom_site_fract_x
 _atom_site_fract_y
 _atom_site_fract_z
 _atom_site_occupancy
  Y  Y0  1  0.376861  0.376861  0.371164  1
  Ho  Ho1  1  0.622999  0.622999  0.629049  1
  Mn  Mn2  1  0.999983  0.999983  0.500133  1
  Fe  Fe3  1  0.999995  0.999995  0.999872  1
  Os  Os4  1  0.999937  0.500225  0.999891  1
  Os  Os5  1  0.500225  0.999937  0.999891  1
