# generated using pymatgen
data_Tb5TmAl18(Si3Ru4)2
_symmetry_space_group_name_H-M   'P 1'
_cell_length_a   8.66326372
_cell_length_b   8.66344019
_cell_length_c   9.54714000
_cell_angle_alpha   90.00000000
_cell_angle_beta   90.00000000
_cell_angle_gamma   119.81393518
_symmetry_Int_Tables_number   1
_chemical_formula_structural   Tb5TmAl18(Si3Ru4)2
_chemical_formula_sum   'Tb5 Tm1 Al18 Si6 Ru8'
_cell_volume   621.70885651
_cell_formula_units_Z   1
loop_
 _symmetry_equiv_pos_site_id
 _symmetry_equiv_pos_as_xyz
  1  'x, y, z'
loop_
 _atom_site_type_symbol
 _atom_site_label
 _atom_site_symmetry_multiplicity
 _atom_site_fract_x
 _atom_site_fract_y
 _atom_site_fract_z
 _atom_site_occupancy
  Tb  Tb0  1  0.807597  0.192245  0.750000  1
  Tb  Tb1  1  0.192362  0.807280  0.250000  1
  Tb  Tb2  1  0.387791  0.196907  0.750000  1
  Tb  Tb3  1  0.611880  0.802731  0.250000  1
  Tb  Tb4  1  0.802702  0.611597  0.750000  1
  Tm  Tm5  1  0.199021  0.391579  0.250000  1
  Al  Al6  1  0.835671  0.165090  0.420092  1
  Al  Al7  1  0.165032  0.835042  0.579303  1
  Al  Al8  1  0.329500  0.164796  0.421725  1
  Al  Al9  1  0.165032  0.835042  0.920697  1
  Al  Al10  1  0.669936  0.835392  0.577639  1
  Al  Al11  1  0.835671  0.165090  0.079908  1
  Al  Al12  1  0.835350  0.669910  0.422035  1
  Al  Al13  1  0.669936  0.835392  0.922361  1
  Al  Al14  1  0.164584  0.329936  0.577022  1
  Al  Al15  1  0.329500  0.164796  0.078275  1
  Al  Al16  1  0.164584  0.329936  0.922978  1
  Al  Al17  1  0.835350  0.669910  0.077965  1
  Al  Al18  1  0.126990  0.560173  0.750000  1
  Al  Al19  1  0.873722  0.439394  0.250000  1
  Al  Al20  1  0.439611  0.872975  0.750000  1
  Al  Al21  1  0.560482  0.127225  0.250000  1
  Al  Al22  1  0.000576  0.999170  0.750000  1
  Al  Al23  1  0.000582  0.003130  0.250000  1
  Si  Si24  1  0.667982  0.331519  0.961737  1
  Si  Si25  1  0.331515  0.667337  0.039335  1
  Si  Si26  1  0.331515  0.667337  0.460665  1
  Si  Si27  1  0.667982  0.331519  0.538263  1
  Si  Si28  1  0.436596  0.563134  0.750000  1
  Si  Si29  1  0.562048  0.436308  0.250000  1
  Ru  Ru30  1  0.499452  0.499754  0.000779  1
  Ru  Ru31  1  0.000292  0.499810  0.000609  1
  Ru  Ru32  1  0.499452  0.499754  0.499221  1
  Ru  Ru33  1  0.499790  0.999658  0.000339  1
  Ru  Ru34  1  0.000292  0.499810  0.499391  1
  Ru  Ru35  1  0.499790  0.999658  0.499661  1
  Ru  Ru36  1  0.999916  0.999834  0.000089  1
  Ru  Ru37  1  0.999916  0.999834  0.499911  1
