# generated using pymatgen
data_Sr2Si4Pt7
_symmetry_space_group_name_H-M   'P 1'
_cell_length_a   4.05059400
_cell_length_b   11.31528800
_cell_length_c   19.81063100
_cell_angle_alpha   90.00000000
_cell_angle_beta   90.00000000
_cell_angle_gamma   90.00000000
_symmetry_Int_Tables_number   1
_chemical_formula_structural   Sr2Si4Pt7
_chemical_formula_sum   'Sr8 Si16 Pt28'
_cell_volume   907.99328349
_cell_formula_units_Z   4
loop_
 _symmetry_equiv_pos_site_id
 _symmetry_equiv_pos_as_xyz
  1  'x, y, z'
loop_
 _atom_site_type_symbol
 _atom_site_label
 _atom_site_symmetry_multiplicity
 _atom_site_fract_x
 _atom_site_fract_y
 _atom_site_fract_z
 _atom_site_occupancy
  Sr  Sr0  1  0.250000  0.982863  0.720132  1
  Sr  Sr1  1  0.250000  0.517137  0.220132  1
  Sr  Sr2  1  0.750000  0.482863  0.779868  1
  Sr  Sr3  1  0.750000  0.243141  0.471957  1
  Sr  Sr4  1  0.250000  0.743141  0.028043  1
  Sr  Sr5  1  0.250000  0.756859  0.528043  1
  Sr  Sr6  1  0.750000  0.256859  0.971957  1
  Sr  Sr7  1  0.750000  0.017137  0.279868  1
  Si  Si8  1  0.250000  0.792304  0.240209  1
  Si  Si9  1  0.750000  0.578698  0.586542  1
  Si  Si10  1  0.250000  0.421302  0.413458  1
  Si  Si11  1  0.750000  0.207696  0.759791  1
  Si  Si12  1  0.750000  0.750559  0.907761  1
  Si  Si13  1  0.250000  0.060362  0.413108  1
  Si  Si14  1  0.250000  0.250559  0.592239  1
  Si  Si15  1  0.250000  0.439638  0.913108  1
  Si  Si16  1  0.750000  0.939637  0.586892  1
  Si  Si17  1  0.750000  0.749441  0.407761  1
  Si  Si18  1  0.750000  0.560363  0.086892  1
  Si  Si19  1  0.250000  0.249441  0.092239  1
  Si  Si20  1  0.750000  0.292304  0.259791  1
  Si  Si21  1  0.250000  0.078698  0.913458  1
  Si  Si22  1  0.750000  0.921302  0.086542  1
  Si  Si23  1  0.250000  0.707696  0.740209  1
  Pt  Pt24  1  0.250000  0.260480  0.848184  1
  Pt  Pt25  1  0.250000  0.637518  0.867429  1
  Pt  Pt26  1  0.750000  0.438819  0.343733  1
  Pt  Pt27  1  0.750000  0.788290  0.790142  1
  Pt  Pt28  1  0.250000  0.616788  0.372749  1
  Pt  Pt29  1  0.250000  0.883212  0.872749  1
  Pt  Pt30  1  0.250000  0.239520  0.348184  1
  Pt  Pt31  1  0.750000  0.061181  0.843733  1
  Pt  Pt32  1  0.250000  0.437375  0.533067  1
  Pt  Pt33  1  0.250000  0.062625  0.033067  1
  Pt  Pt34  1  0.750000  0.547505  0.956836  1
  Pt  Pt35  1  0.750000  0.952495  0.456836  1
  Pt  Pt36  1  0.750000  0.383212  0.627251  1
  Pt  Pt37  1  0.250000  0.561181  0.656267  1
  Pt  Pt38  1  0.250000  0.862482  0.367429  1
  Pt  Pt39  1  0.750000  0.562625  0.466933  1
  Pt  Pt40  1  0.250000  0.211710  0.209858  1
  Pt  Pt41  1  0.250000  0.288290  0.709858  1
  Pt  Pt42  1  0.750000  0.739520  0.151816  1
  Pt  Pt43  1  0.250000  0.938819  0.156267  1
  Pt  Pt44  1  0.750000  0.116788  0.127251  1
  Pt  Pt45  1  0.750000  0.937375  0.966933  1
  Pt  Pt46  1  0.750000  0.760480  0.651816  1
  Pt  Pt47  1  0.750000  0.362482  0.132571  1
  Pt  Pt48  1  0.250000  0.047505  0.543164  1
  Pt  Pt49  1  0.750000  0.137518  0.632571  1
  Pt  Pt50  1  0.750000  0.711710  0.290142  1
  Pt  Pt51  1  0.250000  0.452495  0.043164  1
