# generated using pymatgen
data_TbNd5Zn4Pt13
_symmetry_space_group_name_H-M   'P 1'
_cell_length_a   8.38176696
_cell_length_b   8.38176657
_cell_length_c   8.38176769
_cell_angle_alpha   109.51709893
_cell_angle_beta   109.51710410
_cell_angle_gamma   109.37950251
_symmetry_Int_Tables_number   1
_chemical_formula_structural   TbNd5Zn4Pt13
_chemical_formula_sum   'Tb1 Nd5 Zn4 Pt13'
_cell_volume   453.29821865
_cell_formula_units_Z   1
loop_
 _symmetry_equiv_pos_site_id
 _symmetry_equiv_pos_as_xyz
  1  'x, y, z'
loop_
 _atom_site_type_symbol
 _atom_site_label
 _atom_site_symmetry_multiplicity
 _atom_site_fract_x
 _atom_site_fract_y
 _atom_site_fract_z
 _atom_site_occupancy
  Tb  Tb0  1  0.695486  0.695486  0.000000  1
  Nd  Nd1  1  0.300588  0.999859  0.300729  1
  Nd  Nd2  1  0.999859  0.300588  0.300729  1
  Nd  Nd3  1  0.299437  0.299437  0.000000  1
  Nd  Nd4  1  0.699131  0.999859  0.699271  1
  Nd  Nd5  1  0.999859  0.699131  0.699271  1
  Zn  Zn6  1  0.000633  0.000633  0.499245  1
  Zn  Zn7  1  0.000633  0.501389  0.000000  1
  Zn  Zn8  1  0.501389  0.000633  0.000000  1
  Zn  Zn9  1  0.501389  0.501389  0.500755  1
  Pt  Pt10  1  0.333040  0.333040  0.664066  1
  Pt  Pt11  1  0.671690  0.998906  0.327216  1
  Pt  Pt12  1  0.998906  0.671690  0.327216  1
  Pt  Pt13  1  0.668972  0.333040  0.000000  1
  Pt  Pt14  1  0.329364  0.659259  0.329897  1
  Pt  Pt15  1  0.999467  0.329364  0.670103  1
  Pt  Pt16  1  0.333040  0.668972  0.000000  1
  Pt  Pt17  1  0.329364  0.999467  0.670103  1
  Pt  Pt18  1  0.659259  0.329364  0.329897  1
  Pt  Pt19  1  0.668972  0.668972  0.335934  1
  Pt  Pt20  1  0.671690  0.344475  0.672784  1
  Pt  Pt21  1  0.344475  0.671690  0.672784  1
  Pt  Pt22  1  0.993357  0.993357  0.000000  1
