# generated using pymatgen
data_Cd4Rh3AuO14
_symmetry_space_group_name_H-M   'P 1'
_cell_length_a   7.25028220
_cell_length_b   7.25933646
_cell_length_c   7.25933600
_cell_angle_alpha   59.99999299
_cell_angle_beta   59.95867392
_cell_angle_gamma   59.95867833
_symmetry_Int_Tables_number   1
_chemical_formula_structural   Cd4Rh3AuO14
_chemical_formula_sum   'Cd4 Rh3 Au1 O14'
_cell_volume   269.99900708
_cell_formula_units_Z   1
loop_
 _symmetry_equiv_pos_site_id
 _symmetry_equiv_pos_as_xyz
  1  'x, y, z'
loop_
 _atom_site_type_symbol
 _atom_site_label
 _atom_site_symmetry_multiplicity
 _atom_site_fract_x
 _atom_site_fract_y
 _atom_site_fract_z
 _atom_site_occupancy
  Cd  Cd0  1  0.125000  0.625000  0.125000  1
  Cd  Cd1  1  0.125000  0.125000  0.625000  1
  Cd  Cd2  1  0.625000  0.125000  0.125000  1
  Cd  Cd3  1  0.125000  0.125000  0.125000  1
  Rh  Rh4  1  0.625000  0.125000  0.625000  1
  Rh  Rh5  1  0.625000  0.625000  0.125000  1
  Rh  Rh6  1  0.625000  0.625000  0.625000  1
  Au  Au7  1  0.125000  0.625000  0.625000  1
  O  O8  1  0.689904  0.703578  0.303259  1
  O  O9  1  0.955383  0.539805  0.539805  1
  O  O10  1  0.560096  0.946741  0.946741  1
  O  O11  1  0.955383  0.965006  0.539805  1
  O  O12  1  0.955383  0.539805  0.965006  1
  O  O13  1  0.560096  0.946741  0.546422  1
  O  O14  1  0.294617  0.710195  0.284994  1
  O  O15  1  0.294617  0.710195  0.710195  1
  O  O16  1  0.689904  0.303259  0.303259  1
  O  O17  1  0.689904  0.303259  0.703578  1
  O  O18  1  0.560096  0.546422  0.946741  1
  O  O19  1  0.294617  0.284994  0.710195  1
  O  O20  1  0.256255  0.247915  0.247915  1
  O  O21  1  0.993745  0.002085  0.002085  1
