# generated using pymatgen
data_Tb4Ho6Ir3Ru
_symmetry_space_group_name_H-M   'P 1'
_cell_length_a   6.42794561
_cell_length_b   7.24610285
_cell_length_c   8.54892742
_cell_angle_alpha   96.92007785
_cell_angle_beta   112.32997103
_cell_angle_gamma   89.98390780
_symmetry_Int_Tables_number   1
_chemical_formula_structural   Tb4Ho6Ir3Ru
_chemical_formula_sum   'Tb4 Ho6 Ir3 Ru1'
_cell_volume   365.19618354
_cell_formula_units_Z   1
loop_
 _symmetry_equiv_pos_site_id
 _symmetry_equiv_pos_as_xyz
  1  'x, y, z'
loop_
 _atom_site_type_symbol
 _atom_site_label
 _atom_site_symmetry_multiplicity
 _atom_site_fract_x
 _atom_site_fract_y
 _atom_site_fract_z
 _atom_site_occupancy
  Tb  Tb0  1  0.979110  0.917971  0.187970  1
  Tb  Tb1  1  0.790080  0.582714  0.813247  1
  Tb  Tb2  1  0.023417  0.082286  0.813700  1
  Tb  Tb3  1  0.211359  0.415203  0.187703  1
  Ho  Ho4  1  0.642555  0.815647  0.435485  1
  Ho  Ho5  1  0.206920  0.685094  0.562651  1
  Ho  Ho6  1  0.356550  0.185408  0.562701  1
  Ho  Ho7  1  0.791749  0.314639  0.436698  1
  Ho  Ho8  1  0.424998  0.751126  0.000938  1
  Ho  Ho9  1  0.574992  0.249955  0.999995  1
  Ir  Ir10  1  0.821976  0.574993  0.222636  1
  Ir  Ir11  1  0.598528  0.924202  0.778436  1
  Ir  Ir12  1  0.179631  0.425603  0.777544  1
  Ru  Ru13  1  0.398136  0.075160  0.220296  1
