# generated using pymatgen
data_Ho4LuGaNiBi
_symmetry_space_group_name_H-M   'P 1'
_cell_length_a   8.50801626
_cell_length_b   8.50801592
_cell_length_c   8.68920882
_cell_angle_alpha   124.98544683
_cell_angle_beta   124.98544331
_cell_angle_gamma   80.14483419
_symmetry_Int_Tables_number   1
_chemical_formula_structural   Ho4LuGaNiBi
_chemical_formula_sum   'Ho8 Lu2 Ga2 Ni2 Bi2'
_cell_volume   410.40129878
_cell_formula_units_Z   2
loop_
 _symmetry_equiv_pos_site_id
 _symmetry_equiv_pos_as_xyz
  1  'x, y, z'
loop_
 _atom_site_type_symbol
 _atom_site_label
 _atom_site_symmetry_multiplicity
 _atom_site_fract_x
 _atom_site_fract_y
 _atom_site_fract_z
 _atom_site_occupancy
  Ho  Ho0  1  0.780615  0.280615  0.790613  1
  Ho  Ho1  1  0.219385  0.719385  0.209387  1
  Ho  Ho2  1  0.490003  0.990003  0.209387  1
  Ho  Ho3  1  0.304303  0.462028  0.500000  1
  Ho  Ho4  1  0.037972  0.195697  0.500000  1
  Ho  Ho5  1  0.509997  0.009997  0.790613  1
  Ho  Ho6  1  0.695697  0.537972  0.500000  1
  Ho  Ho7  1  0.962028  0.804303  0.500000  1
  Lu  Lu8  1  0.000000  0.000000  0.000000  1
  Lu  Lu9  1  0.500000  0.500000  0.000000  1
  Ga  Ga10  1  0.141621  0.641621  0.783241  1
  Ga  Ga11  1  0.858379  0.358379  0.216759  1
  Ni  Ni12  1  0.630076  0.869924  0.500000  1
  Ni  Ni13  1  0.369924  0.130076  0.500000  1
  Bi  Bi14  1  0.250000  0.250000  0.000000  1
  Bi  Bi15  1  0.750000  0.750000  0.000000  1
