# generated using pymatgen
data_Tb2Er6CdInPd2
_symmetry_space_group_name_H-M   'P 1'
_cell_length_a   9.65680768
_cell_length_b   9.65680712
_cell_length_c   9.67085300
_cell_angle_alpha   59.95187708
_cell_angle_beta   59.95187900
_cell_angle_gamma   59.93453925
_symmetry_Int_Tables_number   1
_chemical_formula_structural   Tb2Er6CdInPd2
_chemical_formula_sum   'Tb4 Er12 Cd2 In2 Pd4'
_cell_volume   636.92111742
_cell_formula_units_Z   2
loop_
 _symmetry_equiv_pos_site_id
 _symmetry_equiv_pos_as_xyz
  1  'x, y, z'
loop_
 _atom_site_type_symbol
 _atom_site_label
 _atom_site_symmetry_multiplicity
 _atom_site_fract_x
 _atom_site_fract_y
 _atom_site_fract_z
 _atom_site_occupancy
  Tb  Tb0  1  0.353561  0.353561  0.353631  1
  Tb  Tb1  1  0.353561  0.353561  0.939246  1
  Tb  Tb2  1  0.354172  0.937677  0.354075  1
  Tb  Tb3  1  0.937677  0.354172  0.354075  1
  Er  Er4  1  0.810760  0.189490  0.189060  1
  Er  Er5  1  0.189490  0.810760  0.810690  1
  Er  Er6  1  0.189490  0.810760  0.189060  1
  Er  Er7  1  0.810760  0.189490  0.810690  1
  Er  Er8  1  0.188370  0.188370  0.811630  1
  Er  Er9  1  0.809963  0.809963  0.190037  1
  Er  Er10  1  0.935863  0.566164  0.565691  1
  Er  Er11  1  0.566164  0.935863  0.932283  1
  Er  Er12  1  0.566164  0.935863  0.565691  1
  Er  Er13  1  0.935863  0.566164  0.932283  1
  Er  Er14  1  0.566371  0.566371  0.933629  1
  Er  Er15  1  0.935077  0.935077  0.564923  1
  Cd  Cd16  1  0.582419  0.249773  0.583903  1
  Cd  Cd17  1  0.249773  0.582419  0.583903  1
  In  In18  1  0.582834  0.582834  0.583926  1
  In  In19  1  0.582834  0.582834  0.250404  1
  Pd  Pd20  1  0.143139  0.143139  0.144048  1
  Pd  Pd21  1  0.143139  0.143139  0.569674  1
  Pd  Pd22  1  0.142706  0.569847  0.143723  1
  Pd  Pd23  1  0.569847  0.142706  0.143723  1
