# generated using pymatgen
data_CeY2(SiIr)2
_symmetry_space_group_name_H-M   'P 1'
_cell_length_a   5.70099850
_cell_length_b   5.70099886
_cell_length_c   13.25816163
_cell_angle_alpha   90.15147874
_cell_angle_beta   89.84852042
_cell_angle_gamma   138.06674981
_symmetry_Int_Tables_number   1
_chemical_formula_structural   CeY2(SiIr)2
_chemical_formula_sum   'Ce2 Y4 Si4 Ir4'
_cell_volume   287.95973578
_cell_formula_units_Z   2
loop_
 _symmetry_equiv_pos_site_id
 _symmetry_equiv_pos_as_xyz
  1  'x, y, z'
loop_
 _atom_site_type_symbol
 _atom_site_label
 _atom_site_symmetry_multiplicity
 _atom_site_fract_x
 _atom_site_fract_y
 _atom_site_fract_z
 _atom_site_occupancy
  Ce  Ce0  1  0.770414  0.229586  0.600489  1
  Ce  Ce1  1  0.229586  0.770414  0.399511  1
  Y  Y2  1  0.515383  0.484617  0.247569  1
  Y  Y3  1  0.776938  0.223062  0.896088  1
  Y  Y4  1  0.484617  0.515383  0.752431  1
  Y  Y5  1  0.223062  0.776938  0.103912  1
  Si  Si6  1  0.059005  0.940995  0.591354  1
  Si  Si7  1  0.064891  0.935109  0.910478  1
  Si  Si8  1  0.940995  0.059005  0.408646  1
  Si  Si9  1  0.935109  0.064891  0.089522  1
  Ir  Ir10  1  0.807236  0.192764  0.252921  1
  Ir  Ir11  1  0.192764  0.807236  0.747079  1
  Ir  Ir12  1  0.500000  0.500000  0.000000  1
  Ir  Ir13  1  0.500000  0.500000  0.500000  1
