# generated using pymatgen
data_Tb3Y3Al24CuOs7
_symmetry_space_group_name_H-M   'P 1'
_cell_length_a   8.81283580
_cell_length_b   8.83967402
_cell_length_c   9.57325761
_cell_angle_alpha   89.96685613
_cell_angle_beta   89.83512291
_cell_angle_gamma   119.76352443
_symmetry_Int_Tables_number   1
_chemical_formula_structural   Tb3Y3Al24CuOs7
_chemical_formula_sum   'Tb3 Y3 Al24 Cu1 Os7'
_cell_volume   647.39493425
_cell_formula_units_Z   1
loop_
 _symmetry_equiv_pos_site_id
 _symmetry_equiv_pos_as_xyz
  1  'x, y, z'
loop_
 _atom_site_type_symbol
 _atom_site_label
 _atom_site_symmetry_multiplicity
 _atom_site_fract_x
 _atom_site_fract_y
 _atom_site_fract_z
 _atom_site_occupancy
  Tb  Tb0  1  0.389207  0.194825  0.747382  1
  Tb  Tb1  1  0.193484  0.809534  0.249291  1
  Tb  Tb2  1  0.806550  0.190528  0.750702  1
  Y  Y3  1  0.192599  0.383471  0.249972  1
  Y  Y4  1  0.807339  0.616516  0.750026  1
  Y  Y5  1  0.610497  0.804992  0.252574  1
  Al  Al6  1  0.335566  0.667971  0.019387  1
  Al  Al7  1  0.664517  0.332083  0.980650  1
  Al  Al8  1  0.667881  0.333557  0.519117  1
  Al  Al9  1  0.332227  0.666503  0.480813  1
  Al  Al10  1  0.163102  0.327478  0.574369  1
  Al  Al11  1  0.836891  0.672530  0.425645  1
  Al  Al12  1  0.672365  0.835817  0.576329  1
  Al  Al13  1  0.831677  0.674790  0.078613  1
  Al  Al14  1  0.327629  0.164178  0.423616  1
  Al  Al15  1  0.168289  0.325209  0.921374  1
  Al  Al16  1  0.162749  0.835057  0.574453  1
  Al  Al17  1  0.327673  0.164166  0.076357  1
  Al  Al18  1  0.837195  0.164889  0.425573  1
  Al  Al19  1  0.672329  0.835832  0.923699  1
  Al  Al20  1  0.831854  0.156936  0.078343  1
  Al  Al21  1  0.168103  0.843021  0.921646  1
  Al  Al22  1  0.560361  0.122886  0.249470  1
  Al  Al23  1  0.439648  0.876998  0.750555  1
  Al  Al24  1  0.877460  0.438809  0.250051  1
  Al  Al25  1  0.122491  0.561181  0.749921  1
  Al  Al26  1  0.560510  0.437557  0.249260  1
  Al  Al27  1  0.439518  0.562590  0.750759  1
  Al  Al28  1  0.000820  0.000746  0.250233  1
  Al  Al29  1  0.999280  0.999310  0.749762  1
  Cu  Cu30  1  0.000035  0.500019  0.000006  1
  Os  Os31  1  0.500040  0.999934  0.000063  1
  Os  Os32  1  0.500049  0.999971  0.499993  1
  Os  Os33  1  0.500038  0.500074  0.000047  1
  Os  Os34  1  0.000068  0.500028  0.499960  1
  Os  Os35  1  0.500047  0.500065  0.499991  1
  Os  Os36  1  0.999977  0.999982  0.000040  1
  Os  Os37  1  0.999935  0.999966  0.499961  1
