# generated using pymatgen
data_Li30Si7Pb
_symmetry_space_group_name_H-M   'P 1'
_cell_length_a   9.23030028
_cell_length_b   9.23029985
_cell_length_c   9.25499500
_cell_angle_alpha   109.52542430
_cell_angle_beta   109.52542334
_cell_angle_gamma   109.41696454
_symmetry_Int_Tables_number   1
_chemical_formula_structural   Li30Si7Pb
_chemical_formula_sum   'Li30 Si7 Pb1'
_cell_volume   606.58962058
_cell_formula_units_Z   1
loop_
 _symmetry_equiv_pos_site_id
 _symmetry_equiv_pos_as_xyz
  1  'x, y, z'
loop_
 _atom_site_type_symbol
 _atom_site_label
 _atom_site_symmetry_multiplicity
 _atom_site_fract_x
 _atom_site_fract_y
 _atom_site_fract_z
 _atom_site_occupancy
  Li  Li0  1  0.336020  0.804259  0.728089  1
  Li  Li1  1  0.123381  0.749083  0.873389  1
  Li  Li2  1  0.732489  0.356656  0.819326  1
  Li  Li3  1  0.624167  0.767511  0.586836  1
  Li  Li4  1  0.031268  0.913435  0.690917  1
  Li  Li5  1  0.086549  0.275631  0.117031  1
  Li  Li6  1  0.915116  0.693180  0.033009  1
  Li  Li7  1  0.275352  0.117040  0.085785  1
  Li  Li8  1  0.189082  0.413451  0.530481  1
  Li  Li9  1  0.778064  0.584884  0.617893  1
  Li  Li10  1  0.695741  0.031761  0.923830  1
  Li  Li11  1  0.533037  0.196414  0.406364  1
  Li  Li12  1  0.625702  0.376619  0.250009  1
  Li  Li13  1  0.468239  0.163980  0.892069  1
  Li  Li14  1  0.884817  0.127536  0.754367  1
  Li  Li15  1  0.968038  0.381740  0.658825  1
  Li  Li16  1  0.413702  0.531962  0.190788  1
  Li  Li17  1  0.118260  0.086298  0.277086  1
  Li  Li18  1  0.303586  0.836622  0.209949  1
  Li  Li19  1  0.750917  0.874298  0.124306  1
  Li  Li20  1  0.882166  0.468732  0.159649  1
  Li  Li21  1  0.586565  0.617834  0.777482  1
  Li  Li22  1  0.382960  0.658311  0.968745  1
  Li  Li23  1  0.806820  0.721936  0.339829  1
  Li  Li24  1  0.663378  0.966963  0.373327  1
  Li  Li25  1  0.143344  0.875833  0.462670  1
  Li  Li26  1  0.224369  0.310918  0.841399  1
  Li  Li27  1  0.372464  0.257281  0.626831  1
  Li  Li28  1  0.841689  0.224648  0.310433  1
  Li  Li29  1  0.242719  0.615183  0.369550  1
  Si  Si30  1  0.584639  0.500766  0.000401  1
  Si  Si31  1  0.500000  0.000000  0.084444  1
  Si  Si32  1  0.001097  0.085355  0.500870  1
  Si  Si33  1  0.999234  0.583873  0.499635  1
  Si  Si34  1  0.084258  0.498903  0.999773  1
  Si  Si35  1  0.414645  0.415742  0.415515  1
  Si  Si36  1  0.916127  0.915361  0.915762  1
  Pb  Pb37  1  0.500000  0.000000  0.583333  1
