# generated using pymatgen
data_ZrScRe4
_symmetry_space_group_name_H-M   'P 1'
_cell_length_a   5.31010200
_cell_length_b   5.31010267
_cell_length_c   8.63236600
_cell_angle_alpha   90.00000000
_cell_angle_beta   90.00000000
_cell_angle_gamma   119.99999584
_symmetry_Int_Tables_number   1
_chemical_formula_structural   ZrScRe4
_chemical_formula_sum   'Zr2 Sc2 Re8'
_cell_volume   210.79789844
_cell_formula_units_Z   2
loop_
 _symmetry_equiv_pos_site_id
 _symmetry_equiv_pos_as_xyz
  1  'x, y, z'
loop_
 _atom_site_type_symbol
 _atom_site_label
 _atom_site_symmetry_multiplicity
 _atom_site_fract_x
 _atom_site_fract_y
 _atom_site_fract_z
 _atom_site_occupancy
  Zr  Zr0  1  0.333333  0.666667  0.437065  1
  Zr  Zr1  1  0.666667  0.333333  0.937065  1
  Sc  Sc2  1  0.666667  0.333333  0.562854  1
  Sc  Sc3  1  0.333333  0.666667  0.062854  1
  Re  Re4  1  0.656929  0.828465  0.749897  1
  Re  Re5  1  0.343071  0.171535  0.249897  1
  Re  Re6  1  0.828465  0.171535  0.249897  1
  Re  Re7  1  0.171535  0.343071  0.749897  1
  Re  Re8  1  0.171535  0.828465  0.749897  1
  Re  Re9  1  0.828465  0.656929  0.249897  1
  Re  Re10  1  0.000000  0.000000  0.500391  1
  Re  Re11  1  0.000000  0.000000  0.000391  1
