# generated using pymatgen
data_CaNdTaFeO6
_symmetry_space_group_name_H-M   'P 1'
_cell_length_a   5.56724666
_cell_length_b   7.84896120
_cell_length_c   11.66026604
_cell_angle_alpha   89.99016612
_cell_angle_beta   89.99253584
_cell_angle_gamma   89.08389243
_symmetry_Int_Tables_number   1
_chemical_formula_structural   CaNdTaFeO6
_chemical_formula_sum   'Ca4 Nd4 Ta4 Fe4 O24'
_cell_volume   509.45470648
_cell_formula_units_Z   4
loop_
 _symmetry_equiv_pos_site_id
 _symmetry_equiv_pos_as_xyz
  1  'x, y, z'
loop_
 _atom_site_type_symbol
 _atom_site_label
 _atom_site_symmetry_multiplicity
 _atom_site_fract_x
 _atom_site_fract_y
 _atom_site_fract_z
 _atom_site_occupancy
  Ca  Ca0  1  0.515012  0.251372  0.278447  1
  Ca  Ca1  1  0.515038  0.251377  0.778439  1
  Ca  Ca2  1  0.015244  0.751381  0.471523  1
  Ca  Ca3  1  0.015347  0.751370  0.971564  1
  Nd  Nd4  1  0.981741  0.246981  0.033228  1
  Nd  Nd5  1  0.981392  0.246915  0.533141  1
  Nd  Nd6  1  0.481608  0.746810  0.216944  1
  Nd  Nd7  1  0.481955  0.746844  0.716896  1
  Ta  Ta8  1  0.000159  0.499203  0.253451  1
  Ta  Ta9  1  0.000065  0.499174  0.753560  1
  Ta  Ta10  1  0.500146  0.999207  0.496563  1
  Ta  Ta11  1  0.500035  0.999159  0.996435  1
  Fe  Fe12  1  0.999344  0.999559  0.751666  1
  Fe  Fe13  1  0.499391  0.499496  0.998307  1
  Fe  Fe14  1  0.999408  0.999509  0.251690  1
  Fe  Fe15  1  0.499329  0.499417  0.498273  1
  O  O16  1  0.604064  0.755361  0.017090  1
  O  O17  1  0.604035  0.755446  0.517098  1
  O  O18  1  0.103856  0.255476  0.232941  1
  O  O19  1  0.103794  0.255349  0.732958  1
  O  O20  1  0.210630  0.949706  0.092882  1
  O  O21  1  0.210459  0.949633  0.592916  1
  O  O22  1  0.710401  0.449834  0.157180  1
  O  O23  1  0.710504  0.449898  0.657229  1
  O  O24  1  0.184543  0.556366  0.108622  1
  O  O25  1  0.184632  0.556278  0.608538  1
  O  O26  1  0.684614  0.056440  0.141408  1
  O  O27  1  0.684426  0.056524  0.641295  1
  O  O28  1  0.891868  0.744510  0.269015  1
  O  O29  1  0.892281  0.744673  0.769034  1
  O  O30  1  0.391550  0.244480  0.480938  1
  O  O31  1  0.391975  0.244655  0.980918  1
  O  O32  1  0.292935  0.552892  0.343178  1
  O  O33  1  0.293172  0.552862  0.843121  1
  O  O34  1  0.792769  0.053080  0.406722  1
  O  O35  1  0.792999  0.053107  0.906767  1
  O  O36  1  0.319629  0.943875  0.353848  1
  O  O37  1  0.320058  0.943808  0.853985  1
  O  O38  1  0.819575  0.443992  0.396141  1
  O  O39  1  0.820008  0.443972  0.896049  1
