# generated using pymatgen
data_Pr3Nd2W2C7
_symmetry_space_group_name_H-M   'P 1'
_cell_length_a   8.82385566
_cell_length_b   8.80573647
_cell_length_c   3.56265500
_cell_angle_alpha   90.00000000
_cell_angle_beta   90.00000000
_cell_angle_gamma   124.97470843
_symmetry_Int_Tables_number   1
_chemical_formula_structural   Pr3Nd2W2C7
_chemical_formula_sum   'Pr3 Nd2 W2 C7'
_cell_volume   226.82793485
_cell_formula_units_Z   1
loop_
 _symmetry_equiv_pos_site_id
 _symmetry_equiv_pos_as_xyz
  1  'x, y, z'
loop_
 _atom_site_type_symbol
 _atom_site_label
 _atom_site_symmetry_multiplicity
 _atom_site_fract_x
 _atom_site_fract_y
 _atom_site_fract_z
 _atom_site_occupancy
  Pr  Pr0  1  0.500000  0.500000  0.000000  1
  Pr  Pr1  1  0.066441  0.323768  0.500000  1
  Pr  Pr2  1  0.933559  0.676232  0.500000  1
  Nd  Nd3  1  0.672837  0.932968  0.500000  1
  Nd  Nd4  1  0.327163  0.067032  0.500000  1
  W  W5  1  0.712813  0.287273  0.000000  1
  W  W6  1  0.287187  0.712727  0.000000  1
  C  C7  1  0.633956  0.365294  0.500000  1
  C  C8  1  0.366044  0.634706  0.500000  1
  C  C9  1  0.000000  0.000000  0.000000  1
  C  C10  1  0.168103  0.164151  0.000000  1
  C  C11  1  0.831897  0.835849  0.000000  1
  C  C12  1  0.000000  0.500000  0.000000  1
  C  C13  1  0.500000  0.000000  0.000000  1
