# generated using pymatgen
data_Hf4ZrCoAs3
_symmetry_space_group_name_H-M   'P 1'
_cell_length_a   3.69836000
_cell_length_b   10.46397100
_cell_length_c   17.44221400
_cell_angle_alpha   90.00000000
_cell_angle_beta   90.00000000
_cell_angle_gamma   90.00000000
_symmetry_Int_Tables_number   1
_chemical_formula_structural   Hf4ZrCoAs3
_chemical_formula_sum   'Hf16 Zr4 Co4 As12'
_cell_volume   675.00551514
_cell_formula_units_Z   4
loop_
 _symmetry_equiv_pos_site_id
 _symmetry_equiv_pos_as_xyz
  1  'x, y, z'
loop_
 _atom_site_type_symbol
 _atom_site_label
 _atom_site_symmetry_multiplicity
 _atom_site_fract_x
 _atom_site_fract_y
 _atom_site_fract_z
 _atom_site_occupancy
  Hf  Hf0  1  0.250000  0.879005  0.477537  1
  Hf  Hf1  1  0.750000  0.120995  0.522463  1
  Hf  Hf2  1  0.750000  0.379005  0.022463  1
  Hf  Hf3  1  0.250000  0.620995  0.977537  1
  Hf  Hf4  1  0.250000  0.943713  0.077105  1
  Hf  Hf5  1  0.750000  0.056287  0.922895  1
  Hf  Hf6  1  0.750000  0.443713  0.422895  1
  Hf  Hf7  1  0.250000  0.556287  0.577105  1
  Hf  Hf8  1  0.250000  0.242132  0.166652  1
  Hf  Hf9  1  0.750000  0.757868  0.833348  1
  Hf  Hf10  1  0.750000  0.742132  0.333348  1
  Hf  Hf11  1  0.250000  0.257868  0.666652  1
  Hf  Hf12  1  0.250000  0.515689  0.276291  1
  Hf  Hf13  1  0.750000  0.484311  0.723709  1
  Hf  Hf14  1  0.750000  0.015689  0.223709  1
  Hf  Hf15  1  0.250000  0.984311  0.776291  1
  Zr  Zr16  1  0.250000  0.184540  0.367964  1
  Zr  Zr17  1  0.750000  0.815460  0.632036  1
  Zr  Zr18  1  0.750000  0.684540  0.132036  1
  Zr  Zr19  1  0.250000  0.315460  0.867964  1
  Co  Co20  1  0.250000  0.630967  0.408011  1
  Co  Co21  1  0.750000  0.369033  0.591989  1
  Co  Co22  1  0.750000  0.130967  0.091989  1
  Co  Co23  1  0.250000  0.869033  0.908011  1
  As  As24  1  0.250000  0.490240  0.118503  1
  As  As25  1  0.750000  0.509760  0.881497  1
  As  As26  1  0.750000  0.990240  0.381497  1
  As  As27  1  0.250000  0.009760  0.618503  1
  As  As28  1  0.250000  0.815814  0.219696  1
  As  As29  1  0.750000  0.184186  0.780304  1
  As  As30  1  0.750000  0.315814  0.280304  1
  As  As31  1  0.250000  0.684186  0.719696  1
  As  As32  1  0.250000  0.188423  0.007968  1
  As  As33  1  0.750000  0.811577  0.992032  1
  As  As34  1  0.750000  0.688423  0.492032  1
  As  As35  1  0.250000  0.311577  0.507968  1
