# generated using pymatgen
data_LaY2ErCdNi
_symmetry_space_group_name_H-M   'P 1'
_cell_length_a   9.67147726
_cell_length_b   9.67147678
_cell_length_c   9.68313000
_cell_angle_alpha   59.96012718
_cell_angle_beta   59.96012882
_cell_angle_gamma   60.07974344
_symmetry_Int_Tables_number   1
_chemical_formula_structural   LaY2ErCdNi
_chemical_formula_sum   'La4 Y8 Er4 Cd4 Ni4'
_cell_volume   640.44982061
_cell_formula_units_Z   4
loop_
 _symmetry_equiv_pos_site_id
 _symmetry_equiv_pos_as_xyz
  1  'x, y, z'
loop_
 _atom_site_type_symbol
 _atom_site_label
 _atom_site_symmetry_multiplicity
 _atom_site_fract_x
 _atom_site_fract_y
 _atom_site_fract_z
 _atom_site_occupancy
  La  La0  1  0.600075  0.600075  0.600380  1
  La  La1  1  0.600075  0.600075  0.199469  1
  La  La2  1  0.600380  0.199469  0.600075  1
  La  La3  1  0.199469  0.600380  0.600075  1
  Y  Y4  1  0.434707  0.434707  0.065293  1
  Y  Y5  1  0.065293  0.065293  0.434707  1
  Y  Y6  1  0.184307  0.815693  0.815693  1
  Y  Y7  1  0.815693  0.184307  0.184307  1
  Y  Y8  1  0.815693  0.184307  0.815693  1
  Y  Y9  1  0.184307  0.815693  0.184307  1
  Y  Y10  1  0.814408  0.814408  0.185592  1
  Y  Y11  1  0.185592  0.185592  0.814408  1
  Er  Er12  1  0.063967  0.436033  0.436033  1
  Er  Er13  1  0.436033  0.063967  0.063967  1
  Er  Er14  1  0.436033  0.063967  0.436033  1
  Er  Er15  1  0.063967  0.436033  0.063967  1
  Cd  Cd16  1  0.832239  0.832239  0.832155  1
  Cd  Cd17  1  0.832239  0.832239  0.503365  1
  Cd  Cd18  1  0.832155  0.503365  0.832239  1
  Cd  Cd19  1  0.503365  0.832155  0.832239  1
  Ni  Ni20  1  0.388690  0.388690  0.395005  1
  Ni  Ni21  1  0.388690  0.388690  0.827616  1
  Ni  Ni22  1  0.395005  0.827616  0.388690  1
  Ni  Ni23  1  0.827616  0.395005  0.388690  1
