# generated using pymatgen
data_TbDyEr(Al3Os)4
_symmetry_space_group_name_H-M   'P 1'
_cell_length_a   8.81584104
_cell_length_b   8.81745198
_cell_length_c   9.58996100
_cell_angle_alpha   90.00000000
_cell_angle_beta   90.00000000
_cell_angle_gamma   119.98341950
_symmetry_Int_Tables_number   1
_chemical_formula_structural   TbDyEr(Al3Os)4
_chemical_formula_sum   'Tb2 Dy2 Er2 Al24 Os8'
_cell_volume   645.69416561
_cell_formula_units_Z   2
loop_
 _symmetry_equiv_pos_site_id
 _symmetry_equiv_pos_as_xyz
  1  'x, y, z'
loop_
 _atom_site_type_symbol
 _atom_site_label
 _atom_site_symmetry_multiplicity
 _atom_site_fract_x
 _atom_site_fract_y
 _atom_site_fract_z
 _atom_site_occupancy
  Tb  Tb0  1  0.613532  0.807074  0.250000  1
  Tb  Tb1  1  0.386468  0.192926  0.750000  1
  Dy  Dy2  1  0.192983  0.386291  0.250000  1
  Dy  Dy3  1  0.807017  0.613709  0.750000  1
  Er  Er4  1  0.194061  0.806135  0.250000  1
  Er  Er5  1  0.805939  0.193865  0.750000  1
  Al  Al6  1  0.332887  0.666732  0.017831  1
  Al  Al7  1  0.667113  0.333268  0.982169  1
  Al  Al8  1  0.667113  0.333268  0.517831  1
  Al  Al9  1  0.332887  0.666732  0.482169  1
  Al  Al10  1  0.163699  0.327368  0.575501  1
  Al  Al11  1  0.836301  0.672632  0.424499  1
  Al  Al12  1  0.672622  0.836153  0.575279  1
  Al  Al13  1  0.836301  0.672632  0.075501  1
  Al  Al14  1  0.327378  0.163847  0.424721  1
  Al  Al15  1  0.163699  0.327368  0.924499  1
  Al  Al16  1  0.163598  0.836155  0.573819  1
  Al  Al17  1  0.327378  0.163847  0.075279  1
  Al  Al18  1  0.836402  0.163845  0.426181  1
  Al  Al19  1  0.672622  0.836153  0.924721  1
  Al  Al20  1  0.836402  0.163845  0.073819  1
  Al  Al21  1  0.163598  0.836155  0.926181  1
  Al  Al22  1  0.560729  0.122900  0.250000  1
  Al  Al23  1  0.439271  0.877100  0.750000  1
  Al  Al24  1  0.877604  0.439376  0.250000  1
  Al  Al25  1  0.122396  0.560624  0.750000  1
  Al  Al26  1  0.561262  0.438365  0.250000  1
  Al  Al27  1  0.438738  0.561635  0.750000  1
  Al  Al28  1  0.000223  0.999408  0.250000  1
  Al  Al29  1  0.999777  0.000592  0.750000  1
  Os  Os30  1  0.500000  0.000000  0.000000  1
  Os  Os31  1  0.000000  0.500000  0.000000  1
  Os  Os32  1  0.500000  0.000000  0.500000  1
  Os  Os33  1  0.500000  0.500000  0.000000  1
  Os  Os34  1  0.000000  0.500000  0.500000  1
  Os  Os35  1  0.500000  0.500000  0.500000  1
  Os  Os36  1  0.000000  0.000000  0.000000  1
  Os  Os37  1  0.000000  0.000000  0.500000  1
