# generated using pymatgen
data_Hf2VMo3
_symmetry_space_group_name_H-M   'P 1'
_cell_length_a   5.30313688
_cell_length_b   5.30313619
_cell_length_c   5.30313690
_cell_angle_alpha   60.22904787
_cell_angle_beta   60.22904660
_cell_angle_gamma   60.22905499
_symmetry_Int_Tables_number   1
_chemical_formula_structural   Hf2VMo3
_chemical_formula_sum   'Hf2 V1 Mo3'
_cell_volume   106.00581951
_cell_formula_units_Z   1
loop_
 _symmetry_equiv_pos_site_id
 _symmetry_equiv_pos_as_xyz
  1  'x, y, z'
loop_
 _atom_site_type_symbol
 _atom_site_label
 _atom_site_symmetry_multiplicity
 _atom_site_fract_x
 _atom_site_fract_y
 _atom_site_fract_z
 _atom_site_occupancy
  Hf  Hf0  1  0.499900  0.499900  0.499900  1
  Hf  Hf1  1  0.750100  0.750100  0.750100  1
  V  V2  1  0.125000  0.125000  0.125000  1
  Mo  Mo3  1  0.625000  0.125000  0.125000  1
  Mo  Mo4  1  0.125000  0.625000  0.125000  1
  Mo  Mo5  1  0.125000  0.125000  0.625000  1
