# generated using pymatgen
data_Zr5Co16(TcP4)3
_symmetry_space_group_name_H-M   'P 1'
_cell_length_a   11.86455200
_cell_length_b   11.86455335
_cell_length_c   3.66012000
_cell_angle_alpha   90.00000000
_cell_angle_beta   90.00000000
_cell_angle_gamma   119.99999622
_symmetry_Int_Tables_number   1
_chemical_formula_structural   Zr5Co16(TcP4)3
_chemical_formula_sum   'Zr5 Co16 Tc3 P12'
_cell_volume   446.19912091
_cell_formula_units_Z   1
loop_
 _symmetry_equiv_pos_site_id
 _symmetry_equiv_pos_as_xyz
  1  'x, y, z'
loop_
 _atom_site_type_symbol
 _atom_site_label
 _atom_site_symmetry_multiplicity
 _atom_site_fract_x
 _atom_site_fract_y
 _atom_site_fract_z
 _atom_site_occupancy
  Zr  Zr0  1  0.666667  0.333333  0.000000  1
  Zr  Zr1  1  0.333333  0.666667  0.000000  1
  Zr  Zr2  1  0.819930  0.819930  0.500000  1
  Zr  Zr3  1  0.180070  0.000000  0.500000  1
  Zr  Zr4  1  0.000000  0.180070  0.500000  1
  Co  Co5  1  0.194702  0.374245  0.000000  1
  Co  Co6  1  0.179543  0.805298  0.000000  1
  Co  Co7  1  0.820457  0.625755  0.000000  1
  Co  Co8  1  0.805298  0.179543  0.000000  1
  Co  Co9  1  0.374245  0.194702  0.000000  1
  Co  Co10  1  0.128449  0.483657  0.500000  1
  Co  Co11  1  0.355208  0.871551  0.500000  1
  Co  Co12  1  0.516343  0.644792  0.500000  1
  Co  Co13  1  0.644792  0.516343  0.500000  1
  Co  Co14  1  0.871551  0.355208  0.500000  1
  Co  Co15  1  0.483657  0.128449  0.500000  1
  Co  Co16  1  0.000000  0.000000  0.000000  1
  Co  Co17  1  0.718504  0.000000  0.500000  1
  Co  Co18  1  0.000000  0.718504  0.500000  1
  Co  Co19  1  0.625755  0.820457  0.000000  1
  Co  Co20  1  0.281496  0.281496  0.500000  1
  Tc  Tc21  1  0.447447  0.447447  0.000000  1
  Tc  Tc22  1  0.552553  0.000000  0.000000  1
  Tc  Tc23  1  0.000000  0.552553  0.000000  1
  P  P24  1  0.641326  0.641326  0.000000  1
  P  P25  1  0.358674  0.000000  0.000000  1
  P  P26  1  0.000000  0.358674  0.000000  1
  P  P27  1  0.481209  0.314832  0.500000  1
  P  P28  1  0.685168  0.166378  0.500000  1
  P  P29  1  0.833622  0.518791  0.500000  1
  P  P30  1  0.518791  0.833622  0.500000  1
  P  P31  1  0.166378  0.685168  0.500000  1
  P  P32  1  0.823281  0.000000  0.000000  1
  P  P33  1  0.000000  0.823281  0.000000  1
  P  P34  1  0.314832  0.481209  0.500000  1
  P  P35  1  0.176719  0.176719  0.000000  1
