# generated using pymatgen
data_HoErPu2(NiP)4
_symmetry_space_group_name_H-M   'P 1'
_cell_length_a   3.90990200
_cell_length_b   3.90990247
_cell_length_c   15.24290300
_cell_angle_alpha   90.00000000
_cell_angle_beta   90.00000000
_cell_angle_gamma   119.99999603
_symmetry_Int_Tables_number   1
_chemical_formula_structural   HoErPu2(NiP)4
_chemical_formula_sum   'Ho1 Er1 Pu2 Ni4 P4'
_cell_volume   201.80416782
_cell_formula_units_Z   1
loop_
 _symmetry_equiv_pos_site_id
 _symmetry_equiv_pos_as_xyz
  1  'x, y, z'
loop_
 _atom_site_type_symbol
 _atom_site_label
 _atom_site_symmetry_multiplicity
 _atom_site_fract_x
 _atom_site_fract_y
 _atom_site_fract_z
 _atom_site_occupancy
  Ho  Ho0  1  0.000000  0.000000  0.250000  1
  Er  Er1  1  0.000000  0.000000  0.750000  1
  Pu  Pu2  1  0.000000  0.000000  0.500433  1
  Pu  Pu3  1  0.000000  0.000000  0.999567  1
  Ni  Ni4  1  0.333333  0.666667  0.368074  1
  Ni  Ni5  1  0.666667  0.333333  0.633480  1
  Ni  Ni6  1  0.666667  0.333333  0.866520  1
  Ni  Ni7  1  0.333333  0.666667  0.131926  1
  P  P8  1  0.333333  0.666667  0.876825  1
  P  P9  1  0.666667  0.333333  0.122738  1
  P  P10  1  0.666667  0.333333  0.377262  1
  P  P11  1  0.333333  0.666667  0.623175  1
