# generated using pymatgen
data_LiSc2Al7Fe3Si5
_symmetry_space_group_name_H-M   'P 1'
_cell_length_a   8.26960825
_cell_length_b   8.23949973
_cell_length_c   8.83866800
_cell_angle_alpha   90.00000000
_cell_angle_beta   90.00000000
_cell_angle_gamma   119.87963260
_symmetry_Int_Tables_number   1
_chemical_formula_structural   LiSc2Al7Fe3Si5
_chemical_formula_sum   'Li2 Sc4 Al14 Fe6 Si10'
_cell_volume   522.19019481
_cell_formula_units_Z   2
loop_
 _symmetry_equiv_pos_site_id
 _symmetry_equiv_pos_as_xyz
  1  'x, y, z'
loop_
 _atom_site_type_symbol
 _atom_site_label
 _atom_site_symmetry_multiplicity
 _atom_site_fract_x
 _atom_site_fract_y
 _atom_site_fract_z
 _atom_site_occupancy
  Li  Li0  1  0.205910  0.800079  0.250000  1
  Li  Li1  1  0.205910  0.405830  0.250000  1
  Sc  Sc2  1  0.605459  0.802729  0.250000  1
  Sc  Sc3  1  0.802741  0.198447  0.750000  1
  Sc  Sc4  1  0.802741  0.604295  0.750000  1
  Sc  Sc5  1  0.393976  0.196988  0.750000  1
  Al  Al6  1  0.163248  0.836099  0.927774  1
  Al  Al7  1  0.163248  0.327150  0.927774  1
  Al  Al8  1  0.672460  0.836230  0.921934  1
  Al  Al9  1  0.838146  0.162756  0.080746  1
  Al  Al10  1  0.838146  0.675389  0.080746  1
  Al  Al11  1  0.323737  0.161868  0.081458  1
  Al  Al12  1  0.838146  0.162756  0.419254  1
  Al  Al13  1  0.838146  0.675389  0.419254  1
  Al  Al14  1  0.323737  0.161868  0.418542  1
  Al  Al15  1  0.163248  0.836099  0.572226  1
  Al  Al16  1  0.163248  0.327150  0.572226  1
  Al  Al17  1  0.672460  0.836230  0.578066  1
  Al  Al18  1  0.004715  0.002358  0.250000  1
  Al  Al19  1  0.999393  0.999697  0.750000  1
  Fe  Fe20  1  0.501145  0.499977  0.501238  1
  Fe  Fe21  1  0.501145  0.001168  0.501238  1
  Fe  Fe22  1  0.995427  0.497713  0.503903  1
  Fe  Fe23  1  0.501145  0.499977  0.998762  1
  Fe  Fe24  1  0.501145  0.001168  0.998762  1
  Fe  Fe25  1  0.995427  0.497713  0.996097  1
  Si  Si26  1  0.559039  0.439013  0.250000  1
  Si  Si27  1  0.559039  0.120025  0.250000  1
  Si  Si28  1  0.889378  0.444689  0.250000  1
  Si  Si29  1  0.437122  0.559864  0.750000  1
  Si  Si30  1  0.437122  0.877258  0.750000  1
  Si  Si31  1  0.121890  0.560945  0.750000  1
  Si  Si32  1  0.325970  0.662986  0.446269  1
  Si  Si33  1  0.665112  0.332555  0.540723  1
  Si  Si34  1  0.665112  0.332555  0.959277  1
  Si  Si35  1  0.325970  0.662986  0.053731  1
