# generated using pymatgen
data_TiCo2P2W
_symmetry_space_group_name_H-M   'P 1'
_cell_length_a   3.58194700
_cell_length_b   5.96802800
_cell_length_c   6.82391900
_cell_angle_alpha   90.00000000
_cell_angle_beta   90.00000000
_cell_angle_gamma   90.00000000
_symmetry_Int_Tables_number   1
_chemical_formula_structural   TiCo2P2W
_chemical_formula_sum   'Ti2 Co4 P4 W2'
_cell_volume   145.87600823
_cell_formula_units_Z   2
loop_
 _symmetry_equiv_pos_site_id
 _symmetry_equiv_pos_as_xyz
  1  'x, y, z'
loop_
 _atom_site_type_symbol
 _atom_site_label
 _atom_site_symmetry_multiplicity
 _atom_site_fract_x
 _atom_site_fract_y
 _atom_site_fract_z
 _atom_site_occupancy
  Ti  Ti0  1  0.750000  0.025528  0.673105  1
  Ti  Ti1  1  0.750000  0.525528  0.826895  1
  Co  Co2  1  0.250000  0.855683  0.934686  1
  Co  Co3  1  0.250000  0.355683  0.565314  1
  Co  Co4  1  0.750000  0.144841  0.062029  1
  Co  Co5  1  0.750000  0.644841  0.437971  1
  P  P6  1  0.250000  0.228507  0.878208  1
  P  P7  1  0.250000  0.728507  0.621792  1
  P  P8  1  0.750000  0.774149  0.124106  1
  P  P9  1  0.750000  0.274149  0.375894  1
  W  W10  1  0.250000  0.971291  0.330660  1
  W  W11  1  0.250000  0.471291  0.169340  1
