# generated using pymatgen
data_TbNdCo4(B2Ru)4
_symmetry_space_group_name_H-M   'P 1'
_cell_length_a   7.26423067
_cell_length_b   7.24176182
_cell_length_c   3.91726300
_cell_angle_alpha   90.00000000
_cell_angle_beta   90.00000000
_cell_angle_gamma   89.98395767
_symmetry_Int_Tables_number   1
_chemical_formula_structural   TbNdCo4(B2Ru)4
_chemical_formula_sum   'Tb1 Nd1 Co4 B8 Ru4'
_cell_volume   206.07085666
_cell_formula_units_Z   1
loop_
 _symmetry_equiv_pos_site_id
 _symmetry_equiv_pos_as_xyz
  1  'x, y, z'
loop_
 _atom_site_type_symbol
 _atom_site_label
 _atom_site_symmetry_multiplicity
 _atom_site_fract_x
 _atom_site_fract_y
 _atom_site_fract_z
 _atom_site_occupancy
  Tb  Tb0  1  0.000000  0.000000  0.090378  1
  Nd  Nd1  1  0.500000  0.500000  0.579494  1
  Co  Co2  1  0.622723  0.116130  0.377077  1
  Co  Co3  1  0.377277  0.883870  0.377077  1
  Co  Co4  1  0.617849  0.878474  0.877465  1
  Co  Co5  1  0.382151  0.121526  0.877465  1
  B  B6  1  0.339990  0.821738  0.881518  1
  B  B7  1  0.660010  0.178262  0.881518  1
  B  B8  1  0.316538  0.156851  0.379384  1
  B  B9  1  0.683462  0.843149  0.379384  1
  B  B10  1  0.171511  0.733983  0.598275  1
  B  B11  1  0.828489  0.266017  0.598275  1
  B  B12  1  0.224755  0.325152  0.097514  1
  B  B13  1  0.775245  0.674848  0.097514  1
  Ru  Ru14  1  0.842986  0.388485  0.101801  1
  Ru  Ru15  1  0.157014  0.611515  0.101801  1
  Ru  Ru16  1  0.890677  0.662142  0.602029  1
  Ru  Ru17  1  0.109323  0.337858  0.602029  1
