# generated using pymatgen
data_Tm3CoSn3HgIr
_symmetry_space_group_name_H-M   'P 1'
_cell_length_a   7.57796900
_cell_length_b   7.57796818
_cell_length_c   3.86168700
_cell_angle_alpha   90.00000000
_cell_angle_beta   90.00000000
_cell_angle_gamma   119.99999923
_symmetry_Int_Tables_number   1
_chemical_formula_structural   Tm3CoSn3HgIr
_chemical_formula_sum   'Tm3 Co1 Sn3 Hg1 Ir1'
_cell_volume   192.04955563
_cell_formula_units_Z   1
loop_
 _symmetry_equiv_pos_site_id
 _symmetry_equiv_pos_as_xyz
  1  'x, y, z'
loop_
 _atom_site_type_symbol
 _atom_site_label
 _atom_site_symmetry_multiplicity
 _atom_site_fract_x
 _atom_site_fract_y
 _atom_site_fract_z
 _atom_site_occupancy
  Tm  Tm0  1  0.976063  0.386050  0.500000  1
  Tm  Tm1  1  0.613950  0.590013  0.500000  1
  Tm  Tm2  1  0.409987  0.023937  0.500000  1
  Co  Co3  1  0.000000  0.000000  0.500000  1
  Sn  Sn4  1  0.995117  0.751765  0.000000  1
  Sn  Sn5  1  0.248235  0.243352  0.000000  1
  Sn  Sn6  1  0.756648  0.004883  0.000000  1
  Hg  Hg7  1  0.333333  0.666667  0.000000  1
  Ir  Ir8  1  0.666667  0.333333  0.000000  1
