# generated using pymatgen
data_Hf5(UH10)3
_symmetry_space_group_name_H-M   'P 1'
_cell_length_a   7.17810843
_cell_length_b   7.09237296
_cell_length_c   7.13160261
_cell_angle_alpha   109.68239199
_cell_angle_beta   109.40703576
_cell_angle_gamma   109.10413939
_symmetry_Int_Tables_number   1
_chemical_formula_structural   Hf5(UH10)3
_chemical_formula_sum   'Hf5 U3 H30'
_cell_volume   280.24159297
_cell_formula_units_Z   1
loop_
 _symmetry_equiv_pos_site_id
 _symmetry_equiv_pos_as_xyz
  1  'x, y, z'
loop_
 _atom_site_type_symbol
 _atom_site_label
 _atom_site_symmetry_multiplicity
 _atom_site_fract_x
 _atom_site_fract_y
 _atom_site_fract_z
 _atom_site_occupancy
  Hf  Hf0  1  0.913486  0.908873  0.907411  1
  Hf  Hf1  1  0.501342  0.994900  0.089555  1
  Hf  Hf2  1  0.994118  0.100628  0.498668  1
  Hf  Hf3  1  0.088638  0.501088  0.992708  1
  Hf  Hf4  1  0.001198  0.604759  0.505265  1
  U  U5  1  0.592628  0.504947  0.006212  1
  U  U6  1  0.500391  0.994401  0.587791  1
  U  U7  1  0.409571  0.410038  0.410439  1
  H  H8  1  0.660116  0.960687  0.369389  1
  H  H9  1  0.208292  0.308236  0.835157  1
  H  H10  1  0.170224  0.406203  0.531197  1
  H  H11  1  0.079685  0.271778  0.105738  1
  H  H12  1  0.271909  0.104879  0.076367  1
  H  H13  1  0.105485  0.081413  0.272438  1
  H  H14  1  0.467906  0.142828  0.889434  1
  H  H15  1  0.743238  0.355010  0.821462  1
  H  H16  1  0.633822  0.374081  0.255278  1
  H  H17  1  0.236786  0.620373  0.371504  1
  H  H18  1  0.755443  0.879296  0.127059  1
  H  H19  1  0.122949  0.746978  0.871239  1
  H  H20  1  0.363350  0.243290  0.625734  1
  H  H21  1  0.875146  0.121688  0.748748  1
  H  H22  1  0.788825  0.593455  0.626658  1
  H  H23  1  0.304015  0.837128  0.208319  1
  H  H24  1  0.368938  0.657209  0.959198  1
  H  H25  1  0.963220  0.380091  0.654546  1
  H  H26  1  0.538205  0.176137  0.393762  1
  H  H27  1  0.392122  0.540983  0.179514  1
  H  H28  1  0.838120  0.219496  0.310455  1
  H  H29  1  0.925334  0.695064  0.032815  1
  H  H30  1  0.826167  0.736566  0.364061  1
  H  H31  1  0.144127  0.877544  0.473680  1
  H  H32  1  0.694585  0.027889  0.922906  1
  H  H33  1  0.334850  0.804898  0.728692  1
  H  H34  1  0.893741  0.476709  0.166865  1
  H  H35  1  0.648544  0.782288  0.601537  1
  H  H36  1  0.610002  0.642869  0.785668  1
  H  H37  1  0.033484  0.915302  0.692531  1
