# generated using pymatgen
data_Mg2SnB2Ir3Rh2
_symmetry_space_group_name_H-M   'P 1'
_cell_length_a   9.66702614
_cell_length_b   9.64747914
_cell_length_c   2.99776400
_cell_angle_alpha   90.00000000
_cell_angle_beta   90.00000000
_cell_angle_gamma   89.98034419
_symmetry_Int_Tables_number   1
_chemical_formula_structural   Mg2SnB2Ir3Rh2
_chemical_formula_sum   'Mg4 Sn2 B4 Ir6 Rh4'
_cell_volume   279.57874796
_cell_formula_units_Z   2
loop_
 _symmetry_equiv_pos_site_id
 _symmetry_equiv_pos_as_xyz
  1  'x, y, z'
loop_
 _atom_site_type_symbol
 _atom_site_label
 _atom_site_symmetry_multiplicity
 _atom_site_fract_x
 _atom_site_fract_y
 _atom_site_fract_z
 _atom_site_occupancy
  Mg  Mg0  1  0.676298  0.176415  0.000000  1
  Mg  Mg1  1  0.323090  0.824438  0.000000  1
  Mg  Mg2  1  0.176712  0.323338  0.000000  1
  Mg  Mg3  1  0.823789  0.675979  0.000000  1
  Sn  Sn4  1  0.999313  0.002100  0.000000  1
  Sn  Sn5  1  0.498125  0.500559  0.000000  1
  B  B6  1  0.121481  0.622541  0.000000  1
  B  B7  1  0.877018  0.378968  0.000000  1
  B  B8  1  0.622527  0.877643  0.000000  1
  B  B9  1  0.378181  0.121389  0.000000  1
  Ir  Ir10  1  0.500409  0.999716  0.500000  1
  Ir  Ir11  1  0.001005  0.499004  0.500000  1
  Ir  Ir12  1  0.223568  0.073065  0.500000  1
  Ir  Ir13  1  0.776972  0.926750  0.500000  1
  Ir  Ir14  1  0.072263  0.777399  0.500000  1
  Ir  Ir15  1  0.722464  0.426828  0.500000  1
  Rh  Rh16  1  0.929162  0.222592  0.500000  1
  Rh  Rh17  1  0.277601  0.571719  0.500000  1
  Rh  Rh18  1  0.570960  0.721584  0.500000  1
  Rh  Rh19  1  0.429061  0.277971  0.500000  1
