# generated using pymatgen
data_Ca2Sm3Si12Rh19
_symmetry_space_group_name_H-M   'P 1'
_cell_length_a   12.83642807
_cell_length_b   12.83417871
_cell_length_c   4.00085600
_cell_angle_alpha   90.00000000
_cell_angle_beta   90.00000000
_cell_angle_gamma   119.99420452
_symmetry_Int_Tables_number   1
_chemical_formula_structural   Ca2Sm3Si12Rh19
_chemical_formula_sum   'Ca2 Sm3 Si12 Rh19'
_cell_volume   570.84892187
_cell_formula_units_Z   1
loop_
 _symmetry_equiv_pos_site_id
 _symmetry_equiv_pos_as_xyz
  1  'x, y, z'
loop_
 _atom_site_type_symbol
 _atom_site_label
 _atom_site_symmetry_multiplicity
 _atom_site_fract_x
 _atom_site_fract_y
 _atom_site_fract_z
 _atom_site_occupancy
  Ca  Ca0  1  0.813844  0.813444  0.500000  1
  Ca  Ca1  1  0.186156  0.999600  0.500000  1
  Sm  Sm2  1  0.000000  0.184542  0.500000  1
  Sm  Sm3  1  0.667576  0.334214  0.000000  1
  Sm  Sm4  1  0.332424  0.666639  0.000000  1
  Si  Si5  1  0.475979  0.312211  0.500000  1
  Si  Si6  1  0.815916  0.998570  0.000000  1
  Si  Si7  1  0.184084  0.182654  0.000000  1
  Si  Si8  1  0.000000  0.816976  0.000000  1
  Si  Si9  1  0.372768  0.000066  0.000000  1
  Si  Si10  1  0.686310  0.162751  0.500000  1
  Si  Si11  1  0.837557  0.525098  0.500000  1
  Si  Si12  1  0.524021  0.836231  0.500000  1
  Si  Si13  1  0.162443  0.687541  0.500000  1
  Si  Si14  1  0.313690  0.476441  0.500000  1
  Si  Si15  1  0.000000  0.372385  0.000000  1
  Si  Si16  1  0.627232  0.627298  0.000000  1
  Rh  Rh17  1  0.806692  0.182624  0.000000  1
  Rh  Rh18  1  0.377373  0.193445  0.000000  1
  Rh  Rh19  1  0.638930  0.512693  0.500000  1
  Rh  Rh20  1  0.873383  0.360386  0.500000  1
  Rh  Rh21  1  0.361070  0.873763  0.500000  1
  Rh  Rh22  1  0.513364  0.639500  0.500000  1
  Rh  Rh23  1  0.126617  0.487003  0.500000  1
  Rh  Rh24  1  0.815795  0.622999  0.000000  1
  Rh  Rh25  1  0.622627  0.816072  0.000000  1
  Rh  Rh26  1  0.184205  0.807205  0.000000  1
  Rh  Rh27  1  0.193308  0.375932  0.000000  1
  Rh  Rh28  1  0.000000  0.721921  0.500000  1
  Rh  Rh29  1  0.279308  0.279221  0.500000  1
  Rh  Rh30  1  0.720692  0.999913  0.500000  1
  Rh  Rh31  1  0.000000  0.554350  0.000000  1
  Rh  Rh32  1  0.444312  0.446725  0.000000  1
  Rh  Rh33  1  0.555688  0.002413  0.000000  1
  Rh  Rh34  1  0.000000  0.001038  0.000000  1
  Rh  Rh35  1  0.486636  0.126135  0.500000  1
