# generated using pymatgen
data_Ta12Tc11B12Rh
_symmetry_space_group_name_H-M   'P 1'
_cell_length_a   3.17726000
_cell_length_b   9.07404868
_cell_length_c   15.71309782
_cell_angle_alpha   89.77911089
_cell_angle_beta   90.00000000
_cell_angle_gamma   90.00000000
_symmetry_Int_Tables_number   1
_chemical_formula_structural   Ta12Tc11B12Rh
_chemical_formula_sum   'Ta12 Tc11 B12 Rh1'
_cell_volume   453.01485863
_cell_formula_units_Z   1
loop_
 _symmetry_equiv_pos_site_id
 _symmetry_equiv_pos_as_xyz
  1  'x, y, z'
loop_
 _atom_site_type_symbol
 _atom_site_label
 _atom_site_symmetry_multiplicity
 _atom_site_fract_x
 _atom_site_fract_y
 _atom_site_fract_z
 _atom_site_occupancy
  Ta  Ta0  1  0.000000  0.805413  0.494325  1
  Ta  Ta1  1  0.000000  0.195086  0.506685  1
  Ta  Ta2  1  0.000000  0.304725  0.006329  1
  Ta  Ta3  1  0.000000  0.693450  0.992491  1
  Ta  Ta4  1  0.000000  0.517329  0.595366  1
  Ta  Ta5  1  0.000000  0.484803  0.404272  1
  Ta  Ta6  1  0.000000  0.016380  0.904318  1
  Ta  Ta7  1  0.000000  0.983276  0.095339  1
  Ta  Ta8  1  0.000000  0.675978  0.206800  1
  Ta  Ta9  1  0.000000  0.320063  0.792699  1
  Ta  Ta10  1  0.000000  0.186845  0.294616  1
  Ta  Ta11  1  0.000000  0.820242  0.707405  1
  Tc  Tc12  1  0.500000  0.720137  0.357104  1
  Tc  Tc13  1  0.500000  0.282296  0.641660  1
  Tc  Tc14  1  0.500000  0.214742  0.142395  1
  Tc  Tc15  1  0.500000  0.782282  0.858318  1
  Tc  Tc16  1  0.500000  0.518735  0.095879  1
  Tc  Tc17  1  0.500000  0.481414  0.905962  1
  Tc  Tc18  1  0.500000  0.019735  0.402350  1
  Tc  Tc19  1  0.500000  0.981280  0.593505  1
  Tc  Tc20  1  0.500000  0.567473  0.732287  1
  Tc  Tc21  1  0.500000  0.432642  0.267391  1
  Tc  Tc22  1  0.500000  0.069304  0.767226  1
  B  B23  1  0.500000  0.605110  0.493522  1
  B  B24  1  0.500000  0.396024  0.505878  1
  B  B25  1  0.500000  0.103508  0.005683  1
  B  B26  1  0.500000  0.894862  0.995157  1
  B  B27  1  0.000000  0.609514  0.832139  1
  B  B28  1  0.000000  0.388914  0.166706  1
  B  B29  1  0.000000  0.108956  0.666890  1
  B  B30  1  0.000000  0.888195  0.337449  1
  B  B31  1  0.500000  0.718245  0.603404  1
  B  B32  1  0.500000  0.284333  0.397868  1
  B  B33  1  0.500000  0.216702  0.897773  1
  B  B34  1  0.500000  0.780269  0.100453  1
  Rh  Rh35  1  0.500000  0.931741  0.232357  1
