# generated using pymatgen
data_Ho13Er6Tm(CoBi2)4
_symmetry_space_group_name_H-M   'P 1'
_cell_length_a   7.94562033
_cell_length_b   8.86408103
_cell_length_c   12.35364076
_cell_angle_alpha   90.01418019
_cell_angle_beta   89.97026073
_cell_angle_gamma   89.98842287
_symmetry_Int_Tables_number   1
_chemical_formula_structural   Ho13Er6Tm(CoBi2)4
_chemical_formula_sum   'Ho13 Er6 Tm1 Co4 Bi8'
_cell_volume   870.07444762
_cell_formula_units_Z   1
loop_
 _symmetry_equiv_pos_site_id
 _symmetry_equiv_pos_as_xyz
  1  'x, y, z'
loop_
 _atom_site_type_symbol
 _atom_site_label
 _atom_site_symmetry_multiplicity
 _atom_site_fract_x
 _atom_site_fract_y
 _atom_site_fract_z
 _atom_site_occupancy
  Ho  Ho0  1  0.347185  0.750023  0.699646  1
  Ho  Ho1  1  0.652837  0.249948  0.300207  1
  Ho  Ho2  1  0.847116  0.250091  0.800428  1
  Ho  Ho3  1  0.152580  0.750015  0.199667  1
  Ho  Ho4  1  0.884324  0.749956  0.811623  1
  Ho  Ho5  1  0.114689  0.250157  0.188407  1
  Ho  Ho6  1  0.384679  0.249860  0.688374  1
  Ho  Ho7  1  0.615400  0.750038  0.311530  1
  Ho  Ho8  1  0.175337  0.037826  0.937067  1
  Ho  Ho9  1  0.053403  0.749988  0.497795  1
  Ho  Ho10  1  0.946528  0.250035  0.502155  1
  Ho  Ho11  1  0.554197  0.249991  0.002227  1
  Ho  Ho12  1  0.447511  0.749838  0.997875  1
  Er  Er13  1  0.674796  0.537754  0.563042  1
  Er  Er14  1  0.325203  0.461874  0.436888  1
  Er  Er15  1  0.174872  0.462071  0.936793  1
  Er  Er16  1  0.325229  0.038118  0.436912  1
  Er  Er17  1  0.825027  0.538537  0.063452  1
  Er  Er18  1  0.674825  0.962257  0.563034  1
  Tm  Tm19  1  0.826306  0.961861  0.062954  1
  Co  Co20  1  0.064594  0.750139  0.992372  1
  Co  Co21  1  0.933582  0.249971  0.008016  1
  Co  Co22  1  0.565251  0.250005  0.507695  1
  Co  Co23  1  0.434767  0.749994  0.492229  1
  Bi  Bi24  1  0.570839  0.509195  0.826692  1
  Bi  Bi25  1  0.428872  0.490753  0.173250  1
  Bi  Bi26  1  0.070973  0.490745  0.673256  1
  Bi  Bi27  1  0.429034  0.009178  0.173010  1
  Bi  Bi28  1  0.928833  0.509333  0.326895  1
  Bi  Bi29  1  0.571471  0.990595  0.826672  1
  Bi  Bi30  1  0.928891  0.990717  0.326686  1
  Bi  Bi31  1  0.070848  0.009138  0.673154  1
