# generated using pymatgen
data_Zr10In3Ga2SnSb2
_symmetry_space_group_name_H-M   'P 1'
_cell_length_a   8.77368166
_cell_length_b   8.73764895
_cell_length_c   5.88346300
_cell_angle_alpha   90.00000000
_cell_angle_beta   90.00000000
_cell_angle_gamma   120.07335638
_symmetry_Int_Tables_number   1
_chemical_formula_structural   Zr10In3Ga2SnSb2
_chemical_formula_sum   'Zr10 In3 Ga2 Sn1 Sb2'
_cell_volume   390.31803930
_cell_formula_units_Z   1
loop_
 _symmetry_equiv_pos_site_id
 _symmetry_equiv_pos_as_xyz
  1  'x, y, z'
loop_
 _atom_site_type_symbol
 _atom_site_label
 _atom_site_symmetry_multiplicity
 _atom_site_fract_x
 _atom_site_fract_y
 _atom_site_fract_z
 _atom_site_occupancy
  Zr  Zr0  1  0.995002  0.264101  0.250000  1
  Zr  Zr1  1  0.729562  0.997312  0.750000  1
  Zr  Zr2  1  0.731796  0.736854  0.250000  1
  Zr  Zr3  1  0.664439  0.330851  0.499741  1
  Zr  Zr4  1  0.002898  0.736833  0.750000  1
  Zr  Zr5  1  0.268190  0.263615  0.750000  1
  Zr  Zr6  1  0.336245  0.669745  0.000102  1
  Zr  Zr7  1  0.664439  0.330851  0.000259  1
  Zr  Zr8  1  0.336245  0.669745  0.499898  1
  Zr  Zr9  1  0.270626  0.999504  0.250000  1
  In  In10  1  0.383907  0.385831  0.250000  1
  In  In11  1  0.998315  0.612420  0.250000  1
  In  In12  1  0.001494  0.387468  0.750000  1
  Ga  Ga13  1  0.001740  0.001698  0.001923  1
  Ga  Ga14  1  0.001740  0.001698  0.498077  1
  Sn  Sn15  1  0.613254  0.610933  0.750000  1
  Sb  Sb16  1  0.612763  0.000862  0.250000  1
  Sb  Sb17  1  0.387344  0.999680  0.750000  1
