# generated using pymatgen
data_Gd4MoI4
_symmetry_space_group_name_H-M   'P 1'
_cell_length_a   11.54557841
_cell_length_b   11.54557881
_cell_length_c   6.02527700
_cell_angle_alpha   90.33078711
_cell_angle_beta   90.33078216
_cell_angle_gamma   90.01312169
_symmetry_Int_Tables_number   1
_chemical_formula_structural   Gd4MoI4
_chemical_formula_sum   'Gd8 Mo2 I8'
_cell_volume   803.14494876
_cell_formula_units_Z   2
loop_
 _symmetry_equiv_pos_site_id
 _symmetry_equiv_pos_as_xyz
  1  'x, y, z'
loop_
 _atom_site_type_symbol
 _atom_site_label
 _atom_site_symmetry_multiplicity
 _atom_site_fract_x
 _atom_site_fract_y
 _atom_site_fract_z
 _atom_site_occupancy
  Gd  Gd0  1  0.208443  0.914285  0.001551  1
  Gd  Gd1  1  0.791557  0.085715  0.998449  1
  Gd  Gd2  1  0.085715  0.791557  0.498449  1
  Gd  Gd3  1  0.914285  0.208443  0.501551  1
  Gd  Gd4  1  0.794280  0.916002  0.497498  1
  Gd  Gd5  1  0.205720  0.083998  0.502502  1
  Gd  Gd6  1  0.083998  0.205720  0.002502  1
  Gd  Gd7  1  0.916002  0.794280  0.997498  1
  Mo  Mo8  1  0.999870  0.000130  0.250000  1
  Mo  Mo9  1  0.000130  0.999870  0.750000  1
  I  I10  1  0.357290  0.849733  0.497770  1
  I  I11  1  0.642710  0.150267  0.502230  1
  I  I12  1  0.150267  0.642710  0.002230  1
  I  I13  1  0.849733  0.357290  0.997770  1
  I  I14  1  0.356762  0.149498  0.009219  1
  I  I15  1  0.643238  0.850502  0.990781  1
  I  I16  1  0.850502  0.643238  0.490781  1
  I  I17  1  0.149498  0.356762  0.509219  1
