# generated using pymatgen
data_La2TmMg3CuGe2
_symmetry_space_group_name_H-M   'P 1'
_cell_length_a   7.42140176
_cell_length_b   7.42140305
_cell_length_c   4.38411900
_cell_angle_alpha   90.00000000
_cell_angle_beta   90.00000000
_cell_angle_gamma   119.58127666
_symmetry_Int_Tables_number   1
_chemical_formula_structural   La2TmMg3CuGe2
_chemical_formula_sum   'La2 Tm1 Mg3 Cu1 Ge2'
_cell_volume   209.99160857
_cell_formula_units_Z   1
loop_
 _symmetry_equiv_pos_site_id
 _symmetry_equiv_pos_as_xyz
  1  'x, y, z'
loop_
 _atom_site_type_symbol
 _atom_site_label
 _atom_site_symmetry_multiplicity
 _atom_site_fract_x
 _atom_site_fract_y
 _atom_site_fract_z
 _atom_site_occupancy
  La  La0  1  0.997163  0.585053  0.000000  1
  La  La1  1  0.585053  0.997163  0.000000  1
  Tm  Tm2  1  0.410946  0.410946  0.000000  1
  Mg  Mg3  1  0.004921  0.240034  0.500000  1
  Mg  Mg4  1  0.756740  0.756740  0.500000  1
  Mg  Mg5  1  0.240034  0.004921  0.500000  1
  Cu  Cu6  1  0.008928  0.008928  0.000000  1
  Ge  Ge7  1  0.338261  0.657954  0.500000  1
  Ge  Ge8  1  0.657954  0.338261  0.500000  1
