# generated using pymatgen
data_NaFe2CuSb12Os
_symmetry_space_group_name_H-M   'P 1'
_cell_length_a   8.06936687
_cell_length_b   8.02169090
_cell_length_c   8.07767381
_cell_angle_alpha   109.26283563
_cell_angle_beta   109.56547419
_cell_angle_gamma   109.44231820
_symmetry_Int_Tables_number   1
_chemical_formula_structural   NaFe2CuSb12Os
_chemical_formula_sum   'Na1 Fe2 Cu1 Sb12 Os1'
_cell_volume   403.21044515
_cell_formula_units_Z   1
loop_
 _symmetry_equiv_pos_site_id
 _symmetry_equiv_pos_as_xyz
  1  'x, y, z'
loop_
 _atom_site_type_symbol
 _atom_site_label
 _atom_site_symmetry_multiplicity
 _atom_site_fract_x
 _atom_site_fract_y
 _atom_site_fract_z
 _atom_site_occupancy
  Na  Na0  1  0.000000  0.000000  0.000000  1
  Fe  Fe1  1  0.000000  0.000000  0.500000  1
  Fe  Fe2  1  0.500000  0.500000  0.500000  1
  Cu  Cu3  1  0.500000  0.000000  0.000000  1
  Sb  Sb4  1  0.669119  0.816784  0.166429  1
  Sb  Sb5  1  0.847031  0.346169  0.190592  1
  Sb  Sb6  1  0.502006  0.833640  0.650156  1
  Sb  Sb7  1  0.836459  0.667963  0.506002  1
  Sb  Sb8  1  0.497994  0.166360  0.349844  1
  Sb  Sb9  1  0.152969  0.653831  0.809408  1
  Sb  Sb10  1  0.824693  0.153447  0.657909  1
  Sb  Sb11  1  0.175307  0.846553  0.342091  1
  Sb  Sb12  1  0.163541  0.332037  0.493998  1
  Sb  Sb13  1  0.659443  0.505168  0.834598  1
  Sb  Sb14  1  0.340557  0.494832  0.165402  1
  Sb  Sb15  1  0.330881  0.183216  0.833571  1
  Os  Os16  1  0.000000  0.500000  0.000000  1
