# generated using pymatgen
data_TbMnFe(PIr)3
_symmetry_space_group_name_H-M   'P 1'
_cell_length_a   3.87583500
_cell_length_b   10.65563500
_cell_length_c   12.39329100
_cell_angle_alpha   90.00000000
_cell_angle_beta   90.00000000
_cell_angle_gamma   90.00000000
_symmetry_Int_Tables_number   1
_chemical_formula_structural   TbMnFe(PIr)3
_chemical_formula_sum   'Tb4 Mn4 Fe4 P12 Ir12'
_cell_volume   511.83651196
_cell_formula_units_Z   4
loop_
 _symmetry_equiv_pos_site_id
 _symmetry_equiv_pos_as_xyz
  1  'x, y, z'
loop_
 _atom_site_type_symbol
 _atom_site_label
 _atom_site_symmetry_multiplicity
 _atom_site_fract_x
 _atom_site_fract_y
 _atom_site_fract_z
 _atom_site_occupancy
  Tb  Tb0  1  0.250000  0.580277  0.710390  1
  Tb  Tb1  1  0.250000  0.919723  0.210390  1
  Tb  Tb2  1  0.750000  0.419723  0.289610  1
  Tb  Tb3  1  0.750000  0.080277  0.789610  1
  Mn  Mn4  1  0.250000  0.712103  0.985783  1
  Mn  Mn5  1  0.250000  0.787897  0.485783  1
  Mn  Mn6  1  0.750000  0.287897  0.014217  1
  Mn  Mn7  1  0.750000  0.212103  0.514217  1
  Fe  Fe8  1  0.250000  0.462065  0.934385  1
  Fe  Fe9  1  0.250000  0.037935  0.434385  1
  Fe  Fe10  1  0.750000  0.537935  0.065615  1
  Fe  Fe11  1  0.750000  0.962065  0.565615  1
  P  P12  1  0.250000  0.429520  0.104289  1
  P  P13  1  0.250000  0.070480  0.604289  1
  P  P14  1  0.750000  0.570480  0.895711  1
  P  P15  1  0.750000  0.929520  0.395711  1
  P  P16  1  0.250000  0.270211  0.870843  1
  P  P17  1  0.250000  0.229789  0.370843  1
  P  P18  1  0.750000  0.729789  0.129157  1
  P  P19  1  0.750000  0.770211  0.629157  1
  P  P20  1  0.250000  0.603190  0.390179  1
  P  P21  1  0.250000  0.896810  0.890179  1
  P  P22  1  0.750000  0.396810  0.609821  1
  P  P23  1  0.750000  0.103190  0.109821  1
  Ir  Ir24  1  0.250000  0.405676  0.480186  1
  Ir  Ir25  1  0.250000  0.094324  0.980186  1
  Ir  Ir26  1  0.750000  0.594324  0.519814  1
  Ir  Ir27  1  0.750000  0.905676  0.019814  1
  Ir  Ir28  1  0.250000  0.233026  0.175633  1
  Ir  Ir29  1  0.250000  0.266974  0.675633  1
  Ir  Ir30  1  0.750000  0.766974  0.824367  1
  Ir  Ir31  1  0.750000  0.733026  0.324367  1
  Ir  Ir32  1  0.250000  0.880874  0.698435  1
  Ir  Ir33  1  0.250000  0.619126  0.198435  1
  Ir  Ir34  1  0.750000  0.119126  0.301565  1
  Ir  Ir35  1  0.750000  0.380874  0.801565  1
