# generated using pymatgen
data_NaTb6NiCl12
_symmetry_space_group_name_H-M   'P 1'
_cell_length_a   8.76426222
_cell_length_b   8.76426326
_cell_length_c   8.76426300
_cell_angle_alpha   107.05811902
_cell_angle_beta   107.05812109
_cell_angle_gamma   107.05811219
_symmetry_Int_Tables_number   1
_chemical_formula_structural   NaTb6NiCl12
_chemical_formula_sum   'Na1 Tb6 Ni1 Cl12'
_cell_volume   559.75885670
_cell_formula_units_Z   1
loop_
 _symmetry_equiv_pos_site_id
 _symmetry_equiv_pos_as_xyz
  1  'x, y, z'
loop_
 _atom_site_type_symbol
 _atom_site_label
 _atom_site_symmetry_multiplicity
 _atom_site_fract_x
 _atom_site_fract_y
 _atom_site_fract_z
 _atom_site_occupancy
  Na  Na0  1  0.500000  0.500000  0.500000  1
  Tb  Tb1  1  0.968441  0.886963  0.673725  1
  Tb  Tb2  1  0.031559  0.113037  0.326275  1
  Tb  Tb3  1  0.113037  0.326275  0.031559  1
  Tb  Tb4  1  0.326275  0.031559  0.113037  1
  Tb  Tb5  1  0.886963  0.673725  0.968441  1
  Tb  Tb6  1  0.673725  0.968441  0.886963  1
  Ni  Ni7  1  0.000000  0.000000  0.000000  1
  Cl  Cl8  1  0.548528  0.629453  0.850827  1
  Cl  Cl9  1  0.451472  0.370547  0.149173  1
  Cl  Cl10  1  0.317024  0.926734  0.780021  1
  Cl  Cl11  1  0.370547  0.149173  0.451472  1
  Cl  Cl12  1  0.926734  0.780021  0.317024  1
  Cl  Cl13  1  0.682976  0.073266  0.219979  1
  Cl  Cl14  1  0.073266  0.219979  0.682976  1
  Cl  Cl15  1  0.780021  0.317024  0.926734  1
  Cl  Cl16  1  0.219979  0.682976  0.073266  1
  Cl  Cl17  1  0.850827  0.548528  0.629453  1
  Cl  Cl18  1  0.149173  0.451472  0.370547  1
  Cl  Cl19  1  0.629453  0.850827  0.548528  1
