# generated using pymatgen
data_Tb2PrCo8P6W
_symmetry_space_group_name_H-M   'P 1'
_cell_length_a   3.76178500
_cell_length_b   10.65236600
_cell_length_c   12.37359400
_cell_angle_alpha   90.00000000
_cell_angle_beta   90.00000000
_cell_angle_gamma   90.00000000
_symmetry_Int_Tables_number   1
_chemical_formula_structural   Tb2PrCo8P6W
_chemical_formula_sum   'Tb4 Pr2 Co16 P12 W2'
_cell_volume   495.83355298
_cell_formula_units_Z   2
loop_
 _symmetry_equiv_pos_site_id
 _symmetry_equiv_pos_as_xyz
  1  'x, y, z'
loop_
 _atom_site_type_symbol
 _atom_site_label
 _atom_site_symmetry_multiplicity
 _atom_site_fract_x
 _atom_site_fract_y
 _atom_site_fract_z
 _atom_site_occupancy
  Tb  Tb0  1  0.500000  0.818932  0.203537  1
  Tb  Tb1  1  0.500000  0.181068  0.203537  1
  Tb  Tb2  1  0.000000  0.681068  0.796463  1
  Tb  Tb3  1  0.000000  0.318932  0.796463  1
  Pr  Pr4  1  0.000000  0.500000  0.524748  1
  Pr  Pr5  1  0.500000  0.000000  0.475252  1
  Co  Co6  1  0.500000  0.500000  0.704848  1
  Co  Co7  1  0.000000  0.000000  0.295152  1
  Co  Co8  1  0.000000  0.500000  0.987330  1
  Co  Co9  1  0.500000  0.000000  0.012670  1
  Co  Co10  1  0.500000  0.332602  0.990765  1
  Co  Co11  1  0.500000  0.667398  0.990765  1
  Co  Co12  1  0.000000  0.167398  0.009235  1
  Co  Co13  1  0.000000  0.832602  0.009235  1
  Co  Co14  1  0.500000  0.295059  0.429774  1
  Co  Co15  1  0.500000  0.704941  0.429774  1
  Co  Co16  1  0.000000  0.204941  0.570226  1
  Co  Co17  1  0.000000  0.795059  0.570226  1
  Co  Co18  1  0.500000  0.879253  0.710709  1
  Co  Co19  1  0.500000  0.120747  0.710709  1
  Co  Co20  1  0.000000  0.620747  0.289291  1
  Co  Co21  1  0.000000  0.379253  0.289291  1
  P  P22  1  0.500000  0.500000  0.882717  1
  P  P23  1  0.000000  0.000000  0.117283  1
  P  P24  1  0.500000  0.500000  0.344791  1
  P  P25  1  0.000000  0.000000  0.655209  1
  P  P26  1  0.500000  0.306981  0.617300  1
  P  P27  1  0.500000  0.693019  0.617300  1
  P  P28  1  0.000000  0.193019  0.382700  1
  P  P29  1  0.000000  0.806981  0.382700  1
  P  P30  1  0.500000  0.844761  0.894174  1
  P  P31  1  0.500000  0.155239  0.894174  1
  P  P32  1  0.000000  0.655239  0.105826  1
  P  P33  1  0.000000  0.344761  0.105826  1
  W  W34  1  0.500000  0.500000  0.153529  1
  W  W35  1  0.000000  0.000000  0.846471  1
