# generated using pymatgen
data_Ta12Cu7Ni(SnC)4
_symmetry_space_group_name_H-M   'P 1'
_cell_length_a   8.36773052
_cell_length_b   8.36328182
_cell_length_c   8.36770500
_cell_angle_alpha   59.98380332
_cell_angle_beta   60.00030906
_cell_angle_gamma   60.02627641
_symmetry_Int_Tables_number   1
_chemical_formula_structural   Ta12Cu7Ni(SnC)4
_chemical_formula_sum   'Ta12 Cu7 Ni1 Sn4 C4'
_cell_volume   414.10431384
_cell_formula_units_Z   1
loop_
 _symmetry_equiv_pos_site_id
 _symmetry_equiv_pos_as_xyz
  1  'x, y, z'
loop_
 _atom_site_type_symbol
 _atom_site_label
 _atom_site_symmetry_multiplicity
 _atom_site_fract_x
 _atom_site_fract_y
 _atom_site_fract_z
 _atom_site_occupancy
  Ta  Ta0  1  0.427987  0.071601  0.071684  1
  Ta  Ta1  1  0.068964  0.431142  0.431033  1
  Ta  Ta2  1  0.068969  0.431139  0.068860  1
  Ta  Ta3  1  0.068923  0.068811  0.431132  1
  Ta  Ta4  1  0.427988  0.071601  0.428729  1
  Ta  Ta5  1  0.428011  0.428794  0.071598  1
  Ta  Ta6  1  0.178834  0.821740  0.177596  1
  Ta  Ta7  1  0.819414  0.180761  0.819089  1
  Ta  Ta8  1  0.819416  0.180763  0.180735  1
  Ta  Ta9  1  0.178907  0.177630  0.821733  1
  Ta  Ta10  1  0.178834  0.821737  0.821832  1
  Ta  Ta11  1  0.819446  0.819048  0.180752  1
  Cu  Cu12  1  0.834868  0.837256  0.837217  1
  Cu  Cu13  1  0.834870  0.837255  0.490653  1
  Cu  Cu14  1  0.494881  0.835118  0.835002  1
  Cu  Cu15  1  0.834833  0.490606  0.837278  1
  Cu  Cu16  1  0.412293  0.414067  0.414080  1
  Cu  Cu17  1  0.412305  0.414071  0.759549  1
  Cu  Cu18  1  0.412319  0.759515  0.414086  1
  Ni  Ni19  1  0.774280  0.408526  0.408598  1
  Sn  Sn20  1  0.626643  0.622160  0.622133  1
  Sn  Sn21  1  0.626641  0.622158  0.129068  1
  Sn  Sn22  1  0.123712  0.625357  0.625466  1
  Sn  Sn23  1  0.626656  0.129108  0.622117  1
  C  C24  1  0.124579  0.125473  0.125445  1
  C  C25  1  0.124577  0.125473  0.624503  1
  C  C26  1  0.626250  0.124584  0.124584  1
  C  C27  1  0.124600  0.624505  0.125448  1
