# generated using pymatgen
data_TbTh3(Ni2Hg)2
_symmetry_space_group_name_H-M   'P 1'
_cell_length_a   7.58324253
_cell_length_b   7.58324141
_cell_length_c   3.67817700
_cell_angle_alpha   90.00000000
_cell_angle_beta   90.00000000
_cell_angle_gamma   91.29101034
_symmetry_Int_Tables_number   1
_chemical_formula_structural   TbTh3(Ni2Hg)2
_chemical_formula_sum   'Tb1 Th3 Ni4 Hg2'
_cell_volume   211.46193185
_cell_formula_units_Z   1
loop_
 _symmetry_equiv_pos_site_id
 _symmetry_equiv_pos_as_xyz
  1  'x, y, z'
loop_
 _atom_site_type_symbol
 _atom_site_label
 _atom_site_symmetry_multiplicity
 _atom_site_fract_x
 _atom_site_fract_y
 _atom_site_fract_z
 _atom_site_occupancy
  Tb  Tb0  1  0.826494  0.673506  0.500000  1
  Th  Th1  1  0.675389  0.173497  0.500000  1
  Th  Th2  1  0.326503  0.824611  0.500000  1
  Th  Th3  1  0.171997  0.328003  0.500000  1
  Ni  Ni4  1  0.880994  0.374047  0.000000  1
  Ni  Ni5  1  0.125953  0.619006  0.000000  1
  Ni  Ni6  1  0.374841  0.125159  0.000000  1
  Ni  Ni7  1  0.613525  0.886475  0.000000  1
  Hg  Hg8  1  0.509217  0.504913  0.000000  1
  Hg  Hg9  1  0.995087  0.990783  0.000000  1
