# generated using pymatgen
data_Nd4Ga2CuIr11
_symmetry_space_group_name_H-M   'P 1'
_cell_length_a   12.88578090
_cell_length_b   12.88578149
_cell_length_c   12.88578155
_cell_angle_alpha   24.58515712
_cell_angle_beta   24.58515241
_cell_angle_gamma   24.58515592
_symmetry_Int_Tables_number   1
_chemical_formula_structural   Nd4Ga2CuIr11
_chemical_formula_sum   'Nd4 Ga2 Cu1 Ir11'
_cell_volume   325.65116399
_cell_formula_units_Z   1
loop_
 _symmetry_equiv_pos_site_id
 _symmetry_equiv_pos_as_xyz
  1  'x, y, z'
loop_
 _atom_site_type_symbol
 _atom_site_label
 _atom_site_symmetry_multiplicity
 _atom_site_fract_x
 _atom_site_fract_y
 _atom_site_fract_z
 _atom_site_occupancy
  Nd  Nd0  1  0.952178  0.952178  0.952178  1
  Nd  Nd1  1  0.051943  0.051943  0.051943  1
  Nd  Nd2  1  0.853029  0.853029  0.853029  1
  Nd  Nd3  1  0.148509  0.148509  0.148509  1
  Ga  Ga4  1  0.278845  0.278845  0.278845  1
  Ga  Ga5  1  0.610009  0.610009  0.610009  1
  Cu  Cu6  1  0.720677  0.720677  0.720677  1
  Ir  Ir7  1  0.500996  0.500996  0.500996  1
  Ir  Ir8  1  0.386883  0.386883  0.386883  1
  Ir  Ir9  1  0.500324  0.500324  0.995589  1
  Ir  Ir10  1  0.995589  0.500324  0.500324  1
  Ir  Ir11  1  0.500324  0.995589  0.500324  1
  Ir  Ir12  1  0.388219  0.895107  0.388219  1
  Ir  Ir13  1  0.388219  0.388219  0.895107  1
  Ir  Ir14  1  0.895107  0.388219  0.388219  1
  Ir  Ir15  1  0.611165  0.106816  0.611165  1
  Ir  Ir16  1  0.611165  0.611165  0.106816  1
  Ir  Ir17  1  0.106816  0.611165  0.611165  1
