# generated using pymatgen
data_YTmNb6(Co4P3)4
_symmetry_space_group_name_H-M   'P 1'
_cell_length_a   11.98900100
_cell_length_b   11.98900174
_cell_length_c   3.65158800
_cell_angle_alpha   90.00000000
_cell_angle_beta   90.00000000
_cell_angle_gamma   120.00000071
_symmetry_Int_Tables_number   1
_chemical_formula_structural   YTmNb6(Co4P3)4
_chemical_formula_sum   'Y1 Tm1 Nb6 Co16 P12'
_cell_volume   454.54660619
_cell_formula_units_Z   1
loop_
 _symmetry_equiv_pos_site_id
 _symmetry_equiv_pos_as_xyz
  1  'x, y, z'
loop_
 _atom_site_type_symbol
 _atom_site_label
 _atom_site_symmetry_multiplicity
 _atom_site_fract_x
 _atom_site_fract_y
 _atom_site_fract_z
 _atom_site_occupancy
  Y  Y0  1  0.333333  0.666667  0.000000  1
  Tm  Tm1  1  0.666667  0.333333  0.000000  1
  Nb  Nb2  1  0.820904  0.999984  0.500000  1
  Nb  Nb3  1  0.000016  0.820920  0.500000  1
  Nb  Nb4  1  0.179080  0.179096  0.500000  1
  Nb  Nb5  1  0.444999  0.000533  0.000000  1
  Nb  Nb6  1  0.999467  0.444466  0.000000  1
  Nb  Nb7  1  0.555534  0.555001  0.000000  1
  Co  Co8  1  0.272348  0.000824  0.500000  1
  Co  Co9  1  0.999176  0.271524  0.500000  1
  Co  Co10  1  0.728476  0.727652  0.500000  1
  Co  Co11  1  0.634581  0.810733  0.000000  1
  Co  Co12  1  0.189267  0.823849  0.000000  1
  Co  Co13  1  0.176151  0.365419  0.000000  1
  Co  Co14  1  0.366402  0.177081  0.000000  1
  Co  Co15  1  0.810680  0.633598  0.000000  1
  Co  Co16  1  0.822919  0.189320  0.000000  1
  Co  Co17  1  0.521820  0.875502  0.500000  1
  Co  Co18  1  0.124498  0.646317  0.500000  1
  Co  Co19  1  0.353683  0.478180  0.500000  1
  Co  Co20  1  0.480353  0.354022  0.500000  1
  Co  Co21  1  0.873669  0.519647  0.500000  1
  Co  Co22  1  0.645978  0.126331  0.500000  1
  Co  Co23  1  0.000000  0.000000  0.000000  1
  P  P24  1  0.173030  0.000449  0.000000  1
  P  P25  1  0.999551  0.172582  0.000000  1
  P  P26  1  0.827418  0.826970  0.000000  1
  P  P27  1  0.524180  0.691139  0.500000  1
  P  P28  1  0.308861  0.833040  0.500000  1
  P  P29  1  0.166960  0.475820  0.500000  1
  P  P30  1  0.477693  0.168459  0.500000  1
  P  P31  1  0.690764  0.522307  0.500000  1
  P  P32  1  0.831541  0.309236  0.500000  1
  P  P33  1  0.647859  0.999900  0.000000  1
  P  P34  1  0.000100  0.647959  0.000000  1
  P  P35  1  0.352041  0.352141  0.000000  1
