# generated using pymatgen
data_TbY5Tm14Cd3Hg3Ru2
_symmetry_space_group_name_H-M   'P 1'
_cell_length_a   9.51929709
_cell_length_b   9.51929606
_cell_length_c   9.67965000
_cell_angle_alpha   90.00000000
_cell_angle_beta   90.00000000
_cell_angle_gamma   119.95238333
_symmetry_Int_Tables_number   1
_chemical_formula_structural   TbY5Tm14Cd3Hg3Ru2
_chemical_formula_sum   'Tb1 Y5 Tm14 Cd3 Hg3 Ru2'
_cell_volume   759.99053395
_cell_formula_units_Z   1
loop_
 _symmetry_equiv_pos_site_id
 _symmetry_equiv_pos_as_xyz
  1  'x, y, z'
loop_
 _atom_site_type_symbol
 _atom_site_label
 _atom_site_symmetry_multiplicity
 _atom_site_fract_x
 _atom_site_fract_y
 _atom_site_fract_z
 _atom_site_occupancy
  Tb  Tb0  1  0.540204  0.459796  0.250000  1
  Y  Y1  1  0.540706  0.080207  0.250000  1
  Y  Y2  1  0.919793  0.459294  0.250000  1
  Y  Y3  1  0.459480  0.540520  0.750000  1
  Y  Y4  1  0.459418  0.919748  0.750000  1
  Y  Y5  1  0.080252  0.540582  0.750000  1
  Tm  Tm6  1  0.000175  0.999825  0.490218  1
  Tm  Tm7  1  0.000175  0.999825  0.009782  1
  Tm  Tm8  1  0.209867  0.790133  0.439583  1
  Tm  Tm9  1  0.209616  0.419123  0.439854  1
  Tm  Tm10  1  0.580877  0.790384  0.439854  1
  Tm  Tm11  1  0.790395  0.209605  0.559665  1
  Tm  Tm12  1  0.789866  0.580222  0.559668  1
  Tm  Tm13  1  0.419778  0.210134  0.559668  1
  Tm  Tm14  1  0.790395  0.209605  0.940335  1
  Tm  Tm15  1  0.789866  0.580222  0.940332  1
  Tm  Tm16  1  0.419778  0.210134  0.940332  1
  Tm  Tm17  1  0.209867  0.790133  0.060417  1
  Tm  Tm18  1  0.209616  0.419123  0.060146  1
  Tm  Tm19  1  0.580877  0.790384  0.060146  1
  Cd  Cd20  1  0.111872  0.888128  0.750000  1
  Cd  Cd21  1  0.113090  0.224157  0.750000  1
  Cd  Cd22  1  0.775843  0.886910  0.750000  1
  Hg  Hg23  1  0.880335  0.119665  0.250000  1
  Hg  Hg24  1  0.878657  0.760903  0.250000  1
  Hg  Hg25  1  0.239097  0.121343  0.250000  1
  Ru  Ru26  1  0.333640  0.666360  0.250000  1
  Ru  Ru27  1  0.666461  0.333539  0.750000  1
