# generated using pymatgen
data_Tb10In5SnSe2
_symmetry_space_group_name_H-M   'P 1'
_cell_length_a   9.21698904
_cell_length_b   9.26629673
_cell_length_c   6.76305500
_cell_angle_alpha   90.00000000
_cell_angle_beta   90.00000000
_cell_angle_gamma   120.17712650
_symmetry_Int_Tables_number   1
_chemical_formula_structural   Tb10In5SnSe2
_chemical_formula_sum   'Tb10 In5 Sn1 Se2'
_cell_volume   499.33373397
_cell_formula_units_Z   1
loop_
 _symmetry_equiv_pos_site_id
 _symmetry_equiv_pos_as_xyz
  1  'x, y, z'
loop_
 _atom_site_type_symbol
 _atom_site_label
 _atom_site_symmetry_multiplicity
 _atom_site_fract_x
 _atom_site_fract_y
 _atom_site_fract_z
 _atom_site_occupancy
  Tb  Tb0  1  0.668805  0.334530  0.998990  1
  Tb  Tb1  1  0.331195  0.665726  0.998990  1
  Tb  Tb2  1  0.331195  0.665726  0.501010  1
  Tb  Tb3  1  0.668805  0.334530  0.501010  1
  Tb  Tb4  1  0.749878  0.747890  0.750000  1
  Tb  Tb5  1  0.250122  0.998012  0.750000  1
  Tb  Tb6  1  0.000000  0.252888  0.750000  1
  Tb  Tb7  1  0.248912  0.250925  0.250000  1
  Tb  Tb8  1  0.751088  0.002013  0.250000  1
  Tb  Tb9  1  0.000000  0.747177  0.250000  1
  In  In10  1  0.399748  0.399705  0.750000  1
  In  In11  1  0.600252  0.999957  0.750000  1
  In  In12  1  0.000000  0.601596  0.750000  1
  In  In13  1  0.600445  0.600776  0.250000  1
  In  In14  1  0.399555  0.000331  0.250000  1
  Sn  Sn15  1  0.000000  0.398083  0.250000  1
  Se  Se16  1  0.000000  0.000068  0.000590  1
  Se  Se17  1  0.000000  0.000068  0.499410  1
