# generated using pymatgen
data_Pr2NpS5
_symmetry_space_group_name_H-M   'P 1'
_cell_length_a   7.56347200
_cell_length_b   8.14784700
_cell_length_c   11.96653700
_cell_angle_alpha   90.00000000
_cell_angle_beta   90.00000000
_cell_angle_gamma   90.00000000
_symmetry_Int_Tables_number   1
_chemical_formula_structural   Pr2NpS5
_chemical_formula_sum   'Pr8 Np4 S20'
_cell_volume   737.44996048
_cell_formula_units_Z   4
loop_
 _symmetry_equiv_pos_site_id
 _symmetry_equiv_pos_as_xyz
  1  'x, y, z'
loop_
 _atom_site_type_symbol
 _atom_site_label
 _atom_site_symmetry_multiplicity
 _atom_site_fract_x
 _atom_site_fract_y
 _atom_site_fract_z
 _atom_site_occupancy
  Pr  Pr0  1  0.527138  0.500443  0.323998  1
  Pr  Pr1  1  0.972862  0.999557  0.823998  1
  Pr  Pr2  1  0.472862  0.000443  0.676002  1
  Pr  Pr3  1  0.027138  0.499557  0.176002  1
  Pr  Pr4  1  0.472862  0.499557  0.676002  1
  Pr  Pr5  1  0.027138  0.000443  0.176002  1
  Pr  Pr6  1  0.527138  0.999557  0.323998  1
  Pr  Pr7  1  0.972862  0.500443  0.823998  1
  Np  Np8  1  0.059883  0.750000  0.495980  1
  Np  Np9  1  0.440117  0.750000  0.995980  1
  Np  Np10  1  0.940117  0.250000  0.504020  1
  Np  Np11  1  0.559883  0.250000  0.004020  1
  S  S12  1  0.835999  0.963231  0.593355  1
  S  S13  1  0.664001  0.536769  0.093355  1
  S  S14  1  0.164001  0.463231  0.406645  1
  S  S15  1  0.335999  0.036769  0.906645  1
  S  S16  1  0.164001  0.036769  0.406645  1
  S  S17  1  0.335999  0.463231  0.906645  1
  S  S18  1  0.835999  0.536769  0.593355  1
  S  S19  1  0.664001  0.963231  0.093355  1
  S  S20  1  0.834806  0.750000  0.312455  1
  S  S21  1  0.665194  0.750000  0.812455  1
  S  S22  1  0.165194  0.250000  0.687545  1
  S  S23  1  0.334806  0.250000  0.187545  1
  S  S24  1  0.450916  0.750000  0.499027  1
  S  S25  1  0.049084  0.750000  0.999027  1
  S  S26  1  0.549084  0.250000  0.500973  1
  S  S27  1  0.950916  0.250000  0.000973  1
  S  S28  1  0.190543  0.750000  0.712273  1
  S  S29  1  0.309457  0.750000  0.212273  1
  S  S30  1  0.809457  0.250000  0.287727  1
  S  S31  1  0.690543  0.250000  0.787727  1
