# generated using pymatgen
data_Ce3Zn3OsPd2
_symmetry_space_group_name_H-M   'P 1'
_cell_length_a   7.32811500
_cell_length_b   7.32811633
_cell_length_c   3.94195800
_cell_angle_alpha   90.00000000
_cell_angle_beta   90.00000000
_cell_angle_gamma   119.99999851
_symmetry_Int_Tables_number   1
_chemical_formula_structural   Ce3Zn3OsPd2
_chemical_formula_sum   'Ce3 Zn3 Os1 Pd2'
_cell_volume   183.32735054
_cell_formula_units_Z   1
loop_
 _symmetry_equiv_pos_site_id
 _symmetry_equiv_pos_as_xyz
  1  'x, y, z'
loop_
 _atom_site_type_symbol
 _atom_site_label
 _atom_site_symmetry_multiplicity
 _atom_site_fract_x
 _atom_site_fract_y
 _atom_site_fract_z
 _atom_site_occupancy
  Ce  Ce0  1  0.987471  0.409400  0.000000  1
  Ce  Ce1  1  0.590600  0.578071  0.000000  1
  Ce  Ce2  1  0.421929  0.012529  0.000000  1
  Zn  Zn3  1  0.999573  0.755102  0.500000  1
  Zn  Zn4  1  0.244898  0.244472  0.500000  1
  Zn  Zn5  1  0.755528  0.000427  0.500000  1
  Os  Os6  1  0.666667  0.333333  0.500000  1
  Pd  Pd7  1  0.000000  0.000000  0.000000  1
  Pd  Pd8  1  0.333333  0.666667  0.500000  1
