# generated using pymatgen
data_Sc6Al6Zn3SiAg2
_symmetry_space_group_name_H-M   'P 1'
_cell_length_a   6.71567700
_cell_length_b   6.71567648
_cell_length_c   8.35548700
_cell_angle_alpha   90.00000000
_cell_angle_beta   90.00000000
_cell_angle_gamma   120.00000747
_symmetry_Int_Tables_number   1
_chemical_formula_structural   Sc6Al6Zn3SiAg2
_chemical_formula_sum   'Sc6 Al6 Zn3 Si1 Ag2'
_cell_volume   326.34873479
_cell_formula_units_Z   1
loop_
 _symmetry_equiv_pos_site_id
 _symmetry_equiv_pos_as_xyz
  1  'x, y, z'
loop_
 _atom_site_type_symbol
 _atom_site_label
 _atom_site_symmetry_multiplicity
 _atom_site_fract_x
 _atom_site_fract_y
 _atom_site_fract_z
 _atom_site_occupancy
  Sc  Sc0  1  0.570248  0.001771  0.751144  1
  Sc  Sc1  1  0.998229  0.568478  0.751144  1
  Sc  Sc2  1  0.431522  0.429752  0.751144  1
  Sc  Sc3  1  0.998152  0.568458  0.248870  1
  Sc  Sc4  1  0.570306  0.001848  0.248870  1
  Sc  Sc5  1  0.431542  0.429694  0.248870  1
  Al  Al6  1  0.748197  0.751629  0.000024  1
  Al  Al7  1  0.248371  0.996568  0.000024  1
  Al  Al8  1  0.003432  0.251803  0.000024  1
  Al  Al9  1  0.752124  0.752015  0.500005  1
  Al  Al10  1  0.247985  0.000110  0.500005  1
  Al  Al11  1  0.999890  0.247876  0.500005  1
  Zn  Zn12  1  0.666667  0.333333  0.499903  1
  Zn  Zn13  1  0.333333  0.666667  0.499789  1
  Zn  Zn14  1  0.333333  0.666667  0.000147  1
  Si  Si15  1  0.666667  0.333333  0.999996  1
  Ag  Ag16  1  0.000000  0.000000  0.753162  1
  Ag  Ag17  1  0.000000  0.000000  0.246876  1
