# generated using pymatgen
data_NdY3SiBr6
_symmetry_space_group_name_H-M   'P 1'
_cell_length_a   4.11338900
_cell_length_b   13.49582075
_cell_length_c   14.21252289
_cell_angle_alpha   89.10953258
_cell_angle_beta   90.00000000
_cell_angle_gamma   90.00000000
_symmetry_Int_Tables_number   1
_chemical_formula_structural   NdY3SiBr6
_chemical_formula_sum   'Nd2 Y6 Si2 Br12'
_cell_volume   788.89246658
_cell_formula_units_Z   2
loop_
 _symmetry_equiv_pos_site_id
 _symmetry_equiv_pos_as_xyz
  1  'x, y, z'
loop_
 _atom_site_type_symbol
 _atom_site_label
 _atom_site_symmetry_multiplicity
 _atom_site_fract_x
 _atom_site_fract_y
 _atom_site_fract_z
 _atom_site_occupancy
  Nd  Nd0  1  0.000000  0.121354  0.580845  1
  Nd  Nd1  1  0.000000  0.878646  0.419155  1
  Y  Y2  1  0.500000  0.118350  0.341079  1
  Y  Y3  1  0.500000  0.881650  0.658921  1
  Y  Y4  1  0.500000  0.615938  0.156888  1
  Y  Y5  1  0.500000  0.384062  0.843112  1
  Y  Y6  1  0.000000  0.616738  0.921521  1
  Y  Y7  1  0.000000  0.383262  0.078479  1
  Si  Si8  1  0.500000  0.000000  0.500000  1
  Si  Si9  1  0.500000  0.500000  0.000000  1
  Br  Br10  1  0.500000  0.249287  0.163489  1
  Br  Br11  1  0.500000  0.750713  0.836511  1
  Br  Br12  1  0.500000  0.738166  0.330209  1
  Br  Br13  1  0.500000  0.261834  0.669791  1
  Br  Br14  1  0.000000  0.254156  0.404352  1
  Br  Br15  1  0.000000  0.745844  0.595648  1
  Br  Br16  1  0.000000  0.750624  0.086322  1
  Br  Br17  1  0.000000  0.249376  0.913678  1
  Br  Br18  1  0.000000  0.009768  0.241166  1
  Br  Br19  1  0.000000  0.990232  0.758834  1
  Br  Br20  1  0.000000  0.500630  0.253631  1
  Br  Br21  1  0.000000  0.499370  0.746369  1
