# generated using pymatgen
data_Sm3Zn3(Ni5B)2
_symmetry_space_group_name_H-M   'P 1'
_cell_length_a   5.13418625
_cell_length_b   5.13418665
_cell_length_c   10.80478069
_cell_angle_alpha   90.03542549
_cell_angle_beta   89.96457342
_cell_angle_gamma   120.00665081
_symmetry_Int_Tables_number   1
_chemical_formula_structural   Sm3Zn3(Ni5B)2
_chemical_formula_sum   'Sm3 Zn3 Ni10 B2'
_cell_volume   246.63836917
_cell_formula_units_Z   1
loop_
 _symmetry_equiv_pos_site_id
 _symmetry_equiv_pos_as_xyz
  1  'x, y, z'
loop_
 _atom_site_type_symbol
 _atom_site_label
 _atom_site_symmetry_multiplicity
 _atom_site_fract_x
 _atom_site_fract_y
 _atom_site_fract_z
 _atom_site_occupancy
  Sm  Sm0  1  0.000007  0.999993  0.999878  1
  Sm  Sm1  1  0.999983  0.000017  0.659697  1
  Sm  Sm2  1  0.999891  0.000109  0.329534  1
  Zn  Zn3  1  0.666534  0.333466  0.685266  1
  Zn  Zn4  1  0.333435  0.666565  0.685180  1
  Zn  Zn5  1  0.333406  0.666594  0.316336  1
  Ni  Ni6  1  0.501590  0.498410  0.499675  1
  Ni  Ni7  1  0.501521  0.003039  0.499769  1
  Ni  Ni8  1  0.996961  0.498479  0.499769  1
  Ni  Ni9  1  0.666491  0.333509  0.318462  1
  Ni  Ni10  1  0.499822  0.500178  0.872859  1
  Ni  Ni11  1  0.500055  0.999547  0.872549  1
  Ni  Ni12  1  0.000453  0.499945  0.872549  1
  Ni  Ni13  1  0.501607  0.498393  0.129163  1
  Ni  Ni14  1  0.501377  0.003132  0.129228  1
  Ni  Ni15  1  0.996868  0.498623  0.129228  1
  B  B16  1  0.666776  0.333224  0.000718  1
  B  B17  1  0.333221  0.666779  0.000140  1
