# generated using pymatgen
data_Dy2Tm3(ReO6)2
_symmetry_space_group_name_H-M   'P 1'
_cell_length_a   6.78123693
_cell_length_b   6.78123672
_cell_length_c   7.48825100
_cell_angle_alpha   73.92701398
_cell_angle_beta   73.92701838
_cell_angle_gamma   49.28660822
_symmetry_Int_Tables_number   1
_chemical_formula_structural   Dy2Tm3(ReO6)2
_chemical_formula_sum   'Dy2 Tm3 Re2 O12'
_cell_volume   248.60646029
_cell_formula_units_Z   1
loop_
 _symmetry_equiv_pos_site_id
 _symmetry_equiv_pos_as_xyz
  1  'x, y, z'
loop_
 _atom_site_type_symbol
 _atom_site_label
 _atom_site_symmetry_multiplicity
 _atom_site_fract_x
 _atom_site_fract_y
 _atom_site_fract_z
 _atom_site_occupancy
  Dy  Dy0  1  0.803107  0.803107  0.358119  1
  Dy  Dy1  1  0.196893  0.196893  0.641881  1
  Tm  Tm2  1  0.185509  0.185509  0.176640  1
  Tm  Tm3  1  0.814491  0.814491  0.823360  1
  Tm  Tm4  1  0.500000  0.500000  0.500000  1
  Re  Re5  1  0.285987  0.714013  0.000000  1
  Re  Re6  1  0.714013  0.285987  0.000000  1
  O  O7  1  0.414557  0.918902  0.915098  1
  O  O8  1  0.081098  0.585443  0.084902  1
  O  O9  1  0.585443  0.081098  0.084902  1
  O  O10  1  0.918902  0.414557  0.915098  1
  O  O11  1  0.600049  0.095459  0.575028  1
  O  O12  1  0.904541  0.399951  0.424972  1
  O  O13  1  0.399951  0.904541  0.424972  1
  O  O14  1  0.999466  0.999466  0.821897  1
  O  O15  1  0.000534  0.000534  0.178103  1
  O  O16  1  0.498487  0.498487  0.791714  1
  O  O17  1  0.501513  0.501513  0.208286  1
  O  O18  1  0.095459  0.600049  0.575028  1
