# generated using pymatgen
data_Nd5P12Ir16Rh3
_symmetry_space_group_name_H-M   'P 1'
_cell_length_a   12.80734900
_cell_length_b   12.80734961
_cell_length_c   4.01243100
_cell_angle_alpha   90.00000000
_cell_angle_beta   90.00000000
_cell_angle_gamma   120.00000102
_symmetry_Int_Tables_number   1
_chemical_formula_structural   Nd5P12Ir16Rh3
_chemical_formula_sum   'Nd5 P12 Ir16 Rh3'
_cell_volume   569.97618910
_cell_formula_units_Z   1
loop_
 _symmetry_equiv_pos_site_id
 _symmetry_equiv_pos_as_xyz
  1  'x, y, z'
loop_
 _atom_site_type_symbol
 _atom_site_label
 _atom_site_symmetry_multiplicity
 _atom_site_fract_x
 _atom_site_fract_y
 _atom_site_fract_z
 _atom_site_occupancy
  Nd  Nd0  1  0.188118  0.188118  0.500000  1
  Nd  Nd1  1  0.811882  0.000000  0.500000  1
  Nd  Nd2  1  0.000000  0.811882  0.500000  1
  Nd  Nd3  1  0.333333  0.666667  0.000000  1
  Nd  Nd4  1  0.666667  0.333333  0.000000  1
  P  P5  1  0.819565  0.819565  0.000000  1
  P  P6  1  0.180435  0.000000  0.000000  1
  P  P7  1  0.000000  0.180435  0.000000  1
  P  P8  1  0.170221  0.481648  0.500000  1
  P  P9  1  0.518352  0.688573  0.500000  1
  P  P10  1  0.311427  0.829779  0.500000  1
  P  P11  1  0.688573  0.518352  0.500000  1
  P  P12  1  0.829779  0.311427  0.500000  1
  P  P13  1  0.481648  0.170221  0.500000  1
  P  P14  1  0.363968  0.363968  0.000000  1
  P  P15  1  0.636032  0.000000  0.000000  1
  P  P16  1  0.000000  0.636032  0.000000  1
  Ir  Ir17  1  0.716289  0.716289  0.500000  1
  Ir  Ir18  1  0.283711  0.000000  0.500000  1
  Ir  Ir19  1  0.000000  0.283711  0.500000  1
  Ir  Ir20  1  0.180708  0.376986  0.000000  1
  Ir  Ir21  1  0.623014  0.803722  0.000000  1
  Ir  Ir22  1  0.196278  0.819292  0.000000  1
  Ir  Ir23  1  0.803722  0.623014  0.000000  1
  Ir  Ir24  1  0.819292  0.196278  0.000000  1
  Ir  Ir25  1  0.376986  0.180708  0.000000  1
  Ir  Ir26  1  0.361193  0.491678  0.500000  1
  Ir  Ir27  1  0.508322  0.869516  0.500000  1
  Ir  Ir28  1  0.130484  0.638807  0.500000  1
  Ir  Ir29  1  0.869516  0.508322  0.500000  1
  Ir  Ir30  1  0.638807  0.130484  0.500000  1
  Ir  Ir31  1  0.491678  0.361193  0.500000  1
  Ir  Ir32  1  0.000000  0.000000  0.000000  1
  Rh  Rh33  1  0.541539  0.541539  0.000000  1
  Rh  Rh34  1  0.458461  0.000000  0.000000  1
  Rh  Rh35  1  0.000000  0.458461  0.000000  1
