# generated using pymatgen
data_NdY7Cd2NiIr
_symmetry_space_group_name_H-M   'P 1'
_cell_length_a   9.68084100
_cell_length_b   9.68084235
_cell_length_c   9.71721100
_cell_angle_alpha   59.87565262
_cell_angle_beta   59.87564799
_cell_angle_gamma   59.63932758
_symmetry_Int_Tables_number   1
_chemical_formula_structural   NdY7Cd2NiIr
_chemical_formula_sum   'Nd2 Y14 Cd4 Ni2 Ir2'
_cell_volume   640.97439622
_cell_formula_units_Z   2
loop_
 _symmetry_equiv_pos_site_id
 _symmetry_equiv_pos_as_xyz
  1  'x, y, z'
loop_
 _atom_site_type_symbol
 _atom_site_label
 _atom_site_symmetry_multiplicity
 _atom_site_fract_x
 _atom_site_fract_y
 _atom_site_fract_z
 _atom_site_occupancy
  Nd  Nd0  1  0.601021  0.601021  0.596175  1
  Nd  Nd1  1  0.601021  0.601021  0.201783  1
  Y  Y2  1  0.603160  0.199702  0.598569  1
  Y  Y3  1  0.199702  0.603160  0.598569  1
  Y  Y4  1  0.060705  0.436957  0.440053  1
  Y  Y5  1  0.436957  0.060705  0.062285  1
  Y  Y6  1  0.436957  0.060705  0.440053  1
  Y  Y7  1  0.060705  0.436957  0.062285  1
  Y  Y8  1  0.437880  0.437880  0.062120  1
  Y  Y9  1  0.061054  0.061054  0.438946  1
  Y  Y10  1  0.187041  0.811678  0.816047  1
  Y  Y11  1  0.811678  0.187041  0.185234  1
  Y  Y12  1  0.811678  0.187041  0.816047  1
  Y  Y13  1  0.187041  0.811678  0.185234  1
  Y  Y14  1  0.816294  0.816294  0.183706  1
  Y  Y15  1  0.189498  0.189498  0.810502  1
  Cd  Cd16  1  0.831306  0.831306  0.830533  1
  Cd  Cd17  1  0.831306  0.831306  0.506853  1
  Cd  Cd18  1  0.831370  0.505293  0.831668  1
  Cd  Cd19  1  0.505293  0.831370  0.831668  1
  Ni  Ni20  1  0.389581  0.826739  0.391840  1
  Ni  Ni21  1  0.826739  0.389581  0.391840  1
  Ir  Ir22  1  0.391006  0.391006  0.394496  1
  Ir  Ir23  1  0.391006  0.391006  0.823493  1
