# generated using pymatgen
data_CdHgSb2O7
_symmetry_space_group_name_H-M   'P 1'
_cell_length_a   7.49694850
_cell_length_b   7.42023788
_cell_length_c   7.42023690
_cell_angle_alpha   59.35834396
_cell_angle_beta   59.65742817
_cell_angle_gamma   59.65742603
_symmetry_Int_Tables_number   1
_chemical_formula_structural   CdHgSb2O7
_chemical_formula_sum   'Cd2 Hg2 Sb4 O14'
_cell_volume   288.94041824
_cell_formula_units_Z   2
loop_
 _symmetry_equiv_pos_site_id
 _symmetry_equiv_pos_as_xyz
  1  'x, y, z'
loop_
 _atom_site_type_symbol
 _atom_site_label
 _atom_site_symmetry_multiplicity
 _atom_site_fract_x
 _atom_site_fract_y
 _atom_site_fract_z
 _atom_site_occupancy
  Cd  Cd0  1  0.625000  0.625000  0.625000  1
  Cd  Cd1  1  0.125000  0.625000  0.625000  1
  Hg  Hg2  1  0.625000  0.125000  0.625000  1
  Hg  Hg3  1  0.625000  0.625000  0.125000  1
  Sb  Sb4  1  0.125000  0.625000  0.125000  1
  Sb  Sb5  1  0.125000  0.125000  0.125000  1
  Sb  Sb6  1  0.125000  0.125000  0.625000  1
  Sb  Sb7  1  0.625000  0.125000  0.125000  1
  O  O8  1  0.803798  0.801352  0.203070  1
  O  O9  1  0.803798  0.203070  0.801352  1
  O  O10  1  0.058220  0.046930  0.448648  1
  O  O11  1  0.805449  0.194551  0.194551  1
  O  O12  1  0.446202  0.448648  0.046930  1
  O  O13  1  0.058220  0.448648  0.046930  1
  O  O14  1  0.199809  0.800191  0.800191  1
  O  O15  1  0.446202  0.046930  0.448648  1
  O  O16  1  0.500608  0.499392  0.499392  1
  O  O17  1  0.191780  0.801352  0.203070  1
  O  O18  1  0.191780  0.203070  0.801352  1
  O  O19  1  0.749392  0.750608  0.750608  1
  O  O20  1  0.444551  0.055449  0.055449  1
  O  O21  1  0.050191  0.449809  0.449809  1
