# generated using pymatgen
data_Ce3U5(B6Mo)4
_symmetry_space_group_name_H-M   'P 1'
_cell_length_a   3.74228100
_cell_length_b   9.32110127
_cell_length_c   11.42629933
_cell_angle_alpha   90.02775009
_cell_angle_beta   90.00000000
_cell_angle_gamma   90.00000000
_symmetry_Int_Tables_number   1
_chemical_formula_structural   Ce3U5(B6Mo)4
_chemical_formula_sum   'Ce3 U5 B24 Mo4'
_cell_volume   398.57418561
_cell_formula_units_Z   1
loop_
 _symmetry_equiv_pos_site_id
 _symmetry_equiv_pos_as_xyz
  1  'x, y, z'
loop_
 _atom_site_type_symbol
 _atom_site_label
 _atom_site_symmetry_multiplicity
 _atom_site_fract_x
 _atom_site_fract_y
 _atom_site_fract_z
 _atom_site_occupancy
  Ce  Ce0  1  0.000000  0.335338  0.408007  1
  Ce  Ce1  1  0.000000  0.664708  0.592137  1
  Ce  Ce2  1  0.000000  0.835073  0.091888  1
  U  U3  1  0.000000  0.164730  0.907901  1
  U  U4  1  0.000000  0.956229  0.394773  1
  U  U5  1  0.000000  0.043538  0.605407  1
  U  U6  1  0.000000  0.456238  0.105230  1
  U  U7  1  0.000000  0.543103  0.894722  1
  B  B8  1  0.500000  0.552986  0.430942  1
  B  B9  1  0.500000  0.446345  0.570193  1
  B  B10  1  0.500000  0.053767  0.066578  1
  B  B11  1  0.500000  0.951079  0.930914  1
  B  B12  1  0.500000  0.745302  0.422722  1
  B  B13  1  0.500000  0.254450  0.577957  1
  B  B14  1  0.500000  0.243947  0.075505  1
  B  B15  1  0.500000  0.755237  0.922352  1
  B  B16  1  0.500000  0.803360  0.273997  1
  B  B17  1  0.500000  0.195526  0.728027  1
  B  B18  1  0.500000  0.303094  0.225130  1
  B  B19  1  0.500000  0.697308  0.774431  1
  B  B20  1  0.500000  0.643066  0.187435  1
  B  B21  1  0.500000  0.354293  0.813364  1
  B  B22  1  0.500000  0.143655  0.311652  1
  B  B23  1  0.500000  0.857238  0.688166  1
  B  B24  1  0.500000  0.989405  0.219519  1
  B  B25  1  0.500000  0.014118  0.781809  1
  B  B26  1  0.500000  0.488813  0.279888  1
  B  B27  1  0.500000  0.510744  0.720555  1
  B  B28  1  0.500000  0.637074  0.037445  1
  B  B29  1  0.500000  0.358033  0.960876  1
  B  B30  1  0.500000  0.137248  0.461884  1
  B  B31  1  0.500000  0.863391  0.538169  1
  Mo  Mo32  1  0.000000  0.646934  0.318471  1
  Mo  Mo33  1  0.000000  0.350919  0.684077  1
  Mo  Mo34  1  0.000000  0.146974  0.178396  1
  Mo  Mo35  1  0.000000  0.856739  0.819482  1
