# generated using pymatgen
data_Th3CoCuNiSb4
_symmetry_space_group_name_H-M   'P 1'
_cell_length_a   8.37999444
_cell_length_b   8.38084018
_cell_length_c   8.38254022
_cell_angle_alpha   109.28297242
_cell_angle_beta   109.69029803
_cell_angle_gamma   109.44675172
_symmetry_Int_Tables_number   1
_chemical_formula_structural   Th3CoCuNiSb4
_chemical_formula_sum   'Th6 Co2 Cu2 Ni2 Sb8'
_cell_volume   453.15500478
_cell_formula_units_Z   2
loop_
 _symmetry_equiv_pos_site_id
 _symmetry_equiv_pos_as_xyz
  1  'x, y, z'
loop_
 _atom_site_type_symbol
 _atom_site_label
 _atom_site_symmetry_multiplicity
 _atom_site_fract_x
 _atom_site_fract_y
 _atom_site_fract_z
 _atom_site_occupancy
  Th  Th0  1  0.381803  0.261071  0.631006  1
  Th  Th1  1  0.740666  0.873571  0.112880  1
  Th  Th2  1  0.247282  0.618555  0.383589  1
  Th  Th3  1  0.626802  0.369383  0.252155  1
  Th  Th4  1  0.876853  0.134108  0.754357  1
  Th  Th5  1  0.123990  0.741554  0.864880  1
  Co  Co6  1  0.750235  0.375325  0.624277  1
  Co  Co7  1  0.375043  0.626286  0.749101  1
  Cu  Cu8  1  0.125510  0.874261  0.249252  1
  Cu  Cu9  1  0.623971  0.748768  0.374738  1
  Ni  Ni10  1  0.875050  0.251029  0.126499  1
  Ni  Ni11  1  0.251564  0.125917  0.876711  1
  Sb  Sb12  1  0.998799  0.333393  0.501623  1
  Sb  Sb13  1  0.835572  0.498247  0.996221  1
  Sb  Sb14  1  0.498778  0.999481  0.834780  1
  Sb  Sb15  1  0.663995  0.661560  0.665884  1
  Sb  Sb16  1  0.161119  0.162308  0.159538  1
  Sb  Sb17  1  0.335050  0.496854  0.995672  1
  Sb  Sb18  1  0.504730  0.005344  0.342789  1
  Sb  Sb19  1  0.003189  0.842983  0.504048  1
