# generated using pymatgen
data_Ca2Eu2Sb2O
_symmetry_space_group_name_H-M   'P 1'
_cell_length_a   9.09149015
_cell_length_b   9.09149093
_cell_length_c   6.75248200
_cell_angle_alpha   90.00000000
_cell_angle_beta   90.00000000
_cell_angle_gamma   136.41927008
_symmetry_Int_Tables_number   1
_chemical_formula_structural   Ca2Eu2Sb2O
_chemical_formula_sum   'Ca4 Eu4 Sb4 O2'
_cell_volume   384.75984737
_cell_formula_units_Z   2
loop_
 _symmetry_equiv_pos_site_id
 _symmetry_equiv_pos_as_xyz
  1  'x, y, z'
loop_
 _atom_site_type_symbol
 _atom_site_label
 _atom_site_symmetry_multiplicity
 _atom_site_fract_x
 _atom_site_fract_y
 _atom_site_fract_z
 _atom_site_occupancy
  Ca  Ca0  1  0.250058  0.249942  0.249999  1
  Ca  Ca1  1  0.750059  0.749943  0.249999  1
  Ca  Ca2  1  0.249942  0.250058  0.750000  1
  Ca  Ca3  1  0.749943  0.750059  0.750000  1
  Eu  Eu4  1  0.665143  0.334858  0.000095  1
  Eu  Eu5  1  0.165143  0.834857  0.499905  1
  Eu  Eu6  1  0.834857  0.165143  0.500095  1
  Eu  Eu7  1  0.334858  0.665143  0.999905  1
  Sb  Sb8  1  0.863358  0.136643  0.000202  1
  Sb  Sb9  1  0.363358  0.636643  0.499798  1
  Sb  Sb10  1  0.636643  0.363358  0.500202  1
  Sb  Sb11  1  0.136643  0.863358  0.999799  1
  O  O12  1  0.500000  0.500000  0.000000  1
  O  O13  1  0.000000  0.000000  0.500000  1
