# generated using pymatgen
data_MgSc4Ga2Tc
_symmetry_space_group_name_H-M   'P 1'
_cell_length_a   6.83073200
_cell_length_b   6.74451400
_cell_length_c   6.82885700
_cell_angle_alpha   90.00000000
_cell_angle_beta   90.00325497
_cell_angle_gamma   90.00000000
_symmetry_Int_Tables_number   1
_chemical_formula_structural   MgSc4Ga2Tc
_chemical_formula_sum   'Mg2 Sc8 Ga4 Tc2'
_cell_volume   314.60522051
_cell_formula_units_Z   2
loop_
 _symmetry_equiv_pos_site_id
 _symmetry_equiv_pos_as_xyz
  1  'x, y, z'
loop_
 _atom_site_type_symbol
 _atom_site_label
 _atom_site_symmetry_multiplicity
 _atom_site_fract_x
 _atom_site_fract_y
 _atom_site_fract_z
 _atom_site_occupancy
  Mg  Mg0  1  0.501141  0.250000  0.999995  1
  Mg  Mg1  1  0.498860  0.750000  0.000005  1
  Sc  Sc2  1  0.769905  0.501266  0.269874  1
  Sc  Sc3  1  0.769905  0.998734  0.269874  1
  Sc  Sc4  1  0.230190  0.001257  0.269771  1
  Sc  Sc5  1  0.230190  0.498743  0.269771  1
  Sc  Sc6  1  0.769810  0.501257  0.730229  1
  Sc  Sc7  1  0.769810  0.998743  0.730229  1
  Sc  Sc8  1  0.230095  0.001266  0.730126  1
  Sc  Sc9  1  0.230095  0.498734  0.730126  1
  Ga  Ga10  1  0.997882  0.250000  0.999998  1
  Ga  Ga11  1  0.002118  0.750000  0.000002  1
  Ga  Ga12  1  0.502148  0.250000  0.499972  1
  Ga  Ga13  1  0.497852  0.750000  0.500028  1
  Tc  Tc14  1  0.001448  0.750000  0.500016  1
  Tc  Tc15  1  0.998552  0.250000  0.499984  1
