# generated using pymatgen
data_Er12Co4HgIr
_symmetry_space_group_name_H-M   'P 1'
_cell_length_a   8.22502863
_cell_length_b   8.22502817
_cell_length_c   8.22502877
_cell_angle_alpha   111.35530394
_cell_angle_beta   110.26919852
_cell_angle_gamma   106.82312449
_symmetry_Int_Tables_number   1
_chemical_formula_structural   Er12Co4HgIr
_chemical_formula_sum   'Er12 Co4 Hg1 Ir1'
_cell_volume   427.61909868
_cell_formula_units_Z   1
loop_
 _symmetry_equiv_pos_site_id
 _symmetry_equiv_pos_as_xyz
  1  'x, y, z'
loop_
 _atom_site_type_symbol
 _atom_site_label
 _atom_site_symmetry_multiplicity
 _atom_site_fract_x
 _atom_site_fract_y
 _atom_site_fract_z
 _atom_site_occupancy
  Er  Er0  1  0.182178  0.284472  0.466650  1
  Er  Er1  1  0.817822  0.715528  0.533350  1
  Er  Er2  1  0.182178  0.715528  0.897706  1
  Er  Er3  1  0.817822  0.284472  0.102294  1
  Er  Er4  1  0.315975  0.620841  0.304866  1
  Er  Er5  1  0.684025  0.379159  0.695134  1
  Er  Er6  1  0.315975  0.011108  0.695134  1
  Er  Er7  1  0.684025  0.988892  0.304866  1
  Er  Er8  1  0.413988  0.219357  0.194631  1
  Er  Er9  1  0.586012  0.780643  0.805369  1
  Er  Er10  1  0.024727  0.219357  0.805369  1
  Er  Er11  1  0.975273  0.780643  0.194631  1
  Co  Co12  1  0.112769  0.612769  0.500000  1
  Co  Co13  1  0.887231  0.387231  0.500000  1
  Co  Co14  1  0.376442  0.000000  0.376442  1
  Co  Co15  1  0.623558  0.000000  0.623558  1
  Hg  Hg16  1  0.500000  0.500000  0.000000  1
  Ir  Ir17  1  0.000000  0.000000  0.000000  1
