# generated using pymatgen
data_PrLu(FeB)8
_symmetry_space_group_name_H-M   'P 1'
_cell_length_a   6.98335100
_cell_length_b   6.98335100
_cell_length_c   3.81822400
_cell_angle_alpha   90.00000000
_cell_angle_beta   90.00000000
_cell_angle_gamma   90.00000000
_symmetry_Int_Tables_number   1
_chemical_formula_structural   PrLu(FeB)8
_chemical_formula_sum   'Pr1 Lu1 Fe8 B8'
_cell_volume   186.20405981
_cell_formula_units_Z   1
loop_
 _symmetry_equiv_pos_site_id
 _symmetry_equiv_pos_as_xyz
  1  'x, y, z'
loop_
 _atom_site_type_symbol
 _atom_site_label
 _atom_site_symmetry_multiplicity
 _atom_site_fract_x
 _atom_site_fract_y
 _atom_site_fract_z
 _atom_site_occupancy
  Pr  Pr0  1  0.500000  0.500000  0.500000  1
  Lu  Lu1  1  0.000000  0.000000  0.000000  1
  Fe  Fe2  1  0.129512  0.384109  0.891318  1
  Fe  Fe3  1  0.870488  0.615891  0.891318  1
  Fe  Fe4  1  0.888062  0.365290  0.391594  1
  Fe  Fe5  1  0.111938  0.634710  0.391594  1
  Fe  Fe6  1  0.365290  0.111938  0.608406  1
  Fe  Fe7  1  0.634710  0.888062  0.608406  1
  Fe  Fe8  1  0.615891  0.129512  0.108682  1
  Fe  Fe9  1  0.384109  0.870488  0.108682  1
  B  B10  1  0.669348  0.806177  0.104847  1
  B  B11  1  0.330652  0.193823  0.104847  1
  B  B12  1  0.292748  0.836732  0.607861  1
  B  B13  1  0.707252  0.163268  0.607861  1
  B  B14  1  0.836732  0.707252  0.392139  1
  B  B15  1  0.163268  0.292748  0.392139  1
  B  B16  1  0.193823  0.669348  0.895153  1
  B  B17  1  0.806177  0.330652  0.895153  1
