# generated using pymatgen
data_Y12Er4Cd4Ir3Pd
_symmetry_space_group_name_H-M   'P 1'
_cell_length_a   9.64389397
_cell_length_b   9.64389290
_cell_length_c   9.64389240
_cell_angle_alpha   60.14668871
_cell_angle_beta   60.14669358
_cell_angle_gamma   60.14668829
_symmetry_Int_Tables_number   1
_chemical_formula_structural   Y12Er4Cd4Ir3Pd
_chemical_formula_sum   'Y12 Er4 Cd4 Ir3 Pd1'
_cell_volume   636.33061860
_cell_formula_units_Z   1
loop_
 _symmetry_equiv_pos_site_id
 _symmetry_equiv_pos_as_xyz
  1  'x, y, z'
loop_
 _atom_site_type_symbol
 _atom_site_label
 _atom_site_symmetry_multiplicity
 _atom_site_fract_x
 _atom_site_fract_y
 _atom_site_fract_z
 _atom_site_occupancy
  Y  Y0  1  0.803904  0.191181  0.191181  1
  Y  Y1  1  0.189141  0.809827  0.809827  1
  Y  Y2  1  0.191181  0.803904  0.191181  1
  Y  Y3  1  0.809827  0.189141  0.809827  1
  Y  Y4  1  0.191181  0.191181  0.803904  1
  Y  Y5  1  0.809827  0.809827  0.189141  1
  Y  Y6  1  0.938932  0.562483  0.562483  1
  Y  Y7  1  0.564198  0.937617  0.937617  1
  Y  Y8  1  0.562483  0.938932  0.562483  1
  Y  Y9  1  0.937617  0.564198  0.937617  1
  Y  Y10  1  0.562483  0.562483  0.938932  1
  Y  Y11  1  0.937617  0.937617  0.564198  1
  Er  Er12  1  0.347062  0.347062  0.347062  1
  Er  Er13  1  0.352927  0.352927  0.949632  1
  Er  Er14  1  0.352927  0.949632  0.352927  1
  Er  Er15  1  0.949632  0.352927  0.352927  1
  Cd  Cd16  1  0.580577  0.580577  0.580577  1
  Cd  Cd17  1  0.580660  0.580660  0.256729  1
  Cd  Cd18  1  0.580660  0.256729  0.580660  1
  Cd  Cd19  1  0.256729  0.580660  0.580660  1
  Ir  Ir20  1  0.142779  0.142779  0.570592  1
  Ir  Ir21  1  0.142779  0.570592  0.142779  1
  Ir  Ir22  1  0.570592  0.142779  0.142779  1
  Pd  Pd23  1  0.144289  0.144289  0.144289  1
