# generated using pymatgen
data_Tm9Lu(GaSb)4
_symmetry_space_group_name_H-M   'P 1'
_cell_length_a   8.52366870
_cell_length_b   8.52366797
_cell_length_c   7.82036901
_cell_angle_alpha   89.99806085
_cell_angle_beta   89.99805911
_cell_angle_gamma   125.41982053
_symmetry_Int_Tables_number   1
_chemical_formula_structural   Tm9Lu(GaSb)4
_chemical_formula_sum   'Tm9 Lu1 Ga4 Sb4'
_cell_volume   463.01943980
_cell_formula_units_Z   1
loop_
 _symmetry_equiv_pos_site_id
 _symmetry_equiv_pos_as_xyz
  1  'x, y, z'
loop_
 _atom_site_type_symbol
 _atom_site_label
 _atom_site_symmetry_multiplicity
 _atom_site_fract_x
 _atom_site_fract_y
 _atom_site_fract_z
 _atom_site_occupancy
  Tm  Tm0  1  0.538765  0.797068  0.166827  1
  Tm  Tm1  1  0.297322  0.038972  0.333339  1
  Tm  Tm2  1  0.202932  0.461235  0.833173  1
  Tm  Tm3  1  0.961028  0.702678  0.666661  1
  Tm  Tm4  1  0.702678  0.961028  0.666661  1
  Tm  Tm5  1  0.461235  0.202932  0.833173  1
  Tm  Tm6  1  0.797068  0.538765  0.166827  1
  Tm  Tm7  1  0.038972  0.297322  0.333339  1
  Tm  Tm8  1  0.000000  0.000000  0.000000  1
  Lu  Lu9  1  0.500000  0.500000  0.500000  1
  Ga  Ga10  1  0.627190  0.627190  0.872770  1
  Ga  Ga11  1  0.127504  0.127504  0.626914  1
  Ga  Ga12  1  0.872496  0.872496  0.373086  1
  Ga  Ga13  1  0.372810  0.372810  0.127230  1
  Sb  Sb14  1  0.294430  0.705570  0.500000  1
  Sb  Sb15  1  0.205790  0.794210  0.000000  1
  Sb  Sb16  1  0.705570  0.294430  0.500000  1
  Sb  Sb17  1  0.794210  0.205790  0.000000  1
