# generated using pymatgen
data_Dy13Tm7(Bi2As)4
_symmetry_space_group_name_H-M   'P 1'
_cell_length_a   8.03127666
_cell_length_b   9.08657971
_cell_length_c   12.07687558
_cell_angle_alpha   90.00265824
_cell_angle_beta   90.08612701
_cell_angle_gamma   90.01115503
_symmetry_Int_Tables_number   1
_chemical_formula_structural   Dy13Tm7(Bi2As)4
_chemical_formula_sum   'Dy13 Tm7 Bi8 As4'
_cell_volume   881.33114976
_cell_formula_units_Z   1
loop_
 _symmetry_equiv_pos_site_id
 _symmetry_equiv_pos_as_xyz
  1  'x, y, z'
loop_
 _atom_site_type_symbol
 _atom_site_label
 _atom_site_symmetry_multiplicity
 _atom_site_fract_x
 _atom_site_fract_y
 _atom_site_fract_z
 _atom_site_occupancy
  Dy  Dy0  1  0.847798  0.750437  0.788503  1
  Dy  Dy1  1  0.152581  0.250352  0.211645  1
  Dy  Dy2  1  0.348331  0.250287  0.710879  1
  Dy  Dy3  1  0.652398  0.750065  0.288550  1
  Dy  Dy4  1  0.366759  0.750340  0.705357  1
  Dy  Dy5  1  0.633466  0.250485  0.294035  1
  Dy  Dy6  1  0.866409  0.250287  0.793927  1
  Dy  Dy7  1  0.133446  0.750039  0.206302  1
  Dy  Dy8  1  0.963760  0.750268  0.501039  1
  Dy  Dy9  1  0.036038  0.250189  0.498768  1
  Dy  Dy10  1  0.463689  0.249913  0.998860  1
  Dy  Dy11  1  0.536856  0.750256  0.001414  1
  Dy  Dy12  1  0.183488  0.554238  0.936378  1
  Tm  Tm13  1  0.682621  0.057049  0.563673  1
  Tm  Tm14  1  0.317520  0.943495  0.436077  1
  Tm  Tm15  1  0.182903  0.943162  0.935930  1
  Tm  Tm16  1  0.317757  0.556857  0.436353  1
  Tm  Tm17  1  0.816357  0.055909  0.064295  1
  Tm  Tm18  1  0.682423  0.443259  0.563529  1
  Tm  Tm19  1  0.817694  0.443278  0.063873  1
  Bi  Bi20  1  0.576808  0.491801  0.827233  1
  Bi  Bi21  1  0.423288  0.508784  0.172939  1
  Bi  Bi22  1  0.076184  0.508804  0.672389  1
  Bi  Bi23  1  0.423510  0.991582  0.172912  1
  Bi  Bi24  1  0.923543  0.491569  0.327381  1
  Bi  Bi25  1  0.576533  0.008746  0.827183  1
  Bi  Bi26  1  0.923444  0.008884  0.327248  1
  Bi  Bi27  1  0.076621  0.991749  0.672606  1
  As  As28  1  0.586110  0.750324  0.519476  1
  As  As29  1  0.414166  0.249967  0.479989  1
  As  As30  1  0.083389  0.246738  0.981536  1
  As  As31  1  0.914110  0.750885  0.019723  1
