# generated using pymatgen
data_CeYHo2(Co3Si5)2
_symmetry_space_group_name_H-M   'P 1'
_cell_length_a   7.89536851
_cell_length_b   7.89018499
_cell_length_c   7.89018502
_cell_angle_alpha   138.71301128
_cell_angle_beta   105.32638339
_cell_angle_gamma   89.08927555
_symmetry_Int_Tables_number   1
_chemical_formula_structural   CeYHo2(Co3Si5)2
_chemical_formula_sum   'Ce1 Y1 Ho2 Co6 Si10'
_cell_volume   299.61924445
_cell_formula_units_Z   1
loop_
 _symmetry_equiv_pos_site_id
 _symmetry_equiv_pos_as_xyz
  1  'x, y, z'
loop_
 _atom_site_type_symbol
 _atom_site_label
 _atom_site_symmetry_multiplicity
 _atom_site_fract_x
 _atom_site_fract_y
 _atom_site_fract_z
 _atom_site_occupancy
  Ce  Ce0  1  0.601069  0.866291  0.734778  1
  Y  Y1  1  0.867806  0.633084  0.234721  1
  Ho  Ho2  1  0.132783  0.367074  0.765710  1
  Ho  Ho3  1  0.396807  0.132352  0.264455  1
  Co  Co4  1  0.998829  0.750236  0.751047  1
  Co  Co5  1  0.998829  0.247782  0.248593  1
  Co  Co6  1  0.255784  0.864613  0.391170  1
  Co  Co7  1  0.749658  0.137387  0.612271  1
  Co  Co8  1  0.472382  0.362744  0.109639  1
  Co  Co9  1  0.524876  0.638031  0.886845  1
  Si  Si10  1  0.502324  0.752254  0.248200  1
  Si  Si11  1  0.502324  0.254125  0.750071  1
  Si  Si12  1  0.227412  0.976831  0.748210  1
  Si  Si13  1  0.770135  0.517449  0.749181  1
  Si  Si14  1  0.770135  0.020954  0.252686  1
  Si  Si15  1  0.227412  0.479202  0.250581  1
  Si  Si16  1  0.054545  0.897840  0.156704  1
  Si  Si17  1  0.947859  0.103008  0.844852  1
  Si  Si18  1  0.743905  0.398381  0.345524  1
  Si  Si19  1  0.255124  0.600363  0.654762  1
