# generated using pymatgen
data_DyHo9(In2Au)4
_symmetry_space_group_name_H-M   'P 1'
_cell_length_a   3.65923800
_cell_length_b   8.20610400
_cell_length_c   18.42137900
_cell_angle_alpha   90.00143452
_cell_angle_beta   90.00000000
_cell_angle_gamma   90.00000000
_symmetry_Int_Tables_number   1
_chemical_formula_structural   DyHo9(In2Au)4
_chemical_formula_sum   'Dy1 Ho9 In8 Au4'
_cell_volume   553.15878203
_cell_formula_units_Z   1
loop_
 _symmetry_equiv_pos_site_id
 _symmetry_equiv_pos_as_xyz
  1  'x, y, z'
loop_
 _atom_site_type_symbol
 _atom_site_label
 _atom_site_symmetry_multiplicity
 _atom_site_fract_x
 _atom_site_fract_y
 _atom_site_fract_z
 _atom_site_occupancy
  Dy  Dy0  1  0.000000  0.500000  0.500000  1
  Ho  Ho1  1  0.000000  0.000000  0.000000  1
  Ho  Ho2  1  0.000000  0.737087  0.281333  1
  Ho  Ho3  1  0.000000  0.262913  0.718667  1
  Ho  Ho4  1  0.000000  0.762911  0.781333  1
  Ho  Ho5  1  0.000000  0.237089  0.218667  1
  Ho  Ho6  1  0.000000  0.618285  0.079814  1
  Ho  Ho7  1  0.000000  0.381715  0.920186  1
  Ho  Ho8  1  0.000000  0.881748  0.579830  1
  Ho  Ho9  1  0.000000  0.118252  0.420170  1
  In  In10  1  0.500000  0.712878  0.932522  1
  In  In11  1  0.500000  0.287122  0.067478  1
  In  In12  1  0.500000  0.787367  0.432456  1
  In  In13  1  0.500000  0.212633  0.567544  1
  In  In14  1  0.500000  0.580643  0.646893  1
  In  In15  1  0.500000  0.419357  0.353107  1
  In  In16  1  0.500000  0.919421  0.146809  1
  In  In17  1  0.500000  0.080579  0.853191  1
  Au  Au18  1  0.500000  0.525923  0.196480  1
  Au  Au19  1  0.500000  0.474077  0.803520  1
  Au  Au20  1  0.500000  0.974091  0.696499  1
  Au  Au21  1  0.500000  0.025909  0.303501  1
