# generated using pymatgen
data_Nd2Sn(AsRh2)6
_symmetry_space_group_name_H-M   'P 1'
_cell_length_a   10.09078000
_cell_length_b   10.09077929
_cell_length_c   3.99139800
_cell_angle_alpha   90.00000000
_cell_angle_beta   90.00000000
_cell_angle_gamma   120.00000234
_symmetry_Int_Tables_number   1
_chemical_formula_structural   Nd2Sn(AsRh2)6
_chemical_formula_sum   'Nd2 Sn1 As6 Rh12'
_cell_volume   351.96955706
_cell_formula_units_Z   1
loop_
 _symmetry_equiv_pos_site_id
 _symmetry_equiv_pos_as_xyz
  1  'x, y, z'
loop_
 _atom_site_type_symbol
 _atom_site_label
 _atom_site_symmetry_multiplicity
 _atom_site_fract_x
 _atom_site_fract_y
 _atom_site_fract_z
 _atom_site_occupancy
  Nd  Nd0  1  0.333333  0.666667  0.751847  1
  Nd  Nd1  1  0.000000  0.000000  0.248907  1
  Sn  Sn2  1  0.666667  0.333333  0.592912  1
  As  As3  1  0.955477  0.217670  0.747898  1
  As  As4  1  0.782330  0.737807  0.747898  1
  As  As5  1  0.262193  0.044523  0.747898  1
  As  As6  1  0.377294  0.446735  0.252993  1
  As  As7  1  0.553265  0.930559  0.252993  1
  As  As8  1  0.069441  0.622706  0.252993  1
  Rh  Rh9  1  0.730232  0.951005  0.749927  1
  Rh  Rh10  1  0.048995  0.779226  0.749927  1
  Rh  Rh11  1  0.220774  0.269768  0.749927  1
  Rh  Rh12  1  0.605675  0.719305  0.251829  1
  Rh  Rh13  1  0.280695  0.886370  0.251829  1
  Rh  Rh14  1  0.113630  0.394325  0.251829  1
  Rh  Rh15  1  0.953279  0.458994  0.756442  1
  Rh  Rh16  1  0.541006  0.494285  0.756442  1
  Rh  Rh17  1  0.505715  0.046721  0.756442  1
  Rh  Rh18  1  0.394768  0.212065  0.244418  1
  Rh  Rh19  1  0.787935  0.182703  0.244418  1
  Rh  Rh20  1  0.817297  0.605232  0.244418  1
