# generated using pymatgen
data_YbHoLu2(Al8Pt3)3
_symmetry_space_group_name_H-M   'P 1'
_cell_length_a   7.51239144
_cell_length_b   7.53208451
_cell_length_c   13.16001118
_cell_angle_alpha   84.61824182
_cell_angle_beta   79.12289083
_cell_angle_gamma   59.92668785
_symmetry_Int_Tables_number   1
_chemical_formula_structural   YbHoLu2(Al8Pt3)3
_chemical_formula_sum   'Yb1 Ho1 Lu2 Al24 Pt9'
_cell_volume   632.82758773
_cell_formula_units_Z   1
loop_
 _symmetry_equiv_pos_site_id
 _symmetry_equiv_pos_as_xyz
  1  'x, y, z'
loop_
 _atom_site_type_symbol
 _atom_site_label
 _atom_site_symmetry_multiplicity
 _atom_site_fract_x
 _atom_site_fract_y
 _atom_site_fract_z
 _atom_site_occupancy
  Yb  Yb0  1  0.393954  0.168499  0.807753  1
  Ho  Ho1  1  0.605224  0.831909  0.192339  1
  Lu  Lu2  1  0.734140  0.498761  0.807118  1
  Lu  Lu3  1  0.266201  0.500777  0.192888  1
  Al  Al4  1  0.684177  0.833125  0.944410  1
  Al  Al5  1  0.315602  0.166748  0.056170  1
  Al  Al6  1  0.146885  0.832114  0.560926  1
  Al  Al7  1  0.853414  0.167964  0.437959  1
  Al  Al8  1  0.479747  0.166586  0.558692  1
  Al  Al9  1  0.520442  0.833568  0.440779  1
  Al  Al10  1  0.218051  0.165710  0.327458  1
  Al  Al11  1  0.781765  0.835148  0.671630  1
  Al  Al12  1  0.436999  0.505936  0.671357  1
  Al  Al13  1  0.563394  0.493039  0.327608  1
  Al  Al14  1  0.109592  0.160326  0.670040  1
  Al  Al15  1  0.891366  0.839769  0.328991  1
  Al  Al16  1  0.353476  0.499232  0.944822  1
  Al  Al17  1  0.645612  0.501200  0.056710  1
  Al  Al18  1  0.015066  0.168720  0.953285  1
  Al  Al19  1  0.984024  0.831071  0.048572  1
  Al  Al20  1  0.186815  0.499333  0.440682  1
  Al  Al21  1  0.813607  0.500379  0.558379  1
  Al  Al22  1  0.733192  0.164979  0.183255  1
  Al  Al23  1  0.268211  0.831952  0.817070  1
  Al  Al24  1  0.058219  0.632439  0.816162  1
  Al  Al25  1  0.938742  0.369552  0.184354  1
  Al  Al26  1  0.856409  0.043803  0.816660  1
  Al  Al27  1  0.145542  0.957500  0.183797  1
  Pt  Pt28  1  0.119100  0.492434  0.638604  1
  Pt  Pt29  1  0.880731  0.508812  0.360493  1
  Pt  Pt30  1  0.656908  0.171304  0.000659  1
  Pt  Pt31  1  0.342228  0.828386  0.001208  1
  Pt  Pt32  1  0.537409  0.167074  0.360617  1
  Pt  Pt33  1  0.462686  0.832073  0.638504  1
  Pt  Pt34  1  0.779255  0.175274  0.637145  1
  Pt  Pt35  1  0.222180  0.824089  0.361800  1
  Pt  Pt36  1  0.999638  0.500415  0.001102  1
