# generated using pymatgen
data_Tm12Fe2Co3Bi
_symmetry_space_group_name_H-M   'P 1'
_cell_length_a   8.16730460
_cell_length_b   8.16730463
_cell_length_c   8.16730342
_cell_angle_alpha   111.19655500
_cell_angle_beta   111.73225538
_cell_angle_gamma   105.55490432
_symmetry_Int_Tables_number   1
_chemical_formula_structural   Tm12Fe2Co3Bi
_chemical_formula_sum   'Tm12 Fe2 Co3 Bi1'
_cell_volume   417.92003843
_cell_formula_units_Z   1
loop_
 _symmetry_equiv_pos_site_id
 _symmetry_equiv_pos_as_xyz
  1  'x, y, z'
loop_
 _atom_site_type_symbol
 _atom_site_label
 _atom_site_symmetry_multiplicity
 _atom_site_fract_x
 _atom_site_fract_y
 _atom_site_fract_z
 _atom_site_occupancy
  Tm  Tm0  1  0.283180  0.184731  0.467911  1
  Tm  Tm1  1  0.716820  0.815269  0.532089  1
  Tm  Tm2  1  0.283180  0.815269  0.098448  1
  Tm  Tm3  1  0.716820  0.184731  0.901552  1
  Tm  Tm4  1  0.619049  0.310841  0.308207  1
  Tm  Tm5  1  0.380951  0.689159  0.691793  1
  Tm  Tm6  1  0.002634  0.310841  0.691793  1
  Tm  Tm7  1  0.997366  0.689159  0.308207  1
  Tm  Tm8  1  0.209894  0.406431  0.196539  1
  Tm  Tm9  1  0.790106  0.593569  0.803461  1
  Tm  Tm10  1  0.209894  0.013355  0.803461  1
  Tm  Tm11  1  0.790106  0.986645  0.196539  1
  Fe  Fe12  1  0.000000  0.381472  0.381472  1
  Fe  Fe13  1  0.000000  0.618528  0.618528  1
  Co  Co14  1  0.388887  0.888887  0.500000  1
  Co  Co15  1  0.611113  0.111113  0.500000  1
  Co  Co16  1  0.000000  0.000000  0.000000  1
  Bi  Bi17  1  0.500000  0.500000  0.000000  1
