# generated using pymatgen
data_Rb2Bi8S13
_symmetry_space_group_name_H-M   'P 1'
_cell_length_a   4.07488094
_cell_length_b   12.08675471
_cell_length_c   13.55880277
_cell_angle_alpha   93.37215856
_cell_angle_beta   98.64078874
_cell_angle_gamma   89.99859069
_symmetry_Int_Tables_number   1
_chemical_formula_structural   Rb2Bi8S13
_chemical_formula_sum   'Rb2 Bi8 S13'
_cell_volume   659.05016045
_cell_formula_units_Z   1
loop_
 _symmetry_equiv_pos_site_id
 _symmetry_equiv_pos_as_xyz
  1  'x, y, z'
loop_
 _atom_site_type_symbol
 _atom_site_label
 _atom_site_symmetry_multiplicity
 _atom_site_fract_x
 _atom_site_fract_y
 _atom_site_fract_z
 _atom_site_occupancy
  Rb  Rb0  1  0.587323  0.053619  0.175384  1
  Rb  Rb1  1  0.412659  0.946380  0.824617  1
  Bi  Bi2  1  0.556784  0.384483  0.113948  1
  Bi  Bi3  1  0.077428  0.702842  0.154335  1
  Bi  Bi4  1  0.188674  0.456252  0.376589  1
  Bi  Bi5  1  0.718844  0.868816  0.438161  1
  Bi  Bi6  1  0.281143  0.131184  0.561841  1
  Bi  Bi7  1  0.811329  0.543748  0.623409  1
  Bi  Bi8  1  0.922573  0.297160  0.845665  1
  Bi  Bi9  1  0.443215  0.615517  0.886054  1
  S  S10  1  0.000008  0.500003  0.000001  1
  S  S11  1  0.522002  0.791451  0.043995  1
  S  S12  1  0.106838  0.284306  0.214187  1
  S  S13  1  0.628848  0.567266  0.257568  1
  S  S14  1  0.143058  0.875331  0.286012  1
  S  S15  1  0.711359  0.082626  0.421927  1
  S  S16  1  0.742336  0.362875  0.484232  1
  S  S17  1  0.257662  0.637123  0.515766  1
  S  S18  1  0.288644  0.917375  0.578072  1
  S  S19  1  0.856941  0.124669  0.713988  1
  S  S20  1  0.371161  0.432734  0.742432  1
  S  S21  1  0.893162  0.715693  0.785813  1
  S  S22  1  0.478002  0.208550  0.956005  1
