# generated using pymatgen
data_YbErSiN3
_symmetry_space_group_name_H-M   'P 1'
_cell_length_a   5.79096012
_cell_length_b   5.79095860
_cell_length_c   11.20504400
_cell_angle_alpha   90.00000000
_cell_angle_beta   90.00000000
_cell_angle_gamma   125.37336318
_symmetry_Int_Tables_number   1
_chemical_formula_structural   YbErSiN3
_chemical_formula_sum   'Yb4 Er4 Si4 N12'
_cell_volume   306.39644195
_cell_formula_units_Z   4
loop_
 _symmetry_equiv_pos_site_id
 _symmetry_equiv_pos_as_xyz
  1  'x, y, z'
loop_
 _atom_site_type_symbol
 _atom_site_label
 _atom_site_symmetry_multiplicity
 _atom_site_fract_x
 _atom_site_fract_y
 _atom_site_fract_z
 _atom_site_occupancy
  Yb  Yb0  1  0.044563  0.955437  0.855014  1
  Yb  Yb1  1  0.955437  0.044563  0.144986  1
  Yb  Yb2  1  0.455437  0.544563  0.355014  1
  Yb  Yb3  1  0.544563  0.455437  0.644986  1
  Er  Er4  1  0.641211  0.358789  0.077852  1
  Er  Er5  1  0.358789  0.641211  0.922148  1
  Er  Er6  1  0.858789  0.141211  0.577852  1
  Er  Er7  1  0.141211  0.858789  0.422148  1
  Si  Si8  1  0.738415  0.261585  0.838889  1
  Si  Si9  1  0.261585  0.738415  0.161111  1
  Si  Si10  1  0.761585  0.238415  0.338889  1
  Si  Si11  1  0.238415  0.761585  0.661111  1
  N  N12  1  0.572076  0.427924  0.871201  1
  N  N13  1  0.427924  0.572076  0.128799  1
  N  N14  1  0.927924  0.072076  0.371201  1
  N  N15  1  0.072076  0.927924  0.628799  1
  N  N16  1  0.533918  0.966082  0.750000  1
  N  N17  1  0.966082  0.533918  0.250000  1
  N  N18  1  0.466082  0.033918  0.250000  1
  N  N19  1  0.033918  0.466082  0.750000  1
  N  N20  1  0.838882  0.161118  0.963460  1
  N  N21  1  0.161118  0.838882  0.036540  1
  N  N22  1  0.661118  0.338882  0.463460  1
  N  N23  1  0.338882  0.661118  0.536540  1
