# generated using pymatgen
data_Ce3Sn2Rh3Pb
_symmetry_space_group_name_H-M   'P 1'
_cell_length_a   7.55582328
_cell_length_b   7.55582278
_cell_length_c   4.08302700
_cell_angle_alpha   90.00000000
_cell_angle_beta   90.00000000
_cell_angle_gamma   119.52380933
_symmetry_Int_Tables_number   1
_chemical_formula_structural   Ce3Sn2Rh3Pb
_chemical_formula_sum   'Ce3 Sn2 Rh3 Pb1'
_cell_volume   202.83384670
_cell_formula_units_Z   1
loop_
 _symmetry_equiv_pos_site_id
 _symmetry_equiv_pos_as_xyz
  1  'x, y, z'
loop_
 _atom_site_type_symbol
 _atom_site_label
 _atom_site_symmetry_multiplicity
 _atom_site_fract_x
 _atom_site_fract_y
 _atom_site_fract_z
 _atom_site_occupancy
  Ce  Ce0  1  0.588937  0.006104  0.500001  1
  Ce  Ce1  1  0.409297  0.409297  0.500001  1
  Ce  Ce2  1  0.006104  0.588937  0.500001  1
  Sn  Sn3  1  0.254777  0.000297  0.000000  1
  Sn  Sn4  1  0.000299  0.254777  0.000000  1
  Rh  Rh5  1  0.661586  0.319908  0.000000  1
  Rh  Rh6  1  0.319908  0.661587  0.000000  1
  Rh  Rh7  1  0.014731  0.014733  0.500001  1
  Pb  Pb8  1  0.744458  0.744458  0.000000  1
