# generated using pymatgen
data_Zr3AlGaGeOs3
_symmetry_space_group_name_H-M   'P 1'
_cell_length_a   6.97349100
_cell_length_b   6.97349094
_cell_length_c   3.58424800
_cell_angle_alpha   90.00000000
_cell_angle_beta   90.00000000
_cell_angle_gamma   120.00000503
_symmetry_Int_Tables_number   1
_chemical_formula_structural   Zr3AlGaGeOs3
_chemical_formula_sum   'Zr3 Al1 Ga1 Ge1 Os3'
_cell_volume   150.94861998
_cell_formula_units_Z   1
loop_
 _symmetry_equiv_pos_site_id
 _symmetry_equiv_pos_as_xyz
  1  'x, y, z'
loop_
 _atom_site_type_symbol
 _atom_site_label
 _atom_site_symmetry_multiplicity
 _atom_site_fract_x
 _atom_site_fract_y
 _atom_site_fract_z
 _atom_site_occupancy
  Zr  Zr0  1  0.410982  0.410454  0.500000  1
  Zr  Zr1  1  0.589546  0.000528  0.500000  1
  Zr  Zr2  1  0.999472  0.589018  0.500000  1
  Al  Al3  1  0.000000  0.000000  0.500000  1
  Ga  Ga4  1  0.666667  0.333333  0.000000  1
  Ge  Ge5  1  0.333333  0.666667  0.000000  1
  Os  Os6  1  0.747716  0.751463  0.000000  1
  Os  Os7  1  0.248537  0.996253  0.000000  1
  Os  Os8  1  0.003747  0.252284  0.000000  1
