# generated using pymatgen
data_Sm4Tm4Tc(B8Ru)3
_symmetry_space_group_name_H-M   'P 1'
_cell_length_a   3.68087500
_cell_length_b   9.15921963
_cell_length_c   11.58189002
_cell_angle_alpha   89.91587245
_cell_angle_beta   90.00000000
_cell_angle_gamma   90.00000000
_symmetry_Int_Tables_number   1
_chemical_formula_structural   Sm4Tm4Tc(B8Ru)3
_chemical_formula_sum   'Sm4 Tm4 Tc1 B24 Ru3'
_cell_volume   390.47075401
_cell_formula_units_Z   1
loop_
 _symmetry_equiv_pos_site_id
 _symmetry_equiv_pos_as_xyz
  1  'x, y, z'
loop_
 _atom_site_type_symbol
 _atom_site_label
 _atom_site_symmetry_multiplicity
 _atom_site_fract_x
 _atom_site_fract_y
 _atom_site_fract_z
 _atom_site_occupancy
  Sm  Sm0  1  0.000000  0.323770  0.413351  1
  Sm  Sm1  1  0.000000  0.677394  0.583654  1
  Sm  Sm2  1  0.000000  0.820747  0.087395  1
  Sm  Sm3  1  0.000000  0.176929  0.915061  1
  Tm  Tm4  1  0.000000  0.943200  0.372142  1
  Tm  Tm5  1  0.000000  0.057128  0.628355  1
  Tm  Tm6  1  0.000000  0.444432  0.128552  1
  Tm  Tm7  1  0.000000  0.556637  0.871123  1
  Tc  Tc8  1  0.000000  0.638953  0.319708  1
  B  B9  1  0.500000  0.554348  0.431467  1
  B  B10  1  0.500000  0.444914  0.568887  1
  B  B11  1  0.500000  0.055163  0.068766  1
  B  B12  1  0.500000  0.944509  0.931639  1
  B  B13  1  0.500000  0.749934  0.417833  1
  B  B14  1  0.500000  0.250282  0.582149  1
  B  B15  1  0.500000  0.249704  0.081829  1
  B  B16  1  0.500000  0.750110  0.918012  1
  B  B17  1  0.500000  0.791515  0.266382  1
  B  B18  1  0.500000  0.209022  0.733771  1
  B  B19  1  0.500000  0.290985  0.233007  1
  B  B20  1  0.500000  0.709460  0.766226  1
  B  B21  1  0.500000  0.630390  0.185384  1
  B  B22  1  0.500000  0.369346  0.815125  1
  B  B23  1  0.500000  0.130441  0.314579  1
  B  B24  1  0.500000  0.869984  0.685043  1
  B  B25  1  0.500000  0.984115  0.213808  1
  B  B26  1  0.500000  0.015805  0.786812  1
  B  B27  1  0.500000  0.483289  0.286240  1
  B  B28  1  0.500000  0.515674  0.713646  1
  B  B29  1  0.500000  0.602295  0.027416  1
  B  B30  1  0.500000  0.397239  0.971477  1
  B  B31  1  0.500000  0.103143  0.472133  1
  B  B32  1  0.500000  0.898401  0.528571  1
  Ru  Ru33  1  0.000000  0.360697  0.680922  1
  Ru  Ru34  1  0.000000  0.139062  0.180074  1
  Ru  Ru35  1  0.000000  0.860984  0.819462  1
