# generated using pymatgen
data_Tm4Al3V(WO6)4
_symmetry_space_group_name_H-M   'P 1'
_cell_length_a   5.14009799
_cell_length_b   7.29168500
_cell_length_c   10.90038159
_cell_angle_alpha   89.84289830
_cell_angle_beta   89.87778286
_cell_angle_gamma   89.97509762
_symmetry_Int_Tables_number   1
_chemical_formula_structural   Tm4Al3V(WO6)4
_chemical_formula_sum   'Tm4 Al3 V1 W4 O24'
_cell_volume   408.54353111
_cell_formula_units_Z   1
loop_
 _symmetry_equiv_pos_site_id
 _symmetry_equiv_pos_as_xyz
  1  'x, y, z'
loop_
 _atom_site_type_symbol
 _atom_site_label
 _atom_site_symmetry_multiplicity
 _atom_site_fract_x
 _atom_site_fract_y
 _atom_site_fract_z
 _atom_site_occupancy
  Tm  Tm0  1  0.546710  0.255180  0.050041  1
  Tm  Tm1  1  0.047929  0.752703  0.454708  1
  Tm  Tm2  1  0.953359  0.253411  0.541269  1
  Tm  Tm3  1  0.455998  0.751516  0.957332  1
  Al  Al4  1  0.046388  0.508282  0.135468  1
  Al  Al5  1  0.548181  0.007066  0.364634  1
  Al  Al6  1  0.455137  0.507559  0.635028  1
  V  V7  1  0.948893  0.006223  0.865600  1
  W  W8  1  0.056678  0.998001  0.147124  1
  W  W9  1  0.554430  0.498359  0.355509  1
  W  W10  1  0.443108  0.998454  0.640627  1
  W  W11  1  0.947772  0.496984  0.854822  1
  O  O12  1  0.760742  0.546138  0.024080  1
  O  O13  1  0.759301  0.958456  0.032600  1
  O  O14  1  0.173095  0.749118  0.118178  1
  O  O15  1  0.942548  0.254037  0.143713  1
  O  O16  1  0.382584  0.066501  0.216099  1
  O  O17  1  0.373941  0.440160  0.211438  1
  O  O18  1  0.876593  0.938483  0.290879  1
  O  O19  1  0.882347  0.566006  0.286709  1
  O  O20  1  0.440796  0.753268  0.356210  1
  O  O21  1  0.672173  0.249356  0.380684  1
  O  O22  1  0.264339  0.460318  0.475652  1
  O  O23  1  0.260283  0.043345  0.472833  1
  O  O24  1  0.741295  0.544024  0.522788  1
  O  O25  1  0.735934  0.960164  0.522393  1
  O  O26  1  0.325586  0.747931  0.616119  1
  O  O27  1  0.564236  0.253634  0.642153  1
  O  O28  1  0.114850  0.073360  0.700793  1
  O  O29  1  0.127651  0.437115  0.711618  1
  O  O30  1  0.604565  0.933059  0.788050  1
  O  O31  1  0.622731  0.567459  0.785871  1
  O  O32  1  0.071509  0.747449  0.855675  1
  O  O33  1  0.812141  0.254387  0.884635  1
  O  O34  1  0.235501  0.457620  0.976371  1
  O  O35  1  0.250677  0.045276  0.982292  1
