# generated using pymatgen
data_Nb12Al3Ga5Fe4CN3
_symmetry_space_group_name_H-M   'P 1'
_cell_length_a   8.19242351
_cell_length_b   8.19242306
_cell_length_c   8.19242400
_cell_angle_alpha   59.97277740
_cell_angle_beta   59.97277922
_cell_angle_gamma   59.97277388
_symmetry_Int_Tables_number   1
_chemical_formula_structural   Nb12Al3Ga5Fe4CN3
_chemical_formula_sum   'Nb12 Al3 Ga5 Fe4 C1 N3'
_cell_volume   388.55634691
_cell_formula_units_Z   1
loop_
 _symmetry_equiv_pos_site_id
 _symmetry_equiv_pos_as_xyz
  1  'x, y, z'
loop_
 _atom_site_type_symbol
 _atom_site_label
 _atom_site_symmetry_multiplicity
 _atom_site_fract_x
 _atom_site_fract_y
 _atom_site_fract_z
 _atom_site_occupancy
  Nb  Nb0  1  0.806239  0.804472  0.194400  1
  Nb  Nb1  1  0.193438  0.198293  0.804178  1
  Nb  Nb2  1  0.806239  0.194400  0.804472  1
  Nb  Nb3  1  0.193438  0.804178  0.198293  1
  Nb  Nb4  1  0.193232  0.804161  0.804161  1
  Nb  Nb5  1  0.806002  0.194728  0.194728  1
  Nb  Nb6  1  0.444345  0.446307  0.054302  1
  Nb  Nb7  1  0.056977  0.051910  0.445596  1
  Nb  Nb8  1  0.444345  0.054302  0.446307  1
  Nb  Nb9  1  0.056977  0.445596  0.051910  1
  Nb  Nb10  1  0.055760  0.446090  0.446090  1
  Nb  Nb11  1  0.443906  0.055024  0.055024  1
  Al  Al12  1  0.747483  0.417566  0.417566  1
  Al  Al13  1  0.420723  0.746512  0.416578  1
  Al  Al14  1  0.420723  0.416578  0.746512  1
  Ga  Ga15  1  0.419025  0.415243  0.415243  1
  Ga  Ga16  1  0.496640  0.834445  0.834445  1
  Ga  Ga17  1  0.831439  0.497969  0.835324  1
  Ga  Ga18  1  0.831439  0.835324  0.497969  1
  Ga  Ga19  1  0.831522  0.835310  0.835310  1
  Fe  Fe20  1  0.125341  0.625501  0.625501  1
  Fe  Fe21  1  0.625567  0.125705  0.625616  1
  Fe  Fe22  1  0.625567  0.625616  0.125705  1
  Fe  Fe23  1  0.624254  0.624479  0.624479  1
  C  C24  1  0.624116  0.125388  0.125388  1
  N  N25  1  0.125209  0.624482  0.125450  1
  N  N26  1  0.125209  0.125450  0.624482  1
  N  N27  1  0.124841  0.124968  0.124968  1
