# generated using pymatgen
data_Zr5Ti3Co16(Si3P)3
_symmetry_space_group_name_H-M   'P 1'
_cell_length_a   12.13651100
_cell_length_b   12.13651176
_cell_length_c   3.67903800
_cell_angle_alpha   90.00000000
_cell_angle_beta   90.00000000
_cell_angle_gamma   119.99999522
_symmetry_Int_Tables_number   1
_chemical_formula_structural   Zr5Ti3Co16(Si3P)3
_chemical_formula_sum   'Zr5 Ti3 Co16 Si9 P3'
_cell_volume   469.30227656
_cell_formula_units_Z   1
loop_
 _symmetry_equiv_pos_site_id
 _symmetry_equiv_pos_as_xyz
  1  'x, y, z'
loop_
 _atom_site_type_symbol
 _atom_site_label
 _atom_site_symmetry_multiplicity
 _atom_site_fract_x
 _atom_site_fract_y
 _atom_site_fract_z
 _atom_site_occupancy
  Zr  Zr0  1  0.666667  0.333333  0.000000  1
  Zr  Zr1  1  0.333333  0.666667  0.000000  1
  Zr  Zr2  1  0.815526  0.815526  0.500000  1
  Zr  Zr3  1  0.184474  0.000000  0.500000  1
  Zr  Zr4  1  0.000000  0.184474  0.500000  1
  Ti  Ti5  1  0.436535  0.436535  0.000000  1
  Ti  Ti6  1  0.563465  0.000000  0.000000  1
  Ti  Ti7  1  0.000000  0.563465  0.000000  1
  Co  Co8  1  0.195216  0.370044  0.000000  1
  Co  Co9  1  0.174828  0.804784  0.000000  1
  Co  Co10  1  0.825172  0.629956  0.000000  1
  Co  Co11  1  0.804784  0.174828  0.000000  1
  Co  Co12  1  0.370044  0.195216  0.000000  1
  Co  Co13  1  0.122269  0.479397  0.500000  1
  Co  Co14  1  0.357128  0.877731  0.500000  1
  Co  Co15  1  0.520603  0.642872  0.500000  1
  Co  Co16  1  0.642872  0.520603  0.500000  1
  Co  Co17  1  0.877731  0.357128  0.500000  1
  Co  Co18  1  0.479397  0.122269  0.500000  1
  Co  Co19  1  0.000000  0.000000  0.000000  1
  Co  Co20  1  0.724767  0.000000  0.500000  1
  Co  Co21  1  0.000000  0.724767  0.500000  1
  Co  Co22  1  0.629956  0.825172  0.000000  1
  Co  Co23  1  0.275233  0.275233  0.500000  1
  Si  Si24  1  0.643703  0.643703  0.000000  1
  Si  Si25  1  0.356297  0.000000  0.000000  1
  Si  Si26  1  0.000000  0.356297  0.000000  1
  Si  Si27  1  0.481585  0.310275  0.500000  1
  Si  Si28  1  0.689725  0.171309  0.500000  1
  Si  Si29  1  0.828691  0.518415  0.500000  1
  Si  Si30  1  0.518415  0.828691  0.500000  1
  Si  Si31  1  0.171309  0.689725  0.500000  1
  Si  Si32  1  0.310275  0.481585  0.500000  1
  P  P33  1  0.822893  0.000000  0.000000  1
  P  P34  1  0.000000  0.822893  0.000000  1
  P  P35  1  0.177107  0.177107  0.000000  1
