# generated using pymatgen
data_Lu(PaRh2)5
_symmetry_space_group_name_H-M   'P 1'
_cell_length_a   5.82546443
_cell_length_b   5.82546482
_cell_length_c   9.20047152
_cell_angle_alpha   90.33728188
_cell_angle_beta   90.33728085
_cell_angle_gamma   105.26690709
_symmetry_Int_Tables_number   1
_chemical_formula_structural   Lu(PaRh2)5
_chemical_formula_sum   'Lu1 Pa5 Rh10'
_cell_volume   301.19476902
_cell_formula_units_Z   1
loop_
 _symmetry_equiv_pos_site_id
 _symmetry_equiv_pos_as_xyz
  1  'x, y, z'
loop_
 _atom_site_type_symbol
 _atom_site_label
 _atom_site_symmetry_multiplicity
 _atom_site_fract_x
 _atom_site_fract_y
 _atom_site_fract_z
 _atom_site_occupancy
  Lu  Lu0  1  0.793992  0.206008  0.500000  1
  Pa  Pa1  1  0.616192  0.612183  0.747571  1
  Pa  Pa2  1  0.387817  0.383808  0.252429  1
  Pa  Pa3  1  0.203600  0.796400  0.000000  1
  Pa  Pa4  1  0.196121  0.803879  0.500000  1
  Pa  Pa5  1  0.801349  0.198651  0.000000  1
  Rh  Rh6  1  0.689824  0.689821  0.048315  1
  Rh  Rh7  1  0.686698  0.690211  0.451492  1
  Rh  Rh8  1  0.310179  0.310176  0.951685  1
  Rh  Rh9  1  0.309789  0.313302  0.548508  1
  Rh  Rh10  1  0.502394  0.034641  0.752367  1
  Rh  Rh11  1  0.493208  0.959602  0.248908  1
  Rh  Rh12  1  0.992853  0.989775  0.250507  1
  Rh  Rh13  1  0.010225  0.007147  0.749493  1
  Rh  Rh14  1  0.040398  0.506792  0.751092  1
  Rh  Rh15  1  0.965359  0.497606  0.247633  1
