# generated using pymatgen
data_Cs8La3NdI20
_symmetry_space_group_name_H-M   'P 1'
_cell_length_a   9.82454769
_cell_length_b   10.28976400
_cell_length_c   15.76718111
_cell_angle_alpha   90.00000000
_cell_angle_beta   89.80237605
_cell_angle_gamma   90.00000000
_symmetry_Int_Tables_number   1
_chemical_formula_structural   Cs8La3NdI20
_chemical_formula_sum   'Cs8 La3 Nd1 I20'
_cell_volume   1593.93076127
_cell_formula_units_Z   1
loop_
 _symmetry_equiv_pos_site_id
 _symmetry_equiv_pos_as_xyz
  1  'x, y, z'
loop_
 _atom_site_type_symbol
 _atom_site_label
 _atom_site_symmetry_multiplicity
 _atom_site_fract_x
 _atom_site_fract_y
 _atom_site_fract_z
 _atom_site_occupancy
  Cs  Cs0  1  0.942310  0.003944  0.827689  1
  Cs  Cs1  1  0.058247  0.994610  0.172422  1
  Cs  Cs2  1  0.442793  0.995198  0.673696  1
  Cs  Cs3  1  0.058247  0.505390  0.172422  1
  Cs  Cs4  1  0.557356  0.004179  0.326408  1
  Cs  Cs5  1  0.942310  0.496056  0.827689  1
  Cs  Cs6  1  0.557356  0.495821  0.326408  1
  Cs  Cs7  1  0.442793  0.504802  0.673696  1
  La  La8  1  0.927037  0.750000  0.503502  1
  La  La9  1  0.073411  0.250000  0.496536  1
  La  La10  1  0.427310  0.250000  0.996429  1
  Nd  Nd11  1  0.572971  0.750000  0.002943  1
  I  I12  1  0.115435  0.750000  0.670080  1
  I  I13  1  0.884738  0.250000  0.329910  1
  I  I14  1  0.616069  0.250000  0.829547  1
  I  I15  1  0.386574  0.750000  0.167956  1
  I  I16  1  0.839946  0.043955  0.571182  1
  I  I17  1  0.160547  0.955975  0.428781  1
  I  I18  1  0.340363  0.953772  0.930635  1
  I  I19  1  0.160547  0.544025  0.428781  1
  I  I20  1  0.658958  0.041226  0.069405  1
  I  I21  1  0.839946  0.456045  0.571182  1
  I  I22  1  0.658958  0.458774  0.069405  1
  I  I23  1  0.340363  0.546228  0.930635  1
  I  I24  1  0.594083  0.750000  0.511675  1
  I  I25  1  0.406235  0.250000  0.488648  1
  I  I26  1  0.095131  0.250000  0.988116  1
  I  I27  1  0.900988  0.750000  0.012113  1
  I  I28  1  0.651425  0.750000  0.807868  1
  I  I29  1  0.347248  0.250000  0.193964  1
  I  I30  1  0.152858  0.250000  0.694099  1
  I  I31  1  0.847448  0.750000  0.306182  1
