# generated using pymatgen
data_Zn2GaSiRh4
_symmetry_space_group_name_H-M   'P 1'
_cell_length_a   7.37205900
_cell_length_b   7.37205992
_cell_length_c   7.37206040
_cell_angle_alpha   33.48933085
_cell_angle_beta   33.48931954
_cell_angle_gamma   33.48933592
_symmetry_Int_Tables_number   1
_chemical_formula_structural   Zn2GaSiRh4
_chemical_formula_sum   'Zn2 Ga1 Si1 Rh4'
_cell_volume   108.64143676
_cell_formula_units_Z   1
loop_
 _symmetry_equiv_pos_site_id
 _symmetry_equiv_pos_as_xyz
  1  'x, y, z'
loop_
 _atom_site_type_symbol
 _atom_site_label
 _atom_site_symmetry_multiplicity
 _atom_site_fract_x
 _atom_site_fract_y
 _atom_site_fract_z
 _atom_site_occupancy
  Zn  Zn0  1  0.252180  0.252180  0.252180  1
  Zn  Zn1  1  0.747820  0.747820  0.747820  1
  Ga  Ga2  1  0.000000  0.000000  0.000000  1
  Si  Si3  1  0.500000  0.500000  0.500000  1
  Rh  Rh4  1  0.379184  0.379184  0.379184  1
  Rh  Rh5  1  0.871587  0.871587  0.871587  1
  Rh  Rh6  1  0.620816  0.620816  0.620816  1
  Rh  Rh7  1  0.128413  0.128413  0.128413  1
