# generated using pymatgen
data_Y3Ga7CuAg3
_symmetry_space_group_name_H-M   'P 1'
_cell_length_a   4.29343269
_cell_length_b   8.34373427
_cell_length_c   8.32050373
_cell_angle_alpha   70.46978216
_cell_angle_beta   75.04838364
_cell_angle_gamma   75.09098325
_symmetry_Int_Tables_number   1
_chemical_formula_structural   Y3Ga7CuAg3
_chemical_formula_sum   'Y3 Ga7 Cu1 Ag3'
_cell_volume   266.57676824
_cell_formula_units_Z   1
loop_
 _symmetry_equiv_pos_site_id
 _symmetry_equiv_pos_as_xyz
  1  'x, y, z'
loop_
 _atom_site_type_symbol
 _atom_site_label
 _atom_site_symmetry_multiplicity
 _atom_site_fract_x
 _atom_site_fract_y
 _atom_site_fract_z
 _atom_site_occupancy
  Y  Y0  1  0.998204  0.002495  0.001097  1
  Y  Y1  1  0.300538  0.691704  0.707219  1
  Y  Y2  1  0.701242  0.300222  0.297293  1
  Ga  Ga3  1  0.658158  0.711195  0.972488  1
  Ga  Ga4  1  0.343815  0.039647  0.272723  1
  Ga  Ga5  1  0.659989  0.970574  0.709447  1
  Ga  Ga6  1  0.148448  0.569720  0.133385  1
  Ga  Ga7  1  0.856708  0.410270  0.876312  1
  Ga  Ga8  1  0.145588  0.136231  0.572594  1
  Ga  Ga9  1  0.855804  0.864826  0.423565  1
  Cu  Cu10  1  0.335580  0.300211  0.028629  1
  Ag  Ag11  1  0.499399  0.301513  0.699688  1
  Ag  Ag12  1  0.497747  0.700512  0.303995  1
  Ag  Ag13  1  0.998778  0.500880  0.501564  1
