# generated using pymatgen
data_Na8Cd3Sn13
_symmetry_space_group_name_H-M   'P 1'
_cell_length_a   10.35180100
_cell_length_b   10.35180056
_cell_length_c   7.28961400
_cell_angle_alpha   90.00000000
_cell_angle_beta   90.00000000
_cell_angle_gamma   119.99999182
_symmetry_Int_Tables_number   1
_chemical_formula_structural   Na8Cd3Sn13
_chemical_formula_sum   'Na8 Cd3 Sn13'
_cell_volume   676.49876881
_cell_formula_units_Z   1
loop_
 _symmetry_equiv_pos_site_id
 _symmetry_equiv_pos_as_xyz
  1  'x, y, z'
loop_
 _atom_site_type_symbol
 _atom_site_label
 _atom_site_symmetry_multiplicity
 _atom_site_fract_x
 _atom_site_fract_y
 _atom_site_fract_z
 _atom_site_occupancy
  Na  Na0  1  0.523334  0.046665  0.248725  1
  Na  Na1  1  0.047729  0.523865  0.747791  1
  Na  Na2  1  0.476135  0.523865  0.747791  1
  Na  Na3  1  0.523334  0.476666  0.248725  1
  Na  Na4  1  0.476135  0.952271  0.747791  1
  Na  Na5  1  0.953335  0.476666  0.248725  1
  Na  Na6  1  0.000000  0.000000  0.751815  1
  Na  Na7  1  0.000000  0.000000  0.253789  1
  Cd  Cd8  1  0.333333  0.666667  0.460942  1
  Cd  Cd9  1  0.666667  0.333333  0.545734  1
  Cd  Cd10  1  0.666667  0.333333  0.958345  1
  Sn  Sn11  1  0.162484  0.837516  0.046013  1
  Sn  Sn12  1  0.832241  0.664482  0.543138  1
  Sn  Sn13  1  0.335518  0.167759  0.543138  1
  Sn  Sn14  1  0.830778  0.169222  0.952556  1
  Sn  Sn15  1  0.830778  0.661556  0.952556  1
  Sn  Sn16  1  0.832241  0.167759  0.543138  1
  Sn  Sn17  1  0.338444  0.169222  0.952556  1
  Sn  Sn18  1  0.675031  0.837516  0.046013  1
  Sn  Sn19  1  0.666335  0.833168  0.457852  1
  Sn  Sn20  1  0.166832  0.333665  0.457852  1
  Sn  Sn21  1  0.166832  0.833168  0.457852  1
  Sn  Sn22  1  0.162484  0.324969  0.046013  1
  Sn  Sn23  1  0.333333  0.666667  0.041145  1
