# generated using pymatgen
data_Ba6DyTm(NiO6)2
_symmetry_space_group_name_H-M   'P 1'
_cell_length_a   7.13634703
_cell_length_b   7.13634664
_cell_length_c   7.13634668
_cell_angle_alpha   93.62721513
_cell_angle_beta   93.62722110
_cell_angle_gamma   93.62719766
_symmetry_Int_Tables_number   1
_chemical_formula_structural   Ba6DyTm(NiO6)2
_chemical_formula_sum   'Ba6 Dy1 Tm1 Ni2 O12'
_cell_volume   361.15480500
_cell_formula_units_Z   1
loop_
 _symmetry_equiv_pos_site_id
 _symmetry_equiv_pos_as_xyz
  1  'x, y, z'
loop_
 _atom_site_type_symbol
 _atom_site_label
 _atom_site_symmetry_multiplicity
 _atom_site_fract_x
 _atom_site_fract_y
 _atom_site_fract_z
 _atom_site_occupancy
  Ba  Ba0  1  0.380919  0.119080  0.750000  1
  Ba  Ba1  1  0.750000  0.380920  0.119081  1
  Ba  Ba2  1  0.249999  0.619499  0.880502  1
  Ba  Ba3  1  0.619498  0.880501  0.250001  1
  Ba  Ba4  1  0.119081  0.750000  0.380920  1
  Ba  Ba5  1  0.880501  0.250000  0.619499  1
  Dy  Dy6  1  0.250001  0.250000  0.250000  1
  Tm  Tm7  1  0.750000  0.750001  0.750000  1
  Ni  Ni8  1  0.500667  0.500667  0.500667  1
  Ni  Ni9  1  0.999333  0.999333  0.999333  1
  O  O10  1  0.782803  0.595393  0.469006  1
  O  O11  1  0.595394  0.469005  0.782803  1
  O  O12  1  0.469005  0.782803  0.595394  1
  O  O13  1  0.030994  0.904607  0.717198  1
  O  O14  1  0.904606  0.717197  0.030994  1
  O  O15  1  0.717198  0.030994  0.904606  1
  O  O16  1  0.218045  0.407156  0.534654  1
  O  O17  1  0.407156  0.534653  0.218045  1
  O  O18  1  0.534653  0.218045  0.407155  1
  O  O19  1  0.965347  0.092844  0.281956  1
  O  O20  1  0.281956  0.965346  0.092843  1
  O  O21  1  0.092843  0.281955  0.965346  1
