# generated using pymatgen
data_Rb3Ho7S12
_symmetry_space_group_name_H-M   'P 1'
_cell_length_a   3.95039900
_cell_length_b   12.18909100
_cell_length_c   24.80979100
_cell_angle_alpha   90.00000000
_cell_angle_beta   90.00000000
_cell_angle_gamma   90.00000000
_symmetry_Int_Tables_number   1
_chemical_formula_structural   Rb3Ho7S12
_chemical_formula_sum   'Rb6 Ho14 S24'
_cell_volume   1194.63542186
_cell_formula_units_Z   2
loop_
 _symmetry_equiv_pos_site_id
 _symmetry_equiv_pos_as_xyz
  1  'x, y, z'
loop_
 _atom_site_type_symbol
 _atom_site_label
 _atom_site_symmetry_multiplicity
 _atom_site_fract_x
 _atom_site_fract_y
 _atom_site_fract_z
 _atom_site_occupancy
  Rb  Rb0  1  0.500000  0.534271  0.131931  1
  Rb  Rb1  1  0.500000  0.956734  0.863499  1
  Rb  Rb2  1  0.000000  0.043266  0.363499  1
  Rb  Rb3  1  0.000000  0.465729  0.631931  1
  Rb  Rb4  1  0.500000  0.807770  0.471837  1
  Rb  Rb5  1  0.000000  0.192230  0.971837  1
  Ho  Ho6  1  0.500000  0.469780  0.418706  1
  Ho  Ho7  1  0.500000  0.031235  0.583374  1
  Ho  Ho8  1  0.000000  0.968765  0.083374  1
  Ho  Ho9  1  0.000000  0.530220  0.918706  1
  Ho  Ho10  1  0.000000  0.249020  0.499830  1
  Ho  Ho11  1  0.500000  0.750980  0.999830  1
  Ho  Ho12  1  0.500000  0.328433  0.817235  1
  Ho  Ho13  1  0.500000  0.174506  0.181306  1
  Ho  Ho14  1  0.000000  0.825494  0.681306  1
  Ho  Ho15  1  0.000000  0.671567  0.317235  1
  Ho  Ho16  1  0.500000  0.657069  0.788223  1
  Ho  Ho17  1  0.500000  0.842852  0.211754  1
  Ho  Ho18  1  0.000000  0.157148  0.711754  1
  Ho  Ho19  1  0.000000  0.342931  0.288223  1
  S  S20  1  0.500000  0.397931  0.519504  1
  S  S21  1  0.500000  0.095068  0.479940  1
  S  S22  1  0.000000  0.904932  0.979940  1
  S  S23  1  0.000000  0.602069  0.019504  1
  S  S24  1  0.500000  0.303361  0.710663  1
  S  S25  1  0.500000  0.196568  0.288853  1
  S  S26  1  0.000000  0.803432  0.788853  1
  S  S27  1  0.000000  0.696639  0.210663  1
  S  S28  1  0.500000  0.677302  0.679187  1
  S  S29  1  0.500000  0.822556  0.322683  1
  S  S30  1  0.000000  0.177444  0.822683  1
  S  S31  1  0.000000  0.322698  0.179187  1
  S  S32  1  0.500000  0.378577  0.922891  1
  S  S33  1  0.500000  0.120377  0.076152  1
  S  S34  1  0.000000  0.879623  0.576152  1
  S  S35  1  0.000000  0.621423  0.422891  1
  S  S36  1  0.500000  0.505639  0.304086  1
  S  S37  1  0.500000  0.994272  0.696434  1
  S  S38  1  0.000000  0.005728  0.196434  1
  S  S39  1  0.000000  0.494361  0.804086  1
  S  S40  1  0.500000  0.678573  0.897005  1
  S  S41  1  0.500000  0.819899  0.103369  1
  S  S42  1  0.000000  0.180101  0.603369  1
  S  S43  1  0.000000  0.321427  0.397005  1
