# generated using pymatgen
data_Ho20(Ru3Pt)3
_symmetry_space_group_name_H-M   'P 1'
_cell_length_a   10.82553010
_cell_length_b   10.82554707
_cell_length_c   6.35529314
_cell_angle_alpha   90.00077205
_cell_angle_beta   90.00126174
_cell_angle_gamma   90.13657069
_symmetry_Int_Tables_number   1
_chemical_formula_structural   Ho20(Ru3Pt)3
_chemical_formula_sum   'Ho20 Ru9 Pt3'
_cell_volume   744.78921317
_cell_formula_units_Z   1
loop_
 _symmetry_equiv_pos_site_id
 _symmetry_equiv_pos_as_xyz
  1  'x, y, z'
loop_
 _atom_site_type_symbol
 _atom_site_label
 _atom_site_symmetry_multiplicity
 _atom_site_fract_x
 _atom_site_fract_y
 _atom_site_fract_z
 _atom_site_occupancy
  Ho  Ho0  1  0.294829  0.085349  0.371208  1
  Ho  Ho1  1  0.294215  0.909534  0.877477  1
  Ho  Ho2  1  0.703699  0.088525  0.873881  1
  Ho  Ho3  1  0.701565  0.910867  0.373427  1
  Ho  Ho4  1  0.583028  0.790785  0.875458  1
  Ho  Ho5  1  0.583455  0.208775  0.376113  1
  Ho  Ho6  1  0.412216  0.790639  0.377149  1
  Ho  Ho7  1  0.416265  0.208829  0.875300  1
  Ho  Ho8  1  0.209221  0.416970  0.624537  1
  Ho  Ho9  1  0.209364  0.587776  0.122849  1
  Ho  Ho10  1  0.791230  0.416539  0.123883  1
  Ho  Ho11  1  0.791179  0.583734  0.624709  1
  Ho  Ho12  1  0.914653  0.705171  0.128783  1
  Ho  Ho13  1  0.911469  0.296299  0.626112  1
  Ho  Ho14  1  0.090464  0.705786  0.622521  1
  Ho  Ho15  1  0.089137  0.298432  0.126579  1
  Ho  Ho16  1  0.001190  0.997043  0.499039  1
  Ho  Ho17  1  0.002959  0.998809  0.000959  1
  Ho  Ho18  1  0.499924  0.499588  0.000517  1
  Ho  Ho19  1  0.500402  0.500072  0.499481  1
  Ru  Ru20  1  0.150304  0.849688  0.249997  1
  Ru  Ru21  1  0.654101  0.345897  0.750000  1
  Ru  Ru22  1  0.654601  0.654482  0.250259  1
  Ru  Ru23  1  0.345527  0.345397  0.249758  1
  Ru  Ru24  1  0.347470  0.652541  0.750000  1
  Ru  Ru25  1  0.499767  0.999504  0.122598  1
  Ru  Ru26  1  0.500269  0.999802  0.623646  1
  Ru  Ru27  1  0.000198  0.499739  0.876356  1
  Ru  Ru28  1  0.000482  0.500243  0.377400  1
  Pt  Pt29  1  0.847433  0.152574  0.250004  1
  Pt  Pt30  1  0.845819  0.846450  0.750095  1
  Pt  Pt31  1  0.153568  0.154156  0.749905  1
