# generated using pymatgen
data_LiTb(CuO2)4
_symmetry_space_group_name_H-M   'P 1'
_cell_length_a   6.17897029
_cell_length_b   6.17896993
_cell_length_c   6.17896942
_cell_angle_alpha   125.55228083
_cell_angle_beta   125.55227814
_cell_angle_gamma   80.62524696
_symmetry_Int_Tables_number   1
_chemical_formula_structural   LiTb(CuO2)4
_chemical_formula_sum   'Li1 Tb1 Cu4 O8'
_cell_volume   150.58604932
_cell_formula_units_Z   1
loop_
 _symmetry_equiv_pos_site_id
 _symmetry_equiv_pos_as_xyz
  1  'x, y, z'
loop_
 _atom_site_type_symbol
 _atom_site_label
 _atom_site_symmetry_multiplicity
 _atom_site_fract_x
 _atom_site_fract_y
 _atom_site_fract_z
 _atom_site_occupancy
  Li  Li0  1  0.000000  0.000000  0.000000  1
  Tb  Tb1  1  0.750000  0.250000  0.500000  1
  Cu  Cu2  1  0.876821  0.619414  0.248188  1
  Cu  Cu3  1  0.371226  0.628634  0.751812  1
  Cu  Cu4  1  0.371366  0.123179  0.742592  1
  Cu  Cu5  1  0.380586  0.628774  0.257408  1
  O  O6  1  0.408559  0.837694  0.144039  1
  O  O7  1  0.693655  0.264521  0.855961  1
  O  O8  1  0.345548  0.418080  0.365103  1
  O  O9  1  0.052977  0.980446  0.634897  1
  O  O10  1  0.019554  0.654452  0.072532  1
  O  O11  1  0.581920  0.947023  0.927468  1
  O  O12  1  0.162306  0.306345  0.570865  1
  O  O13  1  0.735479  0.591441  0.429135  1
