# generated using pymatgen
data_Sm3Ni4P6Ru5
_symmetry_space_group_name_H-M   'P 1'
_cell_length_a   3.92307200
_cell_length_b   10.74515300
_cell_length_c   12.75017500
_cell_angle_alpha   90.00000000
_cell_angle_beta   90.00000000
_cell_angle_gamma   90.00000000
_symmetry_Int_Tables_number   1
_chemical_formula_structural   Sm3Ni4P6Ru5
_chemical_formula_sum   'Sm6 Ni8 P12 Ru10'
_cell_volume   537.47099004
_cell_formula_units_Z   2
loop_
 _symmetry_equiv_pos_site_id
 _symmetry_equiv_pos_as_xyz
  1  'x, y, z'
loop_
 _atom_site_type_symbol
 _atom_site_label
 _atom_site_symmetry_multiplicity
 _atom_site_fract_x
 _atom_site_fract_y
 _atom_site_fract_z
 _atom_site_occupancy
  Sm  Sm0  1  0.000000  0.500000  0.523548  1
  Sm  Sm1  1  0.500000  0.000000  0.476452  1
  Sm  Sm2  1  0.500000  0.815723  0.199917  1
  Sm  Sm3  1  0.500000  0.184277  0.199917  1
  Sm  Sm4  1  0.000000  0.684277  0.800083  1
  Sm  Sm5  1  0.000000  0.315723  0.800083  1
  Ni  Ni6  1  0.000000  0.500000  0.981976  1
  Ni  Ni7  1  0.500000  0.000000  0.018024  1
  Ni  Ni8  1  0.500000  0.331113  0.988962  1
  Ni  Ni9  1  0.500000  0.668887  0.988962  1
  Ni  Ni10  1  0.000000  0.168887  0.011038  1
  Ni  Ni11  1  0.000000  0.831113  0.011038  1
  Ni  Ni12  1  0.500000  0.500000  0.699324  1
  Ni  Ni13  1  0.000000  0.000000  0.300676  1
  P  P14  1  0.500000  0.311489  0.615378  1
  P  P15  1  0.500000  0.688511  0.615378  1
  P  P16  1  0.000000  0.188511  0.384622  1
  P  P17  1  0.000000  0.811489  0.384622  1
  P  P18  1  0.500000  0.500000  0.878384  1
  P  P19  1  0.000000  0.000000  0.121616  1
  P  P20  1  0.500000  0.850979  0.898574  1
  P  P21  1  0.500000  0.149021  0.898574  1
  P  P22  1  0.000000  0.649021  0.101426  1
  P  P23  1  0.000000  0.350979  0.101426  1
  P  P24  1  0.500000  0.500000  0.337028  1
  P  P25  1  0.000000  0.000000  0.662972  1
  Ru  Ru26  1  0.500000  0.297471  0.428185  1
  Ru  Ru27  1  0.500000  0.702529  0.428185  1
  Ru  Ru28  1  0.000000  0.202529  0.571815  1
  Ru  Ru29  1  0.000000  0.797471  0.571815  1
  Ru  Ru30  1  0.500000  0.876206  0.717315  1
  Ru  Ru31  1  0.500000  0.123794  0.717315  1
  Ru  Ru32  1  0.000000  0.623794  0.282685  1
  Ru  Ru33  1  0.000000  0.376206  0.282685  1
  Ru  Ru34  1  0.500000  0.500000  0.149748  1
  Ru  Ru35  1  0.000000  0.000000  0.850252  1
