# generated using pymatgen
data_Tm3Lu7Si5Pb
_symmetry_space_group_name_H-M   'P 1'
_cell_length_a   8.37841203
_cell_length_b   8.37841228
_cell_length_c   6.23901100
_cell_angle_alpha   90.00000000
_cell_angle_beta   90.00000000
_cell_angle_gamma   120.18914409
_symmetry_Int_Tables_number   1
_chemical_formula_structural   Tm3Lu7Si5Pb
_chemical_formula_sum   'Tm3 Lu7 Si5 Pb1'
_cell_volume   378.56366289
_cell_formula_units_Z   1
loop_
 _symmetry_equiv_pos_site_id
 _symmetry_equiv_pos_as_xyz
  1  'x, y, z'
loop_
 _atom_site_type_symbol
 _atom_site_label
 _atom_site_symmetry_multiplicity
 _atom_site_fract_x
 _atom_site_fract_y
 _atom_site_fract_z
 _atom_site_occupancy
  Tm  Tm0  1  0.239732  0.239732  0.750000  1
  Tm  Tm1  1  0.756385  0.998399  0.750000  1
  Tm  Tm2  1  0.998399  0.756385  0.750000  1
  Lu  Lu3  1  0.675250  0.331296  0.503754  1
  Lu  Lu4  1  0.331296  0.675250  0.503754  1
  Lu  Lu5  1  0.331296  0.675250  0.996246  1
  Lu  Lu6  1  0.675250  0.331296  0.996246  1
  Lu  Lu7  1  0.767653  0.767653  0.250000  1
  Lu  Lu8  1  0.239432  0.987267  0.250000  1
  Lu  Lu9  1  0.987267  0.239432  0.250000  1
  Si  Si10  1  0.603895  0.998427  0.250000  1
  Si  Si11  1  0.998427  0.603895  0.250000  1
  Si  Si12  1  0.605579  0.605579  0.750000  1
  Si  Si13  1  0.394107  0.001548  0.750000  1
  Si  Si14  1  0.001548  0.394107  0.750000  1
  Pb  Pb15  1  0.394484  0.394484  0.250000  1
