# generated using pymatgen
data_Tb6Co3Ni13(P6Ru)2
_symmetry_space_group_name_H-M   'P 1'
_cell_length_a   3.78503300
_cell_length_b   10.54655205
_cell_length_c   12.40181821
_cell_angle_alpha   90.05084700
_cell_angle_beta   90.00000000
_cell_angle_gamma   90.00000000
_symmetry_Int_Tables_number   1
_chemical_formula_structural   Tb6Co3Ni13(P6Ru)2
_chemical_formula_sum   'Tb6 Co3 Ni13 P12 Ru2'
_cell_volume   495.06857571
_cell_formula_units_Z   1
loop_
 _symmetry_equiv_pos_site_id
 _symmetry_equiv_pos_as_xyz
  1  'x, y, z'
loop_
 _atom_site_type_symbol
 _atom_site_label
 _atom_site_symmetry_multiplicity
 _atom_site_fract_x
 _atom_site_fract_y
 _atom_site_fract_z
 _atom_site_occupancy
  Tb  Tb0  1  0.000000  0.499818  0.522953  1
  Tb  Tb1  1  0.500000  0.998983  0.476503  1
  Tb  Tb2  1  0.500000  0.814959  0.207192  1
  Tb  Tb3  1  0.500000  0.185393  0.206754  1
  Tb  Tb4  1  0.000000  0.684575  0.793081  1
  Tb  Tb5  1  0.000000  0.315215  0.792878  1
  Co  Co6  1  0.000000  0.499246  0.984581  1
  Co  Co7  1  0.500000  0.000304  0.016011  1
  Co  Co8  1  0.000000  0.381252  0.290664  1
  Ni  Ni9  1  0.500000  0.500130  0.703100  1
  Ni  Ni10  1  0.000000  0.000331  0.297639  1
  Ni  Ni11  1  0.500000  0.330743  0.989082  1
  Ni  Ni12  1  0.500000  0.668667  0.989946  1
  Ni  Ni13  1  0.000000  0.170001  0.011422  1
  Ni  Ni14  1  0.000000  0.831389  0.010588  1
  Ni  Ni15  1  0.500000  0.302177  0.428022  1
  Ni  Ni16  1  0.500000  0.696605  0.429241  1
  Ni  Ni17  1  0.000000  0.198178  0.568929  1
  Ni  Ni18  1  0.000000  0.802216  0.570909  1
  Ni  Ni19  1  0.500000  0.879967  0.709672  1
  Ni  Ni20  1  0.500000  0.120051  0.710150  1
  Ni  Ni21  1  0.000000  0.620527  0.289731  1
  P  P22  1  0.500000  0.500064  0.880374  1
  P  P23  1  0.000000  0.000463  0.120128  1
  P  P24  1  0.500000  0.497558  0.346435  1
  P  P25  1  0.000000  0.000896  0.652441  1
  P  P26  1  0.500000  0.313358  0.615264  1
  P  P27  1  0.500000  0.686528  0.615101  1
  P  P28  1  0.000000  0.188882  0.383481  1
  P  P29  1  0.000000  0.812708  0.384943  1
  P  P30  1  0.500000  0.850842  0.893087  1
  P  P31  1  0.500000  0.148886  0.892832  1
  P  P32  1  0.000000  0.649648  0.106649  1
  P  P33  1  0.000000  0.352231  0.109685  1
  Ru  Ru34  1  0.500000  0.496742  0.156543  1
  Ru  Ru35  1  0.000000  0.000468  0.843990  1
