# generated using pymatgen
data_Tb8Ta11NbSi16
_symmetry_space_group_name_H-M   'P 1'
_cell_length_a   7.05737371
_cell_length_b   7.05737429
_cell_length_c   13.03648401
_cell_angle_alpha   89.98285539
_cell_angle_beta   90.01714417
_cell_angle_gamma   89.97381367
_symmetry_Int_Tables_number   1
_chemical_formula_structural   Tb8Ta11NbSi16
_chemical_formula_sum   'Tb8 Ta11 Nb1 Si16'
_cell_volume   649.30187741
_cell_formula_units_Z   1
loop_
 _symmetry_equiv_pos_site_id
 _symmetry_equiv_pos_as_xyz
  1  'x, y, z'
loop_
 _atom_site_type_symbol
 _atom_site_label
 _atom_site_symmetry_multiplicity
 _atom_site_fract_x
 _atom_site_fract_y
 _atom_site_fract_z
 _atom_site_occupancy
  Tb  Tb0  1  0.341442  0.002676  0.468097  1
  Tb  Tb1  1  0.497181  0.841369  0.717888  1
  Tb  Tb2  1  0.502573  0.158810  0.218049  1
  Tb  Tb3  1  0.841369  0.497181  0.282112  1
  Tb  Tb4  1  0.158810  0.502573  0.781951  1
  Tb  Tb5  1  0.658422  0.997527  0.968100  1
  Tb  Tb6  1  0.002676  0.341442  0.531903  1
  Tb  Tb7  1  0.997527  0.658422  0.031900  1
  Ta  Ta8  1  0.171197  0.828675  0.250184  1
  Ta  Ta9  1  0.828675  0.171197  0.749816  1
  Ta  Ta10  1  0.671401  0.671401  0.500000  1
  Ta  Ta11  1  0.153057  0.007331  0.874267  1
  Ta  Ta12  1  0.493164  0.653595  0.124501  1
  Ta  Ta13  1  0.507284  0.346319  0.624222  1
  Ta  Ta14  1  0.653595  0.493164  0.875499  1
  Ta  Ta15  1  0.346319  0.507284  0.375778  1
  Ta  Ta16  1  0.846403  0.992635  0.374369  1
  Ta  Ta17  1  0.007331  0.153057  0.125733  1
  Ta  Ta18  1  0.992635  0.846403  0.625631  1
  Nb  Nb19  1  0.328778  0.328778  0.000000  1
  Si  Si20  1  0.203013  0.133304  0.682480  1
  Si  Si21  1  0.366989  0.704068  0.932290  1
  Si  Si22  1  0.633262  0.296728  0.432446  1
  Si  Si23  1  0.704068  0.366989  0.067710  1
  Si  Si24  1  0.296728  0.633262  0.567554  1
  Si  Si25  1  0.796980  0.866790  0.182485  1
  Si  Si26  1  0.133304  0.203013  0.317520  1
  Si  Si27  1  0.866790  0.796980  0.817515  1
  Si  Si28  1  0.293583  0.953650  0.064321  1
  Si  Si29  1  0.545390  0.793691  0.314149  1
  Si  Si30  1  0.454757  0.206374  0.813819  1
  Si  Si31  1  0.793691  0.545390  0.685851  1
  Si  Si32  1  0.206374  0.454757  0.186181  1
  Si  Si33  1  0.706229  0.045353  0.564144  1
  Si  Si34  1  0.953650  0.293583  0.935679  1
  Si  Si35  1  0.045353  0.706229  0.435856  1
