# generated using pymatgen
data_Tm4Ga4IrRu2Pt
_symmetry_space_group_name_H-M   'P 1'
_cell_length_a   4.26551300
_cell_length_b   6.82140289
_cell_length_c   7.78927973
_cell_angle_alpha   89.93004939
_cell_angle_beta   90.00000000
_cell_angle_gamma   90.00000000
_symmetry_Int_Tables_number   1
_chemical_formula_structural   Tm4Ga4IrRu2Pt
_chemical_formula_sum   'Tm4 Ga4 Ir1 Ru2 Pt1'
_cell_volume   226.64281108
_cell_formula_units_Z   1
loop_
 _symmetry_equiv_pos_site_id
 _symmetry_equiv_pos_as_xyz
  1  'x, y, z'
loop_
 _atom_site_type_symbol
 _atom_site_label
 _atom_site_symmetry_multiplicity
 _atom_site_fract_x
 _atom_site_fract_y
 _atom_site_fract_z
 _atom_site_occupancy
  Tm  Tm0  1  0.250000  0.972939  0.310538  1
  Tm  Tm1  1  0.250000  0.479784  0.184304  1
  Tm  Tm2  1  0.750000  0.020531  0.694063  1
  Tm  Tm3  1  0.750000  0.522225  0.810192  1
  Ga  Ga4  1  0.250000  0.344307  0.575518  1
  Ga  Ga5  1  0.250000  0.841013  0.927238  1
  Ga  Ga6  1  0.750000  0.666104  0.431075  1
  Ga  Ga7  1  0.750000  0.160553  0.067077  1
  Ir  Ir8  1  0.750000  0.767452  0.109736  1
  Ru  Ru9  1  0.250000  0.226507  0.890850  1
  Ru  Ru10  1  0.250000  0.729479  0.607815  1
  Pt  Pt11  1  0.750000  0.269106  0.391593  1
