# generated using pymatgen
data_ErCr4(AuO4)3
_symmetry_space_group_name_H-M   'P 1'
_cell_length_a   6.58754216
_cell_length_b   6.58750454
_cell_length_c   6.58757600
_cell_angle_alpha   70.52604929
_cell_angle_beta   70.53050229
_cell_angle_gamma   109.47047328
_symmetry_Int_Tables_number   1
_chemical_formula_structural   ErCr4(AuO4)3
_chemical_formula_sum   'Er1 Cr4 Au3 O12'
_cell_volume   220.06282852
_cell_formula_units_Z   1
loop_
 _symmetry_equiv_pos_site_id
 _symmetry_equiv_pos_as_xyz
  1  'x, y, z'
loop_
 _atom_site_type_symbol
 _atom_site_label
 _atom_site_symmetry_multiplicity
 _atom_site_fract_x
 _atom_site_fract_y
 _atom_site_fract_z
 _atom_site_occupancy
  Er  Er0  1  0.999976  0.999893  0.000044  1
  Cr  Cr1  1  0.000422  0.500352  0.999734  1
  Cr  Cr2  1  0.500401  0.500239  0.499691  1
  Cr  Cr3  1  0.499730  0.999853  0.000290  1
  Cr  Cr4  1  0.999691  0.999543  0.500317  1
  Au  Au5  1  0.499978  0.000030  0.499960  1
  Au  Au6  1  0.499920  0.499930  0.000020  1
  Au  Au7  1  0.999993  0.499961  0.500054  1
  O  O8  1  0.878474  0.708386  0.829928  1
  O  O9  1  0.461723  0.291620  0.829840  1
  O  O10  1  0.538281  0.708418  0.170079  1
  O  O11  1  0.121443  0.291580  0.170145  1
  O  O12  1  0.829792  0.121460  0.708429  1
  O  O13  1  0.829960  0.538328  0.291544  1
  O  O14  1  0.170201  0.461783  0.708337  1
  O  O15  1  0.170020  0.878499  0.291621  1
  O  O16  1  0.291587  0.170126  0.538280  1
  O  O17  1  0.708398  0.170173  0.121470  1
  O  O18  1  0.291632  0.829930  0.878490  1
  O  O19  1  0.708378  0.829896  0.461725  1
