# generated using pymatgen
data_Rb4MnMo3N8
_symmetry_space_group_name_H-M   'P 1'
_cell_length_a   5.98994100
_cell_length_b   8.36058700
_cell_length_c   12.09527000
_cell_angle_alpha   90.00000000
_cell_angle_beta   90.00000000
_cell_angle_gamma   90.00000000
_symmetry_Int_Tables_number   1
_chemical_formula_structural   Rb4MnMo3N8
_chemical_formula_sum   'Rb8 Mn2 Mo6 N16'
_cell_volume   605.72414088
_cell_formula_units_Z   2
loop_
 _symmetry_equiv_pos_site_id
 _symmetry_equiv_pos_as_xyz
  1  'x, y, z'
loop_
 _atom_site_type_symbol
 _atom_site_label
 _atom_site_symmetry_multiplicity
 _atom_site_fract_x
 _atom_site_fract_y
 _atom_site_fract_z
 _atom_site_occupancy
  Rb  Rb0  1  0.750000  0.111997  0.000000  1
  Rb  Rb1  1  0.250000  0.888003  0.500000  1
  Rb  Rb2  1  0.250000  0.841140  0.000000  1
  Rb  Rb3  1  0.750000  0.158860  0.500000  1
  Rb  Rb4  1  0.704425  0.392171  0.226947  1
  Rb  Rb5  1  0.204425  0.607829  0.273053  1
  Rb  Rb6  1  0.295575  0.607829  0.726947  1
  Rb  Rb7  1  0.795575  0.392171  0.773053  1
  Mn  Mn8  1  0.750000  0.637474  0.000000  1
  Mn  Mn9  1  0.250000  0.362526  0.500000  1
  Mo  Mo10  1  0.250000  0.389745  0.000000  1
  Mo  Mo11  1  0.750000  0.610255  0.500000  1
  Mo  Mo12  1  0.207360  0.123242  0.251613  1
  Mo  Mo13  1  0.707360  0.876758  0.248387  1
  Mo  Mo14  1  0.792640  0.876758  0.751613  1
  Mo  Mo15  1  0.292640  0.123242  0.748387  1
  N  N16  1  0.901224  0.056272  0.246583  1
  N  N17  1  0.401224  0.943728  0.253417  1
  N  N18  1  0.098776  0.943728  0.746583  1
  N  N19  1  0.598776  0.056272  0.753417  1
  N  N20  1  0.244013  0.240417  0.380702  1
  N  N21  1  0.744013  0.759583  0.119298  1
  N  N22  1  0.755987  0.759583  0.880702  1
  N  N23  1  0.255987  0.240417  0.619298  1
  N  N24  1  0.733714  0.740770  0.630452  1
  N  N25  1  0.233714  0.259230  0.869548  1
  N  N26  1  0.266286  0.259230  0.130452  1
  N  N27  1  0.766286  0.740770  0.369548  1
  N  N28  1  0.493213  0.484805  0.494032  1
  N  N29  1  0.993213  0.515195  0.005968  1
  N  N30  1  0.506787  0.515195  0.994032  1
  N  N31  1  0.006787  0.484805  0.505968  1
