# generated using pymatgen
data_Nd3CuNi8
_symmetry_space_group_name_H-M   'P 1'
_cell_length_a   5.04582986
_cell_length_b   5.04583071
_cell_length_c   8.76663132
_cell_angle_alpha   106.72546089
_cell_angle_beta   73.27453300
_cell_angle_gamma   119.99999637
_symmetry_Int_Tables_number   1
_chemical_formula_structural   Nd3CuNi8
_chemical_formula_sum   'Nd3 Cu1 Ni8'
_cell_volume   182.31368022
_cell_formula_units_Z   1
loop_
 _symmetry_equiv_pos_site_id
 _symmetry_equiv_pos_as_xyz
  1  'x, y, z'
loop_
 _atom_site_type_symbol
 _atom_site_label
 _atom_site_symmetry_multiplicity
 _atom_site_fract_x
 _atom_site_fract_y
 _atom_site_fract_z
 _atom_site_occupancy
  Nd  Nd0  1  0.999744  0.000256  0.000768  1
  Nd  Nd1  1  0.861578  0.138423  0.415265  1
  Nd  Nd2  1  0.139078  0.860922  0.582765  1
  Cu  Cu3  1  0.666878  0.333122  0.999366  1
  Ni  Ni4  1  0.333144  0.666856  0.000569  1
  Ni  Ni5  1  0.919135  0.581924  0.244714  1
  Ni  Ni6  1  0.418076  0.080864  0.244714  1
  Ni  Ni7  1  0.418076  0.581925  0.244714  1
  Ni  Ni8  1  0.499698  0.500302  0.500907  1
  Ni  Ni9  1  0.580318  0.419681  0.755406  1
  Ni  Ni10  1  0.580318  0.916044  0.755406  1
  Ni  Ni11  1  0.083957  0.419682  0.755406  1
