# generated using pymatgen
data_Er2Fe6P6RuRh3
_symmetry_space_group_name_H-M   'P 1'
_cell_length_a   3.75796200
_cell_length_b   10.32313600
_cell_length_c   12.13572900
_cell_angle_alpha   90.00000000
_cell_angle_beta   90.00000000
_cell_angle_gamma   90.00000000
_symmetry_Int_Tables_number   1
_chemical_formula_structural   Er2Fe6P6RuRh3
_chemical_formula_sum   'Er4 Fe12 P12 Ru2 Rh6'
_cell_volume   470.79289813
_cell_formula_units_Z   2
loop_
 _symmetry_equiv_pos_site_id
 _symmetry_equiv_pos_as_xyz
  1  'x, y, z'
loop_
 _atom_site_type_symbol
 _atom_site_label
 _atom_site_symmetry_multiplicity
 _atom_site_fract_x
 _atom_site_fract_y
 _atom_site_fract_z
 _atom_site_occupancy
  Er  Er0  1  0.250000  0.582532  0.711779  1
  Er  Er1  1  0.250000  0.917468  0.211779  1
  Er  Er2  1  0.750000  0.420938  0.289575  1
  Er  Er3  1  0.750000  0.079062  0.789575  1
  Fe  Fe4  1  0.250000  0.223612  0.171326  1
  Fe  Fe5  1  0.250000  0.276388  0.671326  1
  Fe  Fe6  1  0.750000  0.775368  0.827442  1
  Fe  Fe7  1  0.750000  0.724632  0.327442  1
  Fe  Fe8  1  0.250000  0.878415  0.697169  1
  Fe  Fe9  1  0.250000  0.621585  0.197169  1
  Fe  Fe10  1  0.750000  0.120401  0.302452  1
  Fe  Fe11  1  0.750000  0.379599  0.802452  1
  Fe  Fe12  1  0.250000  0.458689  0.935713  1
  Fe  Fe13  1  0.250000  0.041311  0.435713  1
  Fe  Fe14  1  0.750000  0.537654  0.064910  1
  Fe  Fe15  1  0.750000  0.962346  0.564910  1
  P  P16  1  0.250000  0.428526  0.114246  1
  P  P17  1  0.250000  0.071474  0.614246  1
  P  P18  1  0.750000  0.573465  0.888348  1
  P  P19  1  0.750000  0.926535  0.388348  1
  P  P20  1  0.250000  0.272886  0.852644  1
  P  P21  1  0.250000  0.227114  0.352644  1
  P  P22  1  0.750000  0.725335  0.144341  1
  P  P23  1  0.750000  0.774665  0.644341  1
  P  P24  1  0.250000  0.608306  0.378787  1
  P  P25  1  0.250000  0.891694  0.878787  1
  P  P26  1  0.750000  0.395954  0.621749  1
  P  P27  1  0.750000  0.104046  0.121749  1
  Ru  Ru28  1  0.250000  0.704542  0.985207  1
  Ru  Ru29  1  0.250000  0.795458  0.485207  1
  Rh  Rh30  1  0.750000  0.292573  0.014441  1
  Rh  Rh31  1  0.750000  0.207427  0.514441  1
  Rh  Rh32  1  0.250000  0.405410  0.478704  1
  Rh  Rh33  1  0.250000  0.094591  0.978704  1
  Rh  Rh34  1  0.750000  0.596152  0.521167  1
  Rh  Rh35  1  0.750000  0.903848  0.021167  1
