# generated using pymatgen
data_Gd3Cd3Ga2Ag
_symmetry_space_group_name_H-M   'P 1'
_cell_length_a   7.49504700
_cell_length_b   7.49504629
_cell_length_c   4.39947700
_cell_angle_alpha   90.00000000
_cell_angle_beta   90.00000000
_cell_angle_gamma   120.00000753
_symmetry_Int_Tables_number   1
_chemical_formula_structural   Gd3Cd3Ga2Ag
_chemical_formula_sum   'Gd3 Cd3 Ga2 Ag1'
_cell_volume   214.03279878
_cell_formula_units_Z   1
loop_
 _symmetry_equiv_pos_site_id
 _symmetry_equiv_pos_as_xyz
  1  'x, y, z'
loop_
 _atom_site_type_symbol
 _atom_site_label
 _atom_site_symmetry_multiplicity
 _atom_site_fract_x
 _atom_site_fract_y
 _atom_site_fract_z
 _atom_site_occupancy
  Gd  Gd0  1  0.419298  0.419298  0.500000  1
  Gd  Gd1  1  0.580702  0.000000  0.500000  1
  Gd  Gd2  1  0.000000  0.580702  0.500000  1
  Cd  Cd3  1  0.749864  0.749864  0.000000  1
  Cd  Cd4  1  0.250136  0.000000  0.000000  1
  Cd  Cd5  1  0.000000  0.250136  0.000000  1
  Ga  Ga6  1  0.666667  0.333333  0.000000  1
  Ga  Ga7  1  0.333333  0.666667  0.000000  1
  Ag  Ag8  1  0.000000  0.000000  0.500000  1
