# generated using pymatgen
data_Er2Fe10Co2P7
_symmetry_space_group_name_H-M   'P 1'
_cell_length_a   8.95163270
_cell_length_b   8.95261396
_cell_length_c   3.62081900
_cell_angle_alpha   90.00000000
_cell_angle_beta   90.00000000
_cell_angle_gamma   120.10071867
_symmetry_Int_Tables_number   1
_chemical_formula_structural   Er2Fe10Co2P7
_chemical_formula_sum   'Er2 Fe10 Co2 P7'
_cell_volume   251.04287222
_cell_formula_units_Z   1
loop_
 _symmetry_equiv_pos_site_id
 _symmetry_equiv_pos_as_xyz
  1  'x, y, z'
loop_
 _atom_site_type_symbol
 _atom_site_label
 _atom_site_symmetry_multiplicity
 _atom_site_fract_x
 _atom_site_fract_y
 _atom_site_fract_z
 _atom_site_occupancy
  Er  Er0  1  0.000458  0.999424  0.000000  1
  Er  Er1  1  0.333697  0.667043  0.500000  1
  Fe  Fe2  1  0.608402  0.905713  0.000000  1
  Fe  Fe3  1  0.820437  0.213655  0.000000  1
  Fe  Fe4  1  0.785374  0.606079  0.000000  1
  Fe  Fe5  1  0.392331  0.178254  0.000000  1
  Fe  Fe6  1  0.053265  0.284306  0.500000  1
  Fe  Fe7  1  0.715537  0.768225  0.500000  1
  Fe  Fe8  1  0.230870  0.945165  0.500000  1
  Fe  Fe9  1  0.887788  0.455419  0.500000  1
  Fe  Fe10  1  0.542544  0.432209  0.500000  1
  Fe  Fe11  1  0.569994  0.117367  0.500000  1
  Co  Co12  1  0.096186  0.701954  0.000000  1
  Co  Co13  1  0.297487  0.394097  0.000000  1
  P  P14  1  0.075787  0.443803  0.000000  1
  P  P15  1  0.556932  0.633379  0.000000  1
  P  P16  1  0.369816  0.924377  0.000000  1
  P  P17  1  0.780452  0.044963  0.500000  1
  P  P18  1  0.952537  0.734495  0.500000  1
  P  P19  1  0.264038  0.217025  0.500000  1
  P  P20  1  0.666069  0.333046  0.000000  1
