# generated using pymatgen
data_Ta3Ti3Si2(BMo)4
_symmetry_space_group_name_H-M   'P 1'
_cell_length_a   7.19080029
_cell_length_b   7.12325065
_cell_length_c   7.14957497
_cell_angle_alpha   129.43558681
_cell_angle_beta   129.69733492
_cell_angle_gamma   73.86961103
_symmetry_Int_Tables_number   1
_chemical_formula_structural   Ta3Ti3Si2(BMo)4
_chemical_formula_sum   'Ta3 Ti3 Si2 B4 Mo4'
_cell_volume   212.52621325
_cell_formula_units_Z   1
loop_
 _symmetry_equiv_pos_site_id
 _symmetry_equiv_pos_as_xyz
  1  'x, y, z'
loop_
 _atom_site_type_symbol
 _atom_site_label
 _atom_site_symmetry_multiplicity
 _atom_site_fract_x
 _atom_site_fract_y
 _atom_site_fract_z
 _atom_site_occupancy
  Ta  Ta0  1  0.805590  0.971745  0.500154  1
  Ta  Ta1  1  0.304669  0.806076  0.833981  1
  Ta  Ta2  1  0.195432  0.029378  0.501919  1
  Ti  Ti3  1  0.534022  0.693162  0.502339  1
  Ti  Ti4  1  0.031046  0.529335  0.837155  1
  Ti  Ti5  1  0.695821  0.193678  0.163702  1
  Si  Si6  1  0.749698  0.745824  0.992920  1
  Si  Si7  1  0.254136  0.259107  0.010838  1
  B  B8  1  0.382665  0.882855  0.267159  1
  B  B9  1  0.883351  0.611454  0.498032  1
  B  B10  1  0.615753  0.116197  0.732562  1
  B  B11  1  0.112103  0.384210  0.498063  1
  Mo  Mo12  1  0.000729  0.001481  0.000963  1
  Mo  Mo13  1  0.965684  0.467941  0.159349  1
  Mo  Mo14  1  0.502627  0.500153  0.001614  1
  Mo  Mo15  1  0.466674  0.307406  0.499248  1
