# generated using pymatgen
data_Zr3PaCo2
_symmetry_space_group_name_H-M   'P 1'
_cell_length_a   5.09030109
_cell_length_b   5.09030099
_cell_length_c   5.53734745
_cell_angle_alpha   104.60892382
_cell_angle_beta   104.60893447
_cell_angle_gamma   116.82443481
_symmetry_Int_Tables_number   1
_chemical_formula_structural   Zr3PaCo2
_chemical_formula_sum   'Zr3 Pa1 Co2'
_cell_volume   112.21887845
_cell_formula_units_Z   1
loop_
 _symmetry_equiv_pos_site_id
 _symmetry_equiv_pos_as_xyz
  1  'x, y, z'
loop_
 _atom_site_type_symbol
 _atom_site_label
 _atom_site_symmetry_multiplicity
 _atom_site_fract_x
 _atom_site_fract_y
 _atom_site_fract_z
 _atom_site_occupancy
  Zr  Zr0  1  0.352075  0.852075  0.204151  1
  Zr  Zr1  1  0.829657  0.662542  0.492199  1
  Zr  Zr2  1  0.162542  0.329657  0.492199  1
  Pa  Pa3  1  0.679827  0.179827  0.859654  1
  Co  Co4  1  0.737949  0.737949  0.975899  1
  Co  Co5  1  0.237949  0.237949  0.975899  1
