# generated using pymatgen
data_V7Si6W3C
_symmetry_space_group_name_H-M   'P 1'
_cell_length_a   7.23008900
_cell_length_b   7.23008897
_cell_length_c   4.84416500
_cell_angle_alpha   90.00000000
_cell_angle_beta   90.00000000
_cell_angle_gamma   119.99999556
_symmetry_Int_Tables_number   1
_chemical_formula_structural   V7Si6W3C
_chemical_formula_sum   'V7 Si6 W3 C1'
_cell_volume   219.29910716
_cell_formula_units_Z   1
loop_
 _symmetry_equiv_pos_site_id
 _symmetry_equiv_pos_as_xyz
  1  'x, y, z'
loop_
 _atom_site_type_symbol
 _atom_site_label
 _atom_site_symmetry_multiplicity
 _atom_site_fract_x
 _atom_site_fract_y
 _atom_site_fract_z
 _atom_site_occupancy
  V  V0  1  0.000000  0.240417  0.747519  1
  V  V1  1  0.759583  0.759583  0.747519  1
  V  V2  1  0.240417  0.000000  0.747519  1
  V  V3  1  0.333333  0.666667  0.997297  1
  V  V4  1  0.666667  0.333333  0.997297  1
  V  V5  1  0.666667  0.333333  0.503178  1
  V  V6  1  0.333333  0.666667  0.503178  1
  Si  Si7  1  0.000000  0.403097  0.244135  1
  Si  Si8  1  0.596903  0.596903  0.244135  1
  Si  Si9  1  0.403097  0.000000  0.244135  1
  Si  Si10  1  0.000000  0.596555  0.752742  1
  Si  Si11  1  0.403445  0.403445  0.752742  1
  Si  Si12  1  0.596555  0.000000  0.752742  1
  W  W13  1  0.000000  0.757239  0.251421  1
  W  W14  1  0.242761  0.242761  0.251421  1
  W  W15  1  0.757239  0.000000  0.251421  1
  C  C16  1  0.000000  0.000000  0.511604  1
