# generated using pymatgen
data_SmPa(CoSi2)2
_symmetry_space_group_name_H-M   'P 1'
_cell_length_a   8.40384277
_cell_length_b   8.40384438
_cell_length_c   3.99276300
_cell_angle_alpha   90.00000000
_cell_angle_beta   90.00000000
_cell_angle_gamma   152.36489719
_symmetry_Int_Tables_number   1
_chemical_formula_structural   SmPa(CoSi2)2
_chemical_formula_sum   'Sm1 Pa1 Co2 Si4'
_cell_volume   130.79664683
_cell_formula_units_Z   1
loop_
 _symmetry_equiv_pos_site_id
 _symmetry_equiv_pos_as_xyz
  1  'x, y, z'
loop_
 _atom_site_type_symbol
 _atom_site_label
 _atom_site_symmetry_multiplicity
 _atom_site_fract_x
 _atom_site_fract_y
 _atom_site_fract_z
 _atom_site_occupancy
  Sm  Sm0  1  0.894556  0.105444  0.750000  1
  Pa  Pa1  1  0.109303  0.890697  0.250000  1
  Co  Co2  1  0.675950  0.324050  0.750000  1
  Co  Co3  1  0.319574  0.680426  0.250000  1
  Si  Si4  1  0.750626  0.249374  0.250000  1
  Si  Si5  1  0.249519  0.750481  0.750000  1
  Si  Si6  1  0.540917  0.459083  0.750000  1
  Si  Si7  1  0.459554  0.540446  0.250000  1
