# generated using pymatgen
data_Lu4Al2B4Ir9Ru
_symmetry_space_group_name_H-M   'P 1'
_cell_length_a   9.56656666
_cell_length_b   9.56656666
_cell_length_c   3.07426800
_cell_angle_alpha   90.00000000
_cell_angle_beta   90.00000000
_cell_angle_gamma   90.44969188
_symmetry_Int_Tables_number   1
_chemical_formula_structural   Lu4Al2B4Ir9Ru
_chemical_formula_sum   'Lu4 Al2 B4 Ir9 Ru1'
_cell_volume   281.34587518
_cell_formula_units_Z   1
loop_
 _symmetry_equiv_pos_site_id
 _symmetry_equiv_pos_as_xyz
  1  'x, y, z'
loop_
 _atom_site_type_symbol
 _atom_site_label
 _atom_site_symmetry_multiplicity
 _atom_site_fract_x
 _atom_site_fract_y
 _atom_site_fract_z
 _atom_site_occupancy
  Lu  Lu0  1  0.673704  0.173704  0.000000  1
  Lu  Lu1  1  0.326296  0.826296  0.000000  1
  Lu  Lu2  1  0.177546  0.322454  0.000000  1
  Lu  Lu3  1  0.822454  0.677546  0.000000  1
  Al  Al4  1  0.000000  0.000000  0.000000  1
  Al  Al5  1  0.500000  0.500000  0.000000  1
  B  B6  1  0.124174  0.624174  0.000000  1
  B  B7  1  0.875826  0.375826  0.000000  1
  B  B8  1  0.621052  0.878948  0.000000  1
  B  B9  1  0.378948  0.121052  0.000000  1
  Ir  Ir10  1  0.216479  0.068988  0.500000  1
  Ir  Ir11  1  0.783521  0.931012  0.500000  1
  Ir  Ir12  1  0.069606  0.782868  0.500000  1
  Ir  Ir13  1  0.717132  0.430394  0.500000  1
  Ir  Ir14  1  0.930394  0.217132  0.500000  1
  Ir  Ir15  1  0.282868  0.569606  0.500000  1
  Ir  Ir16  1  0.568988  0.716479  0.500000  1
  Ir  Ir17  1  0.431012  0.283521  0.500000  1
  Ir  Ir18  1  0.000000  0.500000  0.500000  1
  Ru  Ru19  1  0.500000  0.000000  0.500000  1
