# generated using pymatgen
data_Er5Ga2P10Ir11Rh8
_symmetry_space_group_name_H-M   'P 1'
_cell_length_a   12.79057062
_cell_length_b   12.72892943
_cell_length_c   3.95909000
_cell_angle_alpha   90.00000000
_cell_angle_beta   90.00000000
_cell_angle_gamma   119.84070894
_symmetry_Int_Tables_number   1
_chemical_formula_structural   Er5Ga2P10Ir11Rh8
_chemical_formula_sum   'Er5 Ga2 P10 Ir11 Rh8'
_cell_volume   559.11695848
_cell_formula_units_Z   1
loop_
 _symmetry_equiv_pos_site_id
 _symmetry_equiv_pos_as_xyz
  1  'x, y, z'
loop_
 _atom_site_type_symbol
 _atom_site_label
 _atom_site_symmetry_multiplicity
 _atom_site_fract_x
 _atom_site_fract_y
 _atom_site_fract_z
 _atom_site_occupancy
  Er  Er0  1  0.661687  0.329043  0.000000  1
  Er  Er1  1  0.338313  0.667356  0.000000  1
  Er  Er2  1  0.822955  0.819104  0.500000  1
  Er  Er3  1  0.177045  0.996149  0.500000  1
  Er  Er4  1  0.000000  0.183177  0.500000  1
  Ga  Ga5  1  0.638331  0.638200  0.000000  1
  Ga  Ga6  1  0.361669  0.999869  0.000000  1
  P  P7  1  0.682988  0.166781  0.500000  1
  P  P8  1  0.820934  0.512156  0.500000  1
  P  P9  1  0.477152  0.312613  0.500000  1
  P  P10  1  0.179066  0.691222  0.500000  1
  P  P11  1  0.522848  0.835461  0.500000  1
  P  P12  1  0.317012  0.483793  0.500000  1
  P  P13  1  0.000000  0.358790  0.000000  1
  P  P14  1  0.175643  0.177164  0.000000  1
  P  P15  1  0.824357  0.001520  0.000000  1
  P  P16  1  0.000000  0.814040  0.000000  1
  Ir  Ir17  1  0.000000  0.537692  0.000000  1
  Ir  Ir18  1  0.274747  0.280893  0.500000  1
  Ir  Ir19  1  0.725253  0.006145  0.500000  1
  Ir  Ir20  1  0.000000  0.709692  0.500000  1
  Ir  Ir21  1  0.865191  0.358618  0.500000  1
  Ir  Ir22  1  0.634897  0.503790  0.500000  1
  Ir  Ir23  1  0.491229  0.137984  0.500000  1
  Ir  Ir24  1  0.365103  0.868891  0.500000  1
  Ir  Ir25  1  0.508771  0.646753  0.500000  1
  Ir  Ir26  1  0.134809  0.493426  0.500000  1
  Ir  Ir27  1  0.000000  0.994841  0.000000  1
  Rh  Rh28  1  0.814318  0.185097  0.000000  1
  Rh  Rh29  1  0.826423  0.616326  0.000000  1
  Rh  Rh30  1  0.373652  0.204924  0.000000  1
  Rh  Rh31  1  0.173577  0.789902  0.000000  1
  Rh  Rh32  1  0.626348  0.831270  0.000000  1
  Rh  Rh33  1  0.185682  0.370780  0.000000  1
  Rh  Rh34  1  0.433780  0.455160  0.000000  1
  Rh  Rh35  1  0.566220  0.021380  0.000000  1
