# generated using pymatgen
data_Nd7PdPt2
_symmetry_space_group_name_H-M   'P 1'
_cell_length_a   6.48032436
_cell_length_b   10.21269427
_cell_length_c   10.21269388
_cell_angle_alpha   119.98523913
_cell_angle_beta   90.03271530
_cell_angle_gamma   89.96728112
_symmetry_Int_Tables_number   1
_chemical_formula_structural   Nd7PdPt2
_chemical_formula_sum   'Nd14 Pd2 Pt4'
_cell_volume   585.42667095
_cell_formula_units_Z   2
loop_
 _symmetry_equiv_pos_site_id
 _symmetry_equiv_pos_as_xyz
  1  'x, y, z'
loop_
 _atom_site_type_symbol
 _atom_site_label
 _atom_site_symmetry_multiplicity
 _atom_site_fract_x
 _atom_site_fract_y
 _atom_site_fract_z
 _atom_site_occupancy
  Nd  Nd0  1  0.453380  0.332483  0.667517  1
  Nd  Nd1  1  0.956587  0.666304  0.333696  1
  Nd  Nd2  1  0.244019  0.126830  0.873170  1
  Nd  Nd3  1  0.240944  0.747498  0.873800  1
  Nd  Nd4  1  0.240944  0.126200  0.252502  1
  Nd  Nd5  1  0.745221  0.872479  0.127521  1
  Nd  Nd6  1  0.744573  0.254162  0.124969  1
  Nd  Nd7  1  0.744573  0.875031  0.745838  1
  Nd  Nd8  1  0.443797  0.538282  0.461718  1
  Nd  Nd9  1  0.443303  0.924251  0.462451  1
  Nd  Nd10  1  0.443303  0.537549  0.075749  1
  Nd  Nd11  1  0.947660  0.462059  0.537941  1
  Nd  Nd12  1  0.945021  0.075843  0.539260  1
  Nd  Nd13  1  0.945021  0.460740  0.924157  1
  Pd  Pd14  1  0.691508  0.622277  0.811092  1
  Pd  Pd15  1  0.691508  0.188908  0.377723  1
  Pt  Pt16  1  0.191070  0.811345  0.188655  1
  Pt  Pt17  1  0.191117  0.377486  0.188896  1
  Pt  Pt18  1  0.191117  0.811104  0.622514  1
  Pt  Pt19  1  0.691337  0.189167  0.810833  1
