# generated using pymatgen
data_Dy2Lu5ThSb20
_symmetry_space_group_name_H-M   'P 1'
_cell_length_a   4.22882900
_cell_length_b   13.13845949
_cell_length_c   14.51341655
_cell_angle_alpha   78.32600762
_cell_angle_beta   90.00000000
_cell_angle_gamma   90.00000000
_symmetry_Int_Tables_number   1
_chemical_formula_structural   Dy2Lu5ThSb20
_chemical_formula_sum   'Dy2 Lu5 Th1 Sb20'
_cell_volume   789.68980294
_cell_formula_units_Z   1
loop_
 _symmetry_equiv_pos_site_id
 _symmetry_equiv_pos_as_xyz
  1  'x, y, z'
loop_
 _atom_site_type_symbol
 _atom_site_label
 _atom_site_symmetry_multiplicity
 _atom_site_fract_x
 _atom_site_fract_y
 _atom_site_fract_z
 _atom_site_occupancy
  Dy  Dy0  1  0.250000  0.950251  0.357601  1
  Dy  Dy1  1  0.750000  0.046037  0.644941  1
  Lu  Lu2  1  0.250000  0.397248  0.773909  1
  Lu  Lu3  1  0.750000  0.607143  0.227091  1
  Lu  Lu4  1  0.250000  0.661566  0.855539  1
  Lu  Lu5  1  0.750000  0.338599  0.141705  1
  Lu  Lu6  1  0.250000  0.671982  0.575687  1
  Th  Th7  1  0.750000  0.329105  0.427398  1
  Sb  Sb8  1  0.250000  0.146465  0.779735  1
  Sb  Sb9  1  0.750000  0.853102  0.219596  1
  Sb  Sb10  1  0.250000  0.137504  0.484530  1
  Sb  Sb11  1  0.750000  0.856301  0.517515  1
  Sb  Sb12  1  0.250000  0.154616  0.165115  1
  Sb  Sb13  1  0.750000  0.844312  0.832227  1
  Sb  Sb14  1  0.250000  0.420741  0.977178  1
  Sb  Sb15  1  0.750000  0.579235  0.023392  1
  Sb  Sb16  1  0.750000  0.029901  0.910456  1
  Sb  Sb17  1  0.250000  0.968070  0.087624  1
  Sb  Sb18  1  0.750000  0.137388  0.314178  1
  Sb  Sb19  1  0.250000  0.858927  0.680552  1
  Sb  Sb20  1  0.750000  0.278834  0.939080  1
  Sb  Sb21  1  0.250000  0.720697  0.061167  1
  Sb  Sb22  1  0.750000  0.287171  0.659285  1
  Sb  Sb23  1  0.250000  0.714357  0.343378  1
  Sb  Sb24  1  0.750000  0.577227  0.734951  1
  Sb  Sb25  1  0.250000  0.425214  0.262079  1
  Sb  Sb26  1  0.750000  0.574499  0.446939  1
  Sb  Sb27  1  0.250000  0.433508  0.557153  1
