# generated using pymatgen
data_Ce2MnAl4Co
_symmetry_space_group_name_H-M   'P 1'
_cell_length_a   5.09134433
_cell_length_b   5.09134367
_cell_length_c   7.16169400
_cell_angle_alpha   90.00000000
_cell_angle_beta   90.00000000
_cell_angle_gamma   129.77565159
_symmetry_Int_Tables_number   1
_chemical_formula_structural   Ce2MnAl4Co
_chemical_formula_sum   'Ce2 Mn1 Al4 Co1'
_cell_volume   142.67762292
_cell_formula_units_Z   1
loop_
 _symmetry_equiv_pos_site_id
 _symmetry_equiv_pos_as_xyz
  1  'x, y, z'
loop_
 _atom_site_type_symbol
 _atom_site_label
 _atom_site_symmetry_multiplicity
 _atom_site_fract_x
 _atom_site_fract_y
 _atom_site_fract_z
 _atom_site_occupancy
  Ce  Ce0  1  0.547910  0.452090  0.250000  1
  Ce  Ce1  1  0.444705  0.555295  0.750000  1
  Mn  Mn2  1  0.319654  0.680346  0.250000  1
  Al  Al3  1  0.843479  0.156521  0.051505  1
  Al  Al4  1  0.156929  0.843071  0.949959  1
  Al  Al5  1  0.156929  0.843071  0.550041  1
  Al  Al6  1  0.843479  0.156521  0.448495  1
  Co  Co7  1  0.686916  0.313084  0.750000  1
