# generated using pymatgen
data_Pr3GaAg3Ge2
_symmetry_space_group_name_H-M   'P 1'
_cell_length_a   7.44209700
_cell_length_b   7.44209656
_cell_length_c   4.34811900
_cell_angle_alpha   90.00000000
_cell_angle_beta   90.00000000
_cell_angle_gamma   119.99997971
_symmetry_Int_Tables_number   1
_chemical_formula_structural   Pr3GaAg3Ge2
_chemical_formula_sum   'Pr3 Ga1 Ag3 Ge2'
_cell_volume   208.55603861
_cell_formula_units_Z   1
loop_
 _symmetry_equiv_pos_site_id
 _symmetry_equiv_pos_as_xyz
  1  'x, y, z'
loop_
 _atom_site_type_symbol
 _atom_site_label
 _atom_site_symmetry_multiplicity
 _atom_site_fract_x
 _atom_site_fract_y
 _atom_site_fract_z
 _atom_site_occupancy
  Pr  Pr0  1  0.581282  0.000000  0.000000  1
  Pr  Pr1  1  0.000000  0.581282  0.000000  1
  Pr  Pr2  1  0.418718  0.418718  0.000000  1
  Ga  Ga3  1  0.000000  0.000000  0.000000  1
  Ag  Ag4  1  0.245336  0.000000  0.500000  1
  Ag  Ag5  1  0.000000  0.245336  0.500000  1
  Ag  Ag6  1  0.754664  0.754664  0.500000  1
  Ge  Ge7  1  0.333333  0.666667  0.500000  1
  Ge  Ge8  1  0.666667  0.333333  0.500000  1
