# generated using pymatgen
data_Y2PRh6
_symmetry_space_group_name_H-M   'P 1'
_cell_length_a   5.96710430
_cell_length_b   5.96710465
_cell_length_c   5.96710600
_cell_angle_alpha   60.00000358
_cell_angle_beta   60.00000168
_cell_angle_gamma   60.00000942
_symmetry_Int_Tables_number   1
_chemical_formula_structural   Y2PRh6
_chemical_formula_sum   'Y2 P1 Rh6'
_cell_volume   150.23671760
_cell_formula_units_Z   1
loop_
 _symmetry_equiv_pos_site_id
 _symmetry_equiv_pos_as_xyz
  1  'x, y, z'
loop_
 _atom_site_type_symbol
 _atom_site_label
 _atom_site_symmetry_multiplicity
 _atom_site_fract_x
 _atom_site_fract_y
 _atom_site_fract_z
 _atom_site_occupancy
  Y  Y0  1  0.250000  0.250000  0.250000  1
  Y  Y1  1  0.750000  0.750000  0.750000  1
  P  P2  1  0.500000  0.500000  0.500000  1
  Rh  Rh3  1  0.766496  0.233503  0.233503  1
  Rh  Rh4  1  0.233503  0.766496  0.233503  1
  Rh  Rh5  1  0.766496  0.766496  0.233503  1
  Rh  Rh6  1  0.233503  0.233503  0.766496  1
  Rh  Rh7  1  0.766496  0.233503  0.766496  1
  Rh  Rh8  1  0.233503  0.766496  0.766496  1
