# generated using pymatgen
data_Ce4Dy5YRu4
_symmetry_space_group_name_H-M   'P 1'
_cell_length_a   6.41674241
_cell_length_b   7.06532581
_cell_length_c   8.87071250
_cell_angle_alpha   95.30838525
_cell_angle_beta   111.20349523
_cell_angle_gamma   89.99999541
_symmetry_Int_Tables_number   1
_chemical_formula_structural   Ce4Dy5YRu4
_chemical_formula_sum   'Ce4 Dy5 Y1 Ru4'
_cell_volume   373.08935244
_cell_formula_units_Z   1
loop_
 _symmetry_equiv_pos_site_id
 _symmetry_equiv_pos_as_xyz
  1  'x, y, z'
loop_
 _atom_site_type_symbol
 _atom_site_label
 _atom_site_symmetry_multiplicity
 _atom_site_fract_x
 _atom_site_fract_y
 _atom_site_fract_z
 _atom_site_occupancy
  Ce  Ce0  1  0.985914  0.903213  0.189273  1
  Ce  Ce1  1  0.796642  0.596787  0.810727  1
  Ce  Ce2  1  0.014194  0.096605  0.810653  1
  Ce  Ce3  1  0.203541  0.403395  0.189347  1
  Dy  Dy4  1  0.642297  0.816824  0.431896  1
  Dy  Dy5  1  0.210399  0.683176  0.568104  1
  Dy  Dy6  1  0.357604  0.183251  0.567756  1
  Dy  Dy7  1  0.789849  0.316749  0.432244  1
  Dy  Dy8  1  0.421756  0.750000  0.000000  1
  Y  Y9  1  0.578981  0.250000  0.000000  1
  Ru  Ru10  1  0.851624  0.594004  0.221202  1
  Ru  Ru11  1  0.630422  0.905996  0.778798  1
  Ru  Ru12  1  0.147796  0.407000  0.778815  1
  Ru  Ru13  1  0.368981  0.093000  0.221185  1
