# generated using pymatgen
data_CaPu3H11
_symmetry_space_group_name_H-M   'P 1'
_cell_length_a   6.46020638
_cell_length_b   6.46020668
_cell_length_c   6.46020695
_cell_angle_alpha   131.24265632
_cell_angle_beta   133.52050536
_cell_angle_gamma   69.64330311
_symmetry_Int_Tables_number   1
_chemical_formula_structural   CaPu3H11
_chemical_formula_sum   'Ca1 Pu3 H11'
_cell_volume   144.19325157
_cell_formula_units_Z   1
loop_
 _symmetry_equiv_pos_site_id
 _symmetry_equiv_pos_as_xyz
  1  'x, y, z'
loop_
 _atom_site_type_symbol
 _atom_site_label
 _atom_site_symmetry_multiplicity
 _atom_site_fract_x
 _atom_site_fract_y
 _atom_site_fract_z
 _atom_site_occupancy
  Ca  Ca0  1  0.500000  0.000000  0.500000  1
  Pu  Pu1  1  0.262567  0.262567  0.000000  1
  Pu  Pu2  1  0.000000  0.500000  0.500000  1
  Pu  Pu3  1  0.737433  0.737433  0.000000  1
  H  H4  1  0.646778  0.112079  0.003182  1
  H  H5  1  0.353222  0.356404  0.465300  1
  H  H6  1  0.108897  0.643596  0.996818  1
  H  H7  1  0.891103  0.887921  0.534700  1
  H  H8  1  0.891103  0.356404  0.003182  1
  H  H9  1  0.646778  0.643596  0.534700  1
  H  H10  1  0.353222  0.887921  0.996818  1
  H  H11  1  0.108897  0.112079  0.465300  1
  H  H12  1  0.764731  0.264731  0.500000  1
  H  H13  1  0.500000  0.500000  0.000000  1
  H  H14  1  0.235269  0.735269  0.500000  1
