# generated using pymatgen
data_Y5TmAl18
_symmetry_space_group_name_H-M   'P 1'
_cell_length_a   14.51406774
_cell_length_b   14.51406835
_cell_length_c   14.51406916
_cell_angle_alpha   24.57549161
_cell_angle_beta   24.57548579
_cell_angle_gamma   24.57549275
_symmetry_Int_Tables_number   1
_chemical_formula_structural   Y5TmAl18
_chemical_formula_sum   'Y5 Tm1 Al18'
_cell_volume   465.01010991
_cell_formula_units_Z   1
loop_
 _symmetry_equiv_pos_site_id
 _symmetry_equiv_pos_as_xyz
  1  'x, y, z'
loop_
 _atom_site_type_symbol
 _atom_site_label
 _atom_site_symmetry_multiplicity
 _atom_site_fract_x
 _atom_site_fract_y
 _atom_site_fract_z
 _atom_site_occupancy
  Y  Y0  1  0.890768  0.890768  0.890768  1
  Y  Y1  1  0.390971  0.390971  0.390971  1
  Y  Y2  1  0.999895  0.999895  0.999895  1
  Y  Y3  1  0.500075  0.500075  0.500075  1
  Y  Y4  1  0.609095  0.609095  0.609095  1
  Tm  Tm5  1  0.109133  0.109133  0.109133  1
  Al  Al6  1  0.925259  0.370025  0.370025  1
  Al  Al7  1  0.424763  0.870437  0.870437  1
  Al  Al8  1  0.370025  0.370025  0.925259  1
  Al  Al9  1  0.870437  0.870437  0.424763  1
  Al  Al10  1  0.370025  0.925259  0.370025  1
  Al  Al11  1  0.870437  0.424763  0.870437  1
  Al  Al12  1  0.574743  0.130056  0.130056  1
  Al  Al13  1  0.073499  0.630628  0.630628  1
  Al  Al14  1  0.130056  0.130056  0.574743  1
  Al  Al15  1  0.630628  0.630628  0.073499  1
  Al  Al16  1  0.130056  0.574743  0.130056  1
  Al  Al17  1  0.630628  0.073499  0.630628  1
  Al  Al18  1  0.500217  0.500217  0.999648  1
  Al  Al19  1  0.001290  0.001290  0.496846  1
  Al  Al20  1  0.500217  0.999648  0.500217  1
  Al  Al21  1  0.001290  0.496846  0.001290  1
  Al  Al22  1  0.999648  0.500217  0.500217  1
  Al  Al23  1  0.496846  0.001290  0.001290  1
