# generated using pymatgen
data_Dy3CdSn3Ir2
_symmetry_space_group_name_H-M   'P 1'
_cell_length_a   7.72160500
_cell_length_b   7.72160381
_cell_length_c   3.93676200
_cell_angle_alpha   90.00000000
_cell_angle_beta   90.00000000
_cell_angle_gamma   120.00000082
_symmetry_Int_Tables_number   1
_chemical_formula_structural   Dy3CdSn3Ir2
_chemical_formula_sum   'Dy3 Cd1 Sn3 Ir2'
_cell_volume   203.27542789
_cell_formula_units_Z   1
loop_
 _symmetry_equiv_pos_site_id
 _symmetry_equiv_pos_as_xyz
  1  'x, y, z'
loop_
 _atom_site_type_symbol
 _atom_site_label
 _atom_site_symmetry_multiplicity
 _atom_site_fract_x
 _atom_site_fract_y
 _atom_site_fract_z
 _atom_site_occupancy
  Dy  Dy0  1  0.972443  0.381788  0.500000  1
  Dy  Dy1  1  0.618212  0.590655  0.500000  1
  Dy  Dy2  1  0.409345  0.027557  0.500000  1
  Cd  Cd3  1  0.333333  0.666667  0.000000  1
  Sn  Sn4  1  0.000499  0.745072  0.000000  1
  Sn  Sn5  1  0.254928  0.255428  0.000000  1
  Sn  Sn6  1  0.744572  0.999501  0.000000  1
  Ir  Ir7  1  0.666667  0.333333  0.000000  1
  Ir  Ir8  1  0.000000  0.000000  0.500000  1
