# generated using pymatgen
data_Yb2Ho2IrRu7
_symmetry_space_group_name_H-M   'P 1'
_cell_length_a   5.23542409
_cell_length_b   5.23537256
_cell_length_c   8.93709100
_cell_angle_alpha   90.00114940
_cell_angle_beta   90.00028640
_cell_angle_gamma   119.99559200
_symmetry_Int_Tables_number   1
_chemical_formula_structural   Yb2Ho2IrRu7
_chemical_formula_sum   'Yb2 Ho2 Ir1 Ru7'
_cell_volume   212.15123303
_cell_formula_units_Z   1
loop_
 _symmetry_equiv_pos_site_id
 _symmetry_equiv_pos_as_xyz
  1  'x, y, z'
loop_
 _atom_site_type_symbol
 _atom_site_label
 _atom_site_symmetry_multiplicity
 _atom_site_fract_x
 _atom_site_fract_y
 _atom_site_fract_z
 _atom_site_occupancy
  Yb  Yb0  1  0.333340  0.666677  0.059827  1
  Yb  Yb1  1  0.666660  0.333323  0.940173  1
  Ho  Ho2  1  0.666700  0.333372  0.573754  1
  Ho  Ho3  1  0.333300  0.666628  0.426246  1
  Ir  Ir4  1  0.000000  0.000000  0.000000  1
  Ru  Ru5  1  0.000000  0.000000  0.500000  1
  Ru  Ru6  1  0.170974  0.341962  0.748590  1
  Ru  Ru7  1  0.170978  0.829013  0.748593  1
  Ru  Ru8  1  0.658032  0.829039  0.748568  1
  Ru  Ru9  1  0.829026  0.658038  0.251410  1
  Ru  Ru10  1  0.829022  0.170987  0.251407  1
  Ru  Ru11  1  0.341968  0.170961  0.251432  1
