# generated using pymatgen
data_Nd4Y4Re(TcB8)3
_symmetry_space_group_name_H-M   'P 1'
_cell_length_a   3.74257900
_cell_length_b   9.25152285
_cell_length_c   11.70125909
_cell_angle_alpha   89.98273654
_cell_angle_beta   90.00000000
_cell_angle_gamma   90.00000000
_symmetry_Int_Tables_number   1
_chemical_formula_structural   Nd4Y4Re(TcB8)3
_chemical_formula_sum   'Nd4 Y4 Re1 Tc3 B24'
_cell_volume   405.15087226
_cell_formula_units_Z   1
loop_
 _symmetry_equiv_pos_site_id
 _symmetry_equiv_pos_as_xyz
  1  'x, y, z'
loop_
 _atom_site_type_symbol
 _atom_site_label
 _atom_site_symmetry_multiplicity
 _atom_site_fract_x
 _atom_site_fract_y
 _atom_site_fract_z
 _atom_site_occupancy
  Nd  Nd0  1  0.000000  0.823382  0.085541  1
  Nd  Nd1  1  0.000000  0.176865  0.914573  1
  Nd  Nd2  1  0.000000  0.323155  0.414283  1
  Nd  Nd3  1  0.000000  0.677055  0.585414  1
  Y  Y4  1  0.000000  0.442091  0.131636  1
  Y  Y5  1  0.000000  0.558350  0.869263  1
  Y  Y6  1  0.000000  0.942136  0.368349  1
  Y  Y7  1  0.000000  0.056908  0.631122  1
  Re  Re8  1  0.000000  0.361084  0.680506  1
  Tc  Tc9  1  0.000000  0.139160  0.180794  1
  Tc  Tc10  1  0.000000  0.860880  0.819295  1
  Tc  Tc11  1  0.000000  0.639182  0.319185  1
  B  B12  1  0.500000  0.055010  0.069438  1
  B  B13  1  0.500000  0.945212  0.930504  1
  B  B14  1  0.500000  0.554912  0.430525  1
  B  B15  1  0.500000  0.445221  0.569297  1
  B  B16  1  0.500000  0.248956  0.084429  1
  B  B17  1  0.500000  0.751353  0.915658  1
  B  B18  1  0.500000  0.748911  0.415586  1
  B  B19  1  0.500000  0.250758  0.584241  1
  B  B20  1  0.500000  0.290421  0.234374  1
  B  B21  1  0.500000  0.709485  0.765749  1
  B  B22  1  0.500000  0.790410  0.265548  1
  B  B23  1  0.500000  0.209278  0.734337  1
  B  B24  1  0.500000  0.129347  0.313411  1
  B  B25  1  0.500000  0.870431  0.686590  1
  B  B26  1  0.500000  0.629381  0.186477  1
  B  B27  1  0.500000  0.370728  0.813631  1
  B  B28  1  0.500000  0.483969  0.287609  1
  B  B29  1  0.500000  0.516333  0.712642  1
  B  B30  1  0.500000  0.983941  0.212363  1
  B  B31  1  0.500000  0.016055  0.787459  1
  B  B32  1  0.500000  0.096183  0.473123  1
  B  B33  1  0.500000  0.903314  0.526588  1
  B  B34  1  0.500000  0.596440  0.027139  1
  B  B35  1  0.500000  0.403706  0.973321  1
