# generated using pymatgen
data_Pr(TiZn2)2
_symmetry_space_group_name_H-M   'P 1'
_cell_length_a   5.61003694
_cell_length_b   5.61003484
_cell_length_c   5.61003658
_cell_angle_alpha   101.30266355
_cell_angle_beta   101.30265259
_cell_angle_gamma   127.44623672
_symmetry_Int_Tables_number   1
_chemical_formula_structural   Pr(TiZn2)2
_chemical_formula_sum   'Pr1 Ti2 Zn4'
_cell_volume   125.69161513
_cell_formula_units_Z   1
loop_
 _symmetry_equiv_pos_site_id
 _symmetry_equiv_pos_as_xyz
  1  'x, y, z'
loop_
 _atom_site_type_symbol
 _atom_site_label
 _atom_site_symmetry_multiplicity
 _atom_site_fract_x
 _atom_site_fract_y
 _atom_site_fract_z
 _atom_site_occupancy
  Pr  Pr0  1  0.000000  0.000000  0.000000  1
  Ti  Ti1  1  0.250000  0.750000  0.500000  1
  Ti  Ti2  1  0.750000  0.250000  0.500000  1
  Zn  Zn3  1  0.692679  0.307321  0.000000  1
  Zn  Zn4  1  0.692679  0.692679  0.385360  1
  Zn  Zn5  1  0.307321  0.307321  0.614640  1
  Zn  Zn6  1  0.307321  0.692679  0.000000  1
