# generated using pymatgen
data_Cs12Rb5Al2TlBi8
_symmetry_space_group_name_H-M   'P 1'
_cell_length_a   11.45752294
_cell_length_b   11.53905942
_cell_length_c   12.06985000
_cell_angle_alpha   90.00000000
_cell_angle_beta   90.00000000
_cell_angle_gamma   120.23568519
_symmetry_Int_Tables_number   1
_chemical_formula_structural   Cs12Rb5Al2TlBi8
_chemical_formula_sum   'Cs12 Rb5 Al2 Tl1 Bi8'
_cell_volume   1378.66048468
_cell_formula_units_Z   1
loop_
 _symmetry_equiv_pos_site_id
 _symmetry_equiv_pos_as_xyz
  1  'x, y, z'
loop_
 _atom_site_type_symbol
 _atom_site_label
 _atom_site_symmetry_multiplicity
 _atom_site_fract_x
 _atom_site_fract_y
 _atom_site_fract_z
 _atom_site_occupancy
  Cs  Cs0  1  0.210366  0.796510  0.953042  1
  Cs  Cs1  1  0.210366  0.413856  0.953042  1
  Cs  Cs2  1  0.580268  0.790134  0.958342  1
  Cs  Cs3  1  0.413708  0.206854  0.465482  1
  Cs  Cs4  1  0.790147  0.580384  0.042843  1
  Cs  Cs5  1  0.790147  0.209763  0.457157  1
  Cs  Cs6  1  0.790147  0.580384  0.457157  1
  Cs  Cs7  1  0.210366  0.796510  0.546958  1
  Cs  Cs8  1  0.580268  0.790134  0.541658  1
  Cs  Cs9  1  0.413708  0.206854  0.034518  1
  Cs  Cs10  1  0.790147  0.209763  0.042843  1
  Cs  Cs11  1  0.210366  0.413856  0.546958  1
  Rb  Rb12  1  0.888264  0.120824  0.750000  1
  Rb  Rb13  1  0.762353  0.881176  0.250000  1
  Rb  Rb14  1  0.120669  0.239946  0.250000  1
  Rb  Rb15  1  0.120669  0.880723  0.250000  1
  Rb  Rb16  1  0.888264  0.767440  0.750000  1
  Al  Al17  1  0.333075  0.666538  0.250000  1
  Al  Al18  1  0.668426  0.334212  0.750000  1
  Tl  Tl19  1  0.239554  0.119777  0.750000  1
  Bi  Bi20  1  0.003535  0.001767  0.996341  1
  Bi  Bi21  1  0.050640  0.525320  0.250000  1
  Bi  Bi22  1  0.474705  0.947238  0.250000  1
  Bi  Bi23  1  0.516820  0.055364  0.750000  1
  Bi  Bi24  1  0.516820  0.461456  0.750000  1
  Bi  Bi25  1  0.003535  0.001767  0.503659  1
  Bi  Bi26  1  0.474705  0.527468  0.250000  1
  Bi  Bi27  1  0.947960  0.473980  0.750000  1
