# generated using pymatgen
data_K2Ho2Zr3Se10
_symmetry_space_group_name_H-M   'P 1'
_cell_length_a   6.79250441
_cell_length_b   11.46423420
_cell_length_c   9.14000850
_cell_angle_alpha   59.87459699
_cell_angle_beta   68.30570531
_cell_angle_gamma   90.06344614
_symmetry_Int_Tables_number   1
_chemical_formula_structural   K2Ho2Zr3Se10
_chemical_formula_sum   'K2 Ho2 Zr3 Se10'
_cell_volume   556.36327200
_cell_formula_units_Z   1
loop_
 _symmetry_equiv_pos_site_id
 _symmetry_equiv_pos_as_xyz
  1  'x, y, z'
loop_
 _atom_site_type_symbol
 _atom_site_label
 _atom_site_symmetry_multiplicity
 _atom_site_fract_x
 _atom_site_fract_y
 _atom_site_fract_z
 _atom_site_occupancy
  K  K0  1  0.786055  0.074563  0.426610  1
  K  K1  1  0.011659  0.525683  0.974568  1
  Ho  Ho2  1  0.799522  0.601098  0.402794  1
  Ho  Ho3  1  0.202238  0.398551  0.594238  1
  Zr  Zr4  1  0.398956  0.797476  0.201245  1
  Zr  Zr5  1  0.600693  0.201983  0.804007  1
  Zr  Zr6  1  0.999520  0.999252  0.998673  1
  Se  Se7  1  0.003813  0.847028  0.341786  1
  Se  Se8  1  0.594949  0.036295  0.150074  1
  Se  Se9  1  0.189697  0.230486  0.961102  1
  Se  Se10  1  0.774931  0.427772  0.768177  1
  Se  Se11  1  0.383552  0.648688  0.544007  1
  Se  Se12  1  0.403457  0.964485  0.852784  1
  Se  Se13  1  0.996322  0.151591  0.658075  1
  Se  Se14  1  0.620844  0.349510  0.453582  1
  Se  Se15  1  0.226932  0.573417  0.229753  1
  Se  Se16  1  0.806860  0.772122  0.038524  1
