# generated using pymatgen
data_Tb7ErLu8(Ga3Co)2
_symmetry_space_group_name_H-M   'P 1'
_cell_length_a   9.86190900
_cell_length_b   9.85670724
_cell_length_c   6.99895200
_cell_angle_alpha   90.00316378
_cell_angle_beta   90.00000000
_cell_angle_gamma   120.01745563
_symmetry_Int_Tables_number   1
_chemical_formula_structural   Tb7ErLu8(Ga3Co)2
_chemical_formula_sum   'Tb7 Er1 Lu8 Ga6 Co2'
_cell_volume   589.08786609
_cell_formula_units_Z   1
loop_
 _symmetry_equiv_pos_site_id
 _symmetry_equiv_pos_as_xyz
  1  'x, y, z'
loop_
 _atom_site_type_symbol
 _atom_site_label
 _atom_site_symmetry_multiplicity
 _atom_site_fract_x
 _atom_site_fract_y
 _atom_site_fract_z
 _atom_site_occupancy
  Tb  Tb0  1  0.928007  0.463727  0.791159  1
  Tb  Tb1  1  0.535722  0.463727  0.791159  1
  Tb  Tb2  1  0.464499  0.929000  0.291481  1
  Tb  Tb3  1  0.071439  0.535699  0.291141  1
  Tb  Tb4  1  0.464259  0.535699  0.291141  1
  Tb  Tb5  1  0.000044  0.000089  0.769129  1
  Tb  Tb6  1  0.999932  0.999864  0.269017  1
  Er  Er7  1  0.536229  0.072457  0.791812  1
  Lu  Lu8  1  0.826143  0.652287  0.487077  1
  Lu  Lu9  1  0.348145  0.173758  0.487527  1
  Lu  Lu10  1  0.825612  0.173758  0.487527  1
  Lu  Lu11  1  0.173922  0.347843  0.987098  1
  Lu  Lu12  1  0.651975  0.826440  0.986616  1
  Lu  Lu13  1  0.174466  0.826440  0.986616  1
  Lu  Lu14  1  0.666371  0.332740  0.174747  1
  Lu  Lu15  1  0.333609  0.667218  0.675328  1
  Ga  Ga16  1  0.836272  0.672547  0.043821  1
  Ga  Ga17  1  0.327881  0.163661  0.043609  1
  Ga  Ga18  1  0.835778  0.163661  0.043609  1
  Ga  Ga19  1  0.163788  0.327574  0.543453  1
  Ga  Ga20  1  0.672354  0.836260  0.544115  1
  Ga  Ga21  1  0.163908  0.836260  0.544115  1
  Co  Co22  1  0.666282  0.332563  0.552724  1
  Co  Co23  1  0.333364  0.666729  0.052051  1
