# generated using pymatgen
data_CaZn4Co(AsO4)4
_symmetry_space_group_name_H-M   'P 1'
_cell_length_a   8.91506480
_cell_length_b   5.35026272
_cell_length_c   9.12780580
_cell_angle_alpha   60.55465430
_cell_angle_beta   89.81596198
_cell_angle_gamma   89.83531180
_symmetry_Int_Tables_number   1
_chemical_formula_structural   CaZn4Co(AsO4)4
_chemical_formula_sum   'Ca1 Zn4 Co1 As4 O16'
_cell_volume   379.13526540
_cell_formula_units_Z   1
loop_
 _symmetry_equiv_pos_site_id
 _symmetry_equiv_pos_as_xyz
  1  'x, y, z'
loop_
 _atom_site_type_symbol
 _atom_site_label
 _atom_site_symmetry_multiplicity
 _atom_site_fract_x
 _atom_site_fract_y
 _atom_site_fract_z
 _atom_site_occupancy
  Ca  Ca0  1  0.000000  0.500000  0.500000  1
  Zn  Zn1  1  0.135707  0.457203  0.114256  1
  Zn  Zn2  1  0.633198  0.512940  0.388888  1
  Zn  Zn3  1  0.864293  0.542797  0.885744  1
  Zn  Zn4  1  0.366802  0.487060  0.611112  1
  Co  Co5  1  0.500000  0.500000  0.000000  1
  As  As6  1  0.313613  0.842683  0.188455  1
  As  As7  1  0.792348  0.156266  0.292327  1
  As  As8  1  0.686387  0.157317  0.811545  1
  As  As9  1  0.207652  0.843734  0.707673  1
  O  O10  1  0.075931  0.690428  0.868739  1
  O  O11  1  0.570437  0.310125  0.636524  1
  O  O12  1  0.924069  0.309572  0.131261  1
  O  O13  1  0.429563  0.689875  0.363476  1
  O  O14  1  0.209493  0.202539  0.645594  1
  O  O15  1  0.697686  0.795218  0.876940  1
  O  O16  1  0.790507  0.797461  0.354406  1
  O  O17  1  0.302314  0.204782  0.123060  1
  O  O18  1  0.156881  0.795466  0.543051  1
  O  O19  1  0.627526  0.213155  0.971029  1
  O  O20  1  0.141362  0.666263  0.245377  1
  O  O21  1  0.622182  0.339137  0.234374  1
  O  O22  1  0.858638  0.333737  0.754623  1
  O  O23  1  0.377818  0.660863  0.765626  1
  O  O24  1  0.372474  0.786845  0.028971  1
  O  O25  1  0.843119  0.204534  0.456949  1
