# generated using pymatgen
data_Tb2Pr2Zn10SiSn
_symmetry_space_group_name_H-M   'P 1'
_cell_length_a   8.40839869
_cell_length_b   8.40839997
_cell_length_c   8.92895800
_cell_angle_alpha   90.00000000
_cell_angle_beta   90.00000000
_cell_angle_gamma   149.54840681
_symmetry_Int_Tables_number   1
_chemical_formula_structural   Tb2Pr2Zn10SiSn
_chemical_formula_sum   'Tb2 Pr2 Zn10 Si1 Sn1'
_cell_volume   319.94314413
_cell_formula_units_Z   1
loop_
 _symmetry_equiv_pos_site_id
 _symmetry_equiv_pos_as_xyz
  1  'x, y, z'
loop_
 _atom_site_type_symbol
 _atom_site_label
 _atom_site_symmetry_multiplicity
 _atom_site_fract_x
 _atom_site_fract_y
 _atom_site_fract_z
 _atom_site_occupancy
  Tb  Tb0  1  0.202019  0.797981  0.250000  1
  Tb  Tb1  1  0.794972  0.205028  0.750000  1
  Pr  Pr2  1  0.000630  0.999370  0.486763  1
  Pr  Pr3  1  0.000630  0.999370  0.013237  1
  Zn  Zn4  1  0.811710  0.188290  0.390623  1
  Zn  Zn5  1  0.187059  0.812941  0.606873  1
  Zn  Zn6  1  0.811710  0.188290  0.109377  1
  Zn  Zn7  1  0.187059  0.812941  0.893127  1
  Zn  Zn8  1  0.651838  0.348162  0.473175  1
  Zn  Zn9  1  0.342884  0.657116  0.515488  1
  Zn  Zn10  1  0.651838  0.348162  0.026825  1
  Zn  Zn11  1  0.342884  0.657116  0.984512  1
  Zn  Zn12  1  0.404336  0.595664  0.250000  1
  Zn  Zn13  1  0.606816  0.393184  0.750000  1
  Si  Si14  1  0.559267  0.440733  0.250000  1
  Sn  Sn15  1  0.444346  0.555654  0.750000  1
