# generated using pymatgen
data_DyPaPt2Pb
_symmetry_space_group_name_H-M   'P 1'
_cell_length_a   7.96388900
_cell_length_b   7.95338200
_cell_length_c   3.62449700
_cell_angle_alpha   90.00000000
_cell_angle_beta   90.00000000
_cell_angle_gamma   90.00000000
_symmetry_Int_Tables_number   1
_chemical_formula_structural   DyPaPt2Pb
_chemical_formula_sum   'Dy2 Pa2 Pt4 Pb2'
_cell_volume   229.57510146
_cell_formula_units_Z   2
loop_
 _symmetry_equiv_pos_site_id
 _symmetry_equiv_pos_as_xyz
  1  'x, y, z'
loop_
 _atom_site_type_symbol
 _atom_site_label
 _atom_site_symmetry_multiplicity
 _atom_site_fract_x
 _atom_site_fract_y
 _atom_site_fract_z
 _atom_site_occupancy
  Dy  Dy0  1  0.827842  0.671840  0.500000  1
  Dy  Dy1  1  0.327842  0.828160  0.500000  1
  Pa  Pa2  1  0.668298  0.167984  0.500000  1
  Pa  Pa3  1  0.168298  0.332016  0.500000  1
  Pt  Pt4  1  0.371575  0.139998  0.000000  1
  Pt  Pt5  1  0.128098  0.611984  0.000000  1
  Pt  Pt6  1  0.628098  0.888016  0.000000  1
  Pt  Pt7  1  0.871575  0.360002  0.000000  1
  Pb  Pb8  1  0.004186  0.988834  0.000000  1
  Pb  Pb9  1  0.504186  0.511166  0.000000  1
