# generated using pymatgen
data_Nd2Dy3Ta2TlO14
_symmetry_space_group_name_H-M   'P 1'
_cell_length_a   6.62879269
_cell_length_b   6.43297575
_cell_length_c   7.68239500
_cell_angle_alpha   90.00000000
_cell_angle_beta   90.00000000
_cell_angle_gamma   110.32712709
_symmetry_Int_Tables_number   1
_chemical_formula_structural   Nd2Dy3Ta2TlO14
_chemical_formula_sum   'Nd2 Dy3 Ta2 Tl1 O14'
_cell_volume   307.19792663
_cell_formula_units_Z   1
loop_
 _symmetry_equiv_pos_site_id
 _symmetry_equiv_pos_as_xyz
  1  'x, y, z'
loop_
 _atom_site_type_symbol
 _atom_site_label
 _atom_site_symmetry_multiplicity
 _atom_site_fract_x
 _atom_site_fract_y
 _atom_site_fract_z
 _atom_site_occupancy
  Nd  Nd0  1  0.498576  0.494800  0.506573  1
  Nd  Nd1  1  0.498576  0.494800  0.993427  1
  Dy  Dy2  1  0.006408  0.548561  0.250000  1
  Dy  Dy3  1  0.998176  0.468037  0.750000  1
  Dy  Dy4  1  0.532939  0.996615  0.750000  1
  Ta  Ta5  1  0.005215  0.004058  0.501681  1
  Ta  Ta6  1  0.005215  0.004058  0.998319  1
  Tl  Tl7  1  0.514161  0.003866  0.250000  1
  O  O8  1  0.941516  0.077161  0.750000  1
  O  O9  1  0.027362  0.938032  0.250000  1
  O  O10  1  0.363096  0.655041  0.250000  1
  O  O11  1  0.642686  0.361338  0.750000  1
  O  O12  1  0.359521  0.623044  0.750000  1
  O  O13  1  0.633272  0.356609  0.250000  1
  O  O14  1  0.310001  0.068992  0.955517  1
  O  O15  1  0.676017  0.918284  0.489926  1
  O  O16  1  0.310001  0.068992  0.544483  1
  O  O17  1  0.676017  0.918284  0.010074  1
  O  O18  1  0.070513  0.324572  0.460319  1
  O  O19  1  0.930109  0.675142  0.970776  1
  O  O20  1  0.930109  0.675142  0.529224  1
  O  O21  1  0.070513  0.324572  0.039681  1
