# generated using pymatgen
data_La19Pr(Ir5Ru)2
_symmetry_space_group_name_H-M   'P 1'
_cell_length_a   11.39087207
_cell_length_b   11.39203807
_cell_length_c   6.70002900
_cell_angle_alpha   90.00000000
_cell_angle_beta   90.00000000
_cell_angle_gamma   89.98774761
_symmetry_Int_Tables_number   1
_chemical_formula_structural   La19Pr(Ir5Ru)2
_chemical_formula_sum   'La19 Pr1 Ir10 Ru2'
_cell_volume   869.43090599
_cell_formula_units_Z   1
loop_
 _symmetry_equiv_pos_site_id
 _symmetry_equiv_pos_as_xyz
  1  'x, y, z'
loop_
 _atom_site_type_symbol
 _atom_site_label
 _atom_site_symmetry_multiplicity
 _atom_site_fract_x
 _atom_site_fract_y
 _atom_site_fract_z
 _atom_site_occupancy
  La  La0  1  0.294115  0.088090  0.387343  1
  La  La1  1  0.294075  0.912015  0.887413  1
  La  La2  1  0.705925  0.087985  0.887413  1
  La  La3  1  0.705885  0.911910  0.387343  1
  La  La4  1  0.587969  0.793991  0.887210  1
  La  La5  1  0.588025  0.206155  0.387593  1
  La  La6  1  0.411975  0.793845  0.387593  1
  La  La7  1  0.412031  0.206009  0.887210  1
  La  La8  1  0.208715  0.408859  0.616612  1
  La  La9  1  0.208741  0.591130  0.116936  1
  La  La10  1  0.791259  0.408870  0.116936  1
  La  La11  1  0.791285  0.591141  0.616612  1
  La  La12  1  0.908953  0.708594  0.117035  1
  La  La13  1  0.908785  0.291376  0.617058  1
  La  La14  1  0.091215  0.708624  0.617058  1
  La  La15  1  0.091047  0.291406  0.117035  1
  La  La16  1  0.000000  0.000000  0.494059  1
  La  La17  1  0.000000  0.000000  0.993861  1
  La  La18  1  0.500000  0.500000  0.993992  1
  Pr  Pr19  1  0.500000  0.500000  0.494179  1
  Ir  Ir20  1  0.847894  0.154452  0.248421  1
  Ir  Ir21  1  0.847918  0.845539  0.748403  1
  Ir  Ir22  1  0.152082  0.154461  0.748403  1
  Ir  Ir23  1  0.152106  0.845548  0.248421  1
  Ir  Ir24  1  0.654672  0.347756  0.748736  1
  Ir  Ir25  1  0.654811  0.652301  0.247923  1
  Ir  Ir26  1  0.345189  0.347699  0.247923  1
  Ir  Ir27  1  0.345328  0.652244  0.748736  1
  Ir  Ir28  1  0.000000  0.500000  0.881126  1
  Ir  Ir29  1  0.000000  0.500000  0.381057  1
  Ru  Ru30  1  0.500000  0.000000  0.120172  1
  Ru  Ru31  1  0.500000  0.000000  0.620199  1
