# generated using pymatgen
data_Mn24Re4Os
_symmetry_space_group_name_H-M   'P 1'
_cell_length_a   7.56084603
_cell_length_b   7.56084655
_cell_length_c   7.56084600
_cell_angle_alpha   109.47121915
_cell_angle_beta   109.47122056
_cell_angle_gamma   109.47122688
_symmetry_Int_Tables_number   1
_chemical_formula_structural   Mn24Re4Os
_chemical_formula_sum   'Mn24 Re4 Os1'
_cell_volume   332.72795802
_cell_formula_units_Z   1
loop_
 _symmetry_equiv_pos_site_id
 _symmetry_equiv_pos_as_xyz
  1  'x, y, z'
loop_
 _atom_site_type_symbol
 _atom_site_label
 _atom_site_symmetry_multiplicity
 _atom_site_fract_x
 _atom_site_fract_y
 _atom_site_fract_z
 _atom_site_occupancy
  Mn  Mn0  1  0.389575  0.676923  0.000000  1
  Mn  Mn1  1  0.712650  0.323077  0.323077  1
  Mn  Mn2  1  0.389575  0.000000  0.676923  1
  Mn  Mn3  1  0.676923  0.389575  0.000000  1
  Mn  Mn4  1  0.000000  0.389575  0.676923  1
  Mn  Mn5  1  0.323077  0.712650  0.323077  1
  Mn  Mn6  1  0.323077  0.323077  0.712650  1
  Mn  Mn7  1  0.000000  0.676923  0.389575  1
  Mn  Mn8  1  0.676923  0.000000  0.389575  1
  Mn  Mn9  1  0.610425  0.610425  0.287350  1
  Mn  Mn10  1  0.287350  0.610425  0.610425  1
  Mn  Mn11  1  0.610425  0.287350  0.610425  1
  Mn  Mn12  1  0.373453  0.193633  0.000000  1
  Mn  Mn13  1  0.179821  0.806367  0.806367  1
  Mn  Mn14  1  0.373453  0.000000  0.193633  1
  Mn  Mn15  1  0.193633  0.373453  0.000000  1
  Mn  Mn16  1  0.000000  0.373453  0.193633  1
  Mn  Mn17  1  0.806367  0.179821  0.806367  1
  Mn  Mn18  1  0.806367  0.806367  0.179821  1
  Mn  Mn19  1  0.000000  0.193633  0.373453  1
  Mn  Mn20  1  0.193633  0.000000  0.373453  1
  Mn  Mn21  1  0.626547  0.626547  0.820179  1
  Mn  Mn22  1  0.820179  0.626547  0.626547  1
  Mn  Mn23  1  0.626547  0.820179  0.626547  1
  Re  Re24  1  0.633222  0.000000  0.000000  1
  Re  Re25  1  0.000000  0.633222  0.000000  1
  Re  Re26  1  0.000000  0.000000  0.633222  1
  Re  Re27  1  0.366778  0.366778  0.366778  1
  Os  Os28  1  0.000000  0.000000  0.000000  1
