# generated using pymatgen
data_Ho3Ta3(B2Ru5)2
_symmetry_space_group_name_H-M   'P 1'
_cell_length_a   9.58816612
_cell_length_b   9.58816612
_cell_length_c   3.11512300
_cell_angle_alpha   90.00000000
_cell_angle_beta   90.00000000
_cell_angle_gamma   90.36303491
_symmetry_Int_Tables_number   1
_chemical_formula_structural   Ho3Ta3(B2Ru5)2
_chemical_formula_sum   'Ho3 Ta3 B4 Ru10'
_cell_volume   286.37663443
_cell_formula_units_Z   1
loop_
 _symmetry_equiv_pos_site_id
 _symmetry_equiv_pos_as_xyz
  1  'x, y, z'
loop_
 _atom_site_type_symbol
 _atom_site_label
 _atom_site_symmetry_multiplicity
 _atom_site_fract_x
 _atom_site_fract_y
 _atom_site_fract_z
 _atom_site_occupancy
  Ho  Ho0  1  0.824268  0.675079  0.000000  1
  Ho  Ho1  1  0.175079  0.324268  0.000000  1
  Ho  Ho2  1  0.325716  0.825716  0.000000  1
  Ta  Ta3  1  0.676072  0.176072  0.000000  1
  Ta  Ta4  1  0.498286  0.502112  0.000000  1
  Ta  Ta5  1  0.002112  0.998286  0.000000  1
  B  B6  1  0.622923  0.880693  0.000000  1
  B  B7  1  0.380693  0.122923  0.000000  1
  B  B8  1  0.119513  0.619513  0.000000  1
  B  B9  1  0.876497  0.376497  0.000000  1
  Ru  Ru10  1  0.571511  0.721282  0.500000  1
  Ru  Ru11  1  0.440682  0.280099  0.500000  1
  Ru  Ru12  1  0.069458  0.780875  0.500000  1
  Ru  Ru13  1  0.915975  0.213413  0.500000  1
  Ru  Ru14  1  0.280875  0.569458  0.500000  1
  Ru  Ru15  1  0.713413  0.415975  0.500000  1
  Ru  Ru16  1  0.221282  0.071511  0.500000  1
  Ru  Ru17  1  0.780099  0.940682  0.500000  1
  Ru  Ru18  1  0.509316  0.009316  0.500000  1
  Ru  Ru19  1  0.996228  0.496228  0.500000  1
