# generated using pymatgen
data_Nd2CrFe(TeO6)2
_symmetry_space_group_name_H-M   'P 1'
_cell_length_a   5.24059402
_cell_length_b   5.24101155
_cell_length_c   10.23801701
_cell_angle_alpha   89.99825324
_cell_angle_beta   90.00218259
_cell_angle_gamma   120.00871627
_symmetry_Int_Tables_number   1
_chemical_formula_structural   Nd2CrFe(TeO6)2
_chemical_formula_sum   'Nd2 Cr1 Fe1 Te2 O12'
_cell_volume   243.50280049
_cell_formula_units_Z   1
loop_
 _symmetry_equiv_pos_site_id
 _symmetry_equiv_pos_as_xyz
  1  'x, y, z'
loop_
 _atom_site_type_symbol
 _atom_site_label
 _atom_site_symmetry_multiplicity
 _atom_site_fract_x
 _atom_site_fract_y
 _atom_site_fract_z
 _atom_site_occupancy
  Nd  Nd0  1  0.000002  0.999934  0.999480  1
  Nd  Nd1  1  0.000049  0.000039  0.500530  1
  Cr  Cr2  1  0.666753  0.333559  0.749920  1
  Fe  Fe3  1  0.333327  0.666645  0.250004  1
  Te  Te4  1  0.666817  0.333337  0.250024  1
  Te  Te5  1  0.333187  0.666692  0.750018  1
  O  O6  1  0.639182  0.626179  0.142575  1
  O  O7  1  0.987324  0.360950  0.142554  1
  O  O8  1  0.373893  0.012795  0.142552  1
  O  O9  1  0.373916  0.360982  0.357485  1
  O  O10  1  0.987356  0.626248  0.357497  1
  O  O11  1  0.639166  0.012855  0.357466  1
  O  O12  1  0.362040  0.989856  0.643345  1
  O  O13  1  0.009808  0.372118  0.643403  1
  O  O14  1  0.627650  0.637833  0.643401  1
  O  O15  1  0.627709  0.990053  0.856527  1
  O  O16  1  0.009751  0.637706  0.856602  1
  O  O17  1  0.362065  0.372218  0.856614  1
