# generated using pymatgen
data_Dy2YAgIr3RhO14
_symmetry_space_group_name_H-M   'P 1'
_cell_length_a   7.32571897
_cell_length_b   7.32845681
_cell_length_c   7.16541785
_cell_angle_alpha   59.24443077
_cell_angle_beta   59.22974328
_cell_angle_gamma   59.98764284
_symmetry_Int_Tables_number   1
_chemical_formula_structural   Dy2YAgIr3RhO14
_chemical_formula_sum   'Dy2 Y1 Ag1 Ir3 Rh1 O14'
_cell_volume   268.80924061
_cell_formula_units_Z   1
loop_
 _symmetry_equiv_pos_site_id
 _symmetry_equiv_pos_as_xyz
  1  'x, y, z'
loop_
 _atom_site_type_symbol
 _atom_site_label
 _atom_site_symmetry_multiplicity
 _atom_site_fract_x
 _atom_site_fract_y
 _atom_site_fract_z
 _atom_site_occupancy
  Dy  Dy0  1  0.125000  0.625000  0.125000  1
  Dy  Dy1  1  0.125000  0.125000  0.125000  1
  Y  Y2  1  0.625000  0.125000  0.125000  1
  Ag  Ag3  1  0.125000  0.125000  0.625000  1
  Ir  Ir4  1  0.125000  0.625000  0.625000  1
  Ir  Ir5  1  0.625000  0.125000  0.625000  1
  Ir  Ir6  1  0.625000  0.625000  0.625000  1
  Rh  Rh7  1  0.625000  0.625000  0.125000  1
  O  O8  1  0.713307  0.712767  0.286214  1
  O  O9  1  0.299848  0.299870  0.705841  1
  O  O10  1  0.694515  0.300051  0.705382  1
  O  O11  1  0.287506  0.713199  0.286094  1
  O  O12  1  0.299848  0.694440  0.705841  1
  O  O13  1  0.713307  0.287711  0.286214  1
  O  O14  1  0.536693  0.537233  0.963786  1
  O  O15  1  0.950152  0.950130  0.544159  1
  O  O16  1  0.555485  0.949949  0.544618  1
  O  O17  1  0.962494  0.536801  0.963906  1
  O  O18  1  0.950152  0.555560  0.544159  1
  O  O19  1  0.536693  0.962289  0.963786  1
  O  O20  1  0.250159  0.250440  0.248962  1
  O  O21  1  0.999841  0.999560  0.001038  1
