# generated using pymatgen
data_Ac2IrPtF14
_symmetry_space_group_name_H-M   'P 1'
_cell_length_a   5.88447393
_cell_length_b   6.28350787
_cell_length_c   8.54799000
_cell_angle_alpha   78.20374054
_cell_angle_beta   90.12905128
_cell_angle_gamma   89.88046924
_symmetry_Int_Tables_number   1
_chemical_formula_structural   Ac2IrPtF14
_chemical_formula_sum   'Ac2 Ir1 Pt1 F14'
_cell_volume   309.38626006
_cell_formula_units_Z   1
loop_
 _symmetry_equiv_pos_site_id
 _symmetry_equiv_pos_as_xyz
  1  'x, y, z'
loop_
 _atom_site_type_symbol
 _atom_site_label
 _atom_site_symmetry_multiplicity
 _atom_site_fract_x
 _atom_site_fract_y
 _atom_site_fract_z
 _atom_site_occupancy
  Ac  Ac0  1  0.204648  0.662971  0.311589  1
  Ac  Ac1  1  0.704126  0.336104  0.690038  1
  Ir  Ir2  1  0.214369  0.808279  0.779391  1
  Pt  Pt3  1  0.714104  0.192529  0.220721  1
  F  F4  1  0.358979  0.420153  0.534522  1
  F  F5  1  0.864883  0.575297  0.465502  1
  F  F6  1  0.910067  0.942020  0.217363  1
  F  F7  1  0.409645  0.053868  0.783549  1
  F  F8  1  0.445171  0.003155  0.235820  1
  F  F9  1  0.944331  0.005372  0.764367  1
  F  F10  1  0.519593  0.449664  0.212263  1
  F  F11  1  0.019446  0.557088  0.787159  1
  F  F12  1  0.204871  0.758714  0.010573  1
  F  F13  1  0.701029  0.239589  0.987641  1
  F  F14  1  0.227331  0.866424  0.546952  1
  F  F15  1  0.731869  0.132580  0.455692  1
  F  F16  1  0.987304  0.376112  0.201619  1
  F  F17  1  0.490959  0.620079  0.795241  1
