# generated using pymatgen
data_LiCo2(PIr)3
_symmetry_space_group_name_H-M   'P 1'
_cell_length_a   3.74839400
_cell_length_b   10.47110400
_cell_length_c   12.15752400
_cell_angle_alpha   90.00000000
_cell_angle_beta   90.00000000
_cell_angle_gamma   90.00000000
_symmetry_Int_Tables_number   1
_chemical_formula_structural   LiCo2(PIr)3
_chemical_formula_sum   'Li4 Co8 P12 Ir12'
_cell_volume   477.18067007
_cell_formula_units_Z   4
loop_
 _symmetry_equiv_pos_site_id
 _symmetry_equiv_pos_as_xyz
  1  'x, y, z'
loop_
 _atom_site_type_symbol
 _atom_site_label
 _atom_site_symmetry_multiplicity
 _atom_site_fract_x
 _atom_site_fract_y
 _atom_site_fract_z
 _atom_site_occupancy
  Li  Li0  1  0.250000  0.915399  0.209982  1
  Li  Li1  1  0.750000  0.084601  0.790018  1
  Li  Li2  1  0.750000  0.415399  0.290018  1
  Li  Li3  1  0.250000  0.584601  0.709982  1
  Co  Co4  1  0.250000  0.619500  0.195523  1
  Co  Co5  1  0.750000  0.380500  0.804477  1
  Co  Co6  1  0.750000  0.119500  0.304477  1
  Co  Co7  1  0.250000  0.880500  0.695523  1
  Co  Co8  1  0.250000  0.039488  0.434371  1
  Co  Co9  1  0.750000  0.960512  0.565629  1
  Co  Co10  1  0.750000  0.539488  0.065629  1
  Co  Co11  1  0.250000  0.460512  0.934371  1
  P  P12  1  0.250000  0.067468  0.614990  1
  P  P13  1  0.750000  0.932532  0.385010  1
  P  P14  1  0.750000  0.567468  0.885010  1
  P  P15  1  0.250000  0.432532  0.114990  1
  P  P16  1  0.250000  0.232766  0.369631  1
  P  P17  1  0.750000  0.767234  0.630369  1
  P  P18  1  0.750000  0.732766  0.130369  1
  P  P19  1  0.250000  0.267234  0.869631  1
  P  P20  1  0.250000  0.903014  0.876319  1
  P  P21  1  0.750000  0.096986  0.123681  1
  P  P22  1  0.750000  0.403014  0.623681  1
  P  P23  1  0.250000  0.596986  0.376319  1
  Ir  Ir24  1  0.250000  0.783314  0.488301  1
  Ir  Ir25  1  0.750000  0.216686  0.511699  1
  Ir  Ir26  1  0.750000  0.283314  0.011699  1
  Ir  Ir27  1  0.250000  0.716686  0.988301  1
  Ir  Ir28  1  0.250000  0.089160  0.977522  1
  Ir  Ir29  1  0.750000  0.910840  0.022478  1
  Ir  Ir30  1  0.750000  0.589160  0.522478  1
  Ir  Ir31  1  0.250000  0.410840  0.477522  1
  Ir  Ir32  1  0.250000  0.271730  0.681604  1
  Ir  Ir33  1  0.750000  0.728270  0.318396  1
  Ir  Ir34  1  0.750000  0.771730  0.818396  1
  Ir  Ir35  1  0.250000  0.228270  0.181604  1
