# generated using pymatgen
data_Tb4HoGa2Bi
_symmetry_space_group_name_H-M   'P 1'
_cell_length_a   8.05203600
_cell_length_b   8.05203600
_cell_length_c   13.41217200
_cell_angle_alpha   90.00000000
_cell_angle_beta   90.00000000
_cell_angle_gamma   90.00000000
_symmetry_Int_Tables_number   1
_chemical_formula_structural   Tb4HoGa2Bi
_chemical_formula_sum   'Tb16 Ho4 Ga8 Bi4'
_cell_volume   869.58197726
_cell_formula_units_Z   4
loop_
 _symmetry_equiv_pos_site_id
 _symmetry_equiv_pos_as_xyz
  1  'x, y, z'
loop_
 _atom_site_type_symbol
 _atom_site_label
 _atom_site_symmetry_multiplicity
 _atom_site_fract_x
 _atom_site_fract_y
 _atom_site_fract_z
 _atom_site_occupancy
  Tb  Tb0  1  0.654140  0.653857  0.608875  1
  Tb  Tb1  1  0.654140  0.346143  0.108875  1
  Tb  Tb2  1  0.845860  0.846143  0.391125  1
  Tb  Tb3  1  0.154140  0.846143  0.891125  1
  Tb  Tb4  1  0.345860  0.346143  0.608875  1
  Tb  Tb5  1  0.345860  0.653857  0.108875  1
  Tb  Tb6  1  0.154140  0.153857  0.391125  1
  Tb  Tb7  1  0.845860  0.153857  0.891125  1
  Tb  Tb8  1  0.653857  0.345860  0.391125  1
  Tb  Tb9  1  0.346143  0.345860  0.891125  1
  Tb  Tb10  1  0.153857  0.845860  0.608875  1
  Tb  Tb11  1  0.846143  0.845860  0.108875  1
  Tb  Tb12  1  0.346143  0.654140  0.391125  1
  Tb  Tb13  1  0.653857  0.654140  0.891125  1
  Tb  Tb14  1  0.846143  0.154140  0.608875  1
  Tb  Tb15  1  0.153857  0.154140  0.108875  1
  Ho  Ho16  1  0.000000  0.500000  0.751442  1
  Ho  Ho17  1  0.000000  0.500000  0.251442  1
  Ho  Ho18  1  0.500000  0.000000  0.248558  1
  Ho  Ho19  1  0.500000  0.000000  0.748558  1
  Ga  Ga20  1  0.854575  0.854575  0.750000  1
  Ga  Ga21  1  0.854575  0.145425  0.250000  1
  Ga  Ga22  1  0.645425  0.645425  0.250000  1
  Ga  Ga23  1  0.354575  0.645425  0.750000  1
  Ga  Ga24  1  0.145425  0.145425  0.750000  1
  Ga  Ga25  1  0.145425  0.854575  0.250000  1
  Ga  Ga26  1  0.354575  0.354575  0.250000  1
  Ga  Ga27  1  0.645425  0.354575  0.750000  1
  Bi  Bi28  1  0.000000  0.500000  0.500882  1
  Bi  Bi29  1  0.000000  0.500000  0.000882  1
  Bi  Bi30  1  0.500000  0.000000  0.499118  1
  Bi  Bi31  1  0.500000  0.000000  0.999118  1
