# generated using pymatgen
data_RbMn7AlO16
_symmetry_space_group_name_H-M   'P 1'
_cell_length_a   5.85637212
_cell_length_b   6.98223678
_cell_length_c   7.09199400
_cell_angle_alpha   88.70743102
_cell_angle_beta   78.31152810
_cell_angle_gamma   77.73370543
_symmetry_Int_Tables_number   1
_chemical_formula_structural   RbMn7AlO16
_chemical_formula_sum   'Rb1 Mn7 Al1 O16'
_cell_volume   277.43556100
_cell_formula_units_Z   1
loop_
 _symmetry_equiv_pos_site_id
 _symmetry_equiv_pos_as_xyz
  1  'x, y, z'
loop_
 _atom_site_type_symbol
 _atom_site_label
 _atom_site_symmetry_multiplicity
 _atom_site_fract_x
 _atom_site_fract_y
 _atom_site_fract_z
 _atom_site_occupancy
  Rb  Rb0  1  0.002152  0.996469  0.000571  1
  Mn  Mn1  1  0.082353  0.508130  0.181314  1
  Mn  Mn2  1  0.173117  0.816394  0.516700  1
  Mn  Mn3  1  0.667601  0.818011  0.519573  1
  Mn  Mn4  1  0.338121  0.185527  0.476341  1
  Mn  Mn5  1  0.837897  0.184791  0.480293  1
  Mn  Mn6  1  0.429293  0.486470  0.822266  1
  Mn  Mn7  1  0.924648  0.490194  0.821950  1
  Al  Al8  1  0.580315  0.513689  0.184354  1
  O  O9  1  0.831484  0.641535  0.055345  1
  O  O10  1  0.328721  0.640443  0.055122  1
  O  O11  1  0.981897  0.701968  0.382988  1
  O  O12  1  0.484459  0.698844  0.384913  1
  O  O13  1  0.855001  0.957115  0.643516  1
  O  O14  1  0.353302  0.958862  0.643524  1
  O  O15  1  0.345845  0.371673  0.284958  1
  O  O16  1  0.837292  0.368256  0.283273  1
  O  O17  1  0.167433  0.632294  0.717430  1
  O  O18  1  0.665288  0.632480  0.718820  1
  O  O19  1  0.154442  0.042838  0.354044  1
  O  O20  1  0.654290  0.042169  0.354996  1
  O  O21  1  0.026212  0.300265  0.614025  1
  O  O22  1  0.525442  0.301123  0.612188  1
  O  O23  1  0.180168  0.352534  0.945580  1
  O  O24  1  0.680328  0.357924  0.945911  1
