# generated using pymatgen
data_Ca2Al4NiGe2
_symmetry_space_group_name_H-M   'P 1'
_cell_length_a   4.17184424
_cell_length_b   4.17185348
_cell_length_c   10.41686541
_cell_angle_alpha   101.52749821
_cell_angle_beta   101.52725106
_cell_angle_gamma   90.05045466
_symmetry_Int_Tables_number   1
_chemical_formula_structural   Ca2Al4NiGe2
_chemical_formula_sum   'Ca2 Al4 Ni1 Ge2'
_cell_volume   173.90106883
_cell_formula_units_Z   1
loop_
 _symmetry_equiv_pos_site_id
 _symmetry_equiv_pos_as_xyz
  1  'x, y, z'
loop_
 _atom_site_type_symbol
 _atom_site_label
 _atom_site_symmetry_multiplicity
 _atom_site_fract_x
 _atom_site_fract_y
 _atom_site_fract_z
 _atom_site_occupancy
  Ca  Ca0  1  0.186413  0.186412  0.373471  1
  Ca  Ca1  1  0.813589  0.813590  0.626528  1
  Al  Al2  1  0.565838  0.065681  0.131820  1
  Al  Al3  1  0.065682  0.565840  0.131820  1
  Al  Al4  1  0.934318  0.434160  0.868179  1
  Al  Al5  1  0.434162  0.934319  0.868179  1
  Ni  Ni6  1  0.000000  0.000000  0.000000  1
  Ge  Ge7  1  0.653989  0.653988  0.308748  1
  Ge  Ge8  1  0.346013  0.346016  0.691253  1
