# generated using pymatgen
data_Dy2Y3Ho5Cd3Ru
_symmetry_space_group_name_H-M   'P 1'
_cell_length_a   9.60039001
_cell_length_b   9.60039075
_cell_length_c   9.82972900
_cell_angle_alpha   89.99695520
_cell_angle_beta   90.00304322
_cell_angle_gamma   120.00542217
_symmetry_Int_Tables_number   1
_chemical_formula_structural   Dy2Y3Ho5Cd3Ru
_chemical_formula_sum   'Dy4 Y6 Ho10 Cd6 Ru2'
_cell_volume   784.56012387
_cell_formula_units_Z   2
loop_
 _symmetry_equiv_pos_site_id
 _symmetry_equiv_pos_as_xyz
  1  'x, y, z'
loop_
 _atom_site_type_symbol
 _atom_site_label
 _atom_site_symmetry_multiplicity
 _atom_site_fract_x
 _atom_site_fract_y
 _atom_site_fract_z
 _atom_site_occupancy
  Dy  Dy0  1  0.209714  0.790286  0.439835  1
  Dy  Dy1  1  0.209775  0.419457  0.439815  1
  Dy  Dy2  1  0.580543  0.790225  0.439815  1
  Dy  Dy3  1  0.790119  0.209881  0.560267  1
  Y  Y4  1  0.541143  0.458857  0.249907  1
  Y  Y5  1  0.541103  0.082270  0.249861  1
  Y  Y6  1  0.917730  0.458897  0.249861  1
  Y  Y7  1  0.458955  0.541045  0.750122  1
  Y  Y8  1  0.458863  0.917806  0.750165  1
  Y  Y9  1  0.082194  0.541137  0.750165  1
  Ho  Ho10  1  0.000041  0.999959  0.500019  1
  Ho  Ho11  1  0.999997  0.000003  0.000025  1
  Ho  Ho12  1  0.790111  0.580311  0.560227  1
  Ho  Ho13  1  0.419689  0.209889  0.560227  1
  Ho  Ho14  1  0.790144  0.209856  0.939881  1
  Ho  Ho15  1  0.790096  0.580242  0.939809  1
  Ho  Ho16  1  0.419758  0.209904  0.939809  1
  Ho  Ho17  1  0.209866  0.790134  0.060141  1
  Ho  Ho18  1  0.209870  0.419722  0.060124  1
  Ho  Ho19  1  0.580278  0.790130  0.060124  1
  Cd  Cd20  1  0.885497  0.114503  0.249867  1
  Cd  Cd21  1  0.885489  0.770961  0.249891  1
  Cd  Cd22  1  0.229039  0.114511  0.249891  1
  Cd  Cd23  1  0.114500  0.885500  0.750095  1
  Cd  Cd24  1  0.114520  0.229000  0.750130  1
  Cd  Cd25  1  0.771000  0.885480  0.750130  1
  Ru  Ru26  1  0.333333  0.666667  0.249764  1
  Ru  Ru27  1  0.666634  0.333366  0.750034  1
