# generated using pymatgen
data_Tb4DyTm7Co5Sn
_symmetry_space_group_name_H-M   'P 1'
_cell_length_a   8.22058291
_cell_length_b   8.22058229
_cell_length_c   8.21922021
_cell_angle_alpha   107.04469346
_cell_angle_beta   110.77780179
_cell_angle_gamma   110.62469627
_symmetry_Int_Tables_number   1
_chemical_formula_structural   Tb4DyTm7Co5Sn
_chemical_formula_sum   'Tb4 Dy1 Tm7 Co5 Sn1'
_cell_volume   426.96819473
_cell_formula_units_Z   1
loop_
 _symmetry_equiv_pos_site_id
 _symmetry_equiv_pos_as_xyz
  1  'x, y, z'
loop_
 _atom_site_type_symbol
 _atom_site_label
 _atom_site_symmetry_multiplicity
 _atom_site_fract_x
 _atom_site_fract_y
 _atom_site_fract_z
 _atom_site_occupancy
  Tb  Tb0  1  0.478304  0.291414  0.187539  1
  Tb  Tb1  1  0.104470  0.291722  0.812088  1
  Tb  Tb2  1  0.896125  0.709235  0.187539  1
  Tb  Tb3  1  0.520366  0.707618  0.812088  1
  Dy  Dy4  1  0.808129  0.208590  0.016721  1
  Tm  Tm5  1  0.307996  0.622000  0.314717  1
  Tm  Tm6  1  0.306355  0.992744  0.685211  1
  Tm  Tm7  1  0.692468  0.378856  0.685211  1
  Tm  Tm8  1  0.692718  0.006720  0.314717  1
  Tm  Tm9  1  0.192874  0.208241  0.401114  1
  Tm  Tm10  1  0.807965  0.791366  0.599331  1
  Tm  Tm11  1  0.192071  0.791818  0.983888  1
  Co  Co12  1  0.500057  0.613703  0.113760  1
  Co  Co13  1  0.499503  0.386582  0.886085  1
  Co  Co14  1  0.376436  0.000181  0.376617  1
  Co  Co15  1  0.622944  0.999509  0.622453  1
  Co  Co16  1  0.000898  0.999248  0.000145  1
  Sn  Sn17  1  0.000321  0.500454  0.500775  1
