# generated using pymatgen
data_Dy2Lu2ReTcB12
_symmetry_space_group_name_H-M   'P 1'
_cell_length_a   3.64561900
_cell_length_b   9.10109997
_cell_length_c   11.48784702
_cell_angle_alpha   90.04311574
_cell_angle_beta   90.00000000
_cell_angle_gamma   90.00000000
_symmetry_Int_Tables_number   1
_chemical_formula_structural   Dy2Lu2ReTcB12
_chemical_formula_sum   'Dy4 Lu4 Re2 Tc2 B24'
_cell_volume   381.15681051
_cell_formula_units_Z   2
loop_
 _symmetry_equiv_pos_site_id
 _symmetry_equiv_pos_as_xyz
  1  'x, y, z'
loop_
 _atom_site_type_symbol
 _atom_site_label
 _atom_site_symmetry_multiplicity
 _atom_site_fract_x
 _atom_site_fract_y
 _atom_site_fract_z
 _atom_site_occupancy
  Dy  Dy0  1  0.000000  0.323385  0.414307  1
  Dy  Dy1  1  0.000000  0.676615  0.585693  1
  Dy  Dy2  1  0.000000  0.822891  0.085886  1
  Dy  Dy3  1  0.000000  0.177109  0.914114  1
  Lu  Lu4  1  0.000000  0.942377  0.370138  1
  Lu  Lu5  1  0.000000  0.057623  0.629862  1
  Lu  Lu6  1  0.000000  0.443892  0.130319  1
  Lu  Lu7  1  0.000000  0.556108  0.869681  1
  Re  Re8  1  0.000000  0.139471  0.180465  1
  Re  Re9  1  0.000000  0.860529  0.819535  1
  Tc  Tc10  1  0.000000  0.639582  0.319514  1
  Tc  Tc11  1  0.000000  0.360418  0.680486  1
  B  B12  1  0.500000  0.553846  0.432471  1
  B  B13  1  0.500000  0.446154  0.567529  1
  B  B14  1  0.500000  0.053734  0.067427  1
  B  B15  1  0.500000  0.946266  0.932573  1
  B  B16  1  0.500000  0.750608  0.418160  1
  B  B17  1  0.500000  0.249392  0.581840  1
  B  B18  1  0.500000  0.251107  0.081759  1
  B  B19  1  0.500000  0.748893  0.918241  1
  B  B20  1  0.500000  0.792853  0.265179  1
  B  B21  1  0.500000  0.207147  0.734821  1
  B  B22  1  0.500000  0.293246  0.235042  1
  B  B23  1  0.500000  0.706754  0.764958  1
  B  B24  1  0.500000  0.630146  0.184704  1
  B  B25  1  0.500000  0.369854  0.815296  1
  B  B26  1  0.500000  0.129892  0.315633  1
  B  B27  1  0.500000  0.870108  0.684367  1
  B  B28  1  0.500000  0.981484  0.212704  1
  B  B29  1  0.500000  0.018516  0.787296  1
  B  B30  1  0.500000  0.481955  0.287453  1
  B  B31  1  0.500000  0.518045  0.712547  1
  B  B32  1  0.500000  0.597945  0.026987  1
  B  B33  1  0.500000  0.402055  0.973013  1
  B  B34  1  0.500000  0.097860  0.472851  1
  B  B35  1  0.500000  0.902140  0.527149  1
