# generated using pymatgen
data_SmTmLuMgNi8
_symmetry_space_group_name_H-M   'P 1'
_cell_length_a   5.00422400
_cell_length_b   5.00422375
_cell_length_c   8.69916081
_cell_angle_alpha   73.28406425
_cell_angle_beta   90.00000000
_cell_angle_gamma   120.00000168
_symmetry_Int_Tables_number   1
_chemical_formula_structural   SmTmLuMgNi8
_chemical_formula_sum   'Sm1 Tm1 Lu1 Mg1 Ni8'
_cell_volume   177.95158444
_cell_formula_units_Z   1
loop_
 _symmetry_equiv_pos_site_id
 _symmetry_equiv_pos_as_xyz
  1  'x, y, z'
loop_
 _atom_site_type_symbol
 _atom_site_label
 _atom_site_symmetry_multiplicity
 _atom_site_fract_x
 _atom_site_fract_y
 _atom_site_fract_z
 _atom_site_occupancy
  Sm  Sm0  1  0.003594  0.007186  0.989220  1
  Tm  Tm1  1  0.495845  0.991688  0.512467  1
  Lu  Lu2  1  0.875726  0.751453  0.372821  1
  Mg  Mg3  1  0.374205  0.748411  0.877384  1
  Ni  Ni4  1  0.436505  0.372884  0.190611  1
  Ni  Ni5  1  0.935929  0.379508  0.684564  1
  Ni  Ni6  1  0.436505  0.873010  0.190611  1
  Ni  Ni7  1  0.935929  0.871857  0.684564  1
  Ni  Ni8  1  0.187676  0.375354  0.436970  1
  Ni  Ni9  1  0.688130  0.376259  0.935611  1
  Ni  Ni10  1  0.936377  0.372884  0.190611  1
  Ni  Ni11  1  0.443579  0.379508  0.684564  1
