# generated using pymatgen
data_TaBeNb9Si5
_symmetry_space_group_name_H-M   'P 1'
_cell_length_a   7.56006239
_cell_length_b   7.56491495
_cell_length_c   7.55318859
_cell_angle_alpha   128.54931147
_cell_angle_beta   128.49629949
_cell_angle_gamma   75.86270994
_symmetry_Int_Tables_number   1
_chemical_formula_structural   TaBeNb9Si5
_chemical_formula_sum   'Ta1 Be1 Nb9 Si5'
_cell_volume   257.02077196
_cell_formula_units_Z   1
loop_
 _symmetry_equiv_pos_site_id
 _symmetry_equiv_pos_as_xyz
  1  'x, y, z'
loop_
 _atom_site_type_symbol
 _atom_site_label
 _atom_site_symmetry_multiplicity
 _atom_site_fract_x
 _atom_site_fract_y
 _atom_site_fract_z
 _atom_site_occupancy
  Ta  Ta0  1  0.017864  0.189285  0.505688  1
  Be  Be1  1  0.124764  0.624345  0.749414  1
  Nb  Nb2  1  0.518007  0.018213  0.834013  1
  Nb  Nb3  1  0.180725  0.680754  0.155147  1
  Nb  Nb4  1  0.475283  0.974930  0.155847  1
  Nb  Nb5  1  0.689059  0.518625  0.505121  1
  Nb  Nb6  1  0.986059  0.816365  0.505198  1
  Nb  Nb7  1  0.316522  0.486395  0.505350  1
  Nb  Nb8  1  0.816333  0.315784  0.833732  1
  Nb  Nb9  1  0.496130  0.499994  0.996179  1
  Nb  Nb10  1  0.000507  0.996362  0.996898  1
  Si  Si11  1  0.627737  0.869612  0.497422  1
  Si  Si12  1  0.369546  0.127921  0.497421  1
  Si  Si13  1  0.878528  0.378534  0.257215  1
  Si  Si14  1  0.751755  0.751782  0.003280  1
  Si  Si15  1  0.251181  0.251099  0.002076  1
