# generated using pymatgen
data_Tb9Dy11(FeBi2)4
_symmetry_space_group_name_H-M   'P 1'
_cell_length_a   7.99225814
_cell_length_b   8.93041700
_cell_length_c   12.45436134
_cell_angle_alpha   90.00000000
_cell_angle_beta   89.92291992
_cell_angle_gamma   90.00000000
_symmetry_Int_Tables_number   1
_chemical_formula_structural   Tb9Dy11(FeBi2)4
_chemical_formula_sum   'Tb9 Dy11 Fe4 Bi8'
_cell_volume   888.91924773
_cell_formula_units_Z   1
loop_
 _symmetry_equiv_pos_site_id
 _symmetry_equiv_pos_as_xyz
  1  'x, y, z'
loop_
 _atom_site_type_symbol
 _atom_site_label
 _atom_site_symmetry_multiplicity
 _atom_site_fract_x
 _atom_site_fract_y
 _atom_site_fract_z
 _atom_site_occupancy
  Tb  Tb0  1  0.650636  0.750000  0.300374  1
  Tb  Tb1  1  0.382879  0.750000  0.687123  1
  Tb  Tb2  1  0.617890  0.250000  0.311985  1
  Tb  Tb3  1  0.882383  0.250000  0.811853  1
  Tb  Tb4  1  0.117514  0.750000  0.187644  1
  Tb  Tb5  1  0.946362  0.750000  0.505118  1
  Tb  Tb6  1  0.053336  0.250000  0.495397  1
  Tb  Tb7  1  0.446178  0.250000  0.994847  1
  Tb  Tb8  1  0.553888  0.750000  0.005130  1
  Dy  Dy9  1  0.849454  0.750000  0.800612  1
  Dy  Dy10  1  0.150749  0.250000  0.199599  1
  Dy  Dy11  1  0.348771  0.250000  0.699759  1
  Dy  Dy12  1  0.674386  0.036408  0.563222  1
  Dy  Dy13  1  0.325989  0.965702  0.437362  1
  Dy  Dy14  1  0.174017  0.964905  0.937184  1
  Dy  Dy15  1  0.325989  0.534298  0.437362  1
  Dy  Dy16  1  0.825680  0.036172  0.063029  1
  Dy  Dy17  1  0.674386  0.463592  0.563222  1
  Dy  Dy18  1  0.825680  0.463828  0.063029  1
  Dy  Dy19  1  0.174017  0.535095  0.937184  1
  Fe  Fe20  1  0.568565  0.750000  0.508585  1
  Fe  Fe21  1  0.430283  0.250000  0.490965  1
  Fe  Fe22  1  0.069985  0.250000  0.990616  1
  Fe  Fe23  1  0.930855  0.750000  0.008956  1
  Bi  Bi24  1  0.571099  0.493782  0.826256  1
  Bi  Bi25  1  0.428426  0.506179  0.173470  1
  Bi  Bi26  1  0.071233  0.506771  0.673635  1
  Bi  Bi27  1  0.428426  0.993821  0.173470  1
  Bi  Bi28  1  0.929308  0.493373  0.326558  1
  Bi  Bi29  1  0.571099  0.006218  0.826256  1
  Bi  Bi30  1  0.929308  0.006627  0.326558  1
  Bi  Bi31  1  0.071233  0.993229  0.673635  1
