# generated using pymatgen
data_Hf16MnCo5Pd2
_symmetry_space_group_name_H-M   'P 1'
_cell_length_a   8.53592087
_cell_length_b   8.58607008
_cell_length_c   8.56966000
_cell_angle_alpha   60.06321105
_cell_angle_beta   59.86917026
_cell_angle_gamma   60.14786124
_symmetry_Int_Tables_number   1
_chemical_formula_structural   Hf16MnCo5Pd2
_chemical_formula_sum   'Hf16 Mn1 Co5 Pd2'
_cell_volume   444.37667793
_cell_formula_units_Z   1
loop_
 _symmetry_equiv_pos_site_id
 _symmetry_equiv_pos_as_xyz
  1  'x, y, z'
loop_
 _atom_site_type_symbol
 _atom_site_label
 _atom_site_symmetry_multiplicity
 _atom_site_fract_x
 _atom_site_fract_y
 _atom_site_fract_z
 _atom_site_occupancy
  Hf  Hf0  1  0.183070  0.605069  0.605930  1
  Hf  Hf1  1  0.607785  0.171652  0.610282  1
  Hf  Hf2  1  0.605226  0.605812  0.181609  1
  Hf  Hf3  1  0.605226  0.605812  0.607352  1
  Hf  Hf4  1  0.813316  0.814187  0.186249  1
  Hf  Hf5  1  0.181822  0.194252  0.811963  1
  Hf  Hf6  1  0.813644  0.199159  0.813025  1
  Hf  Hf7  1  0.195266  0.815435  0.176380  1
  Hf  Hf8  1  0.195266  0.815435  0.812919  1
  Hf  Hf9  1  0.813644  0.199159  0.174172  1
  Hf  Hf10  1  0.449396  0.447508  0.051548  1
  Hf  Hf11  1  0.057448  0.058825  0.441863  1
  Hf  Hf12  1  0.441686  0.058016  0.443452  1
  Hf  Hf13  1  0.056073  0.441816  0.055707  1
  Hf  Hf14  1  0.056073  0.441816  0.446403  1
  Hf  Hf15  1  0.441686  0.058016  0.056846  1
  Mn  Mn16  1  0.832186  0.492157  0.837829  1
  Co  Co17  1  0.816689  0.390473  0.396418  1
  Co  Co18  1  0.393637  0.821465  0.392448  1
  Co  Co19  1  0.396553  0.389968  0.816778  1
  Co  Co20  1  0.396553  0.389968  0.396699  1
  Co  Co21  1  0.484225  0.828864  0.843456  1
  Pd  Pd22  1  0.831767  0.827566  0.503602  1
  Pd  Pd23  1  0.831767  0.827566  0.837066  1
