# generated using pymatgen
data_Tb2Er3Tm3(P3Ir4)4
_symmetry_space_group_name_H-M   'P 1'
_cell_length_a   12.96453000
_cell_length_b   12.96453108
_cell_length_c   3.99966500
_cell_angle_alpha   90.00000000
_cell_angle_beta   90.00000000
_cell_angle_gamma   120.00000234
_symmetry_Int_Tables_number   1
_chemical_formula_structural   Tb2Er3Tm3(P3Ir4)4
_chemical_formula_sum   'Tb2 Er3 Tm3 P12 Ir16'
_cell_volume   582.19413942
_cell_formula_units_Z   1
loop_
 _symmetry_equiv_pos_site_id
 _symmetry_equiv_pos_as_xyz
  1  'x, y, z'
loop_
 _atom_site_type_symbol
 _atom_site_label
 _atom_site_symmetry_multiplicity
 _atom_site_fract_x
 _atom_site_fract_y
 _atom_site_fract_z
 _atom_site_occupancy
  Tb  Tb0  1  0.333333  0.666667  0.500000  1
  Tb  Tb1  1  0.666667  0.333333  0.500000  1
  Er  Er2  1  0.000000  0.814130  0.000000  1
  Er  Er3  1  0.185870  0.185870  0.000000  1
  Er  Er4  1  0.814130  0.000000  0.000000  1
  Tm  Tm5  1  0.000000  0.445871  0.500000  1
  Tm  Tm6  1  0.554129  0.554129  0.500000  1
  Tm  Tm7  1  0.445871  0.000000  0.500000  1
  P  P8  1  0.000000  0.652093  0.500000  1
  P  P9  1  0.347907  0.347907  0.500000  1
  P  P10  1  0.652093  0.000000  0.500000  1
  P  P11  1  0.517140  0.688518  0.000000  1
  P  P12  1  0.311482  0.828622  0.000000  1
  P  P13  1  0.171378  0.482860  0.000000  1
  P  P14  1  0.482860  0.171378  0.000000  1
  P  P15  1  0.688518  0.517140  0.000000  1
  P  P16  1  0.828622  0.311482  0.000000  1
  P  P17  1  0.000000  0.175921  0.500000  1
  P  P18  1  0.824079  0.824079  0.500000  1
  P  P19  1  0.175921  0.000000  0.500000  1
  Ir  Ir20  1  0.509589  0.866340  0.000000  1
  Ir  Ir21  1  0.133660  0.643249  0.000000  1
  Ir  Ir22  1  0.356751  0.490411  0.000000  1
  Ir  Ir23  1  0.490411  0.356751  0.000000  1
  Ir  Ir24  1  0.866340  0.509589  0.000000  1
  Ir  Ir25  1  0.643249  0.133660  0.000000  1
  Ir  Ir26  1  0.000000  0.274287  0.000000  1
  Ir  Ir27  1  0.725713  0.725713  0.000000  1
  Ir  Ir28  1  0.274287  0.000000  0.000000  1
  Ir  Ir29  1  0.631047  0.809843  0.500000  1
  Ir  Ir30  1  0.190157  0.821204  0.500000  1
  Ir  Ir31  1  0.178796  0.368953  0.500000  1
  Ir  Ir32  1  0.368953  0.178796  0.500000  1
  Ir  Ir33  1  0.809843  0.631047  0.500000  1
  Ir  Ir34  1  0.821204  0.190157  0.500000  1
  Ir  Ir35  1  0.000000  0.000000  0.500000  1
