# generated using pymatgen
data_Tm12Co4TcHg
_symmetry_space_group_name_H-M   'P 1'
_cell_length_a   8.15676391
_cell_length_b   8.15676552
_cell_length_c   8.15676478
_cell_angle_alpha   111.46887353
_cell_angle_beta   110.70454213
_cell_angle_gamma   106.28738269
_symmetry_Int_Tables_number   1
_chemical_formula_structural   Tm12Co4TcHg
_chemical_formula_sum   'Tm12 Co4 Tc1 Hg1'
_cell_volume   416.78452593
_cell_formula_units_Z   1
loop_
 _symmetry_equiv_pos_site_id
 _symmetry_equiv_pos_as_xyz
  1  'x, y, z'
loop_
 _atom_site_type_symbol
 _atom_site_label
 _atom_site_symmetry_multiplicity
 _atom_site_fract_x
 _atom_site_fract_y
 _atom_site_fract_z
 _atom_site_occupancy
  Tm  Tm0  1  0.421405  0.225612  0.195793  1
  Tm  Tm1  1  0.578595  0.774388  0.804207  1
  Tm  Tm2  1  0.029820  0.225612  0.804207  1
  Tm  Tm3  1  0.970180  0.774388  0.195793  1
  Tm  Tm4  1  0.181621  0.277165  0.458786  1
  Tm  Tm5  1  0.818379  0.722835  0.541214  1
  Tm  Tm6  1  0.181621  0.722835  0.904457  1
  Tm  Tm7  1  0.818379  0.277165  0.095543  1
  Tm  Tm8  1  0.314587  0.619618  0.305032  1
  Tm  Tm9  1  0.685413  0.380382  0.694968  1
  Tm  Tm10  1  0.314587  0.009555  0.694968  1
  Tm  Tm11  1  0.685413  0.990445  0.305032  1
  Co  Co12  1  0.373454  0.000000  0.373454  1
  Co  Co13  1  0.626546  0.000000  0.626546  1
  Co  Co14  1  0.112629  0.612629  0.500000  1
  Co  Co15  1  0.887371  0.387371  0.500000  1
  Tc  Tc16  1  0.000000  0.000000  0.000000  1
  Hg  Hg17  1  0.500000  0.500000  0.000000  1
