# generated using pymatgen
data_CeDy3TlRu
_symmetry_space_group_name_H-M   'P 1'
_cell_length_a   9.63501460
_cell_length_b   9.63501399
_cell_length_c   9.63501400
_cell_angle_alpha   59.99999311
_cell_angle_beta   59.99999518
_cell_angle_gamma   59.99998877
_symmetry_Int_Tables_number   1
_chemical_formula_structural   CeDy3TlRu
_chemical_formula_sum   'Ce4 Dy12 Tl4 Ru4'
_cell_volume   632.47301902
_cell_formula_units_Z   4
loop_
 _symmetry_equiv_pos_site_id
 _symmetry_equiv_pos_as_xyz
  1  'x, y, z'
loop_
 _atom_site_type_symbol
 _atom_site_label
 _atom_site_symmetry_multiplicity
 _atom_site_fract_x
 _atom_site_fract_y
 _atom_site_fract_z
 _atom_site_occupancy
  Ce  Ce0  1  0.346190  0.346190  0.961398  1
  Ce  Ce1  1  0.346190  0.961398  0.346190  1
  Ce  Ce2  1  0.961398  0.346190  0.346190  1
  Ce  Ce3  1  0.346184  0.346184  0.346184  1
  Dy  Dy4  1  0.560198  0.560198  0.939823  1
  Dy  Dy5  1  0.939853  0.560239  0.939853  1
  Dy  Dy6  1  0.560239  0.939853  0.939853  1
  Dy  Dy7  1  0.939853  0.939853  0.560239  1
  Dy  Dy8  1  0.560198  0.939823  0.560198  1
  Dy  Dy9  1  0.939823  0.560198  0.560198  1
  Dy  Dy10  1  0.188143  0.188143  0.811819  1
  Dy  Dy11  1  0.811875  0.188115  0.811875  1
  Dy  Dy12  1  0.188114  0.811876  0.811875  1
  Dy  Dy13  1  0.811875  0.811876  0.188115  1
  Dy  Dy14  1  0.188142  0.811819  0.188142  1
  Dy  Dy15  1  0.811819  0.188143  0.188143  1
  Tl  Tl16  1  0.585335  0.585335  0.244033  1
  Tl  Tl17  1  0.585335  0.244033  0.585335  1
  Tl  Tl18  1  0.244033  0.585335  0.585335  1
  Tl  Tl19  1  0.585350  0.585350  0.585350  1
  Ru  Ru20  1  0.144657  0.144657  0.565917  1
  Ru  Ru21  1  0.144657  0.565917  0.144657  1
  Ru  Ru22  1  0.565917  0.144657  0.144657  1
  Ru  Ru23  1  0.144623  0.144623  0.144623  1
