# generated using pymatgen
data_Y12Co2TcNi2Bi
_symmetry_space_group_name_H-M   'P 1'
_cell_length_a   8.38319654
_cell_length_b   8.38319611
_cell_length_c   8.38319626
_cell_angle_alpha   109.49982520
_cell_angle_beta   111.41132818
_cell_angle_gamma   107.52579524
_symmetry_Int_Tables_number   1
_chemical_formula_structural   Y12Co2TcNi2Bi
_chemical_formula_sum   'Y12 Co2 Tc1 Ni2 Bi1'
_cell_volume   453.00977260
_cell_formula_units_Z   1
loop_
 _symmetry_equiv_pos_site_id
 _symmetry_equiv_pos_as_xyz
  1  'x, y, z'
loop_
 _atom_site_type_symbol
 _atom_site_label
 _atom_site_symmetry_multiplicity
 _atom_site_fract_x
 _atom_site_fract_y
 _atom_site_fract_z
 _atom_site_occupancy
  Y  Y0  1  0.284530  0.179734  0.464264  1
  Y  Y1  1  0.715470  0.820266  0.535736  1
  Y  Y2  1  0.284530  0.820266  0.104797  1
  Y  Y3  1  0.715470  0.179734  0.895203  1
  Y  Y4  1  0.622614  0.313379  0.309235  1
  Y  Y5  1  0.377386  0.686621  0.690765  1
  Y  Y6  1  0.004144  0.313379  0.690765  1
  Y  Y7  1  0.995856  0.686621  0.309235  1
  Y  Y8  1  0.216534  0.409763  0.193228  1
  Y  Y9  1  0.783466  0.590237  0.806772  1
  Y  Y10  1  0.216534  0.023306  0.806772  1
  Y  Y11  1  0.783466  0.976694  0.193228  1
  Co  Co12  1  0.388265  0.888265  0.500000  1
  Co  Co13  1  0.611735  0.111735  0.500000  1
  Tc  Tc14  1  0.000000  0.000000  0.000000  1
  Ni  Ni15  1  0.000000  0.364346  0.364346  1
  Ni  Ni16  1  0.000000  0.635654  0.635654  1
  Bi  Bi17  1  0.500000  0.500000  0.000000  1
