# generated using pymatgen
data_CeErSc2(Zn4Ru)2
_symmetry_space_group_name_H-M   'P 1'
_cell_length_a   6.91920800
_cell_length_b   6.91920800
_cell_length_c   5.09463000
_cell_angle_alpha   90.00000000
_cell_angle_beta   90.00000000
_cell_angle_gamma   90.00000000
_symmetry_Int_Tables_number   1
_chemical_formula_structural   CeErSc2(Zn4Ru)2
_chemical_formula_sum   'Ce1 Er1 Sc2 Zn8 Ru2'
_cell_volume   243.90764956
_cell_formula_units_Z   1
loop_
 _symmetry_equiv_pos_site_id
 _symmetry_equiv_pos_as_xyz
  1  'x, y, z'
loop_
 _atom_site_type_symbol
 _atom_site_label
 _atom_site_symmetry_multiplicity
 _atom_site_fract_x
 _atom_site_fract_y
 _atom_site_fract_z
 _atom_site_occupancy
  Ce  Ce0  1  0.500000  0.000000  0.237056  1
  Er  Er1  1  0.000000  0.500000  0.764671  1
  Sc  Sc2  1  0.000000  0.000000  0.000529  1
  Sc  Sc3  1  0.500000  0.500000  0.000529  1
  Zn  Zn4  1  0.188257  0.688257  0.274504  1
  Zn  Zn5  1  0.811743  0.688257  0.274504  1
  Zn  Zn6  1  0.811743  0.311743  0.274504  1
  Zn  Zn7  1  0.307694  0.192306  0.725910  1
  Zn  Zn8  1  0.188257  0.311743  0.274504  1
  Zn  Zn9  1  0.692306  0.192306  0.725910  1
  Zn  Zn10  1  0.692306  0.807694  0.725910  1
  Zn  Zn11  1  0.307694  0.807694  0.725910  1
  Ru  Ru12  1  0.500000  0.500000  0.497781  1
  Ru  Ru13  1  0.000000  0.000000  0.497781  1
