# generated using pymatgen
data_Ca20CdGa11
_symmetry_space_group_name_H-M   'P 1'
_cell_length_a   8.06354600
_cell_length_b   8.06354600
_cell_length_c   14.64576400
_cell_angle_alpha   90.00000000
_cell_angle_beta   90.00000000
_cell_angle_gamma   90.00000000
_symmetry_Int_Tables_number   1
_chemical_formula_structural   Ca20CdGa11
_chemical_formula_sum   'Ca20 Cd1 Ga11'
_cell_volume   952.27891248
_cell_formula_units_Z   1
loop_
 _symmetry_equiv_pos_site_id
 _symmetry_equiv_pos_as_xyz
  1  'x, y, z'
loop_
 _atom_site_type_symbol
 _atom_site_label
 _atom_site_symmetry_multiplicity
 _atom_site_fract_x
 _atom_site_fract_y
 _atom_site_fract_z
 _atom_site_occupancy
  Ca  Ca0  1  0.682142  0.166123  0.107103  1
  Ca  Ca1  1  0.176748  0.672549  0.604642  1
  Ca  Ca2  1  0.317858  0.833877  0.107103  1
  Ca  Ca3  1  0.823252  0.327451  0.604642  1
  Ca  Ca4  1  0.833877  0.682142  0.107103  1
  Ca  Ca5  1  0.327451  0.176748  0.604642  1
  Ca  Ca6  1  0.166123  0.317858  0.107103  1
  Ca  Ca7  1  0.672549  0.823252  0.604642  1
  Ca  Ca8  1  0.833877  0.317858  0.892897  1
  Ca  Ca9  1  0.327451  0.823252  0.395358  1
  Ca  Ca10  1  0.166123  0.682142  0.892897  1
  Ca  Ca11  1  0.672549  0.176748  0.395358  1
  Ca  Ca12  1  0.682142  0.833877  0.892897  1
  Ca  Ca13  1  0.176748  0.327451  0.395358  1
  Ca  Ca14  1  0.317858  0.166123  0.892897  1
  Ca  Ca15  1  0.823252  0.672549  0.395358  1
  Ca  Ca16  1  0.500000  0.500000  0.750827  1
  Ca  Ca17  1  0.000000  0.000000  0.257334  1
  Ca  Ca18  1  0.000000  0.000000  0.742666  1
  Ca  Ca19  1  0.500000  0.500000  0.249173  1
  Cd  Cd20  1  0.500000  0.500000  0.000000  1
  Ga  Ga21  1  0.611172  0.113043  0.748453  1
  Ga  Ga22  1  0.113043  0.611172  0.251547  1
  Ga  Ga23  1  0.886957  0.388828  0.251547  1
  Ga  Ga24  1  0.388828  0.886957  0.748453  1
  Ga  Ga25  1  0.886957  0.611172  0.748453  1
  Ga  Ga26  1  0.388828  0.113043  0.251547  1
  Ga  Ga27  1  0.113043  0.388828  0.748453  1
  Ga  Ga28  1  0.611172  0.886957  0.251547  1
  Ga  Ga29  1  0.000000  0.000000  0.000000  1
  Ga  Ga30  1  0.500000  0.500000  0.500000  1
  Ga  Ga31  1  0.000000  0.000000  0.500000  1
