# generated using pymatgen
data_Ho4Er(SiB4)2
_symmetry_space_group_name_H-M   'P 1'
_cell_length_a   7.20093900
_cell_length_b   7.20093900
_cell_length_c   8.03322600
_cell_angle_alpha   90.00000000
_cell_angle_beta   90.00000000
_cell_angle_gamma   90.00000000
_symmetry_Int_Tables_number   1
_chemical_formula_structural   Ho4Er(SiB4)2
_chemical_formula_sum   'Ho8 Er2 Si4 B16'
_cell_volume   416.55106499
_cell_formula_units_Z   2
loop_
 _symmetry_equiv_pos_site_id
 _symmetry_equiv_pos_as_xyz
  1  'x, y, z'
loop_
 _atom_site_type_symbol
 _atom_site_label
 _atom_site_symmetry_multiplicity
 _atom_site_fract_x
 _atom_site_fract_y
 _atom_site_fract_z
 _atom_site_occupancy
  Ho  Ho0  1  0.680164  0.180164  0.224293  1
  Ho  Ho1  1  0.319836  0.819836  0.775707  1
  Ho  Ho2  1  0.319836  0.819836  0.224293  1
  Ho  Ho3  1  0.819836  0.680164  0.224293  1
  Ho  Ho4  1  0.819836  0.680164  0.775707  1
  Ho  Ho5  1  0.680164  0.180164  0.775707  1
  Ho  Ho6  1  0.180164  0.319836  0.775707  1
  Ho  Ho7  1  0.180164  0.319836  0.224293  1
  Er  Er8  1  0.000000  0.000000  0.500000  1
  Er  Er9  1  0.500000  0.500000  0.500000  1
  Si  Si10  1  0.115599  0.615599  0.500000  1
  Si  Si11  1  0.884401  0.384401  0.500000  1
  Si  Si12  1  0.384401  0.115599  0.500000  1
  Si  Si13  1  0.615599  0.884401  0.500000  1
  B  B14  1  0.172670  0.039050  0.000000  1
  B  B15  1  0.827330  0.960950  0.000000  1
  B  B16  1  0.960950  0.172670  0.000000  1
  B  B17  1  0.327330  0.539050  0.000000  1
  B  B18  1  0.039050  0.827330  0.000000  1
  B  B19  1  0.672670  0.460950  0.000000  1
  B  B20  1  0.539050  0.672670  0.000000  1
  B  B21  1  0.460950  0.327330  0.000000  1
  B  B22  1  0.089527  0.589527  0.000000  1
  B  B23  1  0.910473  0.410473  0.000000  1
  B  B24  1  0.410473  0.089527  0.000000  1
  B  B25  1  0.589527  0.910473  0.000000  1
  B  B26  1  0.000000  0.000000  0.163739  1
  B  B27  1  0.000000  0.000000  0.836261  1
  B  B28  1  0.500000  0.500000  0.836261  1
  B  B29  1  0.500000  0.500000  0.163739  1
