# generated using pymatgen
data_Tb8Y4Co4BiOs
_symmetry_space_group_name_H-M   'P 1'
_cell_length_a   8.37012341
_cell_length_b   8.37012408
_cell_length_c   8.37012371
_cell_angle_alpha   111.46424913
_cell_angle_beta   110.19415159
_cell_angle_gamma   106.79073562
_symmetry_Int_Tables_number   1
_chemical_formula_structural   Tb8Y4Co4BiOs
_chemical_formula_sum   'Tb8 Y4 Co4 Bi1 Os1'
_cell_volume   450.61781199
_cell_formula_units_Z   1
loop_
 _symmetry_equiv_pos_site_id
 _symmetry_equiv_pos_as_xyz
  1  'x, y, z'
loop_
 _atom_site_type_symbol
 _atom_site_label
 _atom_site_symmetry_multiplicity
 _atom_site_fract_x
 _atom_site_fract_y
 _atom_site_fract_z
 _atom_site_occupancy
  Tb  Tb0  1  0.687819  0.378638  0.690819  1
  Tb  Tb1  1  0.312181  0.621362  0.309181  1
  Tb  Tb2  1  0.687819  0.997000  0.309181  1
  Tb  Tb3  1  0.312181  0.003000  0.690819  1
  Tb  Tb4  1  0.593973  0.789611  0.804363  1
  Tb  Tb5  1  0.406027  0.210389  0.195637  1
  Tb  Tb6  1  0.985247  0.789611  0.195637  1
  Tb  Tb7  1  0.014753  0.210389  0.804363  1
  Y  Y8  1  0.818677  0.714542  0.533219  1
  Y  Y9  1  0.181323  0.285458  0.466781  1
  Y  Y10  1  0.181323  0.714542  0.895866  1
  Y  Y11  1  0.818677  0.285458  0.104134  1
  Co  Co12  1  0.622126  0.000000  0.622126  1
  Co  Co13  1  0.377874  0.000000  0.377874  1
  Co  Co14  1  0.110545  0.610545  0.500000  1
  Co  Co15  1  0.889455  0.389455  0.500000  1
  Bi  Bi16  1  0.500000  0.500000  0.000000  1
  Os  Os17  1  0.000000  0.000000  0.000000  1
