# generated using pymatgen
data_Th2Al9Os2Pd
_symmetry_space_group_name_H-M   'P 1'
_cell_length_a   7.66280400
_cell_length_b   7.66280375
_cell_length_c   9.55192800
_cell_angle_alpha   90.00000000
_cell_angle_beta   90.00000000
_cell_angle_gamma   119.71416502
_symmetry_Int_Tables_number   1
_chemical_formula_structural   Th2Al9Os2Pd
_chemical_formula_sum   'Th4 Al18 Os4 Pd2'
_cell_volume   487.12540777
_cell_formula_units_Z   2
loop_
 _symmetry_equiv_pos_site_id
 _symmetry_equiv_pos_as_xyz
  1  'x, y, z'
loop_
 _atom_site_type_symbol
 _atom_site_label
 _atom_site_symmetry_multiplicity
 _atom_site_fract_x
 _atom_site_fract_y
 _atom_site_fract_z
 _atom_site_occupancy
  Th  Th0  1  0.995965  0.667338  0.250000  1
  Th  Th1  1  0.004035  0.332662  0.750000  1
  Th  Th2  1  0.667338  0.995965  0.250000  1
  Th  Th3  1  0.332662  0.004035  0.750000  1
  Al  Al4  1  0.134373  0.134373  0.250000  1
  Al  Al5  1  0.865627  0.865627  0.750000  1
  Al  Al6  1  0.005859  0.339279  0.074561  1
  Al  Al7  1  0.994141  0.660721  0.925439  1
  Al  Al8  1  0.994141  0.660721  0.574561  1
  Al  Al9  1  0.339279  0.005859  0.425439  1
  Al  Al10  1  0.005859  0.339279  0.425439  1
  Al  Al11  1  0.660721  0.994141  0.574561  1
  Al  Al12  1  0.660721  0.994141  0.925439  1
  Al  Al13  1  0.339279  0.005859  0.074561  1
  Al  Al14  1  0.341612  0.341612  0.550545  1
  Al  Al15  1  0.658388  0.658388  0.449455  1
  Al  Al16  1  0.658388  0.658388  0.050545  1
  Al  Al17  1  0.341612  0.341612  0.949455  1
  Al  Al18  1  0.338643  0.544462  0.250000  1
  Al  Al19  1  0.661357  0.455538  0.750000  1
  Al  Al20  1  0.544462  0.338643  0.250000  1
  Al  Al21  1  0.455538  0.661357  0.750000  1
  Os  Os22  1  0.673274  0.326726  0.000000  1
  Os  Os23  1  0.326726  0.673274  0.000000  1
  Os  Os24  1  0.326726  0.673274  0.500000  1
  Os  Os25  1  0.673274  0.326726  0.500000  1
  Pd  Pd26  1  0.000000  0.000000  0.000000  1
  Pd  Pd27  1  0.000000  0.000000  0.500000  1
