# generated using pymatgen
data_Ca3Pr8NdGa4(GeRh2)4
_symmetry_space_group_name_H-M   'P 1'
_cell_length_a   5.74890584
_cell_length_b   8.17941151
_cell_length_c   13.57250306
_cell_angle_alpha   89.97097210
_cell_angle_beta   89.98023781
_cell_angle_gamma   89.99450189
_symmetry_Int_Tables_number   1
_chemical_formula_structural   Ca3Pr8NdGa4(GeRh2)4
_chemical_formula_sum   'Ca3 Pr8 Nd1 Ga4 Ge4 Rh8'
_cell_volume   638.21516283
_cell_formula_units_Z   1
loop_
 _symmetry_equiv_pos_site_id
 _symmetry_equiv_pos_as_xyz
  1  'x, y, z'
loop_
 _atom_site_type_symbol
 _atom_site_label
 _atom_site_symmetry_multiplicity
 _atom_site_fract_x
 _atom_site_fract_y
 _atom_site_fract_z
 _atom_site_occupancy
  Ca  Ca0  1  0.141765  0.392573  0.399883  1
  Ca  Ca1  1  0.141813  0.106340  0.600384  1
  Ca  Ca2  1  0.145968  0.103438  0.897852  1
  Pr  Pr3  1  0.633674  0.254109  0.252878  1
  Pr  Pr4  1  0.361766  0.751177  0.749362  1
  Pr  Pr5  1  0.362305  0.750888  0.251096  1
  Pr  Pr6  1  0.635657  0.245433  0.750353  1
  Pr  Pr7  1  0.140663  0.391689  0.097200  1
  Pr  Pr8  1  0.852893  0.607034  0.897978  1
  Pr  Pr9  1  0.857565  0.603334  0.598747  1
  Pr  Pr10  1  0.855406  0.897654  0.401658  1
  Nd  Nd11  1  0.856508  0.897092  0.098318  1
  Ga  Ga12  1  0.622215  0.247885  0.999683  1
  Ga  Ga13  1  0.373674  0.751617  0.000177  1
  Ga  Ga14  1  0.377867  0.750016  0.500621  1
  Ga  Ga15  1  0.611284  0.249634  0.500707  1
  Ge  Ge16  1  0.138013  0.105875  0.249821  1
  Ge  Ge17  1  0.862570  0.894322  0.749348  1
  Ge  Ge18  1  0.862616  0.607752  0.250576  1
  Ge  Ge19  1  0.140127  0.395153  0.749998  1
  Rh  Rh20  1  0.368915  0.028003  0.091614  1
  Rh  Rh21  1  0.640867  0.970113  0.909654  1
  Rh  Rh22  1  0.638018  0.971309  0.591378  1
  Rh  Rh23  1  0.640082  0.527890  0.409664  1
  Rh  Rh24  1  0.367258  0.026244  0.407786  1
  Rh  Rh25  1  0.369237  0.473862  0.592338  1
  Rh  Rh26  1  0.364417  0.472185  0.908986  1
  Rh  Rh27  1  0.636857  0.527379  0.091944  1
