# generated using pymatgen
data_Lu13Th3(InIr)4
_symmetry_space_group_name_H-M   'P 1'
_cell_length_a   9.59741249
_cell_length_b   9.61889129
_cell_length_c   9.61881500
_cell_angle_alpha   59.99911837
_cell_angle_beta   59.92348835
_cell_angle_gamma   59.92578156
_symmetry_Int_Tables_number   1
_chemical_formula_structural   Lu13Th3(InIr)4
_chemical_formula_sum   'Lu13 Th3 In4 Ir4'
_cell_volume   627.17277955
_cell_formula_units_Z   1
loop_
 _symmetry_equiv_pos_site_id
 _symmetry_equiv_pos_as_xyz
  1  'x, y, z'
loop_
 _atom_site_type_symbol
 _atom_site_label
 _atom_site_symmetry_multiplicity
 _atom_site_fract_x
 _atom_site_fract_y
 _atom_site_fract_z
 _atom_site_occupancy
  Lu  Lu0  1  0.197868  0.600704  0.600728  1
  Lu  Lu1  1  0.063275  0.438551  0.438542  1
  Lu  Lu2  1  0.437178  0.062744  0.062742  1
  Lu  Lu3  1  0.437198  0.062753  0.437320  1
  Lu  Lu4  1  0.063280  0.438565  0.059658  1
  Lu  Lu5  1  0.437165  0.437316  0.062753  1
  Lu  Lu6  1  0.063275  0.059649  0.438539  1
  Lu  Lu7  1  0.185926  0.812832  0.812837  1
  Lu  Lu8  1  0.814524  0.185807  0.185793  1
  Lu  Lu9  1  0.814537  0.185772  0.813884  1
  Lu  Lu10  1  0.185929  0.812842  0.188390  1
  Lu  Lu11  1  0.814550  0.813867  0.185787  1
  Lu  Lu12  1  0.185936  0.188398  0.812833  1
  Th  Th13  1  0.597232  0.600074  0.600051  1
  Th  Th14  1  0.597238  0.600064  0.202634  1
  Th  Th15  1  0.597223  0.202647  0.600071  1
  In  In16  1  0.837624  0.833963  0.834011  1
  In  In17  1  0.837621  0.833946  0.494460  1
  In  In18  1  0.837584  0.494435  0.833945  1
  In  In19  1  0.493660  0.835471  0.835386  1
  Ir  Ir20  1  0.391737  0.391190  0.391208  1
  Ir  Ir21  1  0.391742  0.391187  0.825882  1
  Ir  Ir22  1  0.391738  0.825881  0.391194  1
  Ir  Ir23  1  0.825959  0.391340  0.391353  1
