# generated using pymatgen
data_ZrTaV3Os
_symmetry_space_group_name_H-M   'P 1'
_cell_length_a   5.14460628
_cell_length_b   5.14471532
_cell_length_c   5.14471600
_cell_angle_alpha   59.99999565
_cell_angle_beta   59.99929451
_cell_angle_gamma   59.99927994
_symmetry_Int_Tables_number   1
_chemical_formula_structural   ZrTaV3Os
_chemical_formula_sum   'Zr1 Ta1 V3 Os1'
_cell_volume   96.28424005
_cell_formula_units_Z   1
loop_
 _symmetry_equiv_pos_site_id
 _symmetry_equiv_pos_as_xyz
  1  'x, y, z'
loop_
 _atom_site_type_symbol
 _atom_site_label
 _atom_site_symmetry_multiplicity
 _atom_site_fract_x
 _atom_site_fract_y
 _atom_site_fract_z
 _atom_site_occupancy
  Zr  Zr0  1  0.247597  0.250801  0.250801  1
  Ta  Ta1  1  0.001626  0.999458  0.999458  1
  V  V2  1  0.625248  0.625250  0.124252  1
  V  V3  1  0.625248  0.124252  0.625250  1
  V  V4  1  0.625248  0.625250  0.625250  1
  Os  Os5  1  0.125033  0.624989  0.624989  1
