# generated using pymatgen
data_Yb6YTmBi6
_symmetry_space_group_name_H-M   'P 1'
_cell_length_a   8.14466608
_cell_length_b   8.34301794
_cell_length_c   8.34301745
_cell_angle_alpha   109.94780928
_cell_angle_beta   108.99032222
_cell_angle_gamma   108.99032054
_symmetry_Int_Tables_number   1
_chemical_formula_structural   Yb6YTmBi6
_chemical_formula_sum   'Yb6 Y1 Tm1 Bi6'
_cell_volume   438.97610585
_cell_formula_units_Z   1
loop_
 _symmetry_equiv_pos_site_id
 _symmetry_equiv_pos_as_xyz
  1  'x, y, z'
loop_
 _atom_site_type_symbol
 _atom_site_label
 _atom_site_symmetry_multiplicity
 _atom_site_fract_x
 _atom_site_fract_y
 _atom_site_fract_z
 _atom_site_occupancy
  Yb  Yb0  1  0.501043  0.999387  0.646532  1
  Yb  Yb1  1  0.354666  0.352649  0.353810  1
  Yb  Yb2  1  0.502017  0.001161  0.147351  1
  Yb  Yb3  1  0.001656  0.647146  0.500613  1
  Yb  Yb4  1  0.854510  0.853468  0.852854  1
  Yb  Yb5  1  0.000857  0.146190  0.498839  1
  Y  Y6  1  0.142198  0.500000  0.000000  1
  Tm  Tm7  1  0.641897  0.500000  0.000000  1
  Bi  Bi8  1  0.377584  0.622333  0.757311  1
  Bi  Bi9  1  0.875816  0.256670  0.122733  1
  Bi  Bi10  1  0.620273  0.742689  0.365023  1
  Bi  Bi11  1  0.119146  0.866063  0.243330  1
  Bi  Bi12  1  0.255250  0.134977  0.877667  1
  Bi  Bi13  1  0.753084  0.377267  0.633937  1
