# generated using pymatgen
data_Tm4Ga6CoCu
_symmetry_space_group_name_H-M   'P 1'
_cell_length_a   6.90839300
_cell_length_b   8.71899461
_cell_length_c   8.71899500
_cell_angle_alpha   119.99999770
_cell_angle_beta   90.00000000
_cell_angle_gamma   90.00000000
_symmetry_Int_Tables_number   1
_chemical_formula_structural   Tm4Ga6CoCu
_chemical_formula_sum   'Tm8 Ga12 Co2 Cu2'
_cell_volume   454.82100642
_cell_formula_units_Z   2
loop_
 _symmetry_equiv_pos_site_id
 _symmetry_equiv_pos_as_xyz
  1  'x, y, z'
loop_
 _atom_site_type_symbol
 _atom_site_label
 _atom_site_symmetry_multiplicity
 _atom_site_fract_x
 _atom_site_fract_y
 _atom_site_fract_z
 _atom_site_occupancy
  Tm  Tm0  1  0.745378  0.000000  0.000000  1
  Tm  Tm1  1  0.254622  0.000000  0.000000  1
  Tm  Tm2  1  0.742078  0.476792  0.523208  1
  Tm  Tm3  1  0.257922  0.523208  0.476792  1
  Tm  Tm4  1  0.742078  0.046417  0.523208  1
  Tm  Tm5  1  0.257922  0.953583  0.476792  1
  Tm  Tm6  1  0.742078  0.476792  0.953583  1
  Tm  Tm7  1  0.257922  0.523208  0.046417  1
  Ga  Ga8  1  0.954441  0.830727  0.169273  1
  Ga  Ga9  1  0.045559  0.169273  0.830727  1
  Ga  Ga10  1  0.954441  0.338546  0.169273  1
  Ga  Ga11  1  0.455275  0.172673  0.827327  1
  Ga  Ga12  1  0.045559  0.661454  0.830727  1
  Ga  Ga13  1  0.544725  0.827327  0.172673  1
  Ga  Ga14  1  0.954441  0.830727  0.661454  1
  Ga  Ga15  1  0.455275  0.654654  0.827327  1
  Ga  Ga16  1  0.045559  0.169273  0.338546  1
  Ga  Ga17  1  0.544725  0.345346  0.172673  1
  Ga  Ga18  1  0.455275  0.172673  0.345346  1
  Ga  Ga19  1  0.544725  0.827327  0.654654  1
  Co  Co20  1  0.486908  0.333333  0.666667  1
  Co  Co21  1  0.513092  0.666667  0.333333  1
  Cu  Cu22  1  0.949245  0.666667  0.333333  1
  Cu  Cu23  1  0.050755  0.333333  0.666667  1
