# generated using pymatgen
data_Tc3B8RuW8
_symmetry_space_group_name_H-M   'P 1'
_cell_length_a   3.11174100
_cell_length_b   7.55038344
_cell_length_c   9.66945536
_cell_angle_alpha   90.19053057
_cell_angle_beta   90.00000000
_cell_angle_gamma   90.00000000
_symmetry_Int_Tables_number   1
_chemical_formula_structural   Tc3B8RuW8
_chemical_formula_sum   'Tc3 B8 Ru1 W8'
_cell_volume   227.18102841
_cell_formula_units_Z   1
loop_
 _symmetry_equiv_pos_site_id
 _symmetry_equiv_pos_as_xyz
  1  'x, y, z'
loop_
 _atom_site_type_symbol
 _atom_site_label
 _atom_site_symmetry_multiplicity
 _atom_site_fract_x
 _atom_site_fract_y
 _atom_site_fract_z
 _atom_site_occupancy
  Tc  Tc0  1  0.500000  0.623043  0.395152  1
  Tc  Tc1  1  0.500000  0.376923  0.604935  1
  Tc  Tc2  1  0.000000  0.878776  0.895498  1
  B  B3  1  0.500000  0.115623  0.459973  1
  B  B4  1  0.500000  0.884701  0.539361  1
  B  B5  1  0.000000  0.384460  0.959615  1
  B  B6  1  0.000000  0.614141  0.039782  1
  B  B7  1  0.500000  0.124292  0.266965  1
  B  B8  1  0.500000  0.876775  0.732594  1
  B  B9  1  0.000000  0.376795  0.767759  1
  B  B10  1  0.000000  0.623380  0.232729  1
  Ru  Ru11  1  0.000000  0.120160  0.107783  1
  W  W12  1  0.500000  0.808556  0.129266  1
  W  W13  1  0.500000  0.188732  0.869426  1
  W  W14  1  0.000000  0.689043  0.630309  1
  W  W15  1  0.000000  0.311466  0.368853  1
  W  W16  1  0.500000  0.578438  0.861218  1
  W  W17  1  0.500000  0.423875  0.138733  1
  W  W18  1  0.000000  0.922546  0.360521  1
  W  W19  1  0.000000  0.078276  0.639531  1
