# generated using pymatgen
data_NdLuCo12SiP6
_symmetry_space_group_name_H-M   'P 1'
_cell_length_a   9.04726400
_cell_length_b   9.04726447
_cell_length_c   3.60636300
_cell_angle_alpha   90.00000000
_cell_angle_beta   90.00000000
_cell_angle_gamma   119.99999829
_symmetry_Int_Tables_number   1
_chemical_formula_structural   NdLuCo12SiP6
_chemical_formula_sum   'Nd1 Lu1 Co12 Si1 P6'
_cell_volume   255.64342470
_cell_formula_units_Z   1
loop_
 _symmetry_equiv_pos_site_id
 _symmetry_equiv_pos_as_xyz
  1  'x, y, z'
loop_
 _atom_site_type_symbol
 _atom_site_label
 _atom_site_symmetry_multiplicity
 _atom_site_fract_x
 _atom_site_fract_y
 _atom_site_fract_z
 _atom_site_occupancy
  Nd  Nd0  1  0.333333  0.666667  0.500000  1
  Lu  Lu1  1  0.000000  0.000000  0.000000  1
  Co  Co2  1  0.099036  0.389322  0.000000  1
  Co  Co3  1  0.610678  0.709714  0.000000  1
  Co  Co4  1  0.290286  0.900964  0.000000  1
  Co  Co5  1  0.048617  0.770666  0.500000  1
  Co  Co6  1  0.229334  0.277950  0.500000  1
  Co  Co7  1  0.722050  0.951383  0.500000  1
  Co  Co8  1  0.823493  0.614781  0.000000  1
  Co  Co9  1  0.385219  0.208711  0.000000  1
  Co  Co10  1  0.791289  0.176507  0.000000  1
  Co  Co11  1  0.895410  0.433174  0.500000  1
  Co  Co12  1  0.566826  0.462236  0.500000  1
  Co  Co13  1  0.537764  0.104590  0.500000  1
  Si  Si14  1  0.666667  0.333333  0.000000  1
  P  P15  1  0.779530  0.738149  0.500000  1
  P  P16  1  0.261851  0.041381  0.500000  1
  P  P17  1  0.958619  0.220470  0.500000  1
  P  P18  1  0.067899  0.625837  0.000000  1
  P  P19  1  0.374163  0.442063  0.000000  1
  P  P20  1  0.557937  0.932101  0.000000  1
