# generated using pymatgen
data_Ho3Er15(TmBi6)2
_symmetry_space_group_name_H-M   'P 1'
_cell_length_a   8.20163037
_cell_length_b   9.47543601
_cell_length_c   11.94902501
_cell_angle_alpha   89.99851308
_cell_angle_beta   90.01536762
_cell_angle_gamma   90.00397361
_symmetry_Int_Tables_number   1
_chemical_formula_structural   Ho3Er15(TmBi6)2
_chemical_formula_sum   'Ho3 Er15 Tm2 Bi12'
_cell_volume   928.60677739
_cell_formula_units_Z   1
loop_
 _symmetry_equiv_pos_site_id
 _symmetry_equiv_pos_as_xyz
  1  'x, y, z'
loop_
 _atom_site_type_symbol
 _atom_site_label
 _atom_site_symmetry_multiplicity
 _atom_site_fract_x
 _atom_site_fract_y
 _atom_site_fract_z
 _atom_site_occupancy
  Ho  Ho0  1  0.813752  0.250009  0.281984  1
  Ho  Ho1  1  0.686145  0.749997  0.782011  1
  Ho  Ho2  1  0.186071  0.749955  0.718049  1
  Er  Er3  1  0.353535  0.749907  0.217269  1
  Er  Er4  1  0.853779  0.749959  0.282810  1
  Er  Er5  1  0.646345  0.250000  0.782897  1
  Er  Er6  1  0.146409  0.249974  0.717108  1
  Er  Er7  1  0.692262  0.565283  0.059367  1
  Er  Er8  1  0.192021  0.934639  0.440636  1
  Er  Er9  1  0.307895  0.065244  0.940722  1
  Er  Er10  1  0.808012  0.434726  0.559258  1
  Er  Er11  1  0.307891  0.434781  0.940737  1
  Er  Er12  1  0.808063  0.065295  0.559249  1
  Er  Er13  1  0.692259  0.934712  0.059356  1
  Er  Er14  1  0.476510  0.250011  0.488946  1
  Er  Er15  1  0.976655  0.249996  0.011043  1
  Er  Er16  1  0.523199  0.749946  0.510812  1
  Er  Er17  1  0.313688  0.250008  0.217776  1
  Tm  Tm18  1  0.192016  0.565453  0.440599  1
  Tm  Tm19  1  0.023377  0.749995  0.989251  1
  Bi  Bi20  1  0.404425  0.750006  0.958027  1
  Bi  Bi21  1  0.904660  0.749904  0.541930  1
  Bi  Bi22  1  0.594972  0.249997  0.042398  1
  Bi  Bi23  1  0.095708  0.250289  0.457798  1
  Bi  Bi24  1  0.565827  0.995953  0.325660  1
  Bi  Bi25  1  0.066654  0.504047  0.174179  1
  Bi  Bi26  1  0.433879  0.495718  0.674156  1
  Bi  Bi27  1  0.933854  0.004167  0.825993  1
  Bi  Bi28  1  0.433847  0.004253  0.674176  1
  Bi  Bi29  1  0.933877  0.495823  0.825980  1
  Bi  Bi30  1  0.565781  0.504022  0.325669  1
  Bi  Bi31  1  0.066628  0.995928  0.174156  1
