# generated using pymatgen
data_Eu6NpO12
_symmetry_space_group_name_H-M   'P 1'
_cell_length_a   6.78202841
_cell_length_b   6.78202707
_cell_length_c   6.78202700
_cell_angle_alpha   98.17801937
_cell_angle_beta   98.17802628
_cell_angle_gamma   98.17802305
_symmetry_Int_Tables_number   1
_chemical_formula_structural   Eu6NpO12
_chemical_formula_sum   'Eu6 Np1 O12'
_cell_volume   301.40106939
_cell_formula_units_Z   1
loop_
 _symmetry_equiv_pos_site_id
 _symmetry_equiv_pos_as_xyz
  1  'x, y, z'
loop_
 _atom_site_type_symbol
 _atom_site_label
 _atom_site_symmetry_multiplicity
 _atom_site_fract_x
 _atom_site_fract_y
 _atom_site_fract_z
 _atom_site_occupancy
  Eu  Eu0  1  0.143454  0.312779  0.607613  1
  Eu  Eu1  1  0.392387  0.856546  0.687221  1
  Eu  Eu2  1  0.687221  0.392387  0.856546  1
  Eu  Eu3  1  0.312779  0.607613  0.143454  1
  Eu  Eu4  1  0.607613  0.143454  0.312779  1
  Eu  Eu5  1  0.856546  0.687221  0.392387  1
  Np  Np6  1  0.000000  0.000000  0.000000  1
  O  O7  1  0.066995  0.295869  0.961550  1
  O  O8  1  0.038450  0.933005  0.704131  1
  O  O9  1  0.404583  0.567362  0.823712  1
  O  O10  1  0.176288  0.595417  0.432638  1
  O  O11  1  0.704131  0.038450  0.933005  1
  O  O12  1  0.432638  0.176288  0.595417  1
  O  O13  1  0.567362  0.823712  0.404583  1
  O  O14  1  0.295869  0.961550  0.066995  1
  O  O15  1  0.823712  0.404583  0.567362  1
  O  O16  1  0.595417  0.432638  0.176288  1
  O  O17  1  0.961550  0.066995  0.295869  1
  O  O18  1  0.933005  0.704131  0.038450  1
