# generated using pymatgen
data_Tb2DyIrI3
_symmetry_space_group_name_H-M   'P 1'
_cell_length_a   4.29997000
_cell_length_b   8.87029952
_cell_length_c   12.34335906
_cell_angle_alpha   86.42415426
_cell_angle_beta   90.00000000
_cell_angle_gamma   90.00000000
_symmetry_Int_Tables_number   1
_chemical_formula_structural   Tb2DyIrI3
_chemical_formula_sum   'Tb4 Dy2 Ir2 I6'
_cell_volume   469.88407415
_cell_formula_units_Z   2
loop_
 _symmetry_equiv_pos_site_id
 _symmetry_equiv_pos_as_xyz
  1  'x, y, z'
loop_
 _atom_site_type_symbol
 _atom_site_label
 _atom_site_symmetry_multiplicity
 _atom_site_fract_x
 _atom_site_fract_y
 _atom_site_fract_z
 _atom_site_occupancy
  Tb  Tb0  1  0.750000  0.096027  0.684102  1
  Tb  Tb1  1  0.250000  0.903973  0.315898  1
  Tb  Tb2  1  0.250000  0.250187  0.900628  1
  Tb  Tb3  1  0.750000  0.749813  0.099372  1
  Dy  Dy4  1  0.750000  0.140108  0.129186  1
  Dy  Dy5  1  0.250000  0.859892  0.870814  1
  Ir  Ir6  1  0.750000  0.048125  0.908377  1
  Ir  Ir7  1  0.250000  0.951875  0.091623  1
  I  I8  1  0.250000  0.427458  0.132894  1
  I  I9  1  0.750000  0.572542  0.867106  1
  I  I10  1  0.250000  0.349008  0.639154  1
  I  I11  1  0.750000  0.650992  0.360846  1
  I  I12  1  0.750000  0.141546  0.394032  1
  I  I13  1  0.250000  0.858454  0.605968  1
