# generated using pymatgen
data_Ce5P12Pd2Ru17
_symmetry_space_group_name_H-M   'P 1'
_cell_length_a   12.59378315
_cell_length_b   12.71781164
_cell_length_c   3.98280400
_cell_angle_alpha   90.00000000
_cell_angle_beta   90.00000000
_cell_angle_gamma   119.66084391
_symmetry_Int_Tables_number   1
_chemical_formula_structural   Ce5P12Pd2Ru17
_chemical_formula_sum   'Ce5 P12 Pd2 Ru17'
_cell_volume   554.32219992
_cell_formula_units_Z   1
loop_
 _symmetry_equiv_pos_site_id
 _symmetry_equiv_pos_as_xyz
  1  'x, y, z'
loop_
 _atom_site_type_symbol
 _atom_site_label
 _atom_site_symmetry_multiplicity
 _atom_site_fract_x
 _atom_site_fract_y
 _atom_site_fract_z
 _atom_site_occupancy
  Ce  Ce0  1  0.669234  0.338677  0.000000  1
  Ce  Ce1  1  0.330400  0.661043  0.000000  1
  Ce  Ce2  1  0.190597  0.999878  0.500001  1
  Ce  Ce3  1  0.999628  0.195313  0.500001  1
  Ce  Ce4  1  0.804664  0.805102  0.500001  1
  P  P5  1  0.368211  0.000036  0.000000  1
  P  P6  1  0.808407  0.999894  0.000000  1
  P  P7  1  0.186261  0.186072  0.000000  1
  P  P8  1  0.000915  0.377338  0.000000  1
  P  P9  1  0.623687  0.622877  0.000000  1
  P  P10  1  0.000112  0.813971  0.000000  1
  P  P11  1  0.701804  0.181548  0.500001  1
  P  P12  1  0.478300  0.305326  0.500001  1
  P  P13  1  0.306101  0.474265  0.500001  1
  P  P14  1  0.831820  0.525618  0.500001  1
  P  P15  1  0.172920  0.694598  0.500001  1
  P  P16  1  0.520173  0.818392  0.500001  1
  Pd  Pd17  1  0.997069  0.999838  0.000000  1
  Pd  Pd18  1  0.553694  0.999988  0.000000  1
  Ru  Ru19  1  0.806341  0.185088  0.000000  1
  Ru  Ru20  1  0.377670  0.191976  0.000000  1
  Ru  Ru21  1  0.190842  0.373801  0.000000  1
  Ru  Ru22  1  0.444154  0.442549  0.000000  1
  Ru  Ru23  1  0.001580  0.557588  0.000000  1
  Ru  Ru24  1  0.816995  0.626617  0.000000  1
  Ru  Ru25  1  0.185636  0.807921  0.000000  1
  Ru  Ru26  1  0.621653  0.814835  0.000000  1
  Ru  Ru27  1  0.711780  0.999832  0.500001  1
  Ru  Ru28  1  0.494927  0.126035  0.500001  1
  Ru  Ru29  1  0.283258  0.281469  0.500001  1
  Ru  Ru30  1  0.879050  0.370689  0.500001  1
  Ru  Ru31  1  0.128978  0.494782  0.500001  1
  Ru  Ru32  1  0.634265  0.505189  0.500001  1
  Ru  Ru33  1  0.508435  0.629401  0.500001  1
  Ru  Ru34  1  0.001637  0.718629  0.500001  1
  Ru  Ru35  1  0.368905  0.873926  0.500001  1
