# generated using pymatgen
data_Sc4Ni2OsPt
_symmetry_space_group_name_H-M   'P 1'
_cell_length_a   6.39145700
_cell_length_b   6.52359800
_cell_length_c   6.40045600
_cell_angle_alpha   90.00023055
_cell_angle_beta   90.00120039
_cell_angle_gamma   89.99977825
_symmetry_Int_Tables_number   1
_chemical_formula_structural   Sc4Ni2OsPt
_chemical_formula_sum   'Sc8 Ni4 Os2 Pt2'
_cell_volume   266.86890808
_cell_formula_units_Z   2
loop_
 _symmetry_equiv_pos_site_id
 _symmetry_equiv_pos_as_xyz
  1  'x, y, z'
loop_
 _atom_site_type_symbol
 _atom_site_label
 _atom_site_symmetry_multiplicity
 _atom_site_fract_x
 _atom_site_fract_y
 _atom_site_fract_z
 _atom_site_occupancy
  Sc  Sc0  1  0.753539  0.500200  0.252574  1
  Sc  Sc1  1  0.753539  0.999800  0.252574  1
  Sc  Sc2  1  0.247305  0.000189  0.253516  1
  Sc  Sc3  1  0.247305  0.499810  0.253516  1
  Sc  Sc4  1  0.752695  0.500190  0.746484  1
  Sc  Sc5  1  0.752695  0.999810  0.746484  1
  Sc  Sc6  1  0.246461  0.000199  0.747426  1
  Sc  Sc7  1  0.246461  0.499800  0.747426  1
  Ni  Ni8  1  0.999503  0.250000  0.000000  1
  Ni  Ni9  1  0.000496  0.750000  0.000000  1
  Ni  Ni10  1  0.500482  0.250000  0.499987  1
  Ni  Ni11  1  0.499519  0.750000  0.500015  1
  Os  Os12  1  0.999796  0.250000  0.499987  1
  Os  Os13  1  0.000204  0.750000  0.500011  1
  Pt  Pt14  1  0.500293  0.250000  0.000001  1
  Pt  Pt15  1  0.499708  0.750000  0.999999  1
