# generated using pymatgen
data_Ho2MnFe2Co9P7
_symmetry_space_group_name_H-M   'P 1'
_cell_length_a   8.99087301
_cell_length_b   9.00311070
_cell_length_c   3.60010700
_cell_angle_alpha   90.00000000
_cell_angle_beta   90.00000000
_cell_angle_gamma   119.96085232
_symmetry_Int_Tables_number   1
_chemical_formula_structural   Ho2MnFe2Co9P7
_chemical_formula_sum   'Ho2 Mn1 Fe2 Co9 P7'
_cell_volume   252.47110369
_cell_formula_units_Z   1
loop_
 _symmetry_equiv_pos_site_id
 _symmetry_equiv_pos_as_xyz
  1  'x, y, z'
loop_
 _atom_site_type_symbol
 _atom_site_label
 _atom_site_symmetry_multiplicity
 _atom_site_fract_x
 _atom_site_fract_y
 _atom_site_fract_z
 _atom_site_occupancy
  Ho  Ho0  1  0.998414  0.000342  0.000000  1
  Ho  Ho1  1  0.332885  0.665899  0.500000  1
  Mn  Mn2  1  0.546874  0.114718  0.500000  1
  Fe  Fe3  1  0.573510  0.458247  0.500000  1
  Fe  Fe4  1  0.885868  0.429051  0.500000  1
  Co  Co5  1  0.294649  0.901283  0.000000  1
  Co  Co6  1  0.606492  0.703886  0.000000  1
  Co  Co7  1  0.098266  0.393651  0.000000  1
  Co  Co8  1  0.783474  0.175898  0.000000  1
  Co  Co9  1  0.391373  0.215653  0.000000  1
  Co  Co10  1  0.824576  0.609391  0.000000  1
  Co  Co11  1  0.717292  0.948042  0.500000  1
  Co  Co12  1  0.232037  0.283548  0.500000  1
  Co  Co13  1  0.051303  0.767990  0.500000  1
  P  P14  1  0.553753  0.921216  0.000000  1
  P  P15  1  0.370353  0.446247  0.000000  1
  P  P16  1  0.076027  0.629252  0.000000  1
  P  P17  1  0.956590  0.221505  0.500000  1
  P  P18  1  0.258893  0.042347  0.500000  1
  P  P19  1  0.779196  0.735116  0.500000  1
  P  P20  1  0.668174  0.336719  0.000000  1
