# generated using pymatgen
data_TbYU2Ga12Ni
_symmetry_space_group_name_H-M   'P 1'
_cell_length_a   7.42281735
_cell_length_b   7.42281668
_cell_length_c   7.46682847
_cell_angle_alpha   109.28787456
_cell_angle_beta   109.28788097
_cell_angle_gamma   109.51421464
_symmetry_Int_Tables_number   1
_chemical_formula_structural   TbYU2Ga12Ni
_chemical_formula_sum   'Tb1 Y1 U2 Ga12 Ni1'
_cell_volume   317.96034518
_cell_formula_units_Z   1
loop_
 _symmetry_equiv_pos_site_id
 _symmetry_equiv_pos_as_xyz
  1  'x, y, z'
loop_
 _atom_site_type_symbol
 _atom_site_label
 _atom_site_symmetry_multiplicity
 _atom_site_fract_x
 _atom_site_fract_y
 _atom_site_fract_z
 _atom_site_occupancy
  Tb  Tb0  1  0.000000  0.000000  0.500000  1
  Y  Y1  1  0.500000  0.500000  0.500000  1
  U  U2  1  0.000000  0.500000  0.000000  1
  U  U3  1  0.500000  0.000000  0.000000  1
  Ga  Ga4  1  0.498519  0.749083  0.247887  1
  Ga  Ga5  1  0.501481  0.250917  0.752113  1
  Ga  Ga6  1  0.250917  0.501481  0.752113  1
  Ga  Ga7  1  0.749083  0.498519  0.247887  1
  Ga  Ga8  1  0.749906  0.250094  0.500000  1
  Ga  Ga9  1  0.250094  0.749906  0.500000  1
  Ga  Ga10  1  0.996197  0.284867  0.282253  1
  Ga  Ga11  1  0.003803  0.715133  0.717747  1
  Ga  Ga12  1  0.284867  0.996197  0.282253  1
  Ga  Ga13  1  0.715133  0.003803  0.717747  1
  Ga  Ga14  1  0.285351  0.285351  0.998787  1
  Ga  Ga15  1  0.714649  0.714649  0.001213  1
  Ni  Ni16  1  0.000000  0.000000  0.000000  1
