# generated using pymatgen
data_Dy2Y3Bi2P
_symmetry_space_group_name_H-M   'P 1'
_cell_length_a   8.00410113
_cell_length_b   8.98919400
_cell_length_c   12.20549619
_cell_angle_alpha   90.00000000
_cell_angle_beta   89.97959739
_cell_angle_gamma   90.00000000
_symmetry_Int_Tables_number   1
_chemical_formula_structural   Dy2Y3Bi2P
_chemical_formula_sum   'Dy8 Y12 Bi8 P4'
_cell_volume   878.19049520
_cell_formula_units_Z   4
loop_
 _symmetry_equiv_pos_site_id
 _symmetry_equiv_pos_as_xyz
  1  'x, y, z'
loop_
 _atom_site_type_symbol
 _atom_site_label
 _atom_site_symmetry_multiplicity
 _atom_site_fract_x
 _atom_site_fract_y
 _atom_site_fract_z
 _atom_site_occupancy
  Dy  Dy0  1  0.682205  0.050675  0.563728  1
  Dy  Dy1  1  0.317795  0.949325  0.436272  1
  Dy  Dy2  1  0.182201  0.949139  0.936492  1
  Dy  Dy3  1  0.317795  0.550675  0.436272  1
  Dy  Dy4  1  0.817799  0.050861  0.063508  1
  Dy  Dy5  1  0.682205  0.449325  0.563728  1
  Dy  Dy6  1  0.817799  0.449139  0.063508  1
  Dy  Dy7  1  0.182201  0.550861  0.936492  1
  Y  Y8  1  0.853415  0.750000  0.794935  1
  Y  Y9  1  0.146585  0.250000  0.205065  1
  Y  Y10  1  0.353281  0.250000  0.705314  1
  Y  Y11  1  0.646719  0.750000  0.294686  1
  Y  Y12  1  0.378942  0.750000  0.701958  1
  Y  Y13  1  0.621058  0.250000  0.298042  1
  Y  Y14  1  0.878865  0.250000  0.798235  1
  Y  Y15  1  0.121135  0.750000  0.201765  1
  Y  Y16  1  0.957394  0.750000  0.501938  1
  Y  Y17  1  0.042606  0.250000  0.498062  1
  Y  Y18  1  0.457495  0.250000  0.998085  1
  Y  Y19  1  0.542505  0.750000  0.001915  1
  Bi  Bi20  1  0.579870  0.490014  0.827658  1
  Bi  Bi21  1  0.420130  0.509986  0.172342  1
  Bi  Bi22  1  0.079974  0.510017  0.672462  1
  Bi  Bi23  1  0.420130  0.990014  0.172342  1
  Bi  Bi24  1  0.920026  0.489983  0.327538  1
  Bi  Bi25  1  0.579870  0.009986  0.827658  1
  Bi  Bi26  1  0.920026  0.010017  0.327538  1
  Bi  Bi27  1  0.079974  0.989983  0.672462  1
  P  P28  1  0.574590  0.750000  0.513412  1
  P  P29  1  0.425410  0.250000  0.486588  1
  P  P30  1  0.074997  0.250000  0.986339  1
  P  P31  1  0.925003  0.750000  0.013661  1
