# generated using pymatgen
data_Sm6Cd16Ag7Sn
_symmetry_space_group_name_H-M   'P 1'
_cell_length_a   9.94034809
_cell_length_b   9.94034808
_cell_length_c   9.94034800
_cell_angle_alpha   60.00000025
_cell_angle_beta   60.00000032
_cell_angle_gamma   59.99999631
_symmetry_Int_Tables_number   1
_chemical_formula_structural   Sm6Cd16Ag7Sn
_chemical_formula_sum   'Sm6 Cd16 Ag7 Sn1'
_cell_volume   694.52801077
_cell_formula_units_Z   1
loop_
 _symmetry_equiv_pos_site_id
 _symmetry_equiv_pos_as_xyz
  1  'x, y, z'
loop_
 _atom_site_type_symbol
 _atom_site_label
 _atom_site_symmetry_multiplicity
 _atom_site_fract_x
 _atom_site_fract_y
 _atom_site_fract_z
 _atom_site_occupancy
  Sm  Sm0  1  0.779122  0.779122  0.220878  1
  Sm  Sm1  1  0.220878  0.779122  0.220878  1
  Sm  Sm2  1  0.779122  0.220878  0.220878  1
  Sm  Sm3  1  0.220878  0.220878  0.779122  1
  Sm  Sm4  1  0.779122  0.220878  0.779122  1
  Sm  Sm5  1  0.220878  0.779122  0.779122  1
  Cd  Cd6  1  0.839694  0.839694  0.480917  1
  Cd  Cd7  1  0.839694  0.480917  0.839694  1
  Cd  Cd8  1  0.480917  0.839694  0.839694  1
  Cd  Cd9  1  0.839694  0.839694  0.839694  1
  Cd  Cd10  1  0.160306  0.160306  0.519083  1
  Cd  Cd11  1  0.160306  0.519083  0.160306  1
  Cd  Cd12  1  0.519083  0.160306  0.160306  1
  Cd  Cd13  1  0.160306  0.160306  0.160306  1
  Cd  Cd14  1  0.622272  0.622272  0.133185  1
  Cd  Cd15  1  0.622272  0.133185  0.622272  1
  Cd  Cd16  1  0.133185  0.622272  0.622272  1
  Cd  Cd17  1  0.622272  0.622272  0.622272  1
  Cd  Cd18  1  0.377728  0.377728  0.866815  1
  Cd  Cd19  1  0.377728  0.866815  0.377728  1
  Cd  Cd20  1  0.866815  0.377728  0.377728  1
  Cd  Cd21  1  0.377728  0.377728  0.377728  1
  Ag  Ag22  1  0.000000  0.000000  0.500000  1
  Ag  Ag23  1  0.500000  0.000000  0.500000  1
  Ag  Ag24  1  0.000000  0.500000  0.500000  1
  Ag  Ag25  1  0.500000  0.500000  0.000000  1
  Ag  Ag26  1  0.000000  0.500000  0.000000  1
  Ag  Ag27  1  0.500000  0.000000  0.000000  1
  Ag  Ag28  1  0.500000  0.500000  0.500000  1
  Sn  Sn29  1  0.000000  0.000000  0.000000  1
