# generated using pymatgen
data_Sm3Y2Zr3(As3Rh4)4
_symmetry_space_group_name_H-M   'P 1'
_cell_length_a   13.38475577
_cell_length_b   13.38475583
_cell_length_c   4.03715100
_cell_angle_alpha   90.00000000
_cell_angle_beta   90.00000000
_cell_angle_gamma   120.03874786
_symmetry_Int_Tables_number   1
_chemical_formula_structural   Sm3Y2Zr3(As3Rh4)4
_chemical_formula_sum   'Sm3 Y2 Zr3 As12 Rh16'
_cell_volume   626.11891880
_cell_formula_units_Z   1
loop_
 _symmetry_equiv_pos_site_id
 _symmetry_equiv_pos_as_xyz
  1  'x, y, z'
loop_
 _atom_site_type_symbol
 _atom_site_label
 _atom_site_symmetry_multiplicity
 _atom_site_fract_x
 _atom_site_fract_y
 _atom_site_fract_z
 _atom_site_occupancy
  Sm  Sm0  1  0.187252  0.187252  0.500000  1
  Sm  Sm1  1  0.333337  0.666673  0.000000  1
  Sm  Sm2  1  0.666673  0.333337  0.000000  1
  Y  Y3  1  0.812445  0.000140  0.500000  1
  Y  Y4  1  0.000140  0.812445  0.500000  1
  Zr  Zr5  1  0.556730  0.556730  0.000000  1
  Zr  Zr6  1  0.443524  0.000033  0.000000  1
  Zr  Zr7  1  0.000033  0.443524  0.000000  1
  As  As8  1  0.824514  0.824514  0.000000  1
  As  As9  1  0.175280  0.999351  0.000000  1
  As  As10  1  0.999351  0.175280  0.000000  1
  As  As11  1  0.169768  0.484670  0.500000  1
  As  As12  1  0.515372  0.685243  0.500000  1
  As  As13  1  0.314871  0.830116  0.500000  1
  As  As14  1  0.685243  0.515372  0.500000  1
  As  As15  1  0.830116  0.314871  0.500000  1
  As  As16  1  0.484670  0.169768  0.500000  1
  As  As17  1  0.355359  0.355359  0.000000  1
  As  As18  1  0.645303  0.999937  0.000000  1
  As  As19  1  0.999937  0.645303  0.000000  1
  Rh  Rh20  1  0.719302  0.719302  0.500000  1
  Rh  Rh21  1  0.280818  0.999679  0.500000  1
  Rh  Rh22  1  0.999679  0.280818  0.500000  1
  Rh  Rh23  1  0.176332  0.374318  0.000000  1
  Rh  Rh24  1  0.626353  0.802617  0.000000  1
  Rh  Rh25  1  0.197308  0.823686  0.000000  1
  Rh  Rh26  1  0.802617  0.626353  0.000000  1
  Rh  Rh27  1  0.823686  0.197308  0.000000  1
  Rh  Rh28  1  0.374318  0.176332  0.000000  1
  Rh  Rh29  1  0.354942  0.481890  0.500000  1
  Rh  Rh30  1  0.518292  0.873038  0.500000  1
  Rh  Rh31  1  0.126834  0.645198  0.500000  1
  Rh  Rh32  1  0.873038  0.518292  0.500000  1
  Rh  Rh33  1  0.645198  0.126834  0.500000  1
  Rh  Rh34  1  0.481890  0.354942  0.500000  1
  Rh  Rh35  1  0.999473  0.999473  0.000000  1
