# generated using pymatgen
data_SrTm(Al5Os)4
_symmetry_space_group_name_H-M   'P 1'
_cell_length_a   6.88820354
_cell_length_b   6.88820310
_cell_length_c   9.19171100
_cell_angle_alpha   90.00000000
_cell_angle_beta   90.00000000
_cell_angle_gamma   96.41412390
_symmetry_Int_Tables_number   1
_chemical_formula_structural   SrTm(Al5Os)4
_chemical_formula_sum   'Sr1 Tm1 Al20 Os4'
_cell_volume   433.39233652
_cell_formula_units_Z   1
loop_
 _symmetry_equiv_pos_site_id
 _symmetry_equiv_pos_as_xyz
  1  'x, y, z'
loop_
 _atom_site_type_symbol
 _atom_site_label
 _atom_site_symmetry_multiplicity
 _atom_site_fract_x
 _atom_site_fract_y
 _atom_site_fract_z
 _atom_site_occupancy
  Sr  Sr0  1  0.876160  0.123840  0.750000  1
  Tm  Tm1  1  0.127865  0.872135  0.250000  1
  Al  Al2  1  0.519097  0.781558  0.750000  1
  Al  Al3  1  0.782399  0.518956  0.250000  1
  Al  Al4  1  0.481044  0.217601  0.250000  1
  Al  Al5  1  0.218442  0.480903  0.750000  1
  Al  Al6  1  0.623044  0.376956  0.962313  1
  Al  Al7  1  0.375977  0.624023  0.052006  1
  Al  Al8  1  0.623044  0.376956  0.537687  1
  Al  Al9  1  0.375977  0.624023  0.447994  1
  Al  Al10  1  0.409066  0.143593  0.750000  1
  Al  Al11  1  0.145839  0.420857  0.250000  1
  Al  Al12  1  0.579143  0.854161  0.250000  1
  Al  Al13  1  0.856407  0.590934  0.750000  1
  Al  Al14  1  0.845828  0.154172  0.397391  1
  Al  Al15  1  0.161801  0.838199  0.600659  1
  Al  Al16  1  0.845828  0.154172  0.102609  1
  Al  Al17  1  0.161801  0.838199  0.899341  1
  Al  Al18  1  0.774285  0.775363  0.004351  1
  Al  Al19  1  0.774285  0.775363  0.495649  1
  Al  Al20  1  0.224637  0.225715  0.004351  1
  Al  Al21  1  0.224637  0.225715  0.495649  1
  Os  Os22  1  0.496940  0.000243  0.001680  1
  Os  Os23  1  0.999757  0.503060  0.001680  1
  Os  Os24  1  0.496940  0.000243  0.498320  1
  Os  Os25  1  0.999757  0.503060  0.498320  1
