# generated using pymatgen
data_AcPS
_symmetry_space_group_name_H-M   'P 1'
_cell_length_a   5.80482900
_cell_length_b   5.92670200
_cell_length_c   17.85031600
_cell_angle_alpha   90.00000000
_cell_angle_beta   90.00000000
_cell_angle_gamma   90.00000000
_symmetry_Int_Tables_number   1
_chemical_formula_structural   AcPS
_chemical_formula_sum   'Ac8 P8 S8'
_cell_volume   614.11319735
_cell_formula_units_Z   8
loop_
 _symmetry_equiv_pos_site_id
 _symmetry_equiv_pos_as_xyz
  1  'x, y, z'
loop_
 _atom_site_type_symbol
 _atom_site_label
 _atom_site_symmetry_multiplicity
 _atom_site_fract_x
 _atom_site_fract_y
 _atom_site_fract_z
 _atom_site_occupancy
  Ac  Ac0  1  0.250000  0.483565  0.362861  1
  Ac  Ac1  1  0.250000  0.983565  0.137139  1
  Ac  Ac2  1  0.750000  0.516435  0.637139  1
  Ac  Ac3  1  0.750000  0.016435  0.862861  1
  Ac  Ac4  1  0.250000  0.018408  0.649483  1
  Ac  Ac5  1  0.250000  0.518408  0.850517  1
  Ac  Ac6  1  0.750000  0.981592  0.350517  1
  Ac  Ac7  1  0.750000  0.481592  0.149483  1
  P  P8  1  0.052812  0.317347  0.997736  1
  P  P9  1  0.447188  0.817347  0.502264  1
  P  P10  1  0.552812  0.682653  0.002264  1
  P  P11  1  0.947188  0.182653  0.497736  1
  P  P12  1  0.947188  0.682653  0.002264  1
  P  P13  1  0.552812  0.182653  0.497736  1
  P  P14  1  0.447188  0.317347  0.997736  1
  P  P15  1  0.052812  0.817347  0.502264  1
  S  S16  1  0.250000  0.485923  0.189468  1
  S  S17  1  0.250000  0.985923  0.310532  1
  S  S18  1  0.750000  0.514077  0.810532  1
  S  S19  1  0.750000  0.014077  0.689468  1
  S  S20  1  0.250000  0.014165  0.819704  1
  S  S21  1  0.250000  0.514165  0.680296  1
  S  S22  1  0.750000  0.985835  0.180296  1
  S  S23  1  0.750000  0.485835  0.319704  1
