# generated using pymatgen
data_Ta6Tc5B6Ir
_symmetry_space_group_name_H-M   'P 1'
_cell_length_a   3.16142300
_cell_length_b   9.07876499
_cell_length_c   15.72083193
_cell_angle_alpha   89.72446969
_cell_angle_beta   90.00000000
_cell_angle_gamma   90.00000000
_symmetry_Int_Tables_number   1
_chemical_formula_structural   Ta6Tc5B6Ir
_chemical_formula_sum   'Ta12 Tc10 B12 Ir2'
_cell_volume   451.21121500
_cell_formula_units_Z   2
loop_
 _symmetry_equiv_pos_site_id
 _symmetry_equiv_pos_as_xyz
  1  'x, y, z'
loop_
 _atom_site_type_symbol
 _atom_site_label
 _atom_site_symmetry_multiplicity
 _atom_site_fract_x
 _atom_site_fract_y
 _atom_site_fract_z
 _atom_site_occupancy
  Ta  Ta0  1  0.000000  0.803919  0.494336  1
  Ta  Ta1  1  0.000000  0.196081  0.505664  1
  Ta  Ta2  1  0.000000  0.304209  0.007161  1
  Ta  Ta3  1  0.000000  0.695791  0.992839  1
  Ta  Ta4  1  0.000000  0.515423  0.595511  1
  Ta  Ta5  1  0.000000  0.484577  0.404489  1
  Ta  Ta6  1  0.000000  0.015825  0.905676  1
  Ta  Ta7  1  0.000000  0.984175  0.094324  1
  Ta  Ta8  1  0.000000  0.675821  0.206207  1
  Ta  Ta9  1  0.000000  0.324179  0.793793  1
  Ta  Ta10  1  0.000000  0.186476  0.295679  1
  Ta  Ta11  1  0.000000  0.813524  0.704321  1
  Tc  Tc12  1  0.500000  0.718720  0.357346  1
  Tc  Tc13  1  0.500000  0.281280  0.642654  1
  Tc  Tc14  1  0.500000  0.214805  0.142843  1
  Tc  Tc15  1  0.500000  0.785195  0.857157  1
  Tc  Tc16  1  0.500000  0.518367  0.095026  1
  Tc  Tc17  1  0.500000  0.481633  0.904974  1
  Tc  Tc18  1  0.500000  0.018626  0.403821  1
  Tc  Tc19  1  0.500000  0.981374  0.596179  1
  Tc  Tc20  1  0.500000  0.568782  0.732193  1
  Tc  Tc21  1  0.500000  0.431218  0.267807  1
  B  B22  1  0.500000  0.605118  0.494276  1
  B  B23  1  0.500000  0.394882  0.505724  1
  B  B24  1  0.500000  0.105147  0.004363  1
  B  B25  1  0.500000  0.894853  0.995637  1
  B  B26  1  0.000000  0.610416  0.832907  1
  B  B27  1  0.000000  0.389584  0.167093  1
  B  B28  1  0.000000  0.112164  0.662741  1
  B  B29  1  0.000000  0.887836  0.337259  1
  B  B30  1  0.500000  0.716232  0.601564  1
  B  B31  1  0.500000  0.283768  0.398436  1
  B  B32  1  0.500000  0.218105  0.899695  1
  B  B33  1  0.500000  0.781895  0.100305  1
  Ir  Ir34  1  0.500000  0.068115  0.767226  1
  Ir  Ir35  1  0.500000  0.931885  0.232774  1
