# generated using pymatgen
data_Sr20Tl3HgAu8
_symmetry_space_group_name_H-M   'P 1'
_cell_length_a   8.57169400
_cell_length_b   8.57169400
_cell_length_c   15.68196400
_cell_angle_alpha   90.00000000
_cell_angle_beta   90.00000000
_cell_angle_gamma   90.00000000
_symmetry_Int_Tables_number   1
_chemical_formula_structural   Sr20Tl3HgAu8
_chemical_formula_sum   'Sr20 Tl3 Hg1 Au8'
_cell_volume   1152.21565112
_cell_formula_units_Z   1
loop_
 _symmetry_equiv_pos_site_id
 _symmetry_equiv_pos_as_xyz
  1  'x, y, z'
loop_
 _atom_site_type_symbol
 _atom_site_label
 _atom_site_symmetry_multiplicity
 _atom_site_fract_x
 _atom_site_fract_y
 _atom_site_fract_z
 _atom_site_occupancy
  Sr  Sr0  1  0.000000  0.000000  0.754359  1
  Sr  Sr1  1  0.500000  0.500000  0.251970  1
  Sr  Sr2  1  0.000000  0.000000  0.245641  1
  Sr  Sr3  1  0.500000  0.500000  0.748030  1
  Sr  Sr4  1  0.169331  0.661640  0.109079  1
  Sr  Sr5  1  0.665820  0.166694  0.611107  1
  Sr  Sr6  1  0.830669  0.338360  0.109079  1
  Sr  Sr7  1  0.334180  0.833306  0.611107  1
  Sr  Sr8  1  0.338360  0.169331  0.109079  1
  Sr  Sr9  1  0.833306  0.665820  0.611107  1
  Sr  Sr10  1  0.661640  0.830669  0.109079  1
  Sr  Sr11  1  0.166694  0.334180  0.611107  1
  Sr  Sr12  1  0.338360  0.830669  0.890921  1
  Sr  Sr13  1  0.833306  0.334180  0.388893  1
  Sr  Sr14  1  0.661640  0.169331  0.890921  1
  Sr  Sr15  1  0.166694  0.665820  0.388893  1
  Sr  Sr16  1  0.169331  0.338360  0.890921  1
  Sr  Sr17  1  0.665820  0.833306  0.388893  1
  Sr  Sr18  1  0.830669  0.661640  0.890921  1
  Sr  Sr19  1  0.334180  0.166694  0.388893  1
  Tl  Tl20  1  0.000000  0.000000  0.500000  1
  Tl  Tl21  1  0.000000  0.000000  0.000000  1
  Tl  Tl22  1  0.500000  0.500000  0.500000  1
  Hg  Hg23  1  0.500000  0.500000  0.000000  1
  Au  Au24  1  0.627981  0.128622  0.248403  1
  Au  Au25  1  0.128622  0.627981  0.751597  1
  Au  Au26  1  0.871378  0.372019  0.751597  1
  Au  Au27  1  0.372019  0.871378  0.248403  1
  Au  Au28  1  0.372019  0.128622  0.751597  1
  Au  Au29  1  0.871378  0.627981  0.248403  1
  Au  Au30  1  0.128622  0.372019  0.248403  1
  Au  Au31  1  0.627981  0.871378  0.751597  1
