# generated using pymatgen
data_La2Pa2(Al8Pt3)3
_symmetry_space_group_name_H-M   'P 1'
_cell_length_a   7.61368645
_cell_length_b   7.60367473
_cell_length_c   13.20583107
_cell_angle_alpha   84.50592329
_cell_angle_beta   101.05878851
_cell_angle_gamma   119.90942117
_symmetry_Int_Tables_number   1
_chemical_formula_structural   La2Pa2(Al8Pt3)3
_chemical_formula_sum   'La2 Pa2 Al24 Pt9'
_cell_volume   650.38464172
_cell_formula_units_Z   1
loop_
 _symmetry_equiv_pos_site_id
 _symmetry_equiv_pos_as_xyz
  1  'x, y, z'
loop_
 _atom_site_type_symbol
 _atom_site_label
 _atom_site_symmetry_multiplicity
 _atom_site_fract_x
 _atom_site_fract_y
 _atom_site_fract_z
 _atom_site_occupancy
  La  La0  1  0.768449  0.501587  0.808516  1
  La  La1  1  0.231551  0.498413  0.191484  1
  Pa  Pa2  1  0.435903  0.832193  0.802882  1
  Pa  Pa3  1  0.564097  0.167807  0.197118  1
  Al  Al4  1  0.480955  0.164161  0.946892  1
  Al  Al5  1  0.519045  0.835839  0.053108  1
  Al  Al6  1  0.020926  0.166591  0.560536  1
  Al  Al7  1  0.979074  0.833409  0.439464  1
  Al  Al8  1  0.351189  0.832262  0.557499  1
  Al  Al9  1  0.648811  0.167738  0.442501  1
  Al  Al10  1  0.619804  0.832860  0.334820  1
  Al  Al11  1  0.380196  0.167140  0.665180  1
  Al  Al12  1  0.053061  0.490245  0.666175  1
  Al  Al13  1  0.946939  0.509755  0.333825  1
  Al  Al14  1  0.731475  0.841602  0.664535  1
  Al  Al15  1  0.268525  0.158398  0.335465  1
  Al  Al16  1  0.149781  0.500304  0.943345  1
  Al  Al17  1  0.850219  0.499696  0.056655  1
  Al  Al18  1  0.817023  0.834159  0.954151  1
  Al  Al19  1  0.182977  0.165841  0.045849  1
  Al  Al20  1  0.314097  0.499662  0.442155  1
  Al  Al21  1  0.685903  0.500338  0.557845  1
  Al  Al22  1  0.102472  0.844165  0.183165  1
  Al  Al23  1  0.897528  0.155835  0.816835  1
  Al  Al24  1  0.302815  0.369505  0.815509  1
  Al  Al25  1  0.697185  0.630495  0.184491  1
  Al  Al26  1  0.111051  0.964726  0.816656  1
  Al  Al27  1  0.888949  0.035274  0.183344  1
  Pt  Pt28  1  0.385911  0.508668  0.638804  1
  Pt  Pt29  1  0.614089  0.491332  0.361196  1
  Pt  Pt30  1  0.171288  0.828661  0.000099  1
  Pt  Pt31  1  0.828712  0.171339  0.999901  1
  Pt  Pt32  1  0.296347  0.835581  0.361161  1
  Pt  Pt33  1  0.703653  0.164419  0.638839  1
  Pt  Pt34  1  0.048381  0.826536  0.638038  1
  Pt  Pt35  1  0.951619  0.173464  0.361962  1
  Pt  Pt36  1  0.500000  0.500000  0.000000  1
