# generated using pymatgen
data_Nd4As7Rh8
_symmetry_space_group_name_H-M   'P 1'
_cell_length_a   4.13716200
_cell_length_b   13.20890300
_cell_length_c   13.62555795
_cell_angle_alpha   81.68249509
_cell_angle_beta   90.00000000
_cell_angle_gamma   90.00000000
_symmetry_Int_Tables_number   1
_chemical_formula_structural   Nd4As7Rh8
_chemical_formula_sum   'Nd8 As14 Rh16'
_cell_volume   736.76894714
_cell_formula_units_Z   2
loop_
 _symmetry_equiv_pos_site_id
 _symmetry_equiv_pos_as_xyz
  1  'x, y, z'
loop_
 _atom_site_type_symbol
 _atom_site_label
 _atom_site_symmetry_multiplicity
 _atom_site_fract_x
 _atom_site_fract_y
 _atom_site_fract_z
 _atom_site_occupancy
  Nd  Nd0  1  0.250000  0.100044  0.792307  1
  Nd  Nd1  1  0.750000  0.899956  0.207693  1
  Nd  Nd2  1  0.250000  0.283563  0.101274  1
  Nd  Nd3  1  0.750000  0.716437  0.898726  1
  Nd  Nd4  1  0.250000  0.519195  0.292362  1
  Nd  Nd5  1  0.750000  0.480805  0.707638  1
  Nd  Nd6  1  0.250000  0.208629  0.437270  1
  Nd  Nd7  1  0.750000  0.791371  0.562730  1
  As  As8  1  0.250000  0.053631  0.100890  1
  As  As9  1  0.750000  0.946369  0.899110  1
  As  As10  1  0.250000  0.312240  0.688591  1
  As  As11  1  0.750000  0.687760  0.311409  1
  As  As12  1  0.250000  0.607294  0.566265  1
  As  As13  1  0.750000  0.392706  0.433735  1
  As  As14  1  0.250000  0.848057  0.719667  1
  As  As15  1  0.750000  0.151943  0.280333  1
  As  As16  1  0.750000  0.258461  0.920776  1
  As  As17  1  0.250000  0.741539  0.079224  1
  As  As18  1  0.750000  0.095242  0.585994  1
  As  As19  1  0.250000  0.904758  0.414006  1
  As  As20  1  0.750000  0.471043  0.128913  1
  As  As21  1  0.250000  0.528957  0.871087  1
  Rh  Rh22  1  0.250000  0.989006  0.573656  1
  Rh  Rh23  1  0.750000  0.010994  0.426344  1
  Rh  Rh24  1  0.250000  0.665976  0.731809  1
  Rh  Rh25  1  0.750000  0.334024  0.268191  1
  Rh  Rh26  1  0.250000  0.553954  0.045985  1
  Rh  Rh27  1  0.750000  0.446046  0.954015  1
  Rh  Rh28  1  0.250000  0.053102  0.279441  1
  Rh  Rh29  1  0.750000  0.946898  0.720559  1
  Rh  Rh30  1  0.250000  0.425607  0.526755  1
  Rh  Rh31  1  0.750000  0.574393  0.473245  1
  Rh  Rh32  1  0.250000  0.917627  0.996835  1
  Rh  Rh33  1  0.750000  0.082373  0.003165  1
  Rh  Rh34  1  0.250000  0.721234  0.400318  1
  Rh  Rh35  1  0.750000  0.278766  0.599682  1
  Rh  Rh36  1  0.250000  0.343735  0.861159  1
  Rh  Rh37  1  0.750000  0.656265  0.138841  1
