# generated using pymatgen
data_Y2Er2AlOs7
_symmetry_space_group_name_H-M   'P 1'
_cell_length_a   5.36743100
_cell_length_b   5.36743110
_cell_length_c   8.69978900
_cell_angle_alpha   90.00000000
_cell_angle_beta   90.00000000
_cell_angle_gamma   119.99999324
_symmetry_Int_Tables_number   1
_chemical_formula_structural   Y2Er2AlOs7
_chemical_formula_sum   'Y2 Er2 Al1 Os7'
_cell_volume   217.05626673
_cell_formula_units_Z   1
loop_
 _symmetry_equiv_pos_site_id
 _symmetry_equiv_pos_as_xyz
  1  'x, y, z'
loop_
 _atom_site_type_symbol
 _atom_site_label
 _atom_site_symmetry_multiplicity
 _atom_site_fract_x
 _atom_site_fract_y
 _atom_site_fract_z
 _atom_site_occupancy
  Y  Y0  1  0.333333  0.666667  0.428856  1
  Y  Y1  1  0.666667  0.333333  0.571144  1
  Er  Er2  1  0.666667  0.333333  0.936193  1
  Er  Er3  1  0.333333  0.666667  0.063807  1
  Al  Al4  1  0.000000  0.000000  0.500000  1
  Os  Os5  1  0.000000  0.000000  0.000000  1
  Os  Os6  1  0.828547  0.171453  0.249854  1
  Os  Os7  1  0.828547  0.657092  0.249854  1
  Os  Os8  1  0.342908  0.171453  0.249854  1
  Os  Os9  1  0.171453  0.828547  0.750146  1
  Os  Os10  1  0.171453  0.342908  0.750146  1
  Os  Os11  1  0.657092  0.828547  0.750146  1
