# generated using pymatgen
data_Tl3Pd2Rh2PbO14
_symmetry_space_group_name_H-M   'P 1'
_cell_length_a   7.33647710
_cell_length_b   7.31604736
_cell_length_c   7.33647785
_cell_angle_alpha   59.34073411
_cell_angle_beta   59.14397071
_cell_angle_gamma   59.34074500
_symmetry_Int_Tables_number   1
_chemical_formula_structural   Tl3Pd2Rh2PbO14
_chemical_formula_sum   'Tl3 Pd2 Rh2 Pb1 O14'
_cell_volume   273.84468807
_cell_formula_units_Z   1
loop_
 _symmetry_equiv_pos_site_id
 _symmetry_equiv_pos_as_xyz
  1  'x, y, z'
loop_
 _atom_site_type_symbol
 _atom_site_label
 _atom_site_symmetry_multiplicity
 _atom_site_fract_x
 _atom_site_fract_y
 _atom_site_fract_z
 _atom_site_occupancy
  Tl  Tl0  1  0.625000  0.125000  0.125000  1
  Tl  Tl1  1  0.125000  0.625000  0.125000  1
  Tl  Tl2  1  0.125000  0.125000  0.625000  1
  Pd  Pd3  1  0.125000  0.625000  0.625000  1
  Pd  Pd4  1  0.625000  0.625000  0.125000  1
  Rh  Rh5  1  0.625000  0.125000  0.625000  1
  Rh  Rh6  1  0.625000  0.625000  0.625000  1
  Pb  Pb7  1  0.125000  0.125000  0.125000  1
  O  O8  1  0.708842  0.709951  0.291236  1
  O  O9  1  0.291718  0.287452  0.711285  1
  O  O10  1  0.701430  0.298021  0.701430  1
  O  O11  1  0.289586  0.712319  0.289586  1
  O  O12  1  0.291236  0.709951  0.708842  1
  O  O13  1  0.711285  0.287452  0.291718  1
  O  O14  1  0.541158  0.540049  0.958764  1
  O  O15  1  0.958282  0.962548  0.538715  1
  O  O16  1  0.548570  0.951979  0.548570  1
  O  O17  1  0.960414  0.537681  0.960414  1
  O  O18  1  0.958764  0.540049  0.541158  1
  O  O19  1  0.538715  0.962548  0.958282  1
  O  O20  1  0.248781  0.247285  0.248781  1
  O  O21  1  0.001219  0.002715  0.001219  1
