# generated using pymatgen
data_Tb7Dy13Ir11Ru
_symmetry_space_group_name_H-M   'P 1'
_cell_length_a   10.88581702
_cell_length_b   10.88552802
_cell_length_c   6.40396002
_cell_angle_alpha   90.00664960
_cell_angle_beta   89.99357733
_cell_angle_gamma   90.00291612
_symmetry_Int_Tables_number   1
_chemical_formula_structural   Tb7Dy13Ir11Ru
_chemical_formula_sum   'Tb7 Dy13 Ir11 Ru1'
_cell_volume   758.85558696
_cell_formula_units_Z   1
loop_
 _symmetry_equiv_pos_site_id
 _symmetry_equiv_pos_as_xyz
  1  'x, y, z'
loop_
 _atom_site_type_symbol
 _atom_site_label
 _atom_site_symmetry_multiplicity
 _atom_site_fract_x
 _atom_site_fract_y
 _atom_site_fract_z
 _atom_site_occupancy
  Tb  Tb0  1  0.292185  0.087599  0.377296  1
  Tb  Tb1  1  0.292452  0.912532  0.880126  1
  Tb  Tb2  1  0.707491  0.087610  0.880117  1
  Tb  Tb3  1  0.707865  0.912475  0.377301  1
  Tb  Tb4  1  0.587569  0.792427  0.880106  1
  Tb  Tb5  1  0.587461  0.207871  0.377317  1
  Tb  Tb6  1  0.412469  0.792121  0.377297  1
  Dy  Dy7  1  0.412443  0.207411  0.880230  1
  Dy  Dy8  1  0.208861  0.411590  0.621251  1
  Dy  Dy9  1  0.208805  0.588206  0.120906  1
  Dy  Dy10  1  0.791193  0.411785  0.120882  1
  Dy  Dy11  1  0.791186  0.588340  0.621184  1
  Dy  Dy12  1  0.911790  0.708801  0.120896  1
  Dy  Dy13  1  0.911667  0.291178  0.621177  1
  Dy  Dy14  1  0.088345  0.708826  0.621187  1
  Dy  Dy15  1  0.088247  0.291194  0.120859  1
  Dy  Dy16  1  0.000005  0.000002  0.499495  1
  Dy  Dy17  1  0.000007  0.000019  0.999414  1
  Dy  Dy18  1  0.499953  0.499892  0.999396  1
  Dy  Dy19  1  0.499993  0.499981  0.499510  1
  Ir  Ir20  1  0.847408  0.153844  0.250227  1
  Ir  Ir21  1  0.847516  0.846472  0.749957  1
  Ir  Ir22  1  0.152665  0.153570  0.750039  1
  Ir  Ir23  1  0.152590  0.846164  0.250210  1
  Ir  Ir24  1  0.653386  0.347451  0.750037  1
  Ir  Ir25  1  0.653847  0.652591  0.250215  1
  Ir  Ir26  1  0.346220  0.347300  0.249888  1
  Ir  Ir27  1  0.346491  0.652480  0.749955  1
  Ir  Ir28  1  0.499936  0.000142  0.624314  1
  Ir  Ir29  1  0.000004  0.499998  0.877151  1
  Ir  Ir30  1  0.999993  0.499995  0.377284  1
  Ru  Ru31  1  0.499955  0.000132  0.124778  1
