# generated using pymatgen
data_Hf2CuBRh5
_symmetry_space_group_name_H-M   'P 1'
_cell_length_a   5.75065721
_cell_length_b   5.63882301
_cell_length_c   5.63882268
_cell_angle_alpha   61.31654452
_cell_angle_beta   59.34172960
_cell_angle_gamma   59.34173439
_symmetry_Int_Tables_number   1
_chemical_formula_structural   Hf2CuBRh5
_chemical_formula_sum   'Hf2 Cu1 B1 Rh5'
_cell_volume   129.19052450
_cell_formula_units_Z   1
loop_
 _symmetry_equiv_pos_site_id
 _symmetry_equiv_pos_as_xyz
  1  'x, y, z'
loop_
 _atom_site_type_symbol
 _atom_site_label
 _atom_site_symmetry_multiplicity
 _atom_site_fract_x
 _atom_site_fract_y
 _atom_site_fract_z
 _atom_site_occupancy
  Hf  Hf0  1  0.250440  0.249562  0.249562  1
  Hf  Hf1  1  0.750439  0.749561  0.749561  1
  Cu  Cu2  1  0.765364  0.234636  0.234636  1
  B  B3  1  0.500378  0.499622  0.499622  1
  Rh  Rh4  1  0.243730  0.756270  0.246733  1
  Rh  Rh5  1  0.753267  0.756270  0.246733  1
  Rh  Rh6  1  0.243730  0.246733  0.756270  1
  Rh  Rh7  1  0.753267  0.246733  0.756270  1
  Rh  Rh8  1  0.239385  0.760615  0.760615  1
