# generated using pymatgen
data_La20GeBi7Rh4
_symmetry_space_group_name_H-M   'P 1'
_cell_length_a   8.51534484
_cell_length_b   9.28389381
_cell_length_c   13.04442662
_cell_angle_alpha   89.89779772
_cell_angle_beta   90.02791870
_cell_angle_gamma   90.10681923
_symmetry_Int_Tables_number   1
_chemical_formula_structural   La20GeBi7Rh4
_chemical_formula_sum   'La20 Ge1 Bi7 Rh4'
_cell_volume   1031.23086233
_cell_formula_units_Z   1
loop_
 _symmetry_equiv_pos_site_id
 _symmetry_equiv_pos_as_xyz
  1  'x, y, z'
loop_
 _atom_site_type_symbol
 _atom_site_label
 _atom_site_symmetry_multiplicity
 _atom_site_fract_x
 _atom_site_fract_y
 _atom_site_fract_z
 _atom_site_occupancy
  La  La0  1  0.684546  0.463348  0.065607  1
  La  La1  1  0.184450  0.540775  0.432076  1
  La  La2  1  0.319797  0.958631  0.936464  1
  La  La3  1  0.817097  0.041106  0.564817  1
  La  La4  1  0.313539  0.536544  0.936319  1
  La  La5  1  0.816348  0.459647  0.563810  1
  La  La6  1  0.689485  0.041323  0.067125  1
  La  La7  1  0.178316  0.959043  0.424705  1
  La  La8  1  0.955503  0.760920  0.011107  1
  La  La9  1  0.447552  0.250721  0.496259  1
  La  La10  1  0.051604  0.237438  0.002804  1
  La  La11  1  0.553958  0.749032  0.503007  1
  La  La12  1  0.359006  0.759988  0.193204  1
  La  La13  1  0.877892  0.241470  0.301565  1
  La  La14  1  0.629393  0.250284  0.806963  1
  La  La15  1  0.127446  0.750503  0.692513  1
  La  La16  1  0.850893  0.757963  0.291124  1
  La  La17  1  0.337833  0.239743  0.203237  1
  La  La18  1  0.153035  0.250541  0.704376  1
  La  La19  1  0.653655  0.748234  0.800278  1
  Ge  Ge20  1  0.064077  0.997462  0.173350  1
  Bi  Bi21  1  0.570640  0.494652  0.322822  1
  Bi  Bi22  1  0.071459  0.504092  0.172998  1
  Bi  Bi23  1  0.430581  0.993896  0.673841  1
  Bi  Bi24  1  0.929524  0.004712  0.825363  1
  Bi  Bi25  1  0.428783  0.506508  0.674244  1
  Bi  Bi26  1  0.930608  0.494666  0.831739  1
  Bi  Bi27  1  0.570972  0.005485  0.327095  1
  Rh  Rh28  1  0.574753  0.751144  0.013951  1
  Rh  Rh29  1  0.077378  0.249903  0.488880  1
  Rh  Rh30  1  0.425175  0.251378  0.989939  1
  Rh  Rh31  1  0.924702  0.748847  0.508416  1
