# generated using pymatgen
data_YPaPt2Pb
_symmetry_space_group_name_H-M   'P 1'
_cell_length_a   7.96818600
_cell_length_b   7.94958100
_cell_length_c   3.63301200
_cell_angle_alpha   90.00000000
_cell_angle_beta   90.00000000
_cell_angle_gamma   90.00000000
_symmetry_Int_Tables_number   1
_chemical_formula_structural   YPaPt2Pb
_chemical_formula_sum   'Y2 Pa2 Pt4 Pb2'
_cell_volume   230.12856765
_cell_formula_units_Z   2
loop_
 _symmetry_equiv_pos_site_id
 _symmetry_equiv_pos_as_xyz
  1  'x, y, z'
loop_
 _atom_site_type_symbol
 _atom_site_label
 _atom_site_symmetry_multiplicity
 _atom_site_fract_x
 _atom_site_fract_y
 _atom_site_fract_z
 _atom_site_occupancy
  Y  Y0  1  0.827559  0.671620  0.500000  1
  Y  Y1  1  0.327559  0.828380  0.500000  1
  Pa  Pa2  1  0.668363  0.167819  0.500000  1
  Pa  Pa3  1  0.168363  0.332181  0.500000  1
  Pt  Pt4  1  0.871480  0.358130  0.000000  1
  Pt  Pt5  1  0.371480  0.141870  0.000000  1
  Pt  Pt6  1  0.628274  0.889855  0.000000  1
  Pt  Pt7  1  0.128274  0.610145  0.000000  1
  Pb  Pb8  1  0.004324  0.988994  0.000000  1
  Pb  Pb9  1  0.504324  0.511006  0.000000  1
