# generated using pymatgen
data_Ho3In3Pd2Rh
_symmetry_space_group_name_H-M   'P 1'
_cell_length_a   7.73590300
_cell_length_b   7.73590317
_cell_length_c   3.78105600
_cell_angle_alpha   90.00000000
_cell_angle_beta   90.00000000
_cell_angle_gamma   119.99999501
_symmetry_Int_Tables_number   1
_chemical_formula_structural   Ho3In3Pd2Rh
_chemical_formula_sum   'Ho3 In3 Pd2 Rh1'
_cell_volume   195.95926575
_cell_formula_units_Z   1
loop_
 _symmetry_equiv_pos_site_id
 _symmetry_equiv_pos_as_xyz
  1  'x, y, z'
loop_
 _atom_site_type_symbol
 _atom_site_label
 _atom_site_symmetry_multiplicity
 _atom_site_fract_x
 _atom_site_fract_y
 _atom_site_fract_z
 _atom_site_occupancy
  Ho  Ho0  1  0.987798  0.402230  0.500000  1
  Ho  Ho1  1  0.597770  0.585567  0.500000  1
  Ho  Ho2  1  0.414433  0.012202  0.500000  1
  In  In3  1  0.262637  0.262317  0.000000  1
  In  In4  1  0.999680  0.737363  0.000000  1
  In  In5  1  0.737683  0.000320  0.000000  1
  Pd  Pd6  1  0.333333  0.666667  0.000000  1
  Pd  Pd7  1  0.000000  0.000000  0.500000  1
  Rh  Rh8  1  0.666667  0.333333  0.000000  1
