# generated using pymatgen
data_Li2Dy3Ho2P12Ir17
_symmetry_space_group_name_H-M   'P 1'
_cell_length_a   12.66283500
_cell_length_b   12.76356161
_cell_length_c   3.95476700
_cell_angle_alpha   90.00000000
_cell_angle_beta   90.00000000
_cell_angle_gamma   119.73928775
_symmetry_Int_Tables_number   1
_chemical_formula_structural   Li2Dy3Ho2P12Ir17
_chemical_formula_sum   'Li2 Dy3 Ho2 P12 Ir17'
_cell_volume   554.99531264
_cell_formula_units_Z   1
loop_
 _symmetry_equiv_pos_site_id
 _symmetry_equiv_pos_as_xyz
  1  'x, y, z'
loop_
 _atom_site_type_symbol
 _atom_site_label
 _atom_site_symmetry_multiplicity
 _atom_site_fract_x
 _atom_site_fract_y
 _atom_site_fract_z
 _atom_site_occupancy
  Li  Li0  1  0.999531  0.442097  0.500000  1
  Li  Li1  1  0.557434  0.557903  0.500000  1
  Dy  Dy2  1  0.001743  0.809195  0.000000  1
  Dy  Dy3  1  0.192548  0.190805  0.000000  1
  Dy  Dy4  1  0.811209  0.000000  0.000000  1
  Ho  Ho5  1  0.332417  0.662372  0.500000  1
  Ho  Ho6  1  0.670047  0.337628  0.500000  1
  P  P7  1  0.999301  0.630354  0.500000  1
  P  P8  1  0.368947  0.369646  0.500000  1
  P  P9  1  0.639423  0.000000  0.500000  1
  P  P10  1  0.513322  0.683330  0.000000  1
  P  P11  1  0.307190  0.822866  0.000000  1
  P  P12  1  0.167086  0.480032  0.000000  1
  P  P13  1  0.484325  0.177134  0.000000  1
  P  P14  1  0.687054  0.519968  0.000000  1
  P  P15  1  0.829992  0.316670  0.000000  1
  P  P16  1  0.997661  0.177922  0.500000  1
  P  P17  1  0.819739  0.822078  0.500000  1
  P  P18  1  0.178538  0.000000  0.500000  1
  Ir  Ir19  1  0.503140  0.864829  0.000000  1
  Ir  Ir20  1  0.129624  0.638649  0.000000  1
  Ir  Ir21  1  0.356289  0.488256  0.000000  1
  Ir  Ir22  1  0.490976  0.361351  0.000000  1
  Ir  Ir23  1  0.868034  0.511744  0.000000  1
  Ir  Ir24  1  0.638312  0.135171  0.000000  1
  Ir  Ir25  1  0.458634  0.000000  0.500000  1
  Ir  Ir26  1  0.996331  0.277433  0.000000  1
  Ir  Ir27  1  0.718899  0.722567  0.000000  1
  Ir  Ir28  1  0.286791  0.000000  0.000000  1
  Ir  Ir29  1  0.622130  0.807259  0.500000  1
  Ir  Ir30  1  0.199742  0.823411  0.500000  1
  Ir  Ir31  1  0.177102  0.370683  0.500000  1
  Ir  Ir32  1  0.376332  0.176589  0.500000  1
  Ir  Ir33  1  0.806419  0.629317  0.500000  1
  Ir  Ir34  1  0.814873  0.192741  0.500000  1
  Ir  Ir35  1  0.998864  0.000000  0.500000  1
