# generated using pymatgen
data_Dy2Th2(Ga8Pt3)3
_symmetry_space_group_name_H-M   'P 1'
_cell_length_a   7.62180288
_cell_length_b   7.63505352
_cell_length_c   13.32279706
_cell_angle_alpha   84.42501170
_cell_angle_beta   78.89586976
_cell_angle_gamma   60.02456878
_symmetry_Int_Tables_number   1
_chemical_formula_structural   Dy2Th2(Ga8Pt3)3
_chemical_formula_sum   'Dy2 Th2 Ga24 Pt9'
_cell_volume   659.01524322
_cell_formula_units_Z   1
loop_
 _symmetry_equiv_pos_site_id
 _symmetry_equiv_pos_as_xyz
  1  'x, y, z'
loop_
 _atom_site_type_symbol
 _atom_site_label
 _atom_site_symmetry_multiplicity
 _atom_site_fract_x
 _atom_site_fract_y
 _atom_site_fract_z
 _atom_site_occupancy
  Dy  Dy0  1  0.733004  0.498402  0.808504  1
  Dy  Dy1  1  0.266996  0.501598  0.191496  1
  Th  Th2  1  0.395814  0.167717  0.808278  1
  Th  Th3  1  0.604186  0.832283  0.191722  1
  Ga  Ga4  1  0.689023  0.829472  0.938424  1
  Ga  Ga5  1  0.310977  0.170528  0.061576  1
  Ga  Ga6  1  0.145391  0.833846  0.560293  1
  Ga  Ga7  1  0.854609  0.166154  0.439707  1
  Ga  Ga8  1  0.480921  0.167491  0.556232  1
  Ga  Ga9  1  0.519079  0.832509  0.443768  1
  Ga  Ga10  1  0.215787  0.169941  0.329078  1
  Ga  Ga11  1  0.784213  0.830059  0.670922  1
  Ga  Ga12  1  0.439167  0.507784  0.671714  1
  Ga  Ga13  1  0.560833  0.492216  0.328286  1
  Ga  Ga14  1  0.105630  0.162772  0.669794  1
  Ga  Ga15  1  0.894370  0.837228  0.330206  1
  Ga  Ga16  1  0.356318  0.501319  0.941031  1
  Ga  Ga17  1  0.643682  0.498681  0.058969  1
  Ga  Ga18  1  0.014699  0.169485  0.945183  1
  Ga  Ga19  1  0.985301  0.830515  0.054817  1
  Ga  Ga20  1  0.185839  0.500059  0.442060  1
  Ga  Ga21  1  0.814161  0.499941  0.557940  1
  Ga  Ga22  1  0.734237  0.168052  0.182340  1
  Ga  Ga23  1  0.265763  0.831948  0.817660  1
  Ga  Ga24  1  0.058540  0.634735  0.816055  1
  Ga  Ga25  1  0.941460  0.365265  0.183945  1
  Ga  Ga26  1  0.862124  0.041065  0.816286  1
  Ga  Ga27  1  0.137876  0.958935  0.183714  1
  Pt  Pt28  1  0.121653  0.493286  0.638903  1
  Pt  Pt29  1  0.878347  0.506714  0.361097  1
  Pt  Pt30  1  0.658824  0.167861  0.999281  1
  Pt  Pt31  1  0.341176  0.832139  0.000719  1
  Pt  Pt32  1  0.540640  0.164926  0.360442  1
  Pt  Pt33  1  0.459360  0.835074  0.639558  1
  Pt  Pt34  1  0.779667  0.172596  0.637827  1
  Pt  Pt35  1  0.220333  0.827404  0.362173  1
  Pt  Pt36  1  0.000000  0.500000  0.000000  1
