# generated using pymatgen
data_LaPrSi6Pd20Au
_symmetry_space_group_name_H-M   'P 1'
_cell_length_a   8.73408433
_cell_length_b   8.73408345
_cell_length_c   8.73408400
_cell_angle_alpha   59.99999790
_cell_angle_beta   60.00000124
_cell_angle_gamma   59.99999749
_symmetry_Int_Tables_number   1
_chemical_formula_structural   LaPrSi6Pd20Au
_chemical_formula_sum   'La1 Pr1 Si6 Pd20 Au1'
_cell_volume   471.12600084
_cell_formula_units_Z   1
loop_
 _symmetry_equiv_pos_site_id
 _symmetry_equiv_pos_as_xyz
  1  'x, y, z'
loop_
 _atom_site_type_symbol
 _atom_site_label
 _atom_site_symmetry_multiplicity
 _atom_site_fract_x
 _atom_site_fract_y
 _atom_site_fract_z
 _atom_site_occupancy
  La  La0  1  0.250000  0.250000  0.250000  1
  Pr  Pr1  1  0.750000  0.750000  0.750000  1
  Si  Si2  1  0.734084  0.265916  0.265916  1
  Si  Si3  1  0.265916  0.734084  0.734084  1
  Si  Si4  1  0.265916  0.734084  0.265916  1
  Si  Si5  1  0.734084  0.265916  0.734084  1
  Si  Si6  1  0.265916  0.265916  0.734084  1
  Si  Si7  1  0.734084  0.734084  0.265916  1
  Pd  Pd8  1  0.385473  0.385473  0.385473  1
  Pd  Pd9  1  0.614493  0.614493  0.614493  1
  Pd  Pd10  1  0.385473  0.385473  0.843582  1
  Pd  Pd11  1  0.385473  0.843582  0.385473  1
  Pd  Pd12  1  0.614493  0.614493  0.156522  1
  Pd  Pd13  1  0.614493  0.156522  0.614493  1
  Pd  Pd14  1  0.843582  0.385473  0.385473  1
  Pd  Pd15  1  0.156522  0.614493  0.614493  1
  Pd  Pd16  1  0.344121  0.999964  0.999964  1
  Pd  Pd17  1  0.655952  0.999964  0.999964  1
  Pd  Pd18  1  0.999964  0.344121  0.655952  1
  Pd  Pd19  1  0.999964  0.655952  0.344121  1
  Pd  Pd20  1  0.999964  0.344121  0.999964  1
  Pd  Pd21  1  0.655952  0.999964  0.344121  1
  Pd  Pd22  1  0.999964  0.655952  0.999964  1
  Pd  Pd23  1  0.344121  0.999964  0.655952  1
  Pd  Pd24  1  0.999964  0.999964  0.344121  1
  Pd  Pd25  1  0.999964  0.999964  0.655952  1
  Pd  Pd26  1  0.655952  0.344121  0.999964  1
  Pd  Pd27  1  0.344121  0.655952  0.999964  1
  Au  Au28  1  0.000000  0.000000  0.000000  1
