# generated using pymatgen
data_TbYbRuC2
_symmetry_space_group_name_H-M   'P 1'
_cell_length_a   5.11753900
_cell_length_b   6.39700300
_cell_length_c   10.13452500
_cell_angle_alpha   90.00000000
_cell_angle_beta   90.00000000
_cell_angle_gamma   90.00000000
_symmetry_Int_Tables_number   1
_chemical_formula_structural   TbYbRuC2
_chemical_formula_sum   'Tb4 Yb4 Ru4 C8'
_cell_volume   331.77305649
_cell_formula_units_Z   4
loop_
 _symmetry_equiv_pos_site_id
 _symmetry_equiv_pos_as_xyz
  1  'x, y, z'
loop_
 _atom_site_type_symbol
 _atom_site_label
 _atom_site_symmetry_multiplicity
 _atom_site_fract_x
 _atom_site_fract_y
 _atom_site_fract_z
 _atom_site_occupancy
  Tb  Tb0  1  0.250000  0.684055  0.558081  1
  Tb  Tb1  1  0.750000  0.315945  0.441919  1
  Tb  Tb2  1  0.750000  0.815945  0.058081  1
  Tb  Tb3  1  0.250000  0.184055  0.941919  1
  Yb  Yb4  1  0.250000  0.531572  0.220978  1
  Yb  Yb5  1  0.750000  0.468428  0.779022  1
  Yb  Yb6  1  0.750000  0.968428  0.720978  1
  Yb  Yb7  1  0.250000  0.031572  0.279022  1
  Ru  Ru8  1  0.250000  0.719717  0.859442  1
  Ru  Ru9  1  0.750000  0.280283  0.140558  1
  Ru  Ru10  1  0.750000  0.780283  0.359442  1
  Ru  Ru11  1  0.250000  0.219717  0.640558  1
  C  C12  1  0.250000  0.458583  0.756234  1
  C  C13  1  0.750000  0.541417  0.243766  1
  C  C14  1  0.750000  0.041417  0.256234  1
  C  C15  1  0.250000  0.958583  0.743766  1
  C  C16  1  0.250000  0.813401  0.036817  1
  C  C17  1  0.750000  0.186599  0.963183  1
  C  C18  1  0.750000  0.686599  0.536817  1
  C  C19  1  0.250000  0.313401  0.463183  1
