# generated using pymatgen
data_Yb4TmLu3(B6Ru)4
_symmetry_space_group_name_H-M   'P 1'
_cell_length_a   3.62323400
_cell_length_b   9.09126805
_cell_length_c   11.45938107
_cell_angle_alpha   89.98761628
_cell_angle_beta   90.00000000
_cell_angle_gamma   90.00000000
_symmetry_Int_Tables_number   1
_chemical_formula_structural   Yb4TmLu3(B6Ru)4
_chemical_formula_sum   'Yb4 Tm1 Lu3 B24 Ru4'
_cell_volume   377.46961440
_cell_formula_units_Z   1
loop_
 _symmetry_equiv_pos_site_id
 _symmetry_equiv_pos_as_xyz
  1  'x, y, z'
loop_
 _atom_site_type_symbol
 _atom_site_label
 _atom_site_symmetry_multiplicity
 _atom_site_fract_x
 _atom_site_fract_y
 _atom_site_fract_z
 _atom_site_occupancy
  Yb  Yb0  1  0.000000  0.324786  0.415136  1
  Yb  Yb1  1  0.000000  0.675176  0.584992  1
  Yb  Yb2  1  0.000000  0.824754  0.084811  1
  Yb  Yb3  1  0.000000  0.175230  0.915015  1
  Tm  Tm4  1  0.000000  0.942310  0.366998  1
  Lu  Lu5  1  0.000000  0.057888  0.633598  1
  Lu  Lu6  1  0.000000  0.442119  0.133242  1
  Lu  Lu7  1  0.000000  0.557831  0.866587  1
  B  B8  1  0.500000  0.553871  0.433010  1
  B  B9  1  0.500000  0.445794  0.567096  1
  B  B10  1  0.500000  0.054199  0.066864  1
  B  B11  1  0.500000  0.945889  0.932930  1
  B  B12  1  0.500000  0.749484  0.417219  1
  B  B13  1  0.500000  0.249821  0.582776  1
  B  B14  1  0.500000  0.250411  0.082540  1
  B  B15  1  0.500000  0.749667  0.917311  1
  B  B16  1  0.500000  0.791217  0.263803  1
  B  B17  1  0.500000  0.208266  0.736132  1
  B  B18  1  0.500000  0.292016  0.236020  1
  B  B19  1  0.500000  0.708226  0.763890  1
  B  B20  1  0.500000  0.630525  0.184692  1
  B  B21  1  0.500000  0.369339  0.815229  1
  B  B22  1  0.500000  0.131214  0.314799  1
  B  B23  1  0.500000  0.869268  0.684909  1
  B  B24  1  0.500000  0.983359  0.211065  1
  B  B25  1  0.500000  0.017008  0.788609  1
  B  B26  1  0.500000  0.482720  0.288479  1
  B  B27  1  0.500000  0.517086  0.711411  1
  B  B28  1  0.500000  0.595503  0.026002  1
  B  B29  1  0.500000  0.404552  0.973841  1
  B  B30  1  0.500000  0.096358  0.474395  1
  B  B31  1  0.500000  0.904293  0.526851  1
  Ru  Ru32  1  0.000000  0.638833  0.319458  1
  Ru  Ru33  1  0.000000  0.360517  0.680624  1
  Ru  Ru34  1  0.000000  0.140037  0.179916  1
  Ru  Ru35  1  0.000000  0.860436  0.819751  1
