# generated using pymatgen
data_Ce2Ho3Ru2
_symmetry_space_group_name_H-M   'P 1'
_cell_length_a   6.36420032
_cell_length_b   7.02682443
_cell_length_c   8.79408438
_cell_angle_alpha   95.46350125
_cell_angle_beta   111.21358164
_cell_angle_gamma   89.99999651
_symmetry_Int_Tables_number   1
_chemical_formula_structural   Ce2Ho3Ru2
_chemical_formula_sum   'Ce4 Ho6 Ru4'
_cell_volume   364.70644454
_cell_formula_units_Z   2
loop_
 _symmetry_equiv_pos_site_id
 _symmetry_equiv_pos_as_xyz
  1  'x, y, z'
loop_
 _atom_site_type_symbol
 _atom_site_label
 _atom_site_symmetry_multiplicity
 _atom_site_fract_x
 _atom_site_fract_y
 _atom_site_fract_z
 _atom_site_occupancy
  Ce  Ce0  1  0.981525  0.904729  0.189758  1
  Ce  Ce1  1  0.791767  0.595271  0.810242  1
  Ce  Ce2  1  0.018475  0.095271  0.810242  1
  Ce  Ce3  1  0.208233  0.404729  0.189758  1
  Ho  Ho4  1  0.641077  0.815318  0.433450  1
  Ho  Ho5  1  0.207627  0.684682  0.566550  1
  Ho  Ho6  1  0.358923  0.184682  0.566550  1
  Ho  Ho7  1  0.792373  0.315318  0.433450  1
  Ho  Ho8  1  0.419299  0.750000  0.000000  1
  Ho  Ho9  1  0.580701  0.250000  0.000000  1
  Ru  Ru10  1  0.846951  0.592553  0.221027  1
  Ru  Ru11  1  0.625924  0.907447  0.778973  1
  Ru  Ru12  1  0.153049  0.407447  0.778973  1
  Ru  Ru13  1  0.374076  0.092553  0.221027  1
