# generated using pymatgen
data_PrPa3(SnRh2)2
_symmetry_space_group_name_H-M   'P 1'
_cell_length_a   7.72935924
_cell_length_b   7.72935889
_cell_length_c   3.68174400
_cell_angle_alpha   90.00000000
_cell_angle_beta   90.00000000
_cell_angle_gamma   92.50768893
_symmetry_Int_Tables_number   1
_chemical_formula_structural   PrPa3(SnRh2)2
_chemical_formula_sum   'Pr1 Pa3 Sn2 Rh4'
_cell_volume   219.74775953
_cell_formula_units_Z   1
loop_
 _symmetry_equiv_pos_site_id
 _symmetry_equiv_pos_as_xyz
  1  'x, y, z'
loop_
 _atom_site_type_symbol
 _atom_site_label
 _atom_site_symmetry_multiplicity
 _atom_site_fract_x
 _atom_site_fract_y
 _atom_site_fract_z
 _atom_site_occupancy
  Pr  Pr0  1  0.824807  0.675193  0.500000  1
  Pa  Pa1  1  0.674236  0.170237  0.500000  1
  Pa  Pa2  1  0.329763  0.825764  0.500000  1
  Pa  Pa3  1  0.170784  0.329216  0.500000  1
  Sn  Sn4  1  0.002962  0.997192  0.000000  1
  Sn  Sn5  1  0.502808  0.497038  0.000000  1
  Rh  Rh6  1  0.156033  0.623545  0.000000  1
  Rh  Rh7  1  0.876455  0.343967  0.000000  1
  Rh  Rh8  1  0.607254  0.892746  0.000000  1
  Rh  Rh9  1  0.354896  0.145104  0.000000  1
