# generated using pymatgen
data_Li3Sm3SiPb2
_symmetry_space_group_name_H-M   'P 1'
_cell_length_a   7.39896500
_cell_length_b   7.39896519
_cell_length_c   4.56081400
_cell_angle_alpha   90.00000000
_cell_angle_beta   90.00000000
_cell_angle_gamma   120.00001258
_symmetry_Int_Tables_number   1
_chemical_formula_structural   Li3Sm3SiPb2
_chemical_formula_sum   'Li3 Sm3 Si1 Pb2'
_cell_volume   216.22947533
_cell_formula_units_Z   1
loop_
 _symmetry_equiv_pos_site_id
 _symmetry_equiv_pos_as_xyz
  1  'x, y, z'
loop_
 _atom_site_type_symbol
 _atom_site_label
 _atom_site_symmetry_multiplicity
 _atom_site_fract_x
 _atom_site_fract_y
 _atom_site_fract_z
 _atom_site_occupancy
  Li  Li0  1  0.245531  0.013582  0.500000  1
  Li  Li1  1  0.986418  0.231950  0.500000  1
  Li  Li2  1  0.768050  0.754469  0.500000  1
  Sm  Sm3  1  0.565654  0.012820  0.000000  1
  Sm  Sm4  1  0.987180  0.552834  0.000000  1
  Sm  Sm5  1  0.447166  0.434346  0.000000  1
  Si  Si6  1  0.666667  0.333333  0.500000  1
  Pb  Pb7  1  0.333333  0.666667  0.500000  1
  Pb  Pb8  1  0.000000  0.000000  0.000000  1
