# generated using pymatgen
data_Na4HoOsO6
_symmetry_space_group_name_H-M   'P 1'
_cell_length_a   5.66551213
_cell_length_b   5.66551610
_cell_length_c   5.83335861
_cell_angle_alpha   99.53501740
_cell_angle_beta   99.53537332
_cell_angle_gamma   119.88733085
_symmetry_Int_Tables_number   1
_chemical_formula_structural   Na4HoOsO6
_chemical_formula_sum   'Na4 Ho1 Os1 O6'
_cell_volume   153.20161473
_cell_formula_units_Z   1
loop_
 _symmetry_equiv_pos_site_id
 _symmetry_equiv_pos_as_xyz
  1  'x, y, z'
loop_
 _atom_site_type_symbol
 _atom_site_label
 _atom_site_symmetry_multiplicity
 _atom_site_fract_x
 _atom_site_fract_y
 _atom_site_fract_z
 _atom_site_occupancy
  Na  Na0  1  0.499281  0.500716  0.999999  1
  Na  Na1  1  0.011021  0.988989  0.500011  1
  Na  Na2  1  0.657152  0.342845  0.500001  1
  Na  Na3  1  0.336730  0.663258  0.499997  1
  Ho  Ho4  1  0.833021  0.166994  0.999996  1
  Os  Os5  1  0.166972  0.833030  0.000001  1
  O  O6  1  0.951657  0.602229  0.208048  1
  O  O7  1  0.538268  0.921789  0.212895  1
  O  O8  1  0.220790  0.190869  0.213461  1
  O  O9  1  0.809136  0.779211  0.786542  1
  O  O10  1  0.078211  0.461732  0.787104  1
  O  O11  1  0.397766  0.048341  0.791949  1
