# generated using pymatgen
data_Er2Mo3As7Rh9
_symmetry_space_group_name_H-M   'P 1'
_cell_length_a   4.01741000
_cell_length_b   9.86495960
_cell_length_c   9.86374600
_cell_angle_alpha   119.99601104
_cell_angle_beta   90.00188257
_cell_angle_gamma   89.99750228
_symmetry_Int_Tables_number   1
_chemical_formula_structural   Er2Mo3As7Rh9
_chemical_formula_sum   'Er2 Mo3 As7 Rh9'
_cell_volume   338.55671680
_cell_formula_units_Z   1
loop_
 _symmetry_equiv_pos_site_id
 _symmetry_equiv_pos_as_xyz
  1  'x, y, z'
loop_
 _atom_site_type_symbol
 _atom_site_label
 _atom_site_symmetry_multiplicity
 _atom_site_fract_x
 _atom_site_fract_y
 _atom_site_fract_z
 _atom_site_occupancy
  Er  Er0  1  0.261367  0.666519  0.333042  1
  Er  Er1  1  0.762128  0.333449  0.666838  1
  Mo  Mo2  1  0.762047  0.092892  0.873637  1
  Mo  Mo3  1  0.762047  0.126354  0.219447  1
  Mo  Mo4  1  0.762040  0.780672  0.906798  1
  As  As5  1  0.262444  0.000030  0.999960  1
  As  As6  1  0.761725  0.880875  0.591829  1
  As  As7  1  0.761717  0.408202  0.289120  1
  As  As8  1  0.761703  0.710908  0.119114  1
  As  As9  1  0.261880  0.118890  0.412028  1
  As  As10  1  0.261899  0.588052  0.706881  1
  As  As11  1  0.261864  0.293089  0.881123  1
  Rh  Rh12  1  0.261869  0.881516  0.159023  1
  Rh  Rh13  1  0.261895  0.840948  0.722275  1
  Rh  Rh14  1  0.261875  0.277541  0.118651  1
  Rh  Rh15  1  0.761939  0.614185  0.560855  1
  Rh  Rh16  1  0.761912  0.439096  0.053186  1
  Rh  Rh17  1  0.761922  0.946762  0.386047  1
  Rh  Rh18  1  0.261933  0.372090  0.438442  1
  Rh  Rh19  1  0.261890  0.561685  0.933688  1
  Rh  Rh20  1  0.261902  0.066241  0.628019  1
