# generated using pymatgen
data_Hf2Ta3Nb5N12
_symmetry_space_group_name_H-M   'P 1'
_cell_length_a   5.27773398
_cell_length_b   5.28875825
_cell_length_c   10.49477411
_cell_angle_alpha   89.94728057
_cell_angle_beta   90.02641327
_cell_angle_gamma   120.06910222
_symmetry_Int_Tables_number   1
_chemical_formula_structural   Hf2Ta3Nb5N12
_chemical_formula_sum   'Hf2 Ta3 Nb5 N12'
_cell_volume   253.51398714
_cell_formula_units_Z   1
loop_
 _symmetry_equiv_pos_site_id
 _symmetry_equiv_pos_as_xyz
  1  'x, y, z'
loop_
 _atom_site_type_symbol
 _atom_site_label
 _atom_site_symmetry_multiplicity
 _atom_site_fract_x
 _atom_site_fract_y
 _atom_site_fract_z
 _atom_site_occupancy
  Hf  Hf0  1  0.665422  0.331919  0.999945  1
  Hf  Hf1  1  0.334578  0.666498  0.999945  1
  Ta  Ta2  1  0.000000  0.677277  0.253054  1
  Ta  Ta3  1  0.334758  0.667014  0.499778  1
  Ta  Ta4  1  0.665242  0.332255  0.499778  1
  Nb  Nb5  1  0.676707  0.676770  0.746194  1
  Nb  Nb6  1  0.323293  0.000063  0.746194  1
  Nb  Nb7  1  0.000000  0.323904  0.746369  1
  Nb  Nb8  1  0.323569  0.323462  0.254251  1
  Nb  Nb9  1  0.676431  0.999893  0.254251  1
  N  N10  1  0.662480  0.658707  0.382556  1
  N  N11  1  0.337520  0.996227  0.382556  1
  N  N12  1  0.000000  0.346567  0.381708  1
  N  N13  1  0.341938  0.341962  0.617041  1
  N  N14  1  0.658062  0.000024  0.617041  1
  N  N15  1  0.000000  0.656864  0.617202  1
  N  N16  1  0.344492  0.344643  0.873161  1
  N  N17  1  0.655508  0.000152  0.873161  1
  N  N18  1  0.000000  0.654549  0.873008  1
  N  N19  1  0.659451  0.655450  0.127384  1
  N  N20  1  0.340549  0.995999  0.127384  1
  N  N21  1  0.000000  0.349802  0.128037  1
