# generated using pymatgen
data_Dy5V3(Ni4As3)4
_symmetry_space_group_name_H-M   'P 1'
_cell_length_a   12.58368200
_cell_length_b   12.58368075
_cell_length_c   3.85902100
_cell_angle_alpha   90.00000000
_cell_angle_beta   90.00000000
_cell_angle_gamma   119.99999276
_symmetry_Int_Tables_number   1
_chemical_formula_structural   Dy5V3(Ni4As3)4
_chemical_formula_sum   'Dy5 V3 Ni16 As12'
_cell_volume   529.20413849
_cell_formula_units_Z   1
loop_
 _symmetry_equiv_pos_site_id
 _symmetry_equiv_pos_as_xyz
  1  'x, y, z'
loop_
 _atom_site_type_symbol
 _atom_site_label
 _atom_site_symmetry_multiplicity
 _atom_site_fract_x
 _atom_site_fract_y
 _atom_site_fract_z
 _atom_site_occupancy
  Dy  Dy0  1  0.666667  0.333333  0.000000  1
  Dy  Dy1  1  0.333333  0.666667  0.000000  1
  Dy  Dy2  1  0.187503  0.187503  0.500000  1
  Dy  Dy3  1  0.812497  0.000000  0.500000  1
  Dy  Dy4  1  0.000000  0.812497  0.500000  1
  V  V5  1  0.562020  0.562020  0.000000  1
  V  V6  1  0.437980  0.000000  0.000000  1
  V  V7  1  0.000000  0.437980  0.000000  1
  Ni  Ni8  1  0.817726  0.195849  0.000000  1
  Ni  Ni9  1  0.804151  0.621876  0.000000  1
  Ni  Ni10  1  0.378124  0.182274  0.000000  1
  Ni  Ni11  1  0.195849  0.817726  0.000000  1
  Ni  Ni12  1  0.621876  0.804151  0.000000  1
  Ni  Ni13  1  0.182274  0.378124  0.000000  1
  Ni  Ni14  1  0.641770  0.123516  0.500000  1
  Ni  Ni15  1  0.876484  0.518255  0.500000  1
  Ni  Ni16  1  0.481745  0.358230  0.500000  1
  Ni  Ni17  1  0.123516  0.641770  0.500000  1
  Ni  Ni18  1  0.518255  0.876484  0.500000  1
  Ni  Ni19  1  0.358230  0.481745  0.500000  1
  Ni  Ni20  1  0.718691  0.718691  0.500000  1
  Ni  Ni21  1  0.281309  0.000000  0.500000  1
  Ni  Ni22  1  0.000000  0.281309  0.500000  1
  Ni  Ni23  1  0.000000  0.000000  0.000000  1
  As  As24  1  0.366319  0.366319  0.000000  1
  As  As25  1  0.633681  0.000000  0.000000  1
  As  As26  1  0.000000  0.633681  0.000000  1
  As  As27  1  0.835264  0.316185  0.500000  1
  As  As28  1  0.683815  0.519079  0.500000  1
  As  As29  1  0.480921  0.164736  0.500000  1
  As  As30  1  0.316185  0.835264  0.500000  1
  As  As31  1  0.519079  0.683815  0.500000  1
  As  As32  1  0.164736  0.480921  0.500000  1
  As  As33  1  0.821387  0.821387  0.000000  1
  As  As34  1  0.178613  0.000000  0.000000  1
  As  As35  1  0.000000  0.178613  0.000000  1
