# generated using pymatgen
data_Hf18CrGaCoRe7
_symmetry_space_group_name_H-M   'P 1'
_cell_length_a   8.58873700
_cell_length_b   8.58873724
_cell_length_c   8.52459900
_cell_angle_alpha   90.00000000
_cell_angle_beta   90.00000000
_cell_angle_gamma   119.99999520
_symmetry_Int_Tables_number   1
_chemical_formula_structural   Hf18CrGaCoRe7
_chemical_formula_sum   'Hf18 Cr1 Ga1 Co1 Re7'
_cell_volume   544.58193691
_cell_formula_units_Z   1
loop_
 _symmetry_equiv_pos_site_id
 _symmetry_equiv_pos_as_xyz
  1  'x, y, z'
loop_
 _atom_site_type_symbol
 _atom_site_label
 _atom_site_symmetry_multiplicity
 _atom_site_fract_x
 _atom_site_fract_y
 _atom_site_fract_z
 _atom_site_occupancy
  Hf  Hf0  1  0.190560  0.809440  0.451640  1
  Hf  Hf1  1  0.190560  0.381123  0.451640  1
  Hf  Hf2  1  0.618877  0.809440  0.451640  1
  Hf  Hf3  1  0.800718  0.199282  0.556995  1
  Hf  Hf4  1  0.800718  0.601434  0.556995  1
  Hf  Hf5  1  0.398566  0.199282  0.556995  1
  Hf  Hf6  1  0.799637  0.200363  0.942044  1
  Hf  Hf7  1  0.799637  0.599273  0.942044  1
  Hf  Hf8  1  0.400727  0.200363  0.942044  1
  Hf  Hf9  1  0.191763  0.808237  0.047869  1
  Hf  Hf10  1  0.191763  0.383527  0.047869  1
  Hf  Hf11  1  0.616473  0.808237  0.047869  1
  Hf  Hf12  1  0.540431  0.459569  0.250386  1
  Hf  Hf13  1  0.540431  0.080861  0.250386  1
  Hf  Hf14  1  0.919139  0.459569  0.250386  1
  Hf  Hf15  1  0.459459  0.540541  0.749382  1
  Hf  Hf16  1  0.459459  0.918919  0.749382  1
  Hf  Hf17  1  0.081081  0.540541  0.749382  1
  Cr  Cr18  1  0.000000  0.000000  0.501237  1
  Ga  Ga19  1  0.333333  0.666667  0.250624  1
  Co  Co20  1  0.666667  0.333333  0.750157  1
  Re  Re21  1  0.890229  0.109771  0.254315  1
  Re  Re22  1  0.890229  0.780461  0.254315  1
  Re  Re23  1  0.219539  0.109771  0.254315  1
  Re  Re24  1  0.108984  0.891016  0.746574  1
  Re  Re25  1  0.108984  0.217968  0.746574  1
  Re  Re26  1  0.782032  0.891016  0.746574  1
  Re  Re27  1  0.000000  0.000000  0.000367  1
