# generated using pymatgen
data_Dy16TlTc2Hg5
_symmetry_space_group_name_H-M   'P 1'
_cell_length_a   10.28457375
_cell_length_b   10.28457471
_cell_length_c   7.14763000
_cell_angle_alpha   89.71552480
_cell_angle_beta   90.28446408
_cell_angle_gamma   120.38205422
_symmetry_Int_Tables_number   1
_chemical_formula_structural   Dy16TlTc2Hg5
_chemical_formula_sum   'Dy16 Tl1 Tc2 Hg5'
_cell_volume   652.18882289
_cell_formula_units_Z   1
loop_
 _symmetry_equiv_pos_site_id
 _symmetry_equiv_pos_as_xyz
  1  'x, y, z'
loop_
 _atom_site_type_symbol
 _atom_site_label
 _atom_site_symmetry_multiplicity
 _atom_site_fract_x
 _atom_site_fract_y
 _atom_site_fract_z
 _atom_site_occupancy
  Dy  Dy0  1  0.534872  0.074448  0.518620  1
  Dy  Dy1  1  0.925552  0.465128  0.518620  1
  Dy  Dy2  1  0.536095  0.463905  0.524335  1
  Dy  Dy3  1  0.469623  0.927200  0.019709  1
  Dy  Dy4  1  0.072800  0.530377  0.019709  1
  Dy  Dy5  1  0.460436  0.539564  0.017481  1
  Dy  Dy6  1  0.169418  0.344092  0.706039  1
  Dy  Dy7  1  0.655908  0.830582  0.706039  1
  Dy  Dy8  1  0.173782  0.826218  0.723280  1
  Dy  Dy9  1  0.818630  0.649234  0.204387  1
  Dy  Dy10  1  0.350766  0.181370  0.204387  1
  Dy  Dy11  1  0.828787  0.171213  0.213865  1
  Dy  Dy12  1  0.667243  0.332757  0.901668  1
  Dy  Dy13  1  0.333799  0.666201  0.402047  1
  Dy  Dy14  1  0.005298  0.994702  0.491674  1
  Dy  Dy15  1  0.002034  0.997966  0.992810  1
  Tl  Tl16  1  0.164988  0.835012  0.266371  1
  Tc  Tc17  1  0.667057  0.332943  0.282700  1
  Tc  Tc18  1  0.333262  0.666738  0.780880  1
  Hg  Hg19  1  0.832032  0.666329  0.768246  1
  Hg  Hg20  1  0.333671  0.167968  0.768246  1
  Hg  Hg21  1  0.830872  0.169128  0.771796  1
  Hg  Hg22  1  0.168613  0.335539  0.270650  1
  Hg  Hg23  1  0.664461  0.831387  0.270650  1
