# generated using pymatgen
data_Y2HoIn3HgRh2
_symmetry_space_group_name_H-M   'P 1'
_cell_length_a   7.87065479
_cell_length_b   7.87073037
_cell_length_c   3.79412800
_cell_angle_alpha   90.00000000
_cell_angle_beta   90.00000000
_cell_angle_gamma   120.11210933
_symmetry_Int_Tables_number   1
_chemical_formula_structural   Y2HoIn3HgRh2
_chemical_formula_sum   'Y2 Ho1 In3 Hg1 Rh2'
_cell_volume   203.31844640
_cell_formula_units_Z   1
loop_
 _symmetry_equiv_pos_site_id
 _symmetry_equiv_pos_as_xyz
  1  'x, y, z'
loop_
 _atom_site_type_symbol
 _atom_site_label
 _atom_site_symmetry_multiplicity
 _atom_site_fract_x
 _atom_site_fract_y
 _atom_site_fract_z
 _atom_site_occupancy
  Y  Y0  1  0.971795  0.387000  0.500000  1
  Y  Y1  1  0.612741  0.584709  0.500000  1
  Ho  Ho2  1  0.416032  0.029931  0.500000  1
  In  In3  1  0.257469  0.255903  0.000000  1
  In  In4  1  0.999480  0.743113  0.000000  1
  In  In5  1  0.743592  0.001185  0.000000  1
  Hg  Hg6  1  0.333577  0.667801  0.000000  1
  Rh  Rh7  1  0.000998  0.999903  0.500000  1
  Rh  Rh8  1  0.664316  0.330455  0.000000  1
