# generated using pymatgen
data_Gd16Er4Ir11Rh
_symmetry_space_group_name_H-M   'P 1'
_cell_length_a   10.92765500
_cell_length_b   10.92765500
_cell_length_c   6.36321600
_cell_angle_alpha   90.00000000
_cell_angle_beta   90.00000000
_cell_angle_gamma   90.00000000
_symmetry_Int_Tables_number   1
_chemical_formula_structural   Gd16Er4Ir11Rh
_chemical_formula_sum   'Gd16 Er4 Ir11 Rh1'
_cell_volume   759.85480884
_cell_formula_units_Z   1
loop_
 _symmetry_equiv_pos_site_id
 _symmetry_equiv_pos_as_xyz
  1  'x, y, z'
loop_
 _atom_site_type_symbol
 _atom_site_label
 _atom_site_symmetry_multiplicity
 _atom_site_fract_x
 _atom_site_fract_y
 _atom_site_fract_z
 _atom_site_occupancy
  Gd  Gd0  1  0.289783  0.087831  0.380519  1
  Gd  Gd1  1  0.288786  0.912287  0.878286  1
  Gd  Gd2  1  0.711214  0.087713  0.878286  1
  Gd  Gd3  1  0.710217  0.912169  0.380519  1
  Gd  Gd4  1  0.587713  0.788786  0.878286  1
  Gd  Gd5  1  0.587831  0.210217  0.380519  1
  Gd  Gd6  1  0.412169  0.789783  0.380519  1
  Gd  Gd7  1  0.412287  0.211214  0.878286  1
  Gd  Gd8  1  0.210361  0.412224  0.620979  1
  Gd  Gd9  1  0.210094  0.588742  0.121054  1
  Gd  Gd10  1  0.789906  0.411258  0.121054  1
  Gd  Gd11  1  0.789639  0.587776  0.620979  1
  Gd  Gd12  1  0.911258  0.710094  0.121054  1
  Gd  Gd13  1  0.912224  0.289639  0.620979  1
  Gd  Gd14  1  0.087776  0.710361  0.620979  1
  Gd  Gd15  1  0.088742  0.289906  0.121054  1
  Er  Er16  1  0.000000  0.000000  0.499579  1
  Er  Er17  1  0.000000  0.000000  0.999845  1
  Er  Er18  1  0.500000  0.500000  0.999845  1
  Er  Er19  1  0.500000  0.500000  0.499579  1
  Ir  Ir20  1  0.847252  0.150906  0.249760  1
  Ir  Ir21  1  0.847703  0.848451  0.749519  1
  Ir  Ir22  1  0.152297  0.151549  0.749519  1
  Ir  Ir23  1  0.152748  0.849094  0.249760  1
  Ir  Ir24  1  0.651549  0.347703  0.749519  1
  Ir  Ir25  1  0.650906  0.652748  0.249760  1
  Ir  Ir26  1  0.349094  0.347252  0.249760  1
  Ir  Ir27  1  0.348451  0.652297  0.749519  1
  Ir  Ir28  1  0.500000  0.000000  0.625664  1
  Ir  Ir29  1  0.000000  0.500000  0.875889  1
  Ir  Ir30  1  0.000000  0.500000  0.375483  1
  Rh  Rh31  1  0.500000  0.000000  0.123651  1
