# generated using pymatgen
data_Tb5Ho11MgAg3Rh4
_symmetry_space_group_name_H-M   'P 1'
_cell_length_a   9.52896379
_cell_length_b   9.54382447
_cell_length_c   9.54382457
_cell_angle_alpha   60.26078822
_cell_angle_beta   60.23854453
_cell_angle_gamma   60.23853922
_symmetry_Int_Tables_number   1
_chemical_formula_structural   Tb5Ho11MgAg3Rh4
_chemical_formula_sum   'Tb5 Ho11 Mg1 Ag3 Rh4'
_cell_volume   617.14450333
_cell_formula_units_Z   1
loop_
 _symmetry_equiv_pos_site_id
 _symmetry_equiv_pos_as_xyz
  1  'x, y, z'
loop_
 _atom_site_type_symbol
 _atom_site_label
 _atom_site_symmetry_multiplicity
 _atom_site_fract_x
 _atom_site_fract_y
 _atom_site_fract_z
 _atom_site_occupancy
  Tb  Tb0  1  0.564054  0.936116  0.936116  1
  Tb  Tb1  1  0.563663  0.935835  0.564297  1
  Tb  Tb2  1  0.935010  0.563610  0.936412  1
  Tb  Tb3  1  0.563663  0.564297  0.935835  1
  Tb  Tb4  1  0.935010  0.936412  0.563610  1
  Ho  Ho5  1  0.351382  0.349200  0.349200  1
  Ho  Ho6  1  0.350342  0.349189  0.952494  1
  Ho  Ho7  1  0.350342  0.952494  0.349189  1
  Ho  Ho8  1  0.937818  0.354334  0.354334  1
  Ho  Ho9  1  0.811079  0.187657  0.187657  1
  Ho  Ho10  1  0.184887  0.813808  0.813808  1
  Ho  Ho11  1  0.185016  0.813389  0.186576  1
  Ho  Ho12  1  0.810823  0.188121  0.811613  1
  Ho  Ho13  1  0.185016  0.186576  0.813389  1
  Ho  Ho14  1  0.810823  0.811613  0.188121  1
  Ho  Ho15  1  0.933838  0.563508  0.563508  1
  Mg  Mg16  1  0.285900  0.571588  0.571588  1
  Ag  Ag17  1  0.583053  0.583989  0.583989  1
  Ag  Ag18  1  0.582472  0.584632  0.249859  1
  Ag  Ag19  1  0.582472  0.249859  0.584632  1
  Rh  Rh20  1  0.140106  0.144094  0.144094  1
  Rh  Rh21  1  0.140796  0.145868  0.570565  1
  Rh  Rh22  1  0.140796  0.570565  0.145868  1
  Rh  Rh23  1  0.571634  0.143243  0.143243  1
