# generated using pymatgen
data_HfZr7Ti11Si16Mo
_symmetry_space_group_name_H-M   'P 1'
_cell_length_a   6.64744001
_cell_length_b   6.80166319
_cell_length_c   12.95890802
_cell_angle_alpha   89.99525769
_cell_angle_beta   89.99525165
_cell_angle_gamma   89.96510784
_symmetry_Int_Tables_number   1
_chemical_formula_structural   HfZr7Ti11Si16Mo
_chemical_formula_sum   'Hf1 Zr7 Ti11 Si16 Mo1'
_cell_volume   585.91939278
_cell_formula_units_Z   1
loop_
 _symmetry_equiv_pos_site_id
 _symmetry_equiv_pos_as_xyz
  1  'x, y, z'
loop_
 _atom_site_type_symbol
 _atom_site_label
 _atom_site_symmetry_multiplicity
 _atom_site_fract_x
 _atom_site_fract_y
 _atom_site_fract_z
 _atom_site_occupancy
  Hf  Hf0  1  0.501495  0.674748  0.595572  1
  Zr  Zr1  1  0.999630  0.174083  0.094925  1
  Zr  Zr2  1  0.001968  0.827282  0.903110  1
  Zr  Zr3  1  0.500995  0.674306  0.904590  1
  Zr  Zr4  1  0.001905  0.827127  0.596459  1
  Zr  Zr5  1  0.500884  0.326278  0.095162  1
  Zr  Zr6  1  0.999833  0.174363  0.405292  1
  Zr  Zr7  1  0.500751  0.326187  0.405251  1
  Ti  Ti8  1  0.164615  0.493811  0.749786  1
  Ti  Ti9  1  0.834867  0.505178  0.250105  1
  Ti  Ti10  1  0.335524  0.995362  0.250082  1
  Ti  Ti11  1  0.336683  0.172310  0.625171  1
  Ti  Ti12  1  0.662321  0.827216  0.374585  1
  Ti  Ti13  1  0.162731  0.672251  0.374683  1
  Ti  Ti14  1  0.662763  0.827415  0.125807  1
  Ti  Ti15  1  0.835176  0.326954  0.625106  1
  Ti  Ti16  1  0.336836  0.171678  0.874526  1
  Ti  Ti17  1  0.835328  0.326708  0.874410  1
  Ti  Ti18  1  0.162509  0.672260  0.125600  1
  Si  Si19  1  0.038214  0.119232  0.749792  1
  Si  Si20  1  0.960942  0.880239  0.250152  1
  Si  Si21  1  0.461026  0.619901  0.250062  1
  Si  Si22  1  0.537059  0.381993  0.749713  1
  Si  Si23  1  0.297746  0.863959  0.749418  1
  Si  Si24  1  0.703970  0.133021  0.250222  1
  Si  Si25  1  0.203905  0.366563  0.250078  1
  Si  Si26  1  0.796607  0.632832  0.749510  1
  Si  Si27  1  0.170087  0.462779  0.539241  1
  Si  Si28  1  0.830538  0.539512  0.461279  1
  Si  Si29  1  0.330950  0.960552  0.461334  1
  Si  Si30  1  0.830941  0.539297  0.038960  1
  Si  Si31  1  0.668655  0.037302  0.539347  1
  Si  Si32  1  0.168783  0.461809  0.960945  1
  Si  Si33  1  0.669232  0.038239  0.960864  1
  Si  Si34  1  0.330889  0.961357  0.039146  1
  Mo  Mo35  1  0.663641  0.005895  0.749715  1
