# generated using pymatgen
data_YbTmLu2(B6Ru)2
_symmetry_space_group_name_H-M   'P 1'
_cell_length_a   3.60338900
_cell_length_b   9.06091916
_cell_length_c   11.44667307
_cell_angle_alpha   89.86425941
_cell_angle_beta   90.00000000
_cell_angle_gamma   90.00000000
_symmetry_Int_Tables_number   1
_chemical_formula_structural   YbTmLu2(B6Ru)2
_chemical_formula_sum   'Yb2 Tm2 Lu4 B24 Ru4'
_cell_volume   373.73301501
_cell_formula_units_Z   2
loop_
 _symmetry_equiv_pos_site_id
 _symmetry_equiv_pos_as_xyz
  1  'x, y, z'
loop_
 _atom_site_type_symbol
 _atom_site_label
 _atom_site_symmetry_multiplicity
 _atom_site_fract_x
 _atom_site_fract_y
 _atom_site_fract_z
 _atom_site_occupancy
  Yb  Yb0  1  0.000000  0.324460  0.414503  1
  Yb  Yb1  1  0.000000  0.675540  0.585497  1
  Tm  Tm2  1  0.000000  0.822014  0.086212  1
  Tm  Tm3  1  0.000000  0.177986  0.913788  1
  Lu  Lu4  1  0.000000  0.942379  0.370092  1
  Lu  Lu5  1  0.000000  0.057621  0.629908  1
  Lu  Lu6  1  0.000000  0.442960  0.130136  1
  Lu  Lu7  1  0.000000  0.557040  0.869864  1
  B  B8  1  0.500000  0.554479  0.432129  1
  B  B9  1  0.500000  0.445521  0.567871  1
  B  B10  1  0.500000  0.053589  0.066102  1
  B  B11  1  0.500000  0.946411  0.933898  1
  B  B12  1  0.500000  0.749318  0.417879  1
  B  B13  1  0.500000  0.250682  0.582121  1
  B  B14  1  0.500000  0.249149  0.080374  1
  B  B15  1  0.500000  0.750851  0.919626  1
  B  B16  1  0.500000  0.792394  0.264003  1
  B  B17  1  0.500000  0.207606  0.735997  1
  B  B18  1  0.500000  0.290833  0.233969  1
  B  B19  1  0.500000  0.709167  0.766031  1
  B  B20  1  0.500000  0.631271  0.184054  1
  B  B21  1  0.500000  0.368729  0.815946  1
  B  B22  1  0.500000  0.130308  0.314194  1
  B  B23  1  0.500000  0.869692  0.685806  1
  B  B24  1  0.500000  0.982205  0.211588  1
  B  B25  1  0.500000  0.017795  0.788412  1
  B  B26  1  0.500000  0.483361  0.287149  1
  B  B27  1  0.500000  0.516639  0.712851  1
  B  B28  1  0.500000  0.602739  0.028160  1
  B  B29  1  0.500000  0.397261  0.971840  1
  B  B30  1  0.500000  0.098601  0.472786  1
  B  B31  1  0.500000  0.901399  0.527214  1
  Ru  Ru32  1  0.000000  0.640690  0.317819  1
  Ru  Ru33  1  0.000000  0.359310  0.682181  1
  Ru  Ru34  1  0.000000  0.137103  0.177887  1
  Ru  Ru35  1  0.000000  0.862897  0.822113  1
