# generated using pymatgen
data_Y4Al22Ga2Pt9
_symmetry_space_group_name_H-M   'P 1'
_cell_length_a   7.51650466
_cell_length_b   7.52460573
_cell_length_c   13.23799475
_cell_angle_alpha   84.63269631
_cell_angle_beta   100.78559515
_cell_angle_gamma   119.80374251
_symmetry_Int_Tables_number   1
_chemical_formula_structural   Y4Al22Ga2Pt9
_chemical_formula_sum   'Y4 Al22 Ga2 Pt9'
_cell_volume   638.21532928
_cell_formula_units_Z   1
loop_
 _symmetry_equiv_pos_site_id
 _symmetry_equiv_pos_as_xyz
  1  'x, y, z'
loop_
 _atom_site_type_symbol
 _atom_site_label
 _atom_site_symmetry_multiplicity
 _atom_site_fract_x
 _atom_site_fract_y
 _atom_site_fract_z
 _atom_site_occupancy
  Y  Y0  1  0.734927  0.998420  0.192000  1
  Y  Y1  1  0.265073  0.001580  0.808000  1
  Y  Y2  1  0.061643  0.670873  0.192010  1
  Y  Y3  1  0.938357  0.329127  0.807990  1
  Al  Al4  1  0.981358  0.665976  0.945341  1
  Al  Al5  1  0.018642  0.334024  0.054659  1
  Al  Al6  1  0.398020  0.665808  0.816108  1
  Al  Al7  1  0.601980  0.334192  0.183892  1
  Al  Al8  1  0.881837  0.664867  0.668839  1
  Al  Al9  1  0.118163  0.335133  0.331161  1
  Al  Al10  1  0.604503  0.457912  0.815748  1
  Al  Al11  1  0.395497  0.542088  0.184252  1
  Al  Al12  1  0.230948  0.340699  0.668545  1
  Al  Al13  1  0.769052  0.659301  0.331455  1
  Al  Al14  1  0.853623  0.333398  0.558343  1
  Al  Al15  1  0.185873  0.999268  0.558712  1
  Al  Al16  1  0.814127  0.000732  0.441288  1
  Al  Al17  1  0.352188  0.000047  0.054795  1
  Al  Al18  1  0.647812  0.999953  0.945205  1
  Al  Al19  1  0.555289  0.993634  0.669003  1
  Al  Al20  1  0.444711  0.006366  0.330997  1
  Al  Al21  1  0.520976  0.668072  0.560640  1
  Al  Al22  1  0.479024  0.331928  0.439360  1
  Al  Al23  1  0.682499  0.666650  0.047767  1
  Al  Al24  1  0.317501  0.333350  0.952233  1
  Al  Al25  1  0.146377  0.666602  0.441657  1
  Ga  Ga26  1  0.801553  0.863042  0.814910  1
  Ga  Ga27  1  0.198447  0.136958  0.185090  1
  Pt  Pt28  1  0.329125  0.671032  0.000025  1
  Pt  Pt29  1  0.546438  0.325515  0.637280  1
  Pt  Pt30  1  0.453562  0.674485  0.362720  1
  Pt  Pt31  1  0.887819  0.008594  0.636728  1
  Pt  Pt32  1  0.112181  0.991406  0.363272  1
  Pt  Pt33  1  0.670875  0.328968  0.999975  1
  Pt  Pt34  1  0.205119  0.666896  0.638664  1
  Pt  Pt35  1  0.794881  0.333104  0.361336  1
  Pt  Pt36  1  0.000000  0.000000  0.000000  1
