# generated using pymatgen
data_Rb2BaTa6Cl18
_symmetry_space_group_name_H-M   'P 1'
_cell_length_a   10.59898739
_cell_length_b   10.59898868
_cell_length_c   10.59898702
_cell_angle_alpha   54.72958474
_cell_angle_beta   54.72958694
_cell_angle_gamma   54.72958710
_symmetry_Int_Tables_number   1
_chemical_formula_structural   Rb2BaTa6Cl18
_chemical_formula_sum   'Rb2 Ba1 Ta6 Cl18'
_cell_volume   738.57789401
_cell_formula_units_Z   1
loop_
 _symmetry_equiv_pos_site_id
 _symmetry_equiv_pos_as_xyz
  1  'x, y, z'
loop_
 _atom_site_type_symbol
 _atom_site_label
 _atom_site_symmetry_multiplicity
 _atom_site_fract_x
 _atom_site_fract_y
 _atom_site_fract_z
 _atom_site_occupancy
  Rb  Rb0  1  0.276314  0.276314  0.276314  1
  Rb  Rb1  1  0.723686  0.723685  0.723686  1
  Ba  Ba2  1  0.000000  0.000000  0.000000  1
  Ta  Ta3  1  0.641421  0.425559  0.301616  1
  Ta  Ta4  1  0.574441  0.698383  0.358579  1
  Ta  Ta5  1  0.301617  0.641421  0.425559  1
  Ta  Ta6  1  0.698383  0.358578  0.574441  1
  Ta  Ta7  1  0.425559  0.301617  0.641421  1
  Ta  Ta8  1  0.358579  0.574440  0.698384  1
  Cl  Cl9  1  0.818771  0.339901  0.040060  1
  Cl  Cl10  1  0.761504  0.644409  0.097291  1
  Cl  Cl11  1  0.430948  0.578845  0.174613  1
  Cl  Cl12  1  0.660099  0.959940  0.181230  1
  Cl  Cl13  1  0.355591  0.902708  0.238497  1
  Cl  Cl14  1  0.040059  0.818771  0.339901  1
  Cl  Cl15  1  0.902708  0.238497  0.355592  1
  Cl  Cl16  1  0.825387  0.569053  0.421155  1
  Cl  Cl17  1  0.578845  0.174613  0.430948  1
  Cl  Cl18  1  0.421155  0.825386  0.569053  1
  Cl  Cl19  1  0.174613  0.430948  0.578845  1
  Cl  Cl20  1  0.097291  0.761504  0.644408  1
  Cl  Cl21  1  0.959940  0.181228  0.660099  1
  Cl  Cl22  1  0.644408  0.097291  0.761504  1
  Cl  Cl23  1  0.339901  0.040060  0.818770  1
  Cl  Cl24  1  0.569053  0.421155  0.825387  1
  Cl  Cl25  1  0.238497  0.355591  0.902709  1
  Cl  Cl26  1  0.181229  0.660099  0.959940  1
