# generated using pymatgen
data_Pr2Si3Tc14C3
_symmetry_space_group_name_H-M   'P 1'
_cell_length_a   6.93276193
_cell_length_b   6.93276164
_cell_length_c   6.93276107
_cell_angle_alpha   82.53894923
_cell_angle_beta   82.53894766
_cell_angle_gamma   82.53894571
_symmetry_Int_Tables_number   1
_chemical_formula_structural   Pr2Si3Tc14C3
_chemical_formula_sum   'Pr2 Si3 Tc14 C3'
_cell_volume   325.42142070
_cell_formula_units_Z   1
loop_
 _symmetry_equiv_pos_site_id
 _symmetry_equiv_pos_as_xyz
  1  'x, y, z'
loop_
 _atom_site_type_symbol
 _atom_site_label
 _atom_site_symmetry_multiplicity
 _atom_site_fract_x
 _atom_site_fract_y
 _atom_site_fract_z
 _atom_site_occupancy
  Pr  Pr0  1  0.649890  0.649890  0.649890  1
  Pr  Pr1  1  0.350110  0.350110  0.350110  1
  Si  Si2  1  0.000000  0.000000  0.500000  1
  Si  Si3  1  0.500000  0.000000  0.000000  1
  Si  Si4  1  0.000000  0.500000  0.000000  1
  Tc  Tc5  1  0.723531  0.276469  0.000000  1
  Tc  Tc6  1  0.000000  0.723531  0.276469  1
  Tc  Tc7  1  0.276469  0.000000  0.723531  1
  Tc  Tc8  1  0.000000  0.276469  0.723531  1
  Tc  Tc9  1  0.723531  0.000000  0.276469  1
  Tc  Tc10  1  0.276469  0.723531  0.000000  1
  Tc  Tc11  1  0.345329  0.345329  0.862137  1
  Tc  Tc12  1  0.862137  0.345329  0.345329  1
  Tc  Tc13  1  0.345329  0.862137  0.345329  1
  Tc  Tc14  1  0.654671  0.654671  0.137863  1
  Tc  Tc15  1  0.137863  0.654671  0.654671  1
  Tc  Tc16  1  0.654671  0.137863  0.654671  1
  Tc  Tc17  1  0.901656  0.901656  0.901656  1
  Tc  Tc18  1  0.098344  0.098344  0.098344  1
  C  C19  1  0.500000  0.500000  0.000000  1
  C  C20  1  0.000000  0.500000  0.500000  1
  C  C21  1  0.500000  0.000000  0.500000  1
