# generated using pymatgen
data_K6CdSe4
_symmetry_space_group_name_H-M   'P 1'
_cell_length_a   10.49592200
_cell_length_b   10.49592192
_cell_length_c   8.09502900
_cell_angle_alpha   90.00000000
_cell_angle_beta   90.00000000
_cell_angle_gamma   120.00000024
_symmetry_Int_Tables_number   1
_chemical_formula_structural   K6CdSe4
_chemical_formula_sum   'K12 Cd2 Se8'
_cell_volume   772.30745244
_cell_formula_units_Z   2
loop_
 _symmetry_equiv_pos_site_id
 _symmetry_equiv_pos_as_xyz
  1  'x, y, z'
loop_
 _atom_site_type_symbol
 _atom_site_label
 _atom_site_symmetry_multiplicity
 _atom_site_fract_x
 _atom_site_fract_y
 _atom_site_fract_z
 _atom_site_occupancy
  K  K0  1  0.148614  0.297228  0.206710  1
  K  K1  1  0.148614  0.851386  0.206710  1
  K  K2  1  0.702772  0.851386  0.206710  1
  K  K3  1  0.851386  0.702772  0.706710  1
  K  K4  1  0.851386  0.148614  0.706710  1
  K  K5  1  0.297228  0.148614  0.706710  1
  K  K6  1  0.529125  0.058251  0.378646  1
  K  K7  1  0.529125  0.470875  0.378646  1
  K  K8  1  0.941749  0.470875  0.378646  1
  K  K9  1  0.470875  0.941749  0.878646  1
  K  K10  1  0.470875  0.529125  0.878646  1
  K  K11  1  0.058251  0.529125  0.878646  1
  Cd  Cd12  1  0.333333  0.666667  0.499176  1
  Cd  Cd13  1  0.666667  0.333333  0.999176  1
  Se  Se14  1  0.333333  0.666667  0.160851  1
  Se  Se15  1  0.666667  0.333333  0.660851  1
  Se  Se16  1  0.809749  0.619498  0.102295  1
  Se  Se17  1  0.809749  0.190251  0.102295  1
  Se  Se18  1  0.380502  0.190251  0.102295  1
  Se  Se19  1  0.190251  0.380502  0.602295  1
  Se  Se20  1  0.190251  0.809749  0.602295  1
  Se  Se21  1  0.619498  0.809749  0.602295  1
