# generated using pymatgen
data_Pa2Co4Ge3P
_symmetry_space_group_name_H-M   'P 1'
_cell_length_a   3.99414600
_cell_length_b   3.99414600
_cell_length_c   9.54241400
_cell_angle_alpha   90.00000000
_cell_angle_beta   90.00000000
_cell_angle_gamma   90.00000000
_symmetry_Int_Tables_number   1
_chemical_formula_structural   Pa2Co4Ge3P
_chemical_formula_sum   'Pa2 Co4 Ge3 P1'
_cell_volume   152.23206068
_cell_formula_units_Z   1
loop_
 _symmetry_equiv_pos_site_id
 _symmetry_equiv_pos_as_xyz
  1  'x, y, z'
loop_
 _atom_site_type_symbol
 _atom_site_label
 _atom_site_symmetry_multiplicity
 _atom_site_fract_x
 _atom_site_fract_y
 _atom_site_fract_z
 _atom_site_occupancy
  Pa  Pa0  1  0.750000  0.750000  0.247241  1
  Pa  Pa1  1  0.250000  0.250000  0.761600  1
  Co  Co2  1  0.750000  0.250000  0.987685  1
  Co  Co3  1  0.250000  0.750000  0.987685  1
  Co  Co4  1  0.750000  0.750000  0.641601  1
  Co  Co5  1  0.250000  0.250000  0.368075  1
  Ge  Ge6  1  0.750000  0.250000  0.504330  1
  Ge  Ge7  1  0.250000  0.750000  0.504330  1
  Ge  Ge8  1  0.250000  0.250000  0.126479  1
  P  P9  1  0.750000  0.750000  0.870974  1
