# generated using pymatgen
data_Pr2Nd3Y3(CdPd)2
_symmetry_space_group_name_H-M   'P 1'
_cell_length_a   9.92887030
_cell_length_b   9.92887133
_cell_length_c   9.92887100
_cell_angle_alpha   60.00000444
_cell_angle_beta   60.00000101
_cell_angle_gamma   60.00000411
_symmetry_Int_Tables_number   1
_chemical_formula_structural   Pr2Nd3Y3(CdPd)2
_chemical_formula_sum   'Pr4 Nd6 Y6 Cd4 Pd4'
_cell_volume   692.12513659
_cell_formula_units_Z   2
loop_
 _symmetry_equiv_pos_site_id
 _symmetry_equiv_pos_as_xyz
  1  'x, y, z'
loop_
 _atom_site_type_symbol
 _atom_site_label
 _atom_site_symmetry_multiplicity
 _atom_site_fract_x
 _atom_site_fract_y
 _atom_site_fract_z
 _atom_site_occupancy
  Pr  Pr0  1  0.353839  0.353839  0.353839  1
  Pr  Pr1  1  0.353839  0.353839  0.938482  1
  Pr  Pr2  1  0.353839  0.938482  0.353839  1
  Pr  Pr3  1  0.938482  0.353839  0.353839  1
  Nd  Nd4  1  0.935303  0.564697  0.564697  1
  Nd  Nd5  1  0.564697  0.935303  0.935303  1
  Nd  Nd6  1  0.564697  0.935303  0.564697  1
  Nd  Nd7  1  0.935303  0.564697  0.935303  1
  Nd  Nd8  1  0.564697  0.564697  0.935303  1
  Nd  Nd9  1  0.935303  0.935303  0.564697  1
  Y  Y10  1  0.813622  0.186378  0.186378  1
  Y  Y11  1  0.186378  0.813622  0.813622  1
  Y  Y12  1  0.186378  0.813622  0.186378  1
  Y  Y13  1  0.813622  0.186378  0.813622  1
  Y  Y14  1  0.186378  0.186378  0.813622  1
  Y  Y15  1  0.813622  0.813622  0.186378  1
  Cd  Cd16  1  0.580809  0.580809  0.580809  1
  Cd  Cd17  1  0.580809  0.580809  0.257575  1
  Cd  Cd18  1  0.580809  0.257575  0.580809  1
  Cd  Cd19  1  0.257575  0.580809  0.580809  1
  Pd  Pd20  1  0.141842  0.141842  0.141842  1
  Pd  Pd21  1  0.141842  0.141842  0.574473  1
  Pd  Pd22  1  0.141842  0.574473  0.141842  1
  Pd  Pd23  1  0.574473  0.141842  0.141842  1
