# generated using pymatgen
data_TbTc3P4Rh3
_symmetry_space_group_name_H-M   'P 1'
_cell_length_a   6.97462800
_cell_length_b   6.97462834
_cell_length_c   3.79238600
_cell_angle_alpha   90.00000000
_cell_angle_beta   90.00000000
_cell_angle_gamma   119.99998890
_symmetry_Int_Tables_number   1
_chemical_formula_structural   TbTc3P4Rh3
_chemical_formula_sum   'Tb1 Tc3 P4 Rh3'
_cell_volume   159.76635756
_cell_formula_units_Z   1
loop_
 _symmetry_equiv_pos_site_id
 _symmetry_equiv_pos_as_xyz
  1  'x, y, z'
loop_
 _atom_site_type_symbol
 _atom_site_label
 _atom_site_symmetry_multiplicity
 _atom_site_fract_x
 _atom_site_fract_y
 _atom_site_fract_z
 _atom_site_occupancy
  Tb  Tb0  1  0.333333  0.666667  0.000000  1
  Tc  Tc1  1  0.264611  0.132306  0.000000  1
  Tc  Tc2  1  0.867694  0.735389  0.000000  1
  Tc  Tc3  1  0.867694  0.132306  0.000000  1
  P  P4  1  0.666667  0.333333  0.000000  1
  P  P5  1  0.719070  0.859536  0.500000  1
  P  P6  1  0.140464  0.280930  0.500000  1
  P  P7  1  0.140464  0.859536  0.500000  1
  Rh  Rh8  1  0.941934  0.470967  0.500000  1
  Rh  Rh9  1  0.529033  0.058066  0.500000  1
  Rh  Rh10  1  0.529033  0.470967  0.500000  1
