# generated using pymatgen
data_Hf8Ta3Ti9(SiGe)8
_symmetry_space_group_name_H-M   'P 1'
_cell_length_a   6.64780800
_cell_length_b   6.77677812
_cell_length_c   13.06994900
_cell_angle_alpha   90.00000000
_cell_angle_beta   90.00000000
_cell_angle_gamma   89.98916105
_symmetry_Int_Tables_number   1
_chemical_formula_structural   Hf8Ta3Ti9(SiGe)8
_chemical_formula_sum   'Hf8 Ta3 Ti9 Si8 Ge8'
_cell_volume   588.81059978
_cell_formula_units_Z   1
loop_
 _symmetry_equiv_pos_site_id
 _symmetry_equiv_pos_as_xyz
  1  'x, y, z'
loop_
 _atom_site_type_symbol
 _atom_site_label
 _atom_site_symmetry_multiplicity
 _atom_site_fract_x
 _atom_site_fract_y
 _atom_site_fract_z
 _atom_site_occupancy
  Hf  Hf0  1  0.992807  0.175871  0.098541  1
  Hf  Hf1  1  0.006242  0.825092  0.901532  1
  Hf  Hf2  1  0.507137  0.676424  0.901842  1
  Hf  Hf3  1  0.006242  0.825092  0.598468  1
  Hf  Hf4  1  0.493213  0.324366  0.098550  1
  Hf  Hf5  1  0.992807  0.175871  0.401459  1
  Hf  Hf6  1  0.493213  0.324366  0.401450  1
  Hf  Hf7  1  0.507137  0.676424  0.598158  1
  Ta  Ta8  1  0.829389  0.504281  0.250000  1
  Ta  Ta9  1  0.329597  0.995867  0.250000  1
  Ta  Ta10  1  0.670028  0.003569  0.750000  1
  Ti  Ti11  1  0.169651  0.495215  0.750000  1
  Ti  Ti12  1  0.342711  0.169111  0.627325  1
  Ti  Ti13  1  0.658292  0.830032  0.373331  1
  Ti  Ti14  1  0.157963  0.669494  0.373620  1
  Ti  Ti15  1  0.658292  0.830032  0.126669  1
  Ti  Ti16  1  0.841958  0.330083  0.627597  1
  Ti  Ti17  1  0.342711  0.169111  0.872675  1
  Ti  Ti18  1  0.841958  0.330083  0.872403  1
  Ti  Ti19  1  0.157963  0.669494  0.126380  1
  Si  Si20  1  0.047047  0.119931  0.750000  1
  Si  Si21  1  0.954560  0.881213  0.250000  1
  Si  Si22  1  0.454283  0.618820  0.250000  1
  Si  Si23  1  0.542794  0.383317  0.750000  1
  Si  Si24  1  0.299956  0.861565  0.750000  1
  Si  Si25  1  0.698357  0.134305  0.250000  1
  Si  Si26  1  0.198198  0.365577  0.250000  1
  Si  Si27  1  0.805024  0.632630  0.750000  1
  Ge  Ge28  1  0.182614  0.459130  0.538849  1
  Ge  Ge29  1  0.817426  0.541011  0.463426  1
  Ge  Ge30  1  0.317088  0.959239  0.463269  1
  Ge  Ge31  1  0.817426  0.541011  0.036574  1
  Ge  Ge32  1  0.683111  0.042002  0.537031  1
  Ge  Ge33  1  0.182614  0.459130  0.961151  1
  Ge  Ge34  1  0.683111  0.042002  0.962969  1
  Ge  Ge35  1  0.317088  0.959239  0.036731  1
