# generated using pymatgen
data_CuAsPtSe2
_symmetry_space_group_name_H-M   'P 1'
_cell_length_a   8.48503041
_cell_length_b   8.48503057
_cell_length_c   6.13031000
_cell_angle_alpha   90.00000000
_cell_angle_beta   90.00000000
_cell_angle_gamma   153.02034420
_symmetry_Int_Tables_number   1
_chemical_formula_structural   CuAsPtSe2
_chemical_formula_sum   'Cu2 As2 Pt2 Se4'
_cell_volume   200.23188507
_cell_formula_units_Z   2
loop_
 _symmetry_equiv_pos_site_id
 _symmetry_equiv_pos_as_xyz
  1  'x, y, z'
loop_
 _atom_site_type_symbol
 _atom_site_label
 _atom_site_symmetry_multiplicity
 _atom_site_fract_x
 _atom_site_fract_y
 _atom_site_fract_z
 _atom_site_occupancy
  Cu  Cu0  1  0.948193  0.051807  0.233763  1
  Cu  Cu1  1  0.051807  0.948193  0.733763  1
  As  As2  1  0.735934  0.264066  0.628141  1
  As  As3  1  0.264066  0.735934  0.128141  1
  Pt  Pt4  1  0.680312  0.319688  0.245778  1
  Pt  Pt5  1  0.319688  0.680312  0.745778  1
  Se  Se6  1  0.914537  0.085463  0.856749  1
  Se  Se7  1  0.085463  0.914537  0.356749  1
  Se  Se8  1  0.616401  0.383599  0.869568  1
  Se  Se9  1  0.383599  0.616401  0.369568  1
