# generated using pymatgen
data_Hf9Cr(ReN)3
_symmetry_space_group_name_H-M   'P 1'
_cell_length_a   8.53971100
_cell_length_b   8.53971104
_cell_length_c   8.40687500
_cell_angle_alpha   90.00000000
_cell_angle_beta   90.00000000
_cell_angle_gamma   119.99999598
_symmetry_Int_Tables_number   1
_chemical_formula_structural   Hf9Cr(ReN)3
_chemical_formula_sum   'Hf18 Cr2 Re6 N6'
_cell_volume   530.94751006
_cell_formula_units_Z   2
loop_
 _symmetry_equiv_pos_site_id
 _symmetry_equiv_pos_as_xyz
  1  'x, y, z'
loop_
 _atom_site_type_symbol
 _atom_site_label
 _atom_site_symmetry_multiplicity
 _atom_site_fract_x
 _atom_site_fract_y
 _atom_site_fract_z
 _atom_site_occupancy
  Hf  Hf0  1  0.454263  0.908528  0.250000  1
  Hf  Hf1  1  0.545737  0.091472  0.750000  1
  Hf  Hf2  1  0.091472  0.545737  0.250000  1
  Hf  Hf3  1  0.908528  0.454263  0.750000  1
  Hf  Hf4  1  0.454263  0.545737  0.250000  1
  Hf  Hf5  1  0.545737  0.454263  0.750000  1
  Hf  Hf6  1  0.202890  0.405781  0.557205  1
  Hf  Hf7  1  0.797110  0.594219  0.442795  1
  Hf  Hf8  1  0.594219  0.797110  0.557205  1
  Hf  Hf9  1  0.797110  0.594219  0.057205  1
  Hf  Hf10  1  0.405781  0.202890  0.442795  1
  Hf  Hf11  1  0.202890  0.405781  0.942795  1
  Hf  Hf12  1  0.202890  0.797110  0.557205  1
  Hf  Hf13  1  0.405781  0.202890  0.057205  1
  Hf  Hf14  1  0.797110  0.202890  0.442795  1
  Hf  Hf15  1  0.594219  0.797110  0.942795  1
  Hf  Hf16  1  0.797110  0.202890  0.057205  1
  Hf  Hf17  1  0.202890  0.797110  0.942795  1
  Cr  Cr18  1  0.000000  0.000000  0.000000  1
  Cr  Cr19  1  0.000000  0.000000  0.500000  1
  Re  Re20  1  0.106001  0.212002  0.250000  1
  Re  Re21  1  0.893999  0.787998  0.750000  1
  Re  Re22  1  0.787998  0.893999  0.250000  1
  Re  Re23  1  0.212002  0.106001  0.750000  1
  Re  Re24  1  0.106001  0.893999  0.250000  1
  Re  Re25  1  0.893999  0.106001  0.750000  1
  N  N26  1  0.500000  0.000000  0.000000  1
  N  N27  1  0.000000  0.500000  0.000000  1
  N  N28  1  0.500000  0.000000  0.500000  1
  N  N29  1  0.500000  0.500000  0.000000  1
  N  N30  1  0.000000  0.500000  0.500000  1
  N  N31  1  0.500000  0.500000  0.500000  1
