# generated using pymatgen
data_Tb3Cd5Ir
_symmetry_space_group_name_H-M   'P 1'
_cell_length_a   8.12918200
_cell_length_b   8.12918326
_cell_length_c   3.79907800
_cell_angle_alpha   90.00000000
_cell_angle_beta   90.00000000
_cell_angle_gamma   120.00000302
_symmetry_Int_Tables_number   1
_chemical_formula_structural   Tb3Cd5Ir
_chemical_formula_sum   'Tb3 Cd5 Ir1'
_cell_volume   217.42155111
_cell_formula_units_Z   1
loop_
 _symmetry_equiv_pos_site_id
 _symmetry_equiv_pos_as_xyz
  1  'x, y, z'
loop_
 _atom_site_type_symbol
 _atom_site_label
 _atom_site_symmetry_multiplicity
 _atom_site_fract_x
 _atom_site_fract_y
 _atom_site_fract_z
 _atom_site_occupancy
  Tb  Tb0  1  0.425931  0.382215  0.000000  1
  Tb  Tb1  1  0.617785  0.043716  0.000000  1
  Tb  Tb2  1  0.956284  0.574069  0.000000  1
  Cd  Cd3  1  0.000000  0.000000  0.000000  1
  Cd  Cd4  1  0.333333  0.666667  0.500000  1
  Cd  Cd5  1  0.006879  0.279184  0.500000  1
  Cd  Cd6  1  0.720816  0.727696  0.500000  1
  Cd  Cd7  1  0.272304  0.993121  0.500000  1
  Ir  Ir8  1  0.666667  0.333333  0.500000  1
