# generated using pymatgen
data_Sc21Pa3Mn5Co3
_symmetry_space_group_name_H-M   'P 1'
_cell_length_a   5.88122435
_cell_length_b   8.61343600
_cell_length_c   13.18271806
_cell_angle_alpha   90.00000000
_cell_angle_beta   90.51439827
_cell_angle_gamma   90.00000000
_symmetry_Int_Tables_number   1
_chemical_formula_structural   Sc21Pa3Mn5Co3
_chemical_formula_sum   'Sc21 Pa3 Mn5 Co3'
_cell_volume   667.77727993
_cell_formula_units_Z   1
loop_
 _symmetry_equiv_pos_site_id
 _symmetry_equiv_pos_as_xyz
  1  'x, y, z'
loop_
 _atom_site_type_symbol
 _atom_site_label
 _atom_site_symmetry_multiplicity
 _atom_site_fract_x
 _atom_site_fract_y
 _atom_site_fract_z
 _atom_site_occupancy
  Sc  Sc0  1  0.946650  0.750000  0.855735  1
  Sc  Sc1  1  0.781116  0.750000  0.100063  1
  Sc  Sc2  1  0.319766  0.250000  0.391863  1
  Sc  Sc3  1  0.184922  0.250000  0.893024  1
  Sc  Sc4  1  0.698525  0.750000  0.612716  1
  Sc  Sc5  1  0.401027  0.932539  0.791346  1
  Sc  Sc6  1  0.904551  0.064510  0.712268  1
  Sc  Sc7  1  0.594889  0.432011  0.209481  1
  Sc  Sc8  1  0.094345  0.565807  0.290151  1
  Sc  Sc9  1  0.594889  0.067989  0.209481  1
  Sc  Sc10  1  0.094345  0.934193  0.290151  1
  Sc  Sc11  1  0.401027  0.567461  0.791346  1
  Sc  Sc12  1  0.904551  0.435490  0.712268  1
  Sc  Sc13  1  0.239924  0.935727  0.534841  1
  Sc  Sc14  1  0.737226  0.065818  0.962677  1
  Sc  Sc15  1  0.767984  0.433514  0.467209  1
  Sc  Sc16  1  0.259617  0.566690  0.034907  1
  Sc  Sc17  1  0.767984  0.066486  0.467209  1
  Sc  Sc18  1  0.259617  0.933310  0.034907  1
  Sc  Sc19  1  0.239924  0.564273  0.534841  1
  Sc  Sc20  1  0.737226  0.434182  0.962677  1
  Pa  Pa21  1  0.589148  0.750000  0.353847  1
  Pa  Pa22  1  0.065675  0.250000  0.149141  1
  Pa  Pa23  1  0.432452  0.250000  0.650389  1
  Mn  Mn24  1  0.913404  0.750000  0.440542  1
  Mn  Mn25  1  0.407065  0.250000  0.061626  1
  Mn  Mn26  1  0.095421  0.250000  0.561449  1
  Mn  Mn27  1  0.917643  0.250000  0.304743  1
  Mn  Mn28  1  0.586500  0.250000  0.806309  1
  Co  Co29  1  0.548573  0.750000  0.938706  1
  Co  Co30  1  0.399083  0.750000  0.192334  1
  Co  Co31  1  0.114933  0.750000  0.681751  1
