# generated using pymatgen
data_Dy8In2IrRh
_symmetry_space_group_name_H-M   'P 1'
_cell_length_a   9.67813991
_cell_length_b   9.65851562
_cell_length_c   9.65851542
_cell_angle_alpha   59.88975339
_cell_angle_beta   59.93276481
_cell_angle_gamma   59.93276412
_symmetry_Int_Tables_number   1
_chemical_formula_structural   Dy8In2IrRh
_chemical_formula_sum   'Dy16 In4 Ir2 Rh2'
_cell_volume   637.22548348
_cell_formula_units_Z   2
loop_
 _symmetry_equiv_pos_site_id
 _symmetry_equiv_pos_as_xyz
  1  'x, y, z'
loop_
 _atom_site_type_symbol
 _atom_site_label
 _atom_site_symmetry_multiplicity
 _atom_site_fract_x
 _atom_site_fract_y
 _atom_site_fract_z
 _atom_site_occupancy
  Dy  Dy0  1  0.689639  0.310361  0.310361  1
  Dy  Dy1  1  0.689546  0.689568  0.311064  1
  Dy  Dy2  1  0.309822  0.689568  0.311064  1
  Dy  Dy3  1  0.938446  0.939114  0.561108  1
  Dy  Dy4  1  0.150539  0.149632  0.549289  1
  Dy  Dy5  1  0.561332  0.939114  0.561108  1
  Dy  Dy6  1  0.151164  0.150501  0.150501  1
  Dy  Dy7  1  0.309822  0.311064  0.689568  1
  Dy  Dy8  1  0.939725  0.560275  0.560275  1
  Dy  Dy9  1  0.561332  0.561108  0.939114  1
  Dy  Dy10  1  0.562239  0.937761  0.937761  1
  Dy  Dy11  1  0.938446  0.561108  0.939114  1
  Dy  Dy12  1  0.150539  0.549289  0.149632  1
  Dy  Dy13  1  0.310570  0.689430  0.689430  1
  Dy  Dy14  1  0.689546  0.311064  0.689568  1
  Dy  Dy15  1  0.547834  0.150501  0.150501  1
  In  In16  1  0.916984  0.917327  0.248704  1
  In  In17  1  0.249086  0.917156  0.917156  1
  In  In18  1  0.916984  0.248704  0.917327  1
  In  In19  1  0.916601  0.917156  0.917156  1
  Ir  Ir20  1  0.358042  0.358039  0.358039  1
  Ir  Ir21  1  0.925881  0.358039  0.358039  1
  Rh  Rh22  1  0.357940  0.358164  0.925956  1
  Rh  Rh23  1  0.357940  0.925956  0.358164  1
