# generated using pymatgen
data_SmY3Hf4F28
_symmetry_space_group_name_H-M   'P 1'
_cell_length_a   5.74869757
_cell_length_b   9.10440191
_cell_length_c   12.22927908
_cell_angle_alpha   62.30195707
_cell_angle_beta   89.97630139
_cell_angle_gamma   90.00733534
_symmetry_Int_Tables_number   1
_chemical_formula_structural   SmY3Hf4F28
_chemical_formula_sum   'Sm1 Y3 Hf4 F28'
_cell_volume   566.71649336
_cell_formula_units_Z   1
loop_
 _symmetry_equiv_pos_site_id
 _symmetry_equiv_pos_as_xyz
  1  'x, y, z'
loop_
 _atom_site_type_symbol
 _atom_site_label
 _atom_site_symmetry_multiplicity
 _atom_site_fract_x
 _atom_site_fract_y
 _atom_site_fract_z
 _atom_site_occupancy
  Sm  Sm0  1  0.756550  0.814764  0.766543  1
  Y  Y1  1  0.743529  0.815373  0.266268  1
  Y  Y2  1  0.243502  0.185817  0.233724  1
  Y  Y3  1  0.256827  0.188007  0.733403  1
  Hf  Hf4  1  0.743979  0.275825  0.453942  1
  Hf  Hf5  1  0.244509  0.725755  0.047193  1
  Hf  Hf6  1  0.255240  0.725936  0.542639  1
  Hf  Hf7  1  0.755462  0.271840  0.956145  1
  F  F8  1  0.460964  0.709812  0.924770  1
  F  F9  1  0.963221  0.289277  0.576457  1
  F  F10  1  0.535683  0.287854  0.077507  1
  F  F11  1  0.035336  0.710721  0.421239  1
  F  F12  1  0.457651  0.282428  0.547572  1
  F  F13  1  0.958249  0.716315  0.955344  1
  F  F14  1  0.543658  0.718348  0.450780  1
  F  F15  1  0.041998  0.280400  0.049046  1
  F  F16  1  0.767684  0.519347  0.860072  1
  F  F17  1  0.267160  0.477563  0.639745  1
  F  F18  1  0.233983  0.477052  0.142015  1
  F  F19  1  0.733015  0.523757  0.358209  1
  F  F20  1  0.759836  0.024486  0.057124  1
  F  F21  1  0.259696  0.973482  0.442603  1
  F  F22  1  0.239760  0.972743  0.944336  1
  F  F23  1  0.739884  0.028328  0.554284  1
  F  F24  1  0.987562  0.731921  0.645526  1
  F  F25  1  0.487523  0.266566  0.852545  1
  F  F26  1  0.011192  0.266621  0.351138  1
  F  F27  1  0.512588  0.733598  0.149619  1
  F  F28  1  0.035646  0.745842  0.172727  1
  F  F29  1  0.534853  0.254649  0.328620  1
  F  F30  1  0.964329  0.253138  0.829680  1
  F  F31  1  0.460058  0.744076  0.669824  1
  F  F32  1  0.428019  0.973283  0.234789  1
  F  F33  1  0.928578  0.027351  0.265227  1
  F  F34  1  0.572171  0.033006  0.765756  1
  F  F35  1  0.080105  0.974724  0.733586  1
