# generated using pymatgen
data_Sm4Ho4Cu3Si12Rh
_symmetry_space_group_name_H-M   'P 1'
_cell_length_a   8.06604531
_cell_length_b   8.06777219
_cell_length_c   8.21794817
_cell_angle_alpha   89.97693781
_cell_angle_beta   90.01246565
_cell_angle_gamma   120.02280712
_symmetry_Int_Tables_number   1
_chemical_formula_structural   Sm4Ho4Cu3Si12Rh
_chemical_formula_sum   'Sm4 Ho4 Cu3 Si12 Rh1'
_cell_volume   463.02924631
_cell_formula_units_Z   1
loop_
 _symmetry_equiv_pos_site_id
 _symmetry_equiv_pos_as_xyz
  1  'x, y, z'
loop_
 _atom_site_type_symbol
 _atom_site_label
 _atom_site_symmetry_multiplicity
 _atom_site_fract_x
 _atom_site_fract_y
 _atom_site_fract_z
 _atom_site_occupancy
  Sm  Sm0  1  0.999582  0.999770  0.249782  1
  Sm  Sm1  1  0.999756  0.999855  0.749784  1
  Sm  Sm2  1  0.499298  0.500443  0.248777  1
  Sm  Sm3  1  0.499356  0.998852  0.248748  1
  Ho  Ho4  1  0.002667  0.501296  0.247460  1
  Ho  Ho5  1  0.499014  0.500792  0.751751  1
  Ho  Ho6  1  0.499050  0.998259  0.751759  1
  Ho  Ho7  1  0.002006  0.500983  0.752156  1
  Cu  Cu8  1  0.332809  0.666522  0.506417  1
  Cu  Cu9  1  0.667675  0.333817  0.507203  1
  Cu  Cu10  1  0.667443  0.333936  0.994407  1
  Si  Si11  1  0.169155  0.829765  0.501246  1
  Si  Si12  1  0.169239  0.339428  0.501234  1
  Si  Si13  1  0.661259  0.830561  0.502691  1
  Si  Si14  1  0.831359  0.170001  0.501832  1
  Si  Si15  1  0.831362  0.661320  0.501783  1
  Si  Si16  1  0.338738  0.169350  0.503367  1
  Si  Si17  1  0.831672  0.168815  0.998144  1
  Si  Si18  1  0.831850  0.663169  0.998139  1
  Si  Si19  1  0.336628  0.168282  0.996963  1
  Si  Si20  1  0.167417  0.831183  0.997817  1
  Si  Si21  1  0.167282  0.335981  0.997822  1
  Si  Si22  1  0.663227  0.831625  0.996426  1
  Rh  Rh23  1  0.332158  0.665994  0.994292  1
