# generated using pymatgen
data_Tb2PrAg(Ir2O7)2
_symmetry_space_group_name_H-M   'P 1'
_cell_length_a   7.39325434
_cell_length_b   7.39518185
_cell_length_c   7.21979498
_cell_angle_alpha   58.92831844
_cell_angle_beta   59.20201819
_cell_angle_gamma   60.00862762
_symmetry_Int_Tables_number   1
_chemical_formula_structural   Tb2PrAg(Ir2O7)2
_chemical_formula_sum   'Tb2 Pr1 Ag1 Ir4 O14'
_cell_volume   275.12723088
_cell_formula_units_Z   1
loop_
 _symmetry_equiv_pos_site_id
 _symmetry_equiv_pos_as_xyz
  1  'x, y, z'
loop_
 _atom_site_type_symbol
 _atom_site_label
 _atom_site_symmetry_multiplicity
 _atom_site_fract_x
 _atom_site_fract_y
 _atom_site_fract_z
 _atom_site_occupancy
  Tb  Tb0  1  0.125000  0.125000  0.125000  1
  Tb  Tb1  1  0.625000  0.125000  0.125000  1
  Pr  Pr2  1  0.125000  0.625000  0.125000  1
  Ag  Ag3  1  0.125000  0.125000  0.625000  1
  Ir  Ir4  1  0.625000  0.625000  0.625000  1
  Ir  Ir5  1  0.125000  0.625000  0.625000  1
  Ir  Ir6  1  0.625000  0.125000  0.625000  1
  Ir  Ir7  1  0.625000  0.625000  0.125000  1
  O  O8  1  0.947421  0.554204  0.550953  1
  O  O9  1  0.301439  0.299784  0.707747  1
  O  O10  1  0.957249  0.533644  0.963628  1
  O  O11  1  0.710586  0.291563  0.287265  1
  O  O12  1  0.545478  0.533644  0.963628  1
  O  O13  1  0.558969  0.950216  0.542253  1
  O  O14  1  0.539414  0.958437  0.962735  1
  O  O15  1  0.255428  0.237195  0.251948  1
  O  O16  1  0.302579  0.695796  0.699047  1
  O  O17  1  0.691031  0.299784  0.707747  1
  O  O18  1  0.994572  0.012805  0.998052  1
  O  O19  1  0.948561  0.950216  0.542253  1
  O  O20  1  0.292751  0.716356  0.286372  1
  O  O21  1  0.704522  0.716356  0.286372  1
