# generated using pymatgen
data_NdAl5Ag6
_symmetry_space_group_name_H-M   'P 1'
_cell_length_a   11.08811657
_cell_length_b   8.68801588
_cell_length_c   8.57072032
_cell_angle_alpha   79.94844839
_cell_angle_beta   50.49025730
_cell_angle_gamma   49.56130582
_symmetry_Int_Tables_number   1
_chemical_formula_structural   NdAl5Ag6
_chemical_formula_sum   'Nd2 Al10 Ag12'
_cell_volume   443.16561109
_cell_formula_units_Z   2
loop_
 _symmetry_equiv_pos_site_id
 _symmetry_equiv_pos_as_xyz
  1  'x, y, z'
loop_
 _atom_site_type_symbol
 _atom_site_label
 _atom_site_symmetry_multiplicity
 _atom_site_fract_x
 _atom_site_fract_y
 _atom_site_fract_z
 _atom_site_occupancy
  Nd  Nd0  1  0.000000  0.000000  0.000000  1
  Nd  Nd1  1  0.250000  0.250000  0.250000  1
  Al  Al2  1  0.500000  0.500000  0.500000  1
  Al  Al3  1  0.750000  0.750000  0.750000  1
  Al  Al4  1  0.763465  0.068877  0.813269  1
  Al  Al5  1  0.813269  0.354392  0.763465  1
  Al  Al6  1  0.068877  0.763465  0.354392  1
  Al  Al7  1  0.354392  0.813269  0.068877  1
  Al  Al8  1  0.486535  0.181123  0.436731  1
  Al  Al9  1  0.436731  0.895608  0.486535  1
  Al  Al10  1  0.181123  0.486535  0.895608  1
  Al  Al11  1  0.895608  0.436731  0.181123  1
  Ag  Ag12  1  0.625000  0.125000  0.625000  1
  Ag  Ag13  1  0.625000  0.625000  0.625000  1
  Ag  Ag14  1  0.125000  0.625000  0.625000  1
  Ag  Ag15  1  0.625000  0.625000  0.125000  1
  Ag  Ag16  1  0.508199  0.397988  0.173847  1
  Ag  Ag17  1  0.173847  0.919964  0.508199  1
  Ag  Ag18  1  0.397988  0.508199  0.919964  1
  Ag  Ag19  1  0.919964  0.173847  0.397988  1
  Ag  Ag20  1  0.741801  0.852012  0.076153  1
  Ag  Ag21  1  0.076153  0.330036  0.741801  1
  Ag  Ag22  1  0.852012  0.741801  0.330036  1
  Ag  Ag23  1  0.330036  0.076153  0.852012  1
