# generated using pymatgen
data_Ti20Ga3As5P4
_symmetry_space_group_name_H-M   'P 1'
_cell_length_a   6.64873516
_cell_length_b   7.71422143
_cell_length_c   9.83601070
_cell_angle_alpha   89.99146452
_cell_angle_beta   90.08442750
_cell_angle_gamma   90.03741365
_symmetry_Int_Tables_number   1
_chemical_formula_structural   Ti20Ga3As5P4
_chemical_formula_sum   'Ti20 Ga3 As5 P4'
_cell_volume   504.48651076
_cell_formula_units_Z   1
loop_
 _symmetry_equiv_pos_site_id
 _symmetry_equiv_pos_as_xyz
  1  'x, y, z'
loop_
 _atom_site_type_symbol
 _atom_site_label
 _atom_site_symmetry_multiplicity
 _atom_site_fract_x
 _atom_site_fract_y
 _atom_site_fract_z
 _atom_site_occupancy
  Ti  Ti0  1  0.810496  0.553020  0.056701  1
  Ti  Ti1  1  0.686181  0.945097  0.556861  1
  Ti  Ti2  1  0.188616  0.053400  0.943660  1
  Ti  Ti3  1  0.316763  0.446432  0.439681  1
  Ti  Ti4  1  0.187269  0.448722  0.940833  1
  Ti  Ti5  1  0.317496  0.053480  0.435021  1
  Ti  Ti6  1  0.814902  0.948289  0.063528  1
  Ti  Ti7  1  0.682404  0.552997  0.563434  1
  Ti  Ti8  1  0.170527  0.754485  0.222613  1
  Ti  Ti9  1  0.333226  0.741834  0.722544  1
  Ti  Ti10  1  0.831715  0.257242  0.775827  1
  Ti  Ti11  1  0.662897  0.246456  0.279716  1
  Ti  Ti12  1  0.470942  0.749113  0.001271  1
  Ti  Ti13  1  0.026828  0.749418  0.501414  1
  Ti  Ti14  1  0.529423  0.252050  0.999376  1
  Ti  Ti15  1  0.975277  0.249603  0.497992  1
  Ti  Ti16  1  0.649809  0.750380  0.293771  1
  Ti  Ti17  1  0.849420  0.747596  0.791397  1
  Ti  Ti18  1  0.349562  0.253841  0.707448  1
  Ti  Ti19  1  0.147450  0.247797  0.207972  1
  Ga  Ga20  1  0.930826  0.507449  0.323060  1
  Ga  Ga21  1  0.568342  0.993184  0.821726  1
  Ga  Ga22  1  0.068807  0.007094  0.678383  1
  As  As23  1  0.430399  0.490165  0.177156  1
  As  As24  1  0.069019  0.490774  0.672711  1
  As  As25  1  0.430953  0.009552  0.172666  1
  As  As26  1  0.930475  0.990194  0.326881  1
  As  As27  1  0.569776  0.509522  0.825422  1
  P  P28  1  0.404402  0.750052  0.477718  1
  P  P29  1  0.091253  0.751562  0.976846  1
  P  P30  1  0.596854  0.248477  0.525576  1
  P  P31  1  0.907690  0.250724  0.020794  1
