# generated using pymatgen
data_CrFe3Cl16
_symmetry_space_group_name_H-M   'P 1'
_cell_length_a   7.01279620
_cell_length_b   11.08101764
_cell_length_c   10.40013221
_cell_angle_alpha   77.87059039
_cell_angle_beta   88.29868050
_cell_angle_gamma   91.34504167
_symmetry_Int_Tables_number   1
_chemical_formula_structural   CrFe3Cl16
_chemical_formula_sum   'Cr1 Fe3 Cl16'
_cell_volume   789.42732701
_cell_formula_units_Z   1
loop_
 _symmetry_equiv_pos_site_id
 _symmetry_equiv_pos_as_xyz
  1  'x, y, z'
loop_
 _atom_site_type_symbol
 _atom_site_label
 _atom_site_symmetry_multiplicity
 _atom_site_fract_x
 _atom_site_fract_y
 _atom_site_fract_z
 _atom_site_occupancy
  Cr  Cr0  1  0.571171  0.249373  0.144088  1
  Fe  Fe1  1  0.927824  0.249234  0.645259  1
  Fe  Fe2  1  0.430070  0.751167  0.855041  1
  Fe  Fe3  1  0.071388  0.750352  0.355619  1
  Cl  Cl4  1  0.044652  0.397071  0.722445  1
  Cl  Cl5  1  0.561377  0.589092  0.821148  1
  Cl  Cl6  1  0.934843  0.585830  0.324482  1
  Cl  Cl7  1  0.428514  0.394718  0.204698  1
  Cl  Cl8  1  0.964086  0.094269  0.801585  1
  Cl  Cl9  1  0.417455  0.920855  0.715601  1
  Cl  Cl10  1  0.095862  0.920127  0.214587  1
  Cl  Cl11  1  0.563292  0.093556  0.300566  1
  Cl  Cl12  1  0.042601  0.186772  0.479893  1
  Cl  Cl13  1  0.603973  0.800972  0.000766  1
  Cl  Cl14  1  0.892716  0.797552  0.505112  1
  Cl  Cl15  1  0.434320  0.204293  0.981722  1
  Cl  Cl16  1  0.659749  0.318204  0.577801  1
  Cl  Cl17  1  0.138001  0.693316  0.882143  1
  Cl  Cl18  1  0.360672  0.698099  0.376530  1
  Cl  Cl19  1  0.857432  0.305150  0.090913  1
