# generated using pymatgen
data_Lu24MnTc7
_symmetry_space_group_name_H-M   'P 1'
_cell_length_a   6.09418486
_cell_length_b   8.98389400
_cell_length_c   14.59973572
_cell_angle_alpha   90.00000000
_cell_angle_beta   90.01338285
_cell_angle_gamma   90.00000000
_symmetry_Int_Tables_number   1
_chemical_formula_structural   Lu24MnTc7
_chemical_formula_sum   'Lu24 Mn1 Tc7'
_cell_volume   799.32836644
_cell_formula_units_Z   1
loop_
 _symmetry_equiv_pos_site_id
 _symmetry_equiv_pos_as_xyz
  1  'x, y, z'
loop_
 _atom_site_type_symbol
 _atom_site_label
 _atom_site_symmetry_multiplicity
 _atom_site_fract_x
 _atom_site_fract_y
 _atom_site_fract_z
 _atom_site_occupancy
  Lu  Lu0  1  0.531040  0.750000  0.354214  1
  Lu  Lu1  1  0.029653  0.250000  0.146022  1
  Lu  Lu2  1  0.468740  0.250000  0.646241  1
  Lu  Lu3  1  0.970066  0.750000  0.852340  1
  Lu  Lu4  1  0.780762  0.750000  0.109688  1
  Lu  Lu5  1  0.282037  0.250000  0.391103  1
  Lu  Lu6  1  0.218505  0.250000  0.889868  1
  Lu  Lu7  1  0.712441  0.750000  0.609698  1
  Lu  Lu8  1  0.443667  0.936674  0.790013  1
  Lu  Lu9  1  0.938964  0.065622  0.709963  1
  Lu  Lu10  1  0.558613  0.435762  0.209999  1
  Lu  Lu11  1  0.059293  0.564251  0.289968  1
  Lu  Lu12  1  0.558613  0.064238  0.209999  1
  Lu  Lu13  1  0.059293  0.935749  0.289968  1
  Lu  Lu14  1  0.443667  0.563326  0.790013  1
  Lu  Lu15  1  0.938964  0.434378  0.709963  1
  Lu  Lu16  1  0.242717  0.939187  0.534791  1
  Lu  Lu17  1  0.741811  0.061826  0.965200  1
  Lu  Lu18  1  0.758568  0.438663  0.465227  1
  Lu  Lu19  1  0.257813  0.562090  0.034702  1
  Lu  Lu20  1  0.758568  0.061337  0.465227  1
  Lu  Lu21  1  0.257813  0.937910  0.034702  1
  Lu  Lu22  1  0.242717  0.560813  0.534791  1
  Lu  Lu23  1  0.741811  0.438174  0.965200  1
  Mn  Mn24  1  0.155041  0.750000  0.681053  1
  Tc  Tc25  1  0.929534  0.750000  0.443503  1
  Tc  Tc26  1  0.428564  0.250000  0.058979  1
  Tc  Tc27  1  0.071014  0.250000  0.559484  1
  Tc  Tc28  1  0.571770  0.750000  0.939698  1
  Tc  Tc29  1  0.347517  0.750000  0.182760  1
  Tc  Tc30  1  0.849402  0.250000  0.318254  1
  Tc  Tc31  1  0.651022  0.250000  0.817365  1
