# generated using pymatgen
data_Yb4Al2SbRuO12
_symmetry_space_group_name_H-M   'P 1'
_cell_length_a   5.30897970
_cell_length_b   5.42325407
_cell_length_c   7.56596018
_cell_angle_alpha   90.20917651
_cell_angle_beta   90.06679718
_cell_angle_gamma   89.99618858
_symmetry_Int_Tables_number   1
_chemical_formula_structural   Yb4Al2SbRuO12
_chemical_formula_sum   'Yb4 Al2 Sb1 Ru1 O12'
_cell_volume   217.83711484
_cell_formula_units_Z   1
loop_
 _symmetry_equiv_pos_site_id
 _symmetry_equiv_pos_as_xyz
  1  'x, y, z'
loop_
 _atom_site_type_symbol
 _atom_site_label
 _atom_site_symmetry_multiplicity
 _atom_site_fract_x
 _atom_site_fract_y
 _atom_site_fract_z
 _atom_site_occupancy
  Yb  Yb0  1  0.512101  0.552377  0.255090  1
  Yb  Yb1  1  0.987910  0.047293  0.256674  1
  Yb  Yb2  1  0.487899  0.447623  0.744910  1
  Yb  Yb3  1  0.012090  0.952707  0.743326  1
  Al  Al4  1  0.000000  0.500000  0.500000  1
  Al  Al5  1  0.500000  0.000000  0.000000  1
  Sb  Sb6  1  0.000000  0.500000  0.000000  1
  Ru  Ru7  1  0.500000  0.000000  0.500000  1
  O  O8  1  0.417442  0.979138  0.246386  1
  O  O9  1  0.084215  0.478805  0.256145  1
  O  O10  1  0.582558  0.020862  0.753614  1
  O  O11  1  0.915785  0.521195  0.743855  1
  O  O12  1  0.790402  0.798741  0.045924  1
  O  O13  1  0.709877  0.295590  0.458474  1
  O  O14  1  0.202019  0.211749  0.541344  1
  O  O15  1  0.300878  0.710552  0.953949  1
  O  O16  1  0.209598  0.201259  0.954076  1
  O  O17  1  0.290123  0.704410  0.541526  1
  O  O18  1  0.797981  0.788251  0.458656  1
  O  O19  1  0.699122  0.289448  0.046051  1
