# generated using pymatgen
data_Yb6AgHgRu
_symmetry_space_group_name_H-M   'P 1'
_cell_length_a   8.11303700
_cell_length_b   8.11303763
_cell_length_c   4.30141600
_cell_angle_alpha   90.00000000
_cell_angle_beta   90.00000000
_cell_angle_gamma   120.00000968
_symmetry_Int_Tables_number   1
_chemical_formula_structural   Yb6AgHgRu
_chemical_formula_sum   'Yb6 Ag1 Hg1 Ru1'
_cell_volume   245.19351651
_cell_formula_units_Z   1
loop_
 _symmetry_equiv_pos_site_id
 _symmetry_equiv_pos_as_xyz
  1  'x, y, z'
loop_
 _atom_site_type_symbol
 _atom_site_label
 _atom_site_symmetry_multiplicity
 _atom_site_fract_x
 _atom_site_fract_y
 _atom_site_fract_z
 _atom_site_occupancy
  Yb  Yb0  1  0.760278  0.997935  0.000000  1
  Yb  Yb1  1  0.237658  0.239722  0.000000  1
  Yb  Yb2  1  0.002065  0.762343  0.000000  1
  Yb  Yb3  1  0.392314  0.995316  0.500001  1
  Yb  Yb4  1  0.004684  0.396999  0.500001  1
  Yb  Yb5  1  0.603001  0.607686  0.500001  1
  Ag  Ag6  1  0.333333  0.666666  0.000000  1
  Hg  Hg7  1  0.666667  0.333333  0.000000  1
  Ru  Ru8  1  0.000000  0.000000  0.500001  1
