# generated using pymatgen
data_YEr4(In2Cu)2
_symmetry_space_group_name_H-M   'P 1'
_cell_length_a   3.63235600
_cell_length_b   8.00551500
_cell_length_c   17.87556400
_cell_angle_alpha   90.00000000
_cell_angle_beta   90.00000000
_cell_angle_gamma   90.00000000
_symmetry_Int_Tables_number   1
_chemical_formula_structural   YEr4(In2Cu)2
_chemical_formula_sum   'Y2 Er8 In8 Cu4'
_cell_volume   519.80138841
_cell_formula_units_Z   2
loop_
 _symmetry_equiv_pos_site_id
 _symmetry_equiv_pos_as_xyz
  1  'x, y, z'
loop_
 _atom_site_type_symbol
 _atom_site_label
 _atom_site_symmetry_multiplicity
 _atom_site_fract_x
 _atom_site_fract_y
 _atom_site_fract_z
 _atom_site_occupancy
  Y  Y0  1  0.000000  0.500000  0.500000  1
  Y  Y1  1  0.000000  0.000000  0.000000  1
  Er  Er2  1  0.000000  0.737511  0.280782  1
  Er  Er3  1  0.000000  0.262489  0.719218  1
  Er  Er4  1  0.000000  0.762489  0.780782  1
  Er  Er5  1  0.000000  0.237511  0.219218  1
  Er  Er6  1  0.000000  0.617862  0.083558  1
  Er  Er7  1  0.000000  0.382138  0.916442  1
  Er  Er8  1  0.000000  0.882138  0.583558  1
  Er  Er9  1  0.000000  0.117862  0.416442  1
  In  In10  1  0.500000  0.706202  0.931002  1
  In  In11  1  0.500000  0.293798  0.068998  1
  In  In12  1  0.500000  0.793798  0.431002  1
  In  In13  1  0.500000  0.206202  0.568998  1
  In  In14  1  0.500000  0.580627  0.651084  1
  In  In15  1  0.500000  0.419373  0.348916  1
  In  In16  1  0.500000  0.919373  0.151084  1
  In  In17  1  0.500000  0.080627  0.848916  1
  Cu  Cu18  1  0.500000  0.523800  0.197366  1
  Cu  Cu19  1  0.500000  0.476200  0.802634  1
  Cu  Cu20  1  0.500000  0.976200  0.697366  1
  Cu  Cu21  1  0.500000  0.023800  0.302634  1
