# generated using pymatgen
data_Yb2TmAl3Si2Pt
_symmetry_space_group_name_H-M   'P 1'
_cell_length_a   6.87972008
_cell_length_b   6.87971946
_cell_length_c   4.27765400
_cell_angle_alpha   90.00000000
_cell_angle_beta   90.00000000
_cell_angle_gamma   120.01717699
_symmetry_Int_Tables_number   1
_chemical_formula_structural   Yb2TmAl3Si2Pt
_chemical_formula_sum   'Yb2 Tm1 Al3 Si2 Pt1'
_cell_volume   175.30834320
_cell_formula_units_Z   1
loop_
 _symmetry_equiv_pos_site_id
 _symmetry_equiv_pos_as_xyz
  1  'x, y, z'
loop_
 _atom_site_type_symbol
 _atom_site_label
 _atom_site_symmetry_multiplicity
 _atom_site_fract_x
 _atom_site_fract_y
 _atom_site_fract_z
 _atom_site_occupancy
  Yb  Yb0  1  0.422821  0.000824  0.000000  1
  Yb  Yb1  1  0.000824  0.422821  0.000000  1
  Tm  Tm2  1  0.579047  0.579048  0.000000  1
  Al  Al3  1  0.762726  0.998811  0.500000  1
  Al  Al4  1  0.237271  0.237272  0.500000  1
  Al  Al5  1  0.998811  0.762725  0.500000  1
  Si  Si6  1  0.664816  0.339545  0.500000  1
  Si  Si7  1  0.339544  0.664817  0.500000  1
  Pt  Pt8  1  0.994139  0.994139  0.000000  1
