# generated using pymatgen
data_Pr5Y5Si8
_symmetry_space_group_name_H-M   'P 1'
_cell_length_a   7.80696993
_cell_length_b   7.82789694
_cell_length_c   14.63700200
_cell_angle_alpha   90.00000000
_cell_angle_beta   90.00000000
_cell_angle_gamma   89.88507028
_symmetry_Int_Tables_number   1
_chemical_formula_structural   Pr5Y5Si8
_chemical_formula_sum   'Pr10 Y10 Si16'
_cell_volume   894.49694967
_cell_formula_units_Z   2
loop_
 _symmetry_equiv_pos_site_id
 _symmetry_equiv_pos_as_xyz
  1  'x, y, z'
loop_
 _atom_site_type_symbol
 _atom_site_label
 _atom_site_symmetry_multiplicity
 _atom_site_fract_x
 _atom_site_fract_y
 _atom_site_fract_z
 _atom_site_occupancy
  Pr  Pr0  1  0.485317  0.364741  0.624773  1
  Pr  Pr1  1  0.514683  0.635257  0.124773  1
  Pr  Pr2  1  0.364597  0.012939  0.454985  1
  Pr  Pr3  1  0.635403  0.987061  0.954985  1
  Pr  Pr4  1  0.865674  0.493962  0.296147  1
  Pr  Pr5  1  0.134326  0.506038  0.796147  1
  Pr  Pr6  1  0.990980  0.636345  0.044604  1
  Pr  Pr7  1  0.009020  0.363655  0.544605  1
  Pr  Pr8  1  0.511770  0.138794  0.205848  1
  Pr  Pr9  1  0.488230  0.861206  0.705848  1
  Y  Y10  1  0.314457  0.312722  0.000419  1
  Y  Y11  1  0.685542  0.687277  0.500419  1
  Y  Y12  1  0.812996  0.181794  0.749408  1
  Y  Y13  1  0.187004  0.818206  0.249408  1
  Y  Y14  1  0.132276  0.986841  0.875325  1
  Y  Y15  1  0.867724  0.013158  0.375325  1
  Y  Y16  1  0.634063  0.508381  0.874337  1
  Y  Y17  1  0.365935  0.491619  0.374338  1
  Y  Y18  1  0.012580  0.862125  0.625460  1
  Y  Y19  1  0.987419  0.137875  0.125460  1
  Si  Si20  1  0.285323  0.934158  0.060254  1
  Si  Si21  1  0.714678  0.065842  0.560254  1
  Si  Si22  1  0.791011  0.568770  0.689872  1
  Si  Si23  1  0.208989  0.431230  0.189872  1
  Si  Si24  1  0.069302  0.715185  0.437974  1
  Si  Si25  1  0.930698  0.284816  0.937975  1
  Si  Si26  1  0.428887  0.204598  0.813949  1
  Si  Si27  1  0.571113  0.795402  0.313948  1
  Si  Si28  1  0.194191  0.152986  0.696402  1
  Si  Si29  1  0.805809  0.847014  0.196403  1
  Si  Si30  1  0.700714  0.335818  0.052522  1
  Si  Si31  1  0.299286  0.664182  0.552522  1
  Si  Si32  1  0.841044  0.796547  0.806619  1
  Si  Si33  1  0.158956  0.203453  0.306619  1
  Si  Si34  1  0.660909  0.300724  0.441101  1
  Si  Si35  1  0.339091  0.699276  0.941101  1
