# generated using pymatgen
data_Tm12Lu4In4OsRh3
_symmetry_space_group_name_H-M   'P 1'
_cell_length_a   9.51521894
_cell_length_b   9.51636077
_cell_length_c   9.55168223
_cell_angle_alpha   60.01612206
_cell_angle_beta   60.03712531
_cell_angle_gamma   59.87343696
_symmetry_Int_Tables_number   1
_chemical_formula_structural   Tm12Lu4In4OsRh3
_chemical_formula_sum   'Tm12 Lu4 In4 Os1 Rh3'
_cell_volume   611.23992601
_cell_formula_units_Z   1
loop_
 _symmetry_equiv_pos_site_id
 _symmetry_equiv_pos_as_xyz
  1  'x, y, z'
loop_
 _atom_site_type_symbol
 _atom_site_label
 _atom_site_symmetry_multiplicity
 _atom_site_fract_x
 _atom_site_fract_y
 _atom_site_fract_z
 _atom_site_occupancy
  Tm  Tm0  1  0.437085  0.437943  0.061896  1
  Tm  Tm1  1  0.649995  0.047475  0.649830  1
  Tm  Tm2  1  0.189959  0.809779  0.193146  1
  Tm  Tm3  1  0.192172  0.192443  0.808450  1
  Tm  Tm4  1  0.809107  0.808344  0.193514  1
  Tm  Tm5  1  0.437566  0.062477  0.062351  1
  Tm  Tm6  1  0.809893  0.189522  0.192770  1
  Tm  Tm7  1  0.059394  0.444102  0.436372  1
  Tm  Tm8  1  0.810073  0.192278  0.807914  1
  Tm  Tm9  1  0.192354  0.809600  0.807830  1
  Tm  Tm10  1  0.648943  0.649493  0.049081  1
  Tm  Tm11  1  0.651312  0.651546  0.651041  1
  Lu  Lu12  1  0.057668  0.057518  0.437131  1
  Lu  Lu13  1  0.444712  0.058513  0.437683  1
  Lu  Lu14  1  0.060748  0.438720  0.060432  1
  Lu  Lu15  1  0.047423  0.650086  0.649625  1
  In  In16  1  0.417546  0.416546  0.416141  1
  In  In17  1  0.749950  0.416857  0.415456  1
  In  In18  1  0.417000  0.750490  0.416109  1
  In  In19  1  0.415915  0.417345  0.749538  1
  Os  Os20  1  0.859134  0.858263  0.424985  1
  Rh  Rh21  1  0.859707  0.857285  0.859936  1
  Rh  Rh22  1  0.423206  0.859165  0.859152  1
  Rh  Rh23  1  0.859140  0.424214  0.859624  1
