# generated using pymatgen
data_HoLu2Cr(Co4P3)2
_symmetry_space_group_name_H-M   'P 1'
_cell_length_a   3.67532400
_cell_length_b   10.50045000
_cell_length_c   12.14300800
_cell_angle_alpha   90.00000000
_cell_angle_beta   90.00000000
_cell_angle_gamma   90.00000000
_symmetry_Int_Tables_number   1
_chemical_formula_structural   HoLu2Cr(Co4P3)2
_chemical_formula_sum   'Ho2 Lu4 Cr2 Co16 P12'
_cell_volume   468.62971498
_cell_formula_units_Z   2
loop_
 _symmetry_equiv_pos_site_id
 _symmetry_equiv_pos_as_xyz
  1  'x, y, z'
loop_
 _atom_site_type_symbol
 _atom_site_label
 _atom_site_symmetry_multiplicity
 _atom_site_fract_x
 _atom_site_fract_y
 _atom_site_fract_z
 _atom_site_occupancy
  Ho  Ho0  1  0.000000  0.500000  0.523336  1
  Ho  Ho1  1  0.500000  0.000000  0.476664  1
  Lu  Lu2  1  0.500000  0.818310  0.204363  1
  Lu  Lu3  1  0.500000  0.181690  0.204363  1
  Lu  Lu4  1  0.000000  0.681690  0.795637  1
  Lu  Lu5  1  0.000000  0.318310  0.795637  1
  Cr  Cr6  1  0.500000  0.500000  0.155970  1
  Cr  Cr7  1  0.000000  0.000000  0.844030  1
  Co  Co8  1  0.500000  0.500000  0.702820  1
  Co  Co9  1  0.000000  0.000000  0.297180  1
  Co  Co10  1  0.000000  0.500000  0.986863  1
  Co  Co11  1  0.500000  0.000000  0.013137  1
  Co  Co12  1  0.500000  0.332476  0.991975  1
  Co  Co13  1  0.500000  0.667524  0.991975  1
  Co  Co14  1  0.000000  0.167524  0.008025  1
  Co  Co15  1  0.000000  0.832476  0.008025  1
  Co  Co16  1  0.500000  0.296035  0.430590  1
  Co  Co17  1  0.500000  0.703965  0.430590  1
  Co  Co18  1  0.000000  0.203965  0.569410  1
  Co  Co19  1  0.000000  0.796035  0.569410  1
  Co  Co20  1  0.500000  0.878323  0.708864  1
  Co  Co21  1  0.500000  0.121677  0.708864  1
  Co  Co22  1  0.000000  0.621677  0.291136  1
  Co  Co23  1  0.000000  0.378323  0.291136  1
  P  P24  1  0.500000  0.500000  0.881222  1
  P  P25  1  0.000000  0.000000  0.118778  1
  P  P26  1  0.500000  0.500000  0.344392  1
  P  P27  1  0.000000  0.000000  0.655608  1
  P  P28  1  0.500000  0.311967  0.617161  1
  P  P29  1  0.500000  0.688033  0.617161  1
  P  P30  1  0.000000  0.188033  0.382839  1
  P  P31  1  0.000000  0.811967  0.382839  1
  P  P32  1  0.500000  0.847185  0.891328  1
  P  P33  1  0.500000  0.152815  0.891328  1
  P  P34  1  0.000000  0.652815  0.108672  1
  P  P35  1  0.000000  0.347185  0.108672  1
