# generated using pymatgen
data_Sc10TlSn5
_symmetry_space_group_name_H-M   'P 1'
_cell_length_a   8.46745400
_cell_length_b   8.45457231
_cell_length_c   6.13251100
_cell_angle_alpha   90.00000000
_cell_angle_beta   90.00000000
_cell_angle_gamma   120.05041427
_symmetry_Int_Tables_number   1
_chemical_formula_structural   Sc10TlSn5
_chemical_formula_sum   'Sc10 Tl1 Sn5'
_cell_volume   380.00788447
_cell_formula_units_Z   1
loop_
 _symmetry_equiv_pos_site_id
 _symmetry_equiv_pos_as_xyz
  1  'x, y, z'
loop_
 _atom_site_type_symbol
 _atom_site_label
 _atom_site_symmetry_multiplicity
 _atom_site_fract_x
 _atom_site_fract_y
 _atom_site_fract_z
 _atom_site_occupancy
  Sc  Sc0  1  0.333475  0.666036  0.500544  1
  Sc  Sc1  1  0.667440  0.333964  0.999456  1
  Sc  Sc2  1  0.667440  0.333964  0.500544  1
  Sc  Sc3  1  0.333475  0.666036  0.999456  1
  Sc  Sc4  1  0.765274  0.000000  0.750000  1
  Sc  Sc5  1  0.763787  0.763742  0.250000  1
  Sc  Sc6  1  0.235337  0.000000  0.250000  1
  Sc  Sc7  1  0.235883  0.236780  0.750000  1
  Sc  Sc8  1  0.999102  0.763220  0.750000  1
  Sc  Sc9  1  0.000045  0.236258  0.250000  1
  Tl  Tl10  1  0.393707  0.000000  0.750000  1
  Sn  Sn11  1  0.394517  0.394214  0.250000  1
  Sn  Sn12  1  0.000305  0.605786  0.250000  1
  Sn  Sn13  1  0.999467  0.394854  0.750000  1
  Sn  Sn14  1  0.604612  0.605146  0.750000  1
  Sn  Sn15  1  0.606134  0.000000  0.250000  1
