# generated using pymatgen
data_Ba3AsI3
_symmetry_space_group_name_H-M   'P 1'
_cell_length_a   12.11118221
_cell_length_b   12.11118239
_cell_length_c   12.11118200
_cell_angle_alpha   109.47122166
_cell_angle_beta   109.47122195
_cell_angle_gamma   109.47121902
_symmetry_Int_Tables_number   1
_chemical_formula_structural   Ba3AsI3
_chemical_formula_sum   'Ba12 As4 I12'
_cell_volume   1367.53269502
_cell_formula_units_Z   4
loop_
 _symmetry_equiv_pos_site_id
 _symmetry_equiv_pos_as_xyz
  1  'x, y, z'
loop_
 _atom_site_type_symbol
 _atom_site_label
 _atom_site_symmetry_multiplicity
 _atom_site_fract_x
 _atom_site_fract_y
 _atom_site_fract_z
 _atom_site_occupancy
  Ba  Ba0  1  0.487610  0.012390  0.250000  1
  Ba  Ba1  1  0.262390  0.237610  0.250001  1
  Ba  Ba2  1  0.262390  0.024781  0.512390  1
  Ba  Ba3  1  0.750000  0.487610  0.512390  1
  Ba  Ba4  1  0.012391  0.262390  0.524781  1
  Ba  Ba5  1  0.750000  0.262390  0.737609  1
  Ba  Ba6  1  0.487610  0.475220  0.737609  1
  Ba  Ba7  1  0.024781  0.012390  0.762390  1
  Ba  Ba8  1  0.237610  0.750000  0.762390  1
  Ba  Ba9  1  0.237610  0.487610  0.975219  1
  Ba  Ba10  1  0.475219  0.237609  0.987609  1
  Ba  Ba11  1  0.012390  0.749999  0.987609  1
  As  As12  1  0.250000  0.000000  0.000000  1
  As  As13  1  0.500000  0.250000  0.500000  1
  As  As14  1  0.250000  0.250000  0.749999  1
  As  As15  1  0.000000  0.500000  0.750000  1
  I  I16  1  0.000372  0.250001  0.999628  1
  I  I17  1  0.499256  0.749628  0.999628  1
  I  I18  1  0.749628  0.499628  0.999255  1
  I  I19  1  0.749628  0.250001  0.250372  1
  I  I20  1  0.000745  0.000372  0.250372  1
  I  I21  1  0.499628  0.499256  0.249627  1
  I  I22  1  0.250000  0.750372  0.249627  1
  I  I23  1  0.000372  0.750372  0.500744  1
  I  I24  1  0.250000  0.499627  0.500372  1
  I  I25  1  0.750372  0.000745  0.500372  1
  I  I26  1  0.499627  0.000372  0.750000  1
  I  I27  1  0.750372  0.749628  0.750000  1
