# generated using pymatgen
data_Lu5(Re3Tc5)3
_symmetry_space_group_name_H-M   'P 1'
_cell_length_a   8.47627766
_cell_length_b   8.51968060
_cell_length_c   8.51967902
_cell_angle_alpha   109.57419054
_cell_angle_beta   109.36804778
_cell_angle_gamma   109.36805914
_symmetry_Int_Tables_number   1
_chemical_formula_structural   Lu5(Re3Tc5)3
_chemical_formula_sum   'Lu5 Re9 Tc15'
_cell_volume   474.22145583
_cell_formula_units_Z   1
loop_
 _symmetry_equiv_pos_site_id
 _symmetry_equiv_pos_as_xyz
  1  'x, y, z'
loop_
 _atom_site_type_symbol
 _atom_site_label
 _atom_site_symmetry_multiplicity
 _atom_site_fract_x
 _atom_site_fract_y
 _atom_site_fract_z
 _atom_site_occupancy
  Lu  Lu0  1  0.999591  0.000000  0.000000  1
  Lu  Lu1  1  0.624693  0.000000  0.000000  1
  Lu  Lu2  1  0.000869  0.626782  0.000000  1
  Lu  Lu3  1  0.000869  0.000000  0.626782  1
  Lu  Lu4  1  0.374087  0.373218  0.373218  1
  Re  Re5  1  0.194116  0.377103  0.000000  1
  Re  Re6  1  0.999595  0.377521  0.192361  1
  Re  Re7  1  0.807235  0.185162  0.807639  1
  Re  Re8  1  0.807235  0.807639  0.185162  1
  Re  Re9  1  0.999595  0.192361  0.377521  1
  Re  Re10  1  0.194116  0.000000  0.377103  1
  Re  Re11  1  0.622073  0.622479  0.814838  1
  Re  Re12  1  0.817012  0.622897  0.622897  1
  Re  Re13  1  0.622073  0.814838  0.622479  1
  Tc  Tc14  1  0.395953  0.672165  0.000000  1
  Tc  Tc15  1  0.723788  0.327835  0.327835  1
  Tc  Tc16  1  0.395953  0.000000  0.672165  1
  Tc  Tc17  1  0.671683  0.395097  0.000000  1
  Tc  Tc18  1  0.999716  0.394595  0.673354  1
  Tc  Tc19  1  0.326361  0.721240  0.326646  1
  Tc  Tc20  1  0.326361  0.326646  0.721240  1
  Tc  Tc21  1  0.999716  0.673354  0.394595  1
  Tc  Tc22  1  0.671683  0.000000  0.395097  1
  Tc  Tc23  1  0.605121  0.605405  0.278760  1
  Tc  Tc24  1  0.276586  0.604903  0.604903  1
  Tc  Tc25  1  0.605121  0.278760  0.605405  1
  Tc  Tc26  1  0.377121  0.192560  0.000000  1
  Tc  Tc27  1  0.184560  0.807440  0.807440  1
  Tc  Tc28  1  0.377121  0.000000  0.192560  1
