# generated using pymatgen
data_ErTh7Re(Si4Ru)3
_symmetry_space_group_name_H-M   'P 1'
_cell_length_a   8.26507000
_cell_length_b   8.31636544
_cell_length_c   8.24249040
_cell_angle_alpha   89.93443244
_cell_angle_beta   90.00000000
_cell_angle_gamma   119.79618065
_symmetry_Int_Tables_number   1
_chemical_formula_structural   ErTh7Re(Si4Ru)3
_chemical_formula_sum   'Er1 Th7 Re1 Si12 Ru3'
_cell_volume   491.65120534
_cell_formula_units_Z   1
loop_
 _symmetry_equiv_pos_site_id
 _symmetry_equiv_pos_as_xyz
  1  'x, y, z'
loop_
 _atom_site_type_symbol
 _atom_site_label
 _atom_site_symmetry_multiplicity
 _atom_site_fract_x
 _atom_site_fract_y
 _atom_site_fract_z
 _atom_site_occupancy
  Er  Er0  1  0.499478  0.998958  0.748214  1
  Th  Th1  1  0.999938  0.999876  0.248926  1
  Th  Th2  1  0.000219  0.000439  0.751126  1
  Th  Th3  1  0.499333  0.501003  0.251934  1
  Th  Th4  1  0.498701  0.997405  0.252396  1
  Th  Th5  1  0.001670  0.501003  0.251934  1
  Th  Th6  1  0.499754  0.500155  0.748281  1
  Th  Th7  1  0.000399  0.500155  0.748281  1
  Re  Re8  1  0.330418  0.660835  0.501929  1
  Si  Si9  1  0.829833  0.165198  0.502990  1
  Si  Si10  1  0.835247  0.670496  0.498603  1
  Si  Si11  1  0.335363  0.165198  0.502990  1
  Si  Si12  1  0.829951  0.165281  0.996987  1
  Si  Si13  1  0.835693  0.671388  0.000971  1
  Si  Si14  1  0.335329  0.165281  0.996987  1
  Si  Si15  1  0.170091  0.835050  0.996975  1
  Si  Si16  1  0.664960  0.835050  0.996975  1
  Si  Si17  1  0.164868  0.329735  0.001572  1
  Si  Si18  1  0.168622  0.836118  0.503891  1
  Si  Si19  1  0.667497  0.836118  0.503891  1
  Si  Si20  1  0.163035  0.326068  0.498404  1
  Ru  Ru21  1  0.669012  0.338022  0.501567  1
  Ru  Ru22  1  0.669530  0.339060  0.998710  1
  Ru  Ru23  1  0.331053  0.662107  0.995464  1
