# generated using pymatgen
data_Ho2Al9RuPt2
_symmetry_space_group_name_H-M   'P 1'
_cell_length_a   7.59063236
_cell_length_b   7.59063251
_cell_length_c   9.44210400
_cell_angle_alpha   90.00000000
_cell_angle_beta   90.00000000
_cell_angle_gamma   119.58224566
_symmetry_Int_Tables_number   1
_chemical_formula_structural   Ho2Al9RuPt2
_chemical_formula_sum   'Ho4 Al18 Ru2 Pt4'
_cell_volume   473.11659267
_cell_formula_units_Z   2
loop_
 _symmetry_equiv_pos_site_id
 _symmetry_equiv_pos_as_xyz
  1  'x, y, z'
loop_
 _atom_site_type_symbol
 _atom_site_label
 _atom_site_symmetry_multiplicity
 _atom_site_fract_x
 _atom_site_fract_y
 _atom_site_fract_z
 _atom_site_occupancy
  Ho  Ho0  1  0.994499  0.670378  0.750000  1
  Ho  Ho1  1  0.005501  0.329622  0.250000  1
  Ho  Ho2  1  0.670378  0.994499  0.750000  1
  Ho  Ho3  1  0.329622  0.005501  0.250000  1
  Al  Al4  1  0.123972  0.123972  0.750000  1
  Al  Al5  1  0.876028  0.876028  0.250000  1
  Al  Al6  1  0.000091  0.329553  0.576154  1
  Al  Al7  1  0.999909  0.670447  0.423846  1
  Al  Al8  1  0.999909  0.670447  0.076154  1
  Al  Al9  1  0.329553  0.000091  0.923846  1
  Al  Al10  1  0.000091  0.329553  0.923846  1
  Al  Al11  1  0.670447  0.999909  0.076154  1
  Al  Al12  1  0.670447  0.999909  0.423846  1
  Al  Al13  1  0.329553  0.000091  0.576154  1
  Al  Al14  1  0.327551  0.327551  0.055151  1
  Al  Al15  1  0.672449  0.672449  0.944849  1
  Al  Al16  1  0.672449  0.672449  0.555151  1
  Al  Al17  1  0.327551  0.327551  0.444849  1
  Al  Al18  1  0.340913  0.545989  0.750000  1
  Al  Al19  1  0.659087  0.454011  0.250000  1
  Al  Al20  1  0.545989  0.340913  0.750000  1
  Al  Al21  1  0.454011  0.659087  0.250000  1
  Ru  Ru22  1  0.000000  0.000000  0.500000  1
  Ru  Ru23  1  0.000000  0.000000  0.000000  1
  Pt  Pt24  1  0.672244  0.327756  0.500000  1
  Pt  Pt25  1  0.327756  0.672244  0.500000  1
  Pt  Pt26  1  0.327756  0.672244  0.000000  1
  Pt  Pt27  1  0.672244  0.327756  0.000000  1
