# generated using pymatgen
data_Er3Th2(Cd2Pd)2
_symmetry_space_group_name_H-M   'P 1'
_cell_length_a   3.70682000
_cell_length_b   8.10518500
_cell_length_c   18.38363100
_cell_angle_alpha   90.00000000
_cell_angle_beta   90.00000000
_cell_angle_gamma   90.00000000
_symmetry_Int_Tables_number   1
_chemical_formula_structural   Er3Th2(Cd2Pd)2
_chemical_formula_sum   'Er6 Th4 Cd8 Pd4'
_cell_volume   552.32630046
_cell_formula_units_Z   2
loop_
 _symmetry_equiv_pos_site_id
 _symmetry_equiv_pos_as_xyz
  1  'x, y, z'
loop_
 _atom_site_type_symbol
 _atom_site_label
 _atom_site_symmetry_multiplicity
 _atom_site_fract_x
 _atom_site_fract_y
 _atom_site_fract_z
 _atom_site_occupancy
  Er  Er0  1  0.000000  0.500000  0.500000  1
  Er  Er1  1  0.000000  0.000000  0.000000  1
  Er  Er2  1  0.000000  0.613165  0.081752  1
  Er  Er3  1  0.000000  0.386835  0.918248  1
  Er  Er4  1  0.000000  0.886835  0.581752  1
  Er  Er5  1  0.000000  0.113165  0.418248  1
  Th  Th6  1  0.000000  0.739719  0.281616  1
  Th  Th7  1  0.000000  0.260281  0.718384  1
  Th  Th8  1  0.000000  0.760281  0.781616  1
  Th  Th9  1  0.000000  0.239719  0.218384  1
  Cd  Cd10  1  0.500000  0.712343  0.936552  1
  Cd  Cd11  1  0.500000  0.287657  0.063448  1
  Cd  Cd12  1  0.500000  0.787657  0.436552  1
  Cd  Cd13  1  0.500000  0.212343  0.563448  1
  Cd  Cd14  1  0.500000  0.580540  0.644238  1
  Cd  Cd15  1  0.500000  0.419460  0.355762  1
  Cd  Cd16  1  0.500000  0.919460  0.144238  1
  Cd  Cd17  1  0.500000  0.080540  0.855762  1
  Pd  Pd18  1  0.500000  0.524985  0.196254  1
  Pd  Pd19  1  0.500000  0.475015  0.803746  1
  Pd  Pd20  1  0.500000  0.975015  0.696254  1
  Pd  Pd21  1  0.500000  0.024985  0.303746  1
