# generated using pymatgen
data_Th4Os(WN4)3
_symmetry_space_group_name_H-M   'P 1'
_cell_length_a   5.59505586
_cell_length_b   5.68102978
_cell_length_c   7.95650515
_cell_angle_alpha   89.90968827
_cell_angle_beta   90.20422071
_cell_angle_gamma   89.93172842
_symmetry_Int_Tables_number   1
_chemical_formula_structural   Th4Os(WN4)3
_chemical_formula_sum   'Th4 Os1 W3 N12'
_cell_volume   252.90081620
_cell_formula_units_Z   1
loop_
 _symmetry_equiv_pos_site_id
 _symmetry_equiv_pos_as_xyz
  1  'x, y, z'
loop_
 _atom_site_type_symbol
 _atom_site_label
 _atom_site_symmetry_multiplicity
 _atom_site_fract_x
 _atom_site_fract_y
 _atom_site_fract_z
 _atom_site_occupancy
  Th  Th0  1  0.503012  0.540776  0.245186  1
  Th  Th1  1  0.994727  0.048281  0.245578  1
  Th  Th2  1  0.496988  0.459224  0.754814  1
  Th  Th3  1  0.005273  0.951719  0.754422  1
  Os  Os4  1  0.000000  0.500000  0.000000  1
  W  W5  1  0.500000  0.000000  0.500000  1
  W  W6  1  0.000000  0.500000  0.500000  1
  W  W7  1  0.500000  0.000000  0.000000  1
  N  N8  1  0.424247  0.983149  0.251412  1
  N  N9  1  0.070204  0.484912  0.254261  1
  N  N10  1  0.575753  0.016851  0.748588  1
  N  N11  1  0.929796  0.515088  0.745739  1
  N  N12  1  0.794273  0.798697  0.038571  1
  N  N13  1  0.699986  0.296106  0.461066  1
  N  N14  1  0.203339  0.201192  0.539322  1
  N  N15  1  0.301296  0.706953  0.961325  1
  N  N16  1  0.205727  0.201303  0.961429  1
  N  N17  1  0.300014  0.703894  0.538934  1
  N  N18  1  0.796661  0.798808  0.460678  1
  N  N19  1  0.698704  0.293047  0.038675  1
