# generated using pymatgen
data_Er4MgCuNiBi
_symmetry_space_group_name_H-M   'P 1'
_cell_length_a   8.57828487
_cell_length_b   8.57828528
_cell_length_c   8.73534050
_cell_angle_alpha   128.38327287
_cell_angle_beta   128.38327583
_cell_angle_gamma   74.65835054
_symmetry_Int_Tables_number   1
_chemical_formula_structural   Er4MgCuNiBi
_chemical_formula_sum   'Er8 Mg2 Cu2 Ni2 Bi2'
_cell_volume   387.24953201
_cell_formula_units_Z   2
loop_
 _symmetry_equiv_pos_site_id
 _symmetry_equiv_pos_as_xyz
  1  'x, y, z'
loop_
 _atom_site_type_symbol
 _atom_site_label
 _atom_site_symmetry_multiplicity
 _atom_site_fract_x
 _atom_site_fract_y
 _atom_site_fract_z
 _atom_site_occupancy
  Er  Er0  1  0.783292  0.283292  0.810917  1
  Er  Er1  1  0.216708  0.716708  0.189083  1
  Er  Er2  1  0.472374  0.972374  0.189083  1
  Er  Er3  1  0.304432  0.455994  0.500000  1
  Er  Er4  1  0.044006  0.195568  0.500000  1
  Er  Er5  1  0.527626  0.027626  0.810917  1
  Er  Er6  1  0.695568  0.544006  0.500000  1
  Er  Er7  1  0.955994  0.804432  0.500000  1
  Mg  Mg8  1  0.000000  0.000000  0.000000  1
  Mg  Mg9  1  0.500000  0.500000  0.000000  1
  Cu  Cu10  1  0.124269  0.624269  0.748539  1
  Cu  Cu11  1  0.875731  0.375731  0.251461  1
  Ni  Ni12  1  0.627718  0.872282  0.500000  1
  Ni  Ni13  1  0.372282  0.127718  0.500000  1
  Bi  Bi14  1  0.250000  0.250000  0.000000  1
  Bi  Bi15  1  0.750000  0.750000  0.000000  1
