# generated using pymatgen
data_Dy7Er(TmIn5)4
_symmetry_space_group_name_H-M   'P 1'
_cell_length_a   6.49285265
_cell_length_b   10.40223586
_cell_length_c   12.25380500
_cell_angle_alpha   90.05526754
_cell_angle_beta   89.95920462
_cell_angle_gamma   90.00401614
_symmetry_Int_Tables_number   1
_chemical_formula_structural   Dy7Er(TmIn5)4
_chemical_formula_sum   'Dy7 Er1 Tm4 In20'
_cell_volume   827.62365561
_cell_formula_units_Z   1
loop_
 _symmetry_equiv_pos_site_id
 _symmetry_equiv_pos_as_xyz
  1  'x, y, z'
loop_
 _atom_site_type_symbol
 _atom_site_label
 _atom_site_symmetry_multiplicity
 _atom_site_fract_x
 _atom_site_fract_y
 _atom_site_fract_z
 _atom_site_occupancy
  Dy  Dy0  1  0.609956  0.007838  0.641388  1
  Dy  Dy1  1  0.110012  0.991637  0.858712  1
  Dy  Dy2  1  0.390142  0.508222  0.358800  1
  Dy  Dy3  1  0.109520  0.508176  0.859229  1
  Dy  Dy4  1  0.390157  0.991921  0.358464  1
  Dy  Dy5  1  0.889824  0.008466  0.141544  1
  Dy  Dy6  1  0.610157  0.491959  0.641095  1
  Er  Er7  1  0.890958  0.491826  0.140625  1
  Tm  Tm8  1  0.349765  0.750361  0.054150  1
  Tm  Tm9  1  0.149053  0.750016  0.554071  1
  Tm  Tm10  1  0.649387  0.250207  0.945971  1
  Tm  Tm11  1  0.850691  0.249626  0.445841  1
  In  In12  1  0.614478  0.749847  0.504720  1
  In  In13  1  0.884814  0.749463  0.006169  1
  In  In14  1  0.385526  0.249995  0.495091  1
  In  In15  1  0.114239  0.250031  0.994869  1
  In  In16  1  0.651162  0.749214  0.243268  1
  In  In17  1  0.849290  0.749780  0.744129  1
  In  In18  1  0.349443  0.250248  0.756283  1
  In  In19  1  0.150989  0.250561  0.256084  1
  In  In20  1  0.124775  0.749813  0.282375  1
  In  In21  1  0.375241  0.749658  0.782053  1
  In  In22  1  0.875224  0.250089  0.717791  1
  In  In23  1  0.625771  0.251105  0.217689  1
  In  In24  1  0.875444  0.542882  0.399936  1
  In  In25  1  0.624953  0.956582  0.900816  1
  In  In26  1  0.124781  0.043337  0.599222  1
  In  In27  1  0.374964  0.456876  0.099460  1
  In  In28  1  0.124669  0.456746  0.599265  1
  In  In29  1  0.375100  0.043677  0.099295  1
  In  In30  1  0.874986  0.956513  0.400775  1
  In  In31  1  0.624531  0.543326  0.900821  1
