# generated using pymatgen
data_Dy2Al16RuPt8
_symmetry_space_group_name_H-M   'P 1'
_cell_length_a   11.11005468
_cell_length_b   11.11005457
_cell_length_c   11.11005522
_cell_angle_alpha   158.41554853
_cell_angle_beta   116.30046789
_cell_angle_gamma   68.10203502
_symmetry_Int_Tables_number   1
_chemical_formula_structural   Dy2Al16RuPt8
_chemical_formula_sum   'Dy2 Al16 Ru1 Pt8'
_cell_volume   449.07716289
_cell_formula_units_Z   1
loop_
 _symmetry_equiv_pos_site_id
 _symmetry_equiv_pos_as_xyz
  1  'x, y, z'
loop_
 _atom_site_type_symbol
 _atom_site_label
 _atom_site_symmetry_multiplicity
 _atom_site_fract_x
 _atom_site_fract_y
 _atom_site_fract_z
 _atom_site_occupancy
  Dy  Dy0  1  0.230089  0.229953  0.000136  1
  Dy  Dy1  1  0.770184  0.770047  0.000136  1
  Al  Al2  1  0.274483  0.390898  0.883585  1
  Al  Al3  1  0.088973  0.923285  0.165688  1
  Al  Al4  1  0.507429  0.201828  0.305603  1
  Al  Al5  1  0.242403  0.076715  0.165688  1
  Al  Al6  1  0.908862  0.415296  0.493566  1
  Al  Al7  1  0.725878  0.601561  0.124317  1
  Al  Al8  1  0.900346  0.208188  0.692158  1
  Al  Al9  1  0.483971  0.791812  0.692158  1
  Al  Al10  1  0.388581  0.000000  0.388581  1
  Al  Al11  1  0.625819  0.000000  0.625819  1
  Al  Al12  1  0.492687  0.609102  0.883585  1
  Al  Al13  1  0.103774  0.798172  0.305603  1
  Al  Al14  1  0.905212  0.084152  0.821060  1
  Al  Al15  1  0.736908  0.915848  0.821060  1
  Al  Al16  1  0.522757  0.398439  0.124317  1
  Al  Al17  1  0.078270  0.584704  0.493566  1
  Ru  Ru18  1  0.776397  0.500000  0.276397  1
  Pt  Pt19  1  0.024182  0.342829  0.681353  1
  Pt  Pt20  1  0.629466  0.126819  0.502647  1
  Pt  Pt21  1  0.254987  0.500000  0.754987  1
  Pt  Pt22  1  0.375828  0.873181  0.502647  1
  Pt  Pt23  1  0.985560  0.000000  0.985560  1
  Pt  Pt24  1  0.650310  0.336096  0.314215  1
  Pt  Pt25  1  0.338526  0.657171  0.681353  1
  Pt  Pt26  1  0.978118  0.663904  0.314215  1
