# generated using pymatgen
data_TiCo4P4RuW2
_symmetry_space_group_name_H-M   'P 1'
_cell_length_a   3.68362800
_cell_length_b   5.81518743
_cell_length_c   6.78903584
_cell_angle_alpha   90.13911526
_cell_angle_beta   90.00000000
_cell_angle_gamma   90.00000000
_symmetry_Int_Tables_number   1
_chemical_formula_structural   TiCo4P4RuW2
_chemical_formula_sum   'Ti1 Co4 P4 Ru1 W2'
_cell_volume   145.42742138
_cell_formula_units_Z   1
loop_
 _symmetry_equiv_pos_site_id
 _symmetry_equiv_pos_as_xyz
  1  'x, y, z'
loop_
 _atom_site_type_symbol
 _atom_site_label
 _atom_site_symmetry_multiplicity
 _atom_site_fract_x
 _atom_site_fract_y
 _atom_site_fract_z
 _atom_site_occupancy
  Ti  Ti0  1  0.750000  0.522736  0.822898  1
  Co  Co1  1  0.250000  0.858178  0.934711  1
  Co  Co2  1  0.250000  0.358658  0.568935  1
  Co  Co3  1  0.750000  0.144082  0.071761  1
  Co  Co4  1  0.750000  0.640894  0.435479  1
  P  P5  1  0.250000  0.227378  0.878515  1
  P  P6  1  0.250000  0.740799  0.621291  1
  P  P7  1  0.750000  0.769491  0.123591  1
  P  P8  1  0.750000  0.268947  0.382688  1
  Ru  Ru9  1  0.750000  0.028777  0.659973  1
  W  W10  1  0.250000  0.967393  0.328743  1
  W  W11  1  0.250000  0.472668  0.171416  1
