# generated using pymatgen
data_HoTm3(NiPt)2
_symmetry_space_group_name_H-M   'P 1'
_cell_length_a   4.32286600
_cell_length_b   5.44956871
_cell_length_c   6.97667000
_cell_angle_alpha   90.12694063
_cell_angle_beta   90.00000000
_cell_angle_gamma   90.00000000
_symmetry_Int_Tables_number   1
_chemical_formula_structural   HoTm3(NiPt)2
_chemical_formula_sum   'Ho1 Tm3 Ni2 Pt2'
_cell_volume   164.35428143
_cell_formula_units_Z   1
loop_
 _symmetry_equiv_pos_site_id
 _symmetry_equiv_pos_as_xyz
  1  'x, y, z'
loop_
 _atom_site_type_symbol
 _atom_site_label
 _atom_site_symmetry_multiplicity
 _atom_site_fract_x
 _atom_site_fract_y
 _atom_site_fract_z
 _atom_site_occupancy
  Ho  Ho0  1  0.250000  0.136810  0.181710  1
  Tm  Tm1  1  0.250000  0.364327  0.680865  1
  Tm  Tm2  1  0.750000  0.633126  0.320382  1
  Tm  Tm3  1  0.750000  0.867182  0.820143  1
  Ni  Ni4  1  0.750000  0.143644  0.463784  1
  Ni  Ni5  1  0.750000  0.356291  0.953227  1
  Pt  Pt6  1  0.250000  0.862121  0.541202  1
  Pt  Pt7  1  0.250000  0.636500  0.038686  1
