# generated using pymatgen
data_Tb3YSc4(B6Ir)4
_symmetry_space_group_name_H-M   'P 1'
_cell_length_a   3.55576900
_cell_length_b   9.02922501
_cell_length_c   11.40472501
_cell_angle_alpha   90.00450338
_cell_angle_beta   90.00000000
_cell_angle_gamma   90.00000000
_symmetry_Int_Tables_number   1
_chemical_formula_structural   Tb3YSc4(B6Ir)4
_chemical_formula_sum   'Tb3 Y1 Sc4 B24 Ir4'
_cell_volume   366.15825670
_cell_formula_units_Z   1
loop_
 _symmetry_equiv_pos_site_id
 _symmetry_equiv_pos_as_xyz
  1  'x, y, z'
loop_
 _atom_site_type_symbol
 _atom_site_label
 _atom_site_symmetry_multiplicity
 _atom_site_fract_x
 _atom_site_fract_y
 _atom_site_fract_z
 _atom_site_occupancy
  Tb  Tb0  1  0.500000  0.319876  0.413968  1
  Tb  Tb1  1  0.500000  0.680144  0.586009  1
  Tb  Tb2  1  0.500000  0.180146  0.913984  1
  Y  Y3  1  0.500000  0.819744  0.086005  1
  Sc  Sc4  1  0.500000  0.445144  0.124392  1
  Sc  Sc5  1  0.500000  0.554876  0.875635  1
  Sc  Sc6  1  0.500000  0.054858  0.624377  1
  Sc  Sc7  1  0.500000  0.945123  0.375622  1
  B  B8  1  0.000000  0.099958  0.472897  1
  B  B9  1  0.000000  0.900038  0.527075  1
  B  B10  1  0.000000  0.400035  0.972917  1
  B  B11  1  0.000000  0.600059  0.027130  1
  B  B12  1  0.000000  0.129687  0.318282  1
  B  B13  1  0.000000  0.870321  0.681742  1
  B  B14  1  0.000000  0.370314  0.818264  1
  B  B15  1  0.000000  0.629713  0.181689  1
  B  B16  1  0.000000  0.054735  0.065889  1
  B  B17  1  0.000000  0.945220  0.934135  1
  B  B18  1  0.000000  0.445236  0.565924  1
  B  B19  1  0.000000  0.554767  0.434075  1
  B  B20  1  0.000000  0.481864  0.284939  1
  B  B21  1  0.000000  0.518131  0.715059  1
  B  B22  1  0.000000  0.018122  0.784938  1
  B  B23  1  0.000000  0.981786  0.215056  1
  B  B24  1  0.000000  0.254237  0.080391  1
  B  B25  1  0.000000  0.745782  0.919655  1
  B  B26  1  0.000000  0.245781  0.580393  1
  B  B27  1  0.000000  0.754239  0.419610  1
  B  B28  1  0.000000  0.295678  0.235122  1
  B  B29  1  0.000000  0.704347  0.764892  1
  B  B30  1  0.000000  0.204342  0.735127  1
  B  B31  1  0.000000  0.795723  0.264815  1
  Ir  Ir32  1  0.500000  0.141468  0.181458  1
  Ir  Ir33  1  0.500000  0.858499  0.818520  1
  Ir  Ir34  1  0.500000  0.358494  0.681503  1
  Ir  Ir35  1  0.500000  0.641516  0.318513  1
