# generated using pymatgen
data_Yb6Ta4Al12Ir7
_symmetry_space_group_name_H-M   'P 1'
_cell_length_a   9.02799524
_cell_length_b   9.02799612
_cell_length_c   9.02799500
_cell_angle_alpha   60.00000044
_cell_angle_beta   59.99999720
_cell_angle_gamma   59.99999926
_symmetry_Int_Tables_number   1
_chemical_formula_structural   Yb6Ta4Al12Ir7
_chemical_formula_sum   'Yb6 Ta4 Al12 Ir7'
_cell_volume   520.30618313
_cell_formula_units_Z   1
loop_
 _symmetry_equiv_pos_site_id
 _symmetry_equiv_pos_as_xyz
  1  'x, y, z'
loop_
 _atom_site_type_symbol
 _atom_site_label
 _atom_site_symmetry_multiplicity
 _atom_site_fract_x
 _atom_site_fract_y
 _atom_site_fract_z
 _atom_site_occupancy
  Yb  Yb0  1  0.702135  0.702135  0.297865  1
  Yb  Yb1  1  0.297865  0.702135  0.297865  1
  Yb  Yb2  1  0.702135  0.297865  0.297865  1
  Yb  Yb3  1  0.297865  0.297865  0.702135  1
  Yb  Yb4  1  0.702135  0.297865  0.702135  1
  Yb  Yb5  1  0.297865  0.702135  0.702135  1
  Ta  Ta6  1  0.880034  0.880034  0.359899  1
  Ta  Ta7  1  0.880034  0.359899  0.880034  1
  Ta  Ta8  1  0.359899  0.880034  0.880034  1
  Ta  Ta9  1  0.880034  0.880034  0.880034  1
  Al  Al10  1  0.120678  0.120678  0.637964  1
  Al  Al11  1  0.120678  0.637964  0.120678  1
  Al  Al12  1  0.637964  0.120678  0.120678  1
  Al  Al13  1  0.120678  0.120678  0.120678  1
  Al  Al14  1  0.670878  0.670878  0.987366  1
  Al  Al15  1  0.670878  0.987366  0.670878  1
  Al  Al16  1  0.987366  0.670878  0.670878  1
  Al  Al17  1  0.670878  0.670878  0.670878  1
  Al  Al18  1  0.326744  0.326744  0.019768  1
  Al  Al19  1  0.326744  0.019768  0.326744  1
  Al  Al20  1  0.019768  0.326744  0.326744  1
  Al  Al21  1  0.326744  0.326744  0.326744  1
  Ir  Ir22  1  0.000000  0.000000  0.000000  1
  Ir  Ir23  1  0.997304  0.997304  0.502696  1
  Ir  Ir24  1  0.502696  0.997304  0.502696  1
  Ir  Ir25  1  0.997304  0.502696  0.502696  1
  Ir  Ir26  1  0.502696  0.502696  0.997304  1
  Ir  Ir27  1  0.997304  0.502696  0.997304  1
  Ir  Ir28  1  0.502696  0.997304  0.997304  1
