# generated using pymatgen
data_Ho4Ga2B4(IrRu)5
_symmetry_space_group_name_H-M   'P 1'
_cell_length_a   9.65460497
_cell_length_b   9.60205905
_cell_length_c   3.08680500
_cell_angle_alpha   90.00000000
_cell_angle_beta   90.00000000
_cell_angle_gamma   89.83474617
_symmetry_Int_Tables_number   1
_chemical_formula_structural   Ho4Ga2B4(IrRu)5
_chemical_formula_sum   'Ho4 Ga2 B4 Ir5 Ru5'
_cell_volume   286.15824922
_cell_formula_units_Z   1
loop_
 _symmetry_equiv_pos_site_id
 _symmetry_equiv_pos_as_xyz
  1  'x, y, z'
loop_
 _atom_site_type_symbol
 _atom_site_label
 _atom_site_symmetry_multiplicity
 _atom_site_fract_x
 _atom_site_fract_y
 _atom_site_fract_z
 _atom_site_occupancy
  Ho  Ho0  1  0.826488  0.328463  0.000000  1
  Ho  Ho1  1  0.174953  0.675968  0.000000  1
  Ho  Ho2  1  0.324030  0.173565  0.000000  1
  Ho  Ho3  1  0.673973  0.822650  0.000000  1
  Ga  Ga4  1  0.499464  0.500182  0.000000  1
  Ga  Ga5  1  0.003513  0.998975  0.000000  1
  B  B6  1  0.622125  0.119838  0.000000  1
  B  B7  1  0.375073  0.880721  0.000000  1
  B  B8  1  0.123619  0.379619  0.000000  1
  B  B9  1  0.875482  0.621013  0.000000  1
  Ir  Ir10  1  0.783445  0.068834  0.500000  1
  Ir  Ir11  1  0.430140  0.716998  0.500000  1
  Ir  Ir12  1  0.570103  0.282401  0.500000  1
  Ir  Ir13  1  0.069329  0.218028  0.500000  1
  Ir  Ir14  1  0.928948  0.782238  0.500000  1
  Ru  Ru15  1  0.501041  0.999641  0.500000  1
  Ru  Ru16  1  0.000965  0.501731  0.500000  1
  Ru  Ru17  1  0.716990  0.568125  0.500000  1
  Ru  Ru18  1  0.282102  0.430563  0.500000  1
  Ru  Ru19  1  0.218217  0.930447  0.500000  1
