# generated using pymatgen
data_Sm2Al9PdRh2
_symmetry_space_group_name_H-M   'P 1'
_cell_length_a   7.65642000
_cell_length_b   7.65642093
_cell_length_c   9.59881600
_cell_angle_alpha   90.00000000
_cell_angle_beta   90.00000000
_cell_angle_gamma   119.42137508
_symmetry_Int_Tables_number   1
_chemical_formula_structural   Sm2Al9PdRh2
_chemical_formula_sum   'Sm4 Al18 Pd2 Rh4'
_cell_volume   490.12023765
_cell_formula_units_Z   2
loop_
 _symmetry_equiv_pos_site_id
 _symmetry_equiv_pos_as_xyz
  1  'x, y, z'
loop_
 _atom_site_type_symbol
 _atom_site_label
 _atom_site_symmetry_multiplicity
 _atom_site_fract_x
 _atom_site_fract_y
 _atom_site_fract_z
 _atom_site_occupancy
  Sm  Sm0  1  0.995698  0.673341  0.250000  1
  Sm  Sm1  1  0.004302  0.326659  0.750000  1
  Sm  Sm2  1  0.673341  0.995698  0.250000  1
  Sm  Sm3  1  0.326659  0.004302  0.750000  1
  Al  Al4  1  0.134623  0.134623  0.250000  1
  Al  Al5  1  0.865377  0.865377  0.750000  1
  Al  Al6  1  0.001996  0.339644  0.074888  1
  Al  Al7  1  0.998004  0.660356  0.925112  1
  Al  Al8  1  0.998004  0.660356  0.574888  1
  Al  Al9  1  0.339644  0.001996  0.425112  1
  Al  Al10  1  0.001996  0.339644  0.425112  1
  Al  Al11  1  0.660356  0.998004  0.574888  1
  Al  Al12  1  0.660356  0.998004  0.925112  1
  Al  Al13  1  0.339644  0.001996  0.074888  1
  Al  Al14  1  0.337292  0.337292  0.549579  1
  Al  Al15  1  0.662708  0.662708  0.450421  1
  Al  Al16  1  0.662708  0.662708  0.049579  1
  Al  Al17  1  0.337292  0.337292  0.950421  1
  Al  Al18  1  0.339791  0.549731  0.250000  1
  Al  Al19  1  0.660209  0.450269  0.750000  1
  Al  Al20  1  0.549731  0.339791  0.250000  1
  Al  Al21  1  0.450269  0.660209  0.750000  1
  Pd  Pd22  1  0.000000  0.000000  0.000000  1
  Pd  Pd23  1  0.000000  0.000000  0.500000  1
  Rh  Rh24  1  0.671531  0.328469  0.000000  1
  Rh  Rh25  1  0.328469  0.671531  0.000000  1
  Rh  Rh26  1  0.328469  0.671531  0.500000  1
  Rh  Rh27  1  0.671531  0.328469  0.500000  1
