# generated using pymatgen
data_LiMgGaF6
_symmetry_space_group_name_H-M   'P 1'
_cell_length_a   4.66497100
_cell_length_b   4.66497100
_cell_length_c   9.11425400
_cell_angle_alpha   90.00000000
_cell_angle_beta   90.00000000
_cell_angle_gamma   90.00000000
_symmetry_Int_Tables_number   1
_chemical_formula_structural   LiMgGaF6
_chemical_formula_sum   'Li2 Mg2 Ga2 F12'
_cell_volume   198.34398022
_cell_formula_units_Z   2
loop_
 _symmetry_equiv_pos_site_id
 _symmetry_equiv_pos_as_xyz
  1  'x, y, z'
loop_
 _atom_site_type_symbol
 _atom_site_label
 _atom_site_symmetry_multiplicity
 _atom_site_fract_x
 _atom_site_fract_y
 _atom_site_fract_z
 _atom_site_occupancy
  Li  Li0  1  0.500000  0.500000  0.167601  1
  Li  Li1  1  0.000000  0.000000  0.667601  1
  Mg  Mg2  1  0.500000  0.500000  0.835318  1
  Mg  Mg3  1  0.000000  0.000000  0.335318  1
  Ga  Ga4  1  0.500000  0.500000  0.499344  1
  Ga  Ga5  1  0.000000  0.000000  0.999344  1
  F  F6  1  0.191225  0.808775  0.159998  1
  F  F7  1  0.808775  0.191225  0.159998  1
  F  F8  1  0.308775  0.308775  0.659998  1
  F  F9  1  0.691225  0.691225  0.659998  1
  F  F10  1  0.804577  0.195423  0.842294  1
  F  F11  1  0.195423  0.804577  0.842294  1
  F  F12  1  0.695423  0.695423  0.342294  1
  F  F13  1  0.304577  0.304577  0.342294  1
  F  F14  1  0.207475  0.792525  0.496576  1
  F  F15  1  0.792525  0.207475  0.496576  1
  F  F16  1  0.292525  0.292525  0.996576  1
  F  F17  1  0.707475  0.707475  0.996576  1
