# generated using pymatgen
data_CsLa3F10
_symmetry_space_group_name_H-M   'P 1'
_cell_length_a   8.81865763
_cell_length_b   8.81865733
_cell_length_c   8.81865800
_cell_angle_alpha   60.00000500
_cell_angle_beta   60.00000610
_cell_angle_gamma   60.00000513
_symmetry_Int_Tables_number   1
_chemical_formula_structural   CsLa3F10
_chemical_formula_sum   'Cs2 La6 F20'
_cell_volume   484.94502150
_cell_formula_units_Z   2
loop_
 _symmetry_equiv_pos_site_id
 _symmetry_equiv_pos_as_xyz
  1  'x, y, z'
loop_
 _atom_site_type_symbol
 _atom_site_label
 _atom_site_symmetry_multiplicity
 _atom_site_fract_x
 _atom_site_fract_y
 _atom_site_fract_z
 _atom_site_occupancy
  Cs  Cs0  1  0.750000  0.750000  0.750000  1
  Cs  Cs1  1  0.250000  0.250000  0.250000  1
  La  La2  1  0.759718  0.759718  0.240282  1
  La  La3  1  0.240282  0.759718  0.240282  1
  La  La4  1  0.759718  0.240282  0.240282  1
  La  La5  1  0.240282  0.240282  0.759718  1
  La  La6  1  0.759718  0.240282  0.759718  1
  La  La7  1  0.240282  0.759718  0.759718  1
  F  F8  1  0.889896  0.889896  0.330313  1
  F  F9  1  0.889896  0.330313  0.889896  1
  F  F10  1  0.330313  0.889896  0.889896  1
  F  F11  1  0.889896  0.889896  0.889896  1
  F  F12  1  0.110104  0.110104  0.669687  1
  F  F13  1  0.110104  0.669687  0.110104  1
  F  F14  1  0.669687  0.110104  0.110104  1
  F  F15  1  0.110104  0.110104  0.110104  1
  F  F16  1  0.500000  0.500000  0.828840  1
  F  F17  1  0.171160  0.500000  0.828840  1
  F  F18  1  0.500000  0.171160  0.828840  1
  F  F19  1  0.171160  0.828840  0.500000  1
  F  F20  1  0.500000  0.828840  0.500000  1
  F  F21  1  0.500000  0.828840  0.171160  1
  F  F22  1  0.828840  0.171160  0.500000  1
  F  F23  1  0.828840  0.500000  0.171160  1
  F  F24  1  0.828840  0.500000  0.500000  1
  F  F25  1  0.500000  0.500000  0.171160  1
  F  F26  1  0.500000  0.171160  0.500000  1
  F  F27  1  0.171160  0.500000  0.500000  1
