# generated using pymatgen
data_Zr6ZnSiP2
_symmetry_space_group_name_H-M   'P 1'
_cell_length_a   7.16846200
_cell_length_b   7.19023626
_cell_length_c   3.65836300
_cell_angle_alpha   90.00000000
_cell_angle_beta   90.00000000
_cell_angle_gamma   89.71610320
_symmetry_Int_Tables_number   1
_chemical_formula_structural   Zr6ZnSiP2
_chemical_formula_sum   'Zr6 Zn1 Si1 P2'
_cell_volume   188.56045318
_cell_formula_units_Z   1
loop_
 _symmetry_equiv_pos_site_id
 _symmetry_equiv_pos_as_xyz
  1  'x, y, z'
loop_
 _atom_site_type_symbol
 _atom_site_label
 _atom_site_symmetry_multiplicity
 _atom_site_fract_x
 _atom_site_fract_y
 _atom_site_fract_z
 _atom_site_occupancy
  Zr  Zr0  1  0.003363  0.001840  0.000000  1
  Zr  Zr1  1  0.499683  0.494624  0.000000  1
  Zr  Zr2  1  0.668887  0.183637  0.500000  1
  Zr  Zr3  1  0.169591  0.326644  0.500000  1
  Zr  Zr4  1  0.834274  0.659946  0.500000  1
  Zr  Zr5  1  0.318788  0.835051  0.500000  1
  Zn  Zn6  1  0.627253  0.873628  0.000000  1
  Si  Si7  1  0.127714  0.627255  0.000000  1
  P  P8  1  0.873778  0.373324  0.000000  1
  P  P9  1  0.376667  0.124051  0.000000  1
