# generated using pymatgen
data_Pa4P3Se
_symmetry_space_group_name_H-M   'P 1'
_cell_length_a   3.99540060
_cell_length_b   8.94292028
_cell_length_c   10.57364309
_cell_angle_alpha   40.52032842
_cell_angle_beta   124.60963637
_cell_angle_gamma   132.15782178
_symmetry_Int_Tables_number   1
_chemical_formula_structural   Pa4P3Se
_chemical_formula_sum   'Pa4 P3 Se1'
_cell_volume   180.64898366
_cell_formula_units_Z   1
loop_
 _symmetry_equiv_pos_site_id
 _symmetry_equiv_pos_as_xyz
  1  'x, y, z'
loop_
 _atom_site_type_symbol
 _atom_site_label
 _atom_site_symmetry_multiplicity
 _atom_site_fract_x
 _atom_site_fract_y
 _atom_site_fract_z
 _atom_site_occupancy
  Pa  Pa0  1  0.503131  0.396882  0.285659  1
  Pa  Pa1  1  0.741231  0.659671  0.515351  1
  Pa  Pa2  1  0.228921  0.132165  0.033720  1
  Pa  Pa3  1  0.017205  0.924720  0.767263  1
  P  P4  1  0.885538  0.286181  0.651596  1
  P  P5  1  0.359869  0.770689  0.149332  1
  P  P6  1  0.622005  0.028162  0.400600  1
  Se  Se7  1  0.123168  0.528420  0.900440  1
