# generated using pymatgen
data_Sr2P24PdRu7
_symmetry_space_group_name_H-M   'P 1'
_cell_length_a   8.12792496
_cell_length_b   8.12792492
_cell_length_c   8.12792400
_cell_angle_alpha   89.93668362
_cell_angle_beta   89.93668362
_cell_angle_gamma   89.93667713
_symmetry_Int_Tables_number   1
_chemical_formula_structural   Sr2P24PdRu7
_chemical_formula_sum   'Sr2 P24 Pd1 Ru7'
_cell_volume   536.95539179
_cell_formula_units_Z   1
loop_
 _symmetry_equiv_pos_site_id
 _symmetry_equiv_pos_as_xyz
  1  'x, y, z'
loop_
 _atom_site_type_symbol
 _atom_site_label
 _atom_site_symmetry_multiplicity
 _atom_site_fract_x
 _atom_site_fract_y
 _atom_site_fract_z
 _atom_site_occupancy
  Sr  Sr0  1  0.997478  0.997478  0.997478  1
  Sr  Sr1  1  0.502520  0.502520  0.502520  1
  P  P2  1  0.361391  0.140042  0.993305  1
  P  P3  1  0.641468  0.143228  0.999731  1
  P  P4  1  0.358289  0.856008  0.999170  1
  P  P5  1  0.640385  0.856244  0.999818  1
  P  P6  1  0.359956  0.506695  0.138609  1
  P  P7  1  0.643994  0.500829  0.141711  1
  P  P8  1  0.993305  0.361391  0.140042  1
  P  P9  1  0.999731  0.641468  0.143228  1
  P  P10  1  0.506695  0.138609  0.359956  1
  P  P11  1  0.500270  0.858532  0.356769  1
  P  P12  1  0.140042  0.993305  0.361391  1
  P  P13  1  0.856008  0.999170  0.358289  1
  P  P14  1  0.138609  0.359956  0.506695  1
  P  P15  1  0.858532  0.356769  0.500270  1
  P  P16  1  0.141711  0.643994  0.500829  1
  P  P17  1  0.859616  0.643758  0.500183  1
  P  P18  1  0.143228  0.999731  0.641468  1
  P  P19  1  0.856244  0.999818  0.640385  1
  P  P20  1  0.500829  0.141711  0.643994  1
  P  P21  1  0.500183  0.859616  0.643758  1
  P  P22  1  0.999170  0.358289  0.856008  1
  P  P23  1  0.999818  0.640385  0.856244  1
  P  P24  1  0.356769  0.500270  0.858532  1
  P  P25  1  0.643758  0.500183  0.859616  1
  Pd  Pd26  1  0.250000  0.250000  0.250000  1
  Ru  Ru27  1  0.750002  0.250000  0.249997  1
  Ru  Ru28  1  0.249997  0.750002  0.250000  1
  Ru  Ru29  1  0.750001  0.750000  0.250001  1
  Ru  Ru30  1  0.250000  0.249997  0.750002  1
  Ru  Ru31  1  0.750000  0.250001  0.750001  1
  Ru  Ru32  1  0.250001  0.750001  0.750000  1
  Ru  Ru33  1  0.750000  0.750000  0.750000  1
