# generated using pymatgen
data_Ti4PdS8
_symmetry_space_group_name_H-M   'P 1'
_cell_length_a   6.86719513
_cell_length_b   6.86719470
_cell_length_c   8.32624144
_cell_angle_alpha   52.38807053
_cell_angle_beta   52.38807363
_cell_angle_gamma   59.92455082
_symmetry_Int_Tables_number   1
_chemical_formula_structural   Ti4PdS8
_chemical_formula_sum   'Ti4 Pd1 S8'
_cell_volume   241.16295768
_cell_formula_units_Z   1
loop_
 _symmetry_equiv_pos_site_id
 _symmetry_equiv_pos_as_xyz
  1  'x, y, z'
loop_
 _atom_site_type_symbol
 _atom_site_label
 _atom_site_symmetry_multiplicity
 _atom_site_fract_x
 _atom_site_fract_y
 _atom_site_fract_z
 _atom_site_occupancy
  Ti  Ti0  1  0.743471  0.256529  0.500000  1
  Ti  Ti1  1  0.256529  0.743471  0.500000  1
  Ti  Ti2  1  0.743967  0.743967  0.003244  1
  Ti  Ti3  1  0.256033  0.256033  0.996756  1
  Pd  Pd4  1  0.000000  0.000000  0.000000  1
  S  S5  1  0.463184  0.463184  0.330606  1
  S  S6  1  0.536816  0.536816  0.669394  1
  S  S7  1  0.534290  0.036936  0.170860  1
  S  S8  1  0.465710  0.963064  0.829140  1
  S  S9  1  0.963064  0.465710  0.829140  1
  S  S10  1  0.036936  0.534290  0.170860  1
  S  S11  1  0.965695  0.965695  0.332948  1
  S  S12  1  0.034305  0.034305  0.667052  1
