# generated using pymatgen
data_Dy11Ho9(Bi2Os)4
_symmetry_space_group_name_H-M   'P 1'
_cell_length_a   7.94721708
_cell_length_b   9.02016700
_cell_length_c   12.49243112
_cell_angle_alpha   90.00000000
_cell_angle_beta   89.98397769
_cell_angle_gamma   90.00000000
_symmetry_Int_Tables_number   1
_chemical_formula_structural   Dy11Ho9(Bi2Os)4
_chemical_formula_sum   'Dy11 Ho9 Bi8 Os4'
_cell_volume   895.52270359
_cell_formula_units_Z   1
loop_
 _symmetry_equiv_pos_site_id
 _symmetry_equiv_pos_as_xyz
  1  'x, y, z'
loop_
 _atom_site_type_symbol
 _atom_site_label
 _atom_site_symmetry_multiplicity
 _atom_site_fract_x
 _atom_site_fract_y
 _atom_site_fract_z
 _atom_site_occupancy
  Dy  Dy0  1  0.839501  0.750000  0.792085  1
  Dy  Dy1  1  0.160349  0.250000  0.208000  1
  Dy  Dy2  1  0.339607  0.250000  0.708060  1
  Dy  Dy3  1  0.660366  0.750000  0.291875  1
  Dy  Dy4  1  0.375002  0.750000  0.690704  1
  Dy  Dy5  1  0.625005  0.250000  0.309301  1
  Dy  Dy6  1  0.875020  0.250000  0.809347  1
  Dy  Dy7  1  0.124985  0.750000  0.190658  1
  Dy  Dy8  1  0.943420  0.750000  0.504358  1
  Dy  Dy9  1  0.056609  0.250000  0.495639  1
  Dy  Dy10  1  0.443374  0.250000  0.995621  1
  Ho  Ho11  1  0.556915  0.750000  0.004390  1
  Ho  Ho12  1  0.673331  0.041715  0.564628  1
  Ho  Ho13  1  0.326680  0.958277  0.435363  1
  Ho  Ho14  1  0.173433  0.958211  0.935335  1
  Ho  Ho15  1  0.326680  0.541723  0.435363  1
  Ho  Ho16  1  0.826497  0.041503  0.064641  1
  Ho  Ho17  1  0.673331  0.458285  0.564628  1
  Ho  Ho18  1  0.826497  0.458497  0.064641  1
  Ho  Ho19  1  0.173433  0.541789  0.935335  1
  Bi  Bi20  1  0.566362  0.493547  0.827640  1
  Bi  Bi21  1  0.433743  0.506834  0.172372  1
  Bi  Bi22  1  0.066381  0.506653  0.672552  1
  Bi  Bi23  1  0.433743  0.993166  0.172372  1
  Bi  Bi24  1  0.933618  0.493374  0.327448  1
  Bi  Bi25  1  0.566362  0.006453  0.827640  1
  Bi  Bi26  1  0.933618  0.006626  0.327448  1
  Bi  Bi27  1  0.066381  0.993347  0.672552  1
  Os  Os28  1  0.575006  0.750000  0.509592  1
  Os  Os29  1  0.424978  0.250000  0.490403  1
  Os  Os30  1  0.075069  0.250000  0.990394  1
  Os  Os31  1  0.924705  0.750000  0.009616  1
