# generated using pymatgen
data_Ta6V11Ni
_symmetry_space_group_name_H-M   'P 1'
_cell_length_a   8.70052800
_cell_length_b   8.70052676
_cell_length_c   8.22916800
_cell_angle_alpha   90.00000000
_cell_angle_beta   90.00000000
_cell_angle_gamma   119.99998950
_symmetry_Int_Tables_number   1
_chemical_formula_structural   Ta6V11Ni
_chemical_formula_sum   'Ta12 V22 Ni2'
_cell_volume   539.48299827
_cell_formula_units_Z   2
loop_
 _symmetry_equiv_pos_site_id
 _symmetry_equiv_pos_as_xyz
  1  'x, y, z'
loop_
 _atom_site_type_symbol
 _atom_site_label
 _atom_site_symmetry_multiplicity
 _atom_site_fract_x
 _atom_site_fract_y
 _atom_site_fract_z
 _atom_site_occupancy
  Ta  Ta0  1  0.333804  0.000000  0.060256  1
  Ta  Ta1  1  0.666196  0.000000  0.939744  1
  Ta  Ta2  1  0.000000  0.333804  0.060256  1
  Ta  Ta3  1  0.666196  0.000000  0.560256  1
  Ta  Ta4  1  0.000000  0.333804  0.439744  1
  Ta  Ta5  1  0.000000  0.666196  0.939744  1
  Ta  Ta6  1  0.333804  0.000000  0.439744  1
  Ta  Ta7  1  0.000000  0.666196  0.560256  1
  Ta  Ta8  1  0.666196  0.666196  0.060256  1
  Ta  Ta9  1  0.333804  0.333804  0.939744  1
  Ta  Ta10  1  0.333804  0.333804  0.560256  1
  Ta  Ta11  1  0.666196  0.666196  0.439744  1
  V  V12  1  0.162020  0.494694  0.750000  1
  V  V13  1  0.837980  0.505306  0.250000  1
  V  V14  1  0.505306  0.667325  0.750000  1
  V  V15  1  0.494694  0.162020  0.750000  1
  V  V16  1  0.494694  0.332675  0.250000  1
  V  V17  1  0.505306  0.837980  0.250000  1
  V  V18  1  0.332675  0.837980  0.750000  1
  V  V19  1  0.667325  0.505306  0.750000  1
  V  V20  1  0.667325  0.162020  0.250000  1
  V  V21  1  0.332675  0.494694  0.250000  1
  V  V22  1  0.837980  0.332675  0.750000  1
  V  V23  1  0.162020  0.667325  0.250000  1
  V  V24  1  0.333333  0.666667  0.500000  1
  V  V25  1  0.666667  0.333333  0.500000  1
  V  V26  1  0.666667  0.333333  0.000000  1
  V  V27  1  0.333333  0.666667  0.000000  1
  V  V28  1  0.163709  0.000000  0.750000  1
  V  V29  1  0.836291  0.000000  0.250000  1
  V  V30  1  0.000000  0.163709  0.750000  1
  V  V31  1  0.000000  0.836291  0.250000  1
  V  V32  1  0.836291  0.836291  0.750000  1
  V  V33  1  0.163709  0.163709  0.250000  1
  Ni  Ni34  1  0.000000  0.000000  0.500000  1
  Ni  Ni35  1  0.000000  0.000000  0.000000  1
