# generated using pymatgen
data_PrNd3(LuPb)6
_symmetry_space_group_name_H-M   'P 1'
_cell_length_a   9.08828093
_cell_length_b   9.08373901
_cell_length_c   6.64085300
_cell_angle_alpha   90.00000000
_cell_angle_beta   90.00000000
_cell_angle_gamma   119.42494198
_symmetry_Int_Tables_number   1
_chemical_formula_structural   PrNd3(LuPb)6
_chemical_formula_sum   'Pr1 Nd3 Lu6 Pb6'
_cell_volume   477.51654866
_cell_formula_units_Z   1
loop_
 _symmetry_equiv_pos_site_id
 _symmetry_equiv_pos_as_xyz
  1  'x, y, z'
loop_
 _atom_site_type_symbol
 _atom_site_label
 _atom_site_symmetry_multiplicity
 _atom_site_fract_x
 _atom_site_fract_y
 _atom_site_fract_z
 _atom_site_occupancy
  Pr  Pr0  1  0.998901  0.762285  0.250000  1
  Nd  Nd1  1  0.238526  0.001226  0.750000  1
  Nd  Nd2  1  0.000965  0.237858  0.750000  1
  Nd  Nd3  1  0.761796  0.998910  0.250000  1
  Lu  Lu4  1  0.666573  0.333393  0.999901  1
  Lu  Lu5  1  0.333438  0.666516  0.999891  1
  Lu  Lu6  1  0.333438  0.666516  0.500109  1
  Lu  Lu7  1  0.666573  0.333393  0.500099  1
  Lu  Lu8  1  0.757594  0.757817  0.750000  1
  Lu  Lu9  1  0.242270  0.242277  0.250000  1
  Pb  Pb10  1  0.403103  0.403306  0.750000  1
  Pb  Pb11  1  0.603213  0.996759  0.750000  1
  Pb  Pb12  1  0.996561  0.602949  0.750000  1
  Pb  Pb13  1  0.595541  0.596199  0.250000  1
  Pb  Pb14  1  0.398060  0.004179  0.250000  1
  Pb  Pb15  1  0.003449  0.396418  0.250000  1
