# generated using pymatgen
data_HoEr2BiO7
_symmetry_space_group_name_H-M   'P 1'
_cell_length_a   6.53762675
_cell_length_b   6.51408384
_cell_length_c   7.67401000
_cell_angle_alpha   106.93593336
_cell_angle_beta   89.75503661
_cell_angle_gamma   98.93139527
_symmetry_Int_Tables_number   1
_chemical_formula_structural   HoEr2BiO7
_chemical_formula_sum   'Ho2 Er4 Bi2 O14'
_cell_volume   308.55612966
_cell_formula_units_Z   2
loop_
 _symmetry_equiv_pos_site_id
 _symmetry_equiv_pos_as_xyz
  1  'x, y, z'
loop_
 _atom_site_type_symbol
 _atom_site_label
 _atom_site_symmetry_multiplicity
 _atom_site_fract_x
 _atom_site_fract_y
 _atom_site_fract_z
 _atom_site_occupancy
  Ho  Ho0  1  0.731666  0.475255  0.613242  1
  Ho  Ho1  1  0.268334  0.524745  0.386758  1
  Er  Er2  1  0.462796  0.006312  0.251493  1
  Er  Er3  1  0.537204  0.993688  0.748507  1
  Er  Er4  1  0.273990  0.538066  0.883465  1
  Er  Er5  1  0.726010  0.461934  0.116535  1
  Bi  Bi6  1  0.000000  0.000000  0.500000  1
  Bi  Bi7  1  0.000000  0.000000  0.000000  1
  O  O8  1  0.448033  0.650534  0.166123  1
  O  O9  1  0.551967  0.349466  0.833877  1
  O  O10  1  0.303141  0.920346  0.950796  1
  O  O11  1  0.696859  0.079654  0.049204  1
  O  O12  1  0.300506  0.924317  0.513132  1
  O  O13  1  0.699494  0.075683  0.486868  1
  O  O14  1  0.544981  0.362915  0.343549  1
  O  O15  1  0.455019  0.637085  0.656451  1
  O  O16  1  0.925150  0.664977  0.962039  1
  O  O17  1  0.074850  0.335023  0.037961  1
  O  O18  1  0.070060  0.351975  0.623118  1
  O  O19  1  0.929940  0.648025  0.376882  1
  O  O20  1  0.870326  0.897751  0.723889  1
  O  O21  1  0.129674  0.102249  0.276111  1
