# generated using pymatgen
data_Dy4Ga6PdRh6
_symmetry_space_group_name_H-M   'P 1'
_cell_length_a   7.32908304
_cell_length_b   7.32908267
_cell_length_c   7.32908300
_cell_angle_alpha   109.47121601
_cell_angle_beta   109.47121499
_cell_angle_gamma   109.47122731
_symmetry_Int_Tables_number   1
_chemical_formula_structural   Dy4Ga6PdRh6
_chemical_formula_sum   'Dy4 Ga6 Pd1 Rh6'
_cell_volume   303.05889235
_cell_formula_units_Z   1
loop_
 _symmetry_equiv_pos_site_id
 _symmetry_equiv_pos_as_xyz
  1  'x, y, z'
loop_
 _atom_site_type_symbol
 _atom_site_label
 _atom_site_symmetry_multiplicity
 _atom_site_fract_x
 _atom_site_fract_y
 _atom_site_fract_z
 _atom_site_occupancy
  Dy  Dy0  1  0.000000  0.000000  0.500000  1
  Dy  Dy1  1  0.000000  0.500000  0.000000  1
  Dy  Dy2  1  0.500000  0.000000  0.000000  1
  Dy  Dy3  1  0.500000  0.500000  0.500000  1
  Ga  Ga4  1  0.678324  0.678324  0.000000  1
  Ga  Ga5  1  0.321676  0.000000  0.321676  1
  Ga  Ga6  1  0.000000  0.321676  0.321676  1
  Ga  Ga7  1  0.321676  0.321676  0.000000  1
  Ga  Ga8  1  0.678324  0.000000  0.678324  1
  Ga  Ga9  1  0.000000  0.678324  0.678324  1
  Pd  Pd10  1  0.000000  0.000000  0.000000  1
  Rh  Rh11  1  0.750000  0.250000  0.500000  1
  Rh  Rh12  1  0.750000  0.500000  0.250000  1
  Rh  Rh13  1  0.500000  0.250000  0.750000  1
  Rh  Rh14  1  0.250000  0.500000  0.750000  1
  Rh  Rh15  1  0.250000  0.750000  0.500000  1
  Rh  Rh16  1  0.500000  0.750000  0.250000  1
