# generated using pymatgen
data_NdLuCo12GeP6
_symmetry_space_group_name_H-M   'P 1'
_cell_length_a   9.10412100
_cell_length_b   9.10411933
_cell_length_c   3.58487700
_cell_angle_alpha   90.00000000
_cell_angle_beta   90.00000000
_cell_angle_gamma   119.99999518
_symmetry_Int_Tables_number   1
_chemical_formula_structural   NdLuCo12GeP6
_chemical_formula_sum   'Nd1 Lu1 Co12 Ge1 P6'
_cell_volume   257.32434419
_cell_formula_units_Z   1
loop_
 _symmetry_equiv_pos_site_id
 _symmetry_equiv_pos_as_xyz
  1  'x, y, z'
loop_
 _atom_site_type_symbol
 _atom_site_label
 _atom_site_symmetry_multiplicity
 _atom_site_fract_x
 _atom_site_fract_y
 _atom_site_fract_z
 _atom_site_occupancy
  Nd  Nd0  1  0.333333  0.666667  0.500000  1
  Lu  Lu1  1  0.000000  0.000000  0.000000  1
  Co  Co2  1  0.102374  0.389071  0.000000  1
  Co  Co3  1  0.610929  0.713302  0.000000  1
  Co  Co4  1  0.286698  0.897626  0.000000  1
  Co  Co5  1  0.048750  0.773024  0.500000  1
  Co  Co6  1  0.226976  0.275725  0.500000  1
  Co  Co7  1  0.724275  0.951250  0.500000  1
  Co  Co8  1  0.825452  0.620377  0.000000  1
  Co  Co9  1  0.379623  0.205076  0.000000  1
  Co  Co10  1  0.794924  0.174548  0.000000  1
  Co  Co11  1  0.916811  0.443824  0.500000  1
  Co  Co12  1  0.556176  0.472987  0.500000  1
  Co  Co13  1  0.527013  0.083189  0.500000  1
  Ge  Ge14  1  0.666667  0.333333  0.000000  1
  P  P15  1  0.778873  0.738909  0.500000  1
  P  P16  1  0.261091  0.039965  0.500000  1
  P  P17  1  0.960035  0.221127  0.500000  1
  P  P18  1  0.066422  0.624081  0.000000  1
  P  P19  1  0.375919  0.442341  0.000000  1
  P  P20  1  0.557659  0.933578  0.000000  1
