# generated using pymatgen
data_Eu3Y(MoO6)2
_symmetry_space_group_name_H-M   'P 1'
_cell_length_a   5.47860134
_cell_length_b   10.10574029
_cell_length_c   10.10574030
_cell_angle_alpha   67.96843109
_cell_angle_beta   75.08945187
_cell_angle_gamma   75.08945466
_symmetry_Int_Tables_number   1
_chemical_formula_structural   Eu3Y(MoO6)2
_chemical_formula_sum   'Eu6 Y2 Mo4 O24'
_cell_volume   493.04697871
_cell_formula_units_Z   2
loop_
 _symmetry_equiv_pos_site_id
 _symmetry_equiv_pos_as_xyz
  1  'x, y, z'
loop_
 _atom_site_type_symbol
 _atom_site_label
 _atom_site_symmetry_multiplicity
 _atom_site_fract_x
 _atom_site_fract_y
 _atom_site_fract_z
 _atom_site_occupancy
  Eu  Eu0  1  0.250000  0.887032  0.112968  1
  Eu  Eu1  1  0.750000  0.112968  0.887032  1
  Eu  Eu2  1  0.385380  0.947781  0.710932  1
  Eu  Eu3  1  0.614620  0.052219  0.289068  1
  Eu  Eu4  1  0.114620  0.289068  0.052219  1
  Eu  Eu5  1  0.885380  0.710932  0.947781  1
  Y  Y6  1  0.250000  0.368044  0.631956  1
  Y  Y7  1  0.750000  0.631956  0.368044  1
  Mo  Mo8  1  0.061230  0.793352  0.510340  1
  Mo  Mo9  1  0.938770  0.206648  0.489660  1
  Mo  Mo10  1  0.438770  0.489660  0.206648  1
  Mo  Mo11  1  0.561230  0.510340  0.793352  1
  O  O12  1  0.087051  0.167576  0.687356  1
  O  O13  1  0.912949  0.832424  0.312644  1
  O  O14  1  0.412949  0.312644  0.832424  1
  O  O15  1  0.587051  0.687356  0.167576  1
  O  O16  1  0.366817  0.823852  0.383535  1
  O  O17  1  0.633183  0.176148  0.616465  1
  O  O18  1  0.133183  0.616465  0.176148  1
  O  O19  1  0.866817  0.383535  0.823852  1
  O  O20  1  0.135847  0.782141  0.679990  1
  O  O21  1  0.864153  0.217859  0.320010  1
  O  O22  1  0.364153  0.320010  0.217859  1
  O  O23  1  0.635847  0.679990  0.782141  1
  O  O24  1  0.232369  0.066783  0.478459  1
  O  O25  1  0.767631  0.933217  0.521541  1
  O  O26  1  0.267631  0.521541  0.933217  1
  O  O27  1  0.732369  0.478459  0.066783  1
  O  O28  1  0.015010  0.609481  0.546529  1
  O  O29  1  0.984990  0.390519  0.453471  1
  O  O30  1  0.484990  0.453471  0.390519  1
  O  O31  1  0.515010  0.546529  0.609481  1
  O  O32  1  0.571170  0.922596  0.896331  1
  O  O33  1  0.428830  0.077404  0.103669  1
  O  O34  1  0.928830  0.103669  0.077404  1
  O  O35  1  0.071170  0.896331  0.922596  1
