# generated using pymatgen
data_PrY4(In2Pt)2
_symmetry_space_group_name_H-M   'P 1'
_cell_length_a   3.65976100
_cell_length_b   8.22772600
_cell_length_c   18.45528200
_cell_angle_alpha   90.00000000
_cell_angle_beta   90.00000000
_cell_angle_gamma   90.00000000
_symmetry_Int_Tables_number   1
_chemical_formula_structural   PrY4(In2Pt)2
_chemical_formula_sum   'Pr2 Y8 In8 Pt4'
_cell_volume   555.71642203
_cell_formula_units_Z   2
loop_
 _symmetry_equiv_pos_site_id
 _symmetry_equiv_pos_as_xyz
  1  'x, y, z'
loop_
 _atom_site_type_symbol
 _atom_site_label
 _atom_site_symmetry_multiplicity
 _atom_site_fract_x
 _atom_site_fract_y
 _atom_site_fract_z
 _atom_site_occupancy
  Pr  Pr0  1  0.000000  0.000000  0.000000  1
  Pr  Pr1  1  0.000000  0.500000  0.500000  1
  Y  Y2  1  0.000000  0.119374  0.414224  1
  Y  Y3  1  0.000000  0.880626  0.585776  1
  Y  Y4  1  0.000000  0.380626  0.914224  1
  Y  Y5  1  0.000000  0.619374  0.085776  1
  Y  Y6  1  0.000000  0.241837  0.219627  1
  Y  Y7  1  0.000000  0.758163  0.780373  1
  Y  Y8  1  0.000000  0.258163  0.719627  1
  Y  Y9  1  0.000000  0.741837  0.280373  1
  In  In10  1  0.500000  0.421639  0.347944  1
  In  In11  1  0.500000  0.578361  0.652056  1
  In  In12  1  0.500000  0.078361  0.847944  1
  In  In13  1  0.500000  0.921639  0.152056  1
  In  In14  1  0.500000  0.299487  0.068112  1
  In  In15  1  0.500000  0.700513  0.931888  1
  In  In16  1  0.500000  0.200513  0.568112  1
  In  In17  1  0.500000  0.799487  0.431888  1
  Pt  Pt18  1  0.500000  0.024438  0.303451  1
  Pt  Pt19  1  0.500000  0.975562  0.696549  1
  Pt  Pt20  1  0.500000  0.475562  0.803451  1
  Pt  Pt21  1  0.500000  0.524438  0.196549  1
