# generated using pymatgen
data_Tb18Er2CoBi8Ru3
_symmetry_space_group_name_H-M   'P 1'
_cell_length_a   8.03254211
_cell_length_b   9.01352628
_cell_length_c   12.50772036
_cell_angle_alpha   89.96114342
_cell_angle_beta   90.28722671
_cell_angle_gamma   89.95293062
_symmetry_Int_Tables_number   1
_chemical_formula_structural   Tb18Er2CoBi8Ru3
_chemical_formula_sum   'Tb18 Er2 Co1 Bi8 Ru3'
_cell_volume   905.56618900
_cell_formula_units_Z   1
loop_
 _symmetry_equiv_pos_site_id
 _symmetry_equiv_pos_as_xyz
  1  'x, y, z'
loop_
 _atom_site_type_symbol
 _atom_site_label
 _atom_site_symmetry_multiplicity
 _atom_site_fract_x
 _atom_site_fract_y
 _atom_site_fract_z
 _atom_site_occupancy
  Tb  Tb0  1  0.845609  0.750160  0.799552  1
  Tb  Tb1  1  0.155552  0.249828  0.205313  1
  Tb  Tb2  1  0.344771  0.249688  0.706031  1
  Tb  Tb3  1  0.654135  0.750332  0.295299  1
  Tb  Tb4  1  0.377456  0.750609  0.693773  1
  Tb  Tb5  1  0.621305  0.249347  0.306959  1
  Tb  Tb6  1  0.877261  0.249851  0.807326  1
  Tb  Tb7  1  0.120160  0.750082  0.189204  1
  Tb  Tb8  1  0.945846  0.750579  0.504792  1
  Tb  Tb9  1  0.053718  0.249413  0.495797  1
  Tb  Tb10  1  0.449299  0.249945  0.996532  1
  Tb  Tb11  1  0.550472  0.750063  0.003547  1
  Tb  Tb12  1  0.177143  0.958012  0.935676  1
  Tb  Tb13  1  0.323092  0.541935  0.435714  1
  Tb  Tb14  1  0.824211  0.035931  0.062922  1
  Tb  Tb15  1  0.676469  0.458889  0.564281  1
  Tb  Tb16  1  0.824234  0.464016  0.062855  1
  Tb  Tb17  1  0.177127  0.542028  0.935733  1
  Er  Er18  1  0.673945  0.041207  0.563842  1
  Er  Er19  1  0.325552  0.958120  0.436116  1
  Co  Co20  1  0.932448  0.749938  0.009614  1
  Bi  Bi21  1  0.572101  0.492589  0.827516  1
  Bi  Bi22  1  0.428723  0.507663  0.172376  1
  Bi  Bi23  1  0.070531  0.507658  0.673345  1
  Bi  Bi24  1  0.428522  0.992326  0.172548  1
  Bi  Bi25  1  0.928819  0.492917  0.326525  1
  Bi  Bi26  1  0.572285  0.007406  0.827322  1
  Bi  Bi27  1  0.929616  0.006988  0.326738  1
  Bi  Bi28  1  0.069749  0.992403  0.673126  1
  Ru  Ru29  1  0.572019  0.751361  0.511481  1
  Ru  Ru30  1  0.426521  0.248641  0.488791  1
  Ru  Ru31  1  0.071309  0.250076  0.989351  1
