# generated using pymatgen
data_K3Ti7BCl20
_symmetry_space_group_name_H-M   'P 1'
_cell_length_a   12.98371923
_cell_length_b   12.98372070
_cell_length_c   12.98372100
_cell_angle_alpha   55.84815301
_cell_angle_beta   55.84814862
_cell_angle_gamma   55.84815366
_symmetry_Int_Tables_number   1
_chemical_formula_structural   K3Ti7BCl20
_chemical_formula_sum   'K6 Ti14 B2 Cl40'
_cell_volume   1398.71738779
_cell_formula_units_Z   2
loop_
 _symmetry_equiv_pos_site_id
 _symmetry_equiv_pos_as_xyz
  1  'x, y, z'
loop_
 _atom_site_type_symbol
 _atom_site_label
 _atom_site_symmetry_multiplicity
 _atom_site_fract_x
 _atom_site_fract_y
 _atom_site_fract_z
 _atom_site_occupancy
  K  K0  1  0.500000  0.000000  0.500000  1
  K  K1  1  0.000000  0.500000  0.500000  1
  K  K2  1  0.500000  0.000000  0.000000  1
  K  K3  1  0.500000  0.500000  0.000000  1
  K  K4  1  0.000000  0.000000  0.500000  1
  K  K5  1  0.000000  0.500000  0.000000  1
  Ti  Ti6  1  0.323987  0.448995  0.612328  1
  Ti  Ti7  1  0.387672  0.676013  0.551005  1
  Ti  Ti8  1  0.551005  0.387672  0.676013  1
  Ti  Ti9  1  0.948995  0.823987  0.112328  1
  Ti  Ti10  1  0.250000  0.250000  0.250000  1
  Ti  Ti11  1  0.612328  0.323987  0.448995  1
  Ti  Ti12  1  0.176013  0.887672  0.051005  1
  Ti  Ti13  1  0.051005  0.176013  0.887672  1
  Ti  Ti14  1  0.887672  0.051005  0.176013  1
  Ti  Ti15  1  0.676013  0.551005  0.387672  1
  Ti  Ti16  1  0.823987  0.112328  0.948995  1
  Ti  Ti17  1  0.448995  0.612328  0.323987  1
  Ti  Ti18  1  0.112328  0.948995  0.823987  1
  Ti  Ti19  1  0.750000  0.750000  0.750000  1
  B  B20  1  0.000000  0.000000  0.000000  1
  B  B21  1  0.500000  0.500000  0.500000  1
  Cl  Cl22  1  0.859488  0.321126  0.820138  1
  Cl  Cl23  1  0.678874  0.179862  0.140512  1
  Cl  Cl24  1  0.432013  0.570791  0.750118  1
  Cl  Cl25  1  0.821223  0.821223  0.821223  1
  Cl  Cl26  1  0.429209  0.249882  0.567987  1
  Cl  Cl27  1  0.570791  0.750118  0.432013  1
  Cl  Cl28  1  0.567987  0.429209  0.249882  1
  Cl  Cl29  1  0.320138  0.821126  0.359488  1
  Cl  Cl30  1  0.250118  0.070791  0.932013  1
  Cl  Cl31  1  0.894766  0.605234  0.250000  1
  Cl  Cl32  1  0.750118  0.432013  0.570791  1
  Cl  Cl33  1  0.250000  0.433969  0.066031  1
  Cl  Cl34  1  0.433969  0.066031  0.250000  1
  Cl  Cl35  1  0.178777  0.178777  0.178777  1
  Cl  Cl36  1  0.140512  0.678874  0.179862  1
  Cl  Cl37  1  0.605234  0.250000  0.894766  1
  Cl  Cl38  1  0.933969  0.750000  0.566031  1
  Cl  Cl39  1  0.179862  0.140512  0.678874  1
  Cl  Cl40  1  0.640512  0.679862  0.178874  1
  Cl  Cl41  1  0.679862  0.178874  0.640512  1
  Cl  Cl42  1  0.067987  0.749882  0.929209  1
  Cl  Cl43  1  0.750000  0.566031  0.933969  1
  Cl  Cl44  1  0.066031  0.250000  0.433969  1
  Cl  Cl45  1  0.178874  0.640512  0.679862  1
  Cl  Cl46  1  0.566031  0.933969  0.750000  1
  Cl  Cl47  1  0.749882  0.929209  0.067987  1
  Cl  Cl48  1  0.932013  0.250118  0.070791  1
  Cl  Cl49  1  0.821126  0.359488  0.320138  1
  Cl  Cl50  1  0.321223  0.321223  0.321223  1
  Cl  Cl51  1  0.250000  0.894766  0.605234  1
  Cl  Cl52  1  0.678777  0.678777  0.678777  1
  Cl  Cl53  1  0.249882  0.567987  0.429209  1
  Cl  Cl54  1  0.105234  0.394766  0.750000  1
  Cl  Cl55  1  0.070791  0.932013  0.250118  1
  Cl  Cl56  1  0.929209  0.067987  0.749882  1
  Cl  Cl57  1  0.394766  0.750000  0.105234  1
  Cl  Cl58  1  0.750000  0.105234  0.394766  1
  Cl  Cl59  1  0.321126  0.820138  0.859488  1
  Cl  Cl60  1  0.359488  0.320138  0.821126  1
  Cl  Cl61  1  0.820138  0.859488  0.321126  1
