# generated using pymatgen
data_Er9Tm(IrRu)2
_symmetry_space_group_name_H-M   'P 1'
_cell_length_a   6.35965108
_cell_length_b   7.23451985
_cell_length_c   8.38601020
_cell_angle_alpha   96.71708459
_cell_angle_beta   112.28303709
_cell_angle_gamma   90.00000157
_symmetry_Int_Tables_number   1
_chemical_formula_structural   Er9Tm(IrRu)2
_chemical_formula_sum   'Er9 Tm1 Ir2 Ru2'
_cell_volume   354.15513671
_cell_formula_units_Z   1
loop_
 _symmetry_equiv_pos_site_id
 _symmetry_equiv_pos_as_xyz
  1  'x, y, z'
loop_
 _atom_site_type_symbol
 _atom_site_label
 _atom_site_symmetry_multiplicity
 _atom_site_fract_x
 _atom_site_fract_y
 _atom_site_fract_z
 _atom_site_occupancy
  Er  Er0  1  0.792586  0.082180  0.815049  1
  Er  Er1  1  0.977537  0.417820  0.184951  1
  Er  Er2  1  0.208990  0.914958  0.183380  1
  Er  Er3  1  0.025610  0.585042  0.816620  1
  Er  Er4  1  0.207966  0.182155  0.563340  1
  Er  Er5  1  0.644626  0.317845  0.436660  1
  Er  Er6  1  0.790430  0.815153  0.437878  1
  Er  Er7  1  0.352551  0.684847  0.562122  1
  Er  Er8  1  0.423528  0.250000  0.000000  1
  Tm  Tm9  1  0.576369  0.750000  0.000000  1
  Ir  Ir10  1  0.604501  0.423520  0.779100  1
  Ir  Ir11  1  0.825399  0.076480  0.220900  1
  Ru  Ru12  1  0.394569  0.575191  0.219232  1
  Ru  Ru13  1  0.175338  0.924809  0.780768  1
