# generated using pymatgen
data_SmGd(ReH9)2
_symmetry_space_group_name_H-M   'P 1'
_cell_length_a   4.87583500
_cell_length_b   4.87583664
_cell_length_c   8.53989100
_cell_angle_alpha   90.00000000
_cell_angle_beta   90.00000000
_cell_angle_gamma   120.00000924
_symmetry_Int_Tables_number   1
_chemical_formula_structural   SmGd(ReH9)2
_chemical_formula_sum   'Sm1 Gd1 Re2 H18'
_cell_volume   175.82517799
_cell_formula_units_Z   1
loop_
 _symmetry_equiv_pos_site_id
 _symmetry_equiv_pos_as_xyz
  1  'x, y, z'
loop_
 _atom_site_type_symbol
 _atom_site_label
 _atom_site_symmetry_multiplicity
 _atom_site_fract_x
 _atom_site_fract_y
 _atom_site_fract_z
 _atom_site_occupancy
  Sm  Sm0  1  0.000000  0.000000  0.500000  1
  Gd  Gd1  1  0.000000  0.000000  0.000000  1
  Re  Re2  1  0.333333  0.666667  0.248683  1
  Re  Re3  1  0.666667  0.333333  0.751317  1
  H  H4  1  0.476190  0.523810  0.393543  1
  H  H5  1  0.476190  0.952379  0.393543  1
  H  H6  1  0.047621  0.523810  0.393543  1
  H  H7  1  0.955261  0.477631  0.893569  1
  H  H8  1  0.130139  0.260279  0.250146  1
  H  H9  1  0.869861  0.130139  0.749854  1
  H  H10  1  0.260279  0.130139  0.749854  1
  H  H11  1  0.739721  0.869861  0.250146  1
  H  H12  1  0.130139  0.869861  0.250146  1
  H  H13  1  0.869861  0.739721  0.749854  1
  H  H14  1  0.477631  0.955261  0.106431  1
  H  H15  1  0.523810  0.476190  0.606457  1
  H  H16  1  0.952379  0.476190  0.606457  1
  H  H17  1  0.044739  0.522369  0.106431  1
  H  H18  1  0.477631  0.522369  0.106431  1
  H  H19  1  0.522369  0.044739  0.893569  1
  H  H20  1  0.522369  0.477631  0.893569  1
  H  H21  1  0.523810  0.047621  0.606457  1
