# generated using pymatgen
data_La17Lu2MgIr12
_symmetry_space_group_name_H-M   'P 1'
_cell_length_a   11.25634900
_cell_length_b   11.25634900
_cell_length_c   6.57737300
_cell_angle_alpha   90.00000000
_cell_angle_beta   90.00000000
_cell_angle_gamma   90.00000000
_symmetry_Int_Tables_number   1
_chemical_formula_structural   La17Lu2MgIr12
_chemical_formula_sum   'La17 Lu2 Mg1 Ir12'
_cell_volume   833.38862962
_cell_formula_units_Z   1
loop_
 _symmetry_equiv_pos_site_id
 _symmetry_equiv_pos_as_xyz
  1  'x, y, z'
loop_
 _atom_site_type_symbol
 _atom_site_label
 _atom_site_symmetry_multiplicity
 _atom_site_fract_x
 _atom_site_fract_y
 _atom_site_fract_z
 _atom_site_occupancy
  La  La0  1  0.280820  0.085932  0.387156  1
  La  La1  1  0.290083  0.911609  0.884150  1
  La  La2  1  0.709917  0.088391  0.884150  1
  La  La3  1  0.719180  0.914068  0.387156  1
  La  La4  1  0.588871  0.787513  0.886228  1
  La  La5  1  0.586859  0.212186  0.384021  1
  La  La6  1  0.413141  0.787814  0.384021  1
  La  La7  1  0.411129  0.212487  0.886228  1
  La  La8  1  0.212186  0.413141  0.615979  1
  La  La9  1  0.212487  0.588871  0.113772  1
  La  La10  1  0.787513  0.411129  0.113772  1
  La  La11  1  0.787814  0.586859  0.615979  1
  La  La12  1  0.911609  0.709917  0.115850  1
  La  La13  1  0.914068  0.280820  0.612844  1
  La  La14  1  0.085932  0.719180  0.612844  1
  La  La15  1  0.088391  0.290083  0.115850  1
  La  La16  1  0.000000  0.000000  0.000000  1
  Lu  Lu17  1  0.500000  0.500000  0.000000  1
  Lu  Lu18  1  0.500000  0.500000  0.500000  1
  Mg  Mg19  1  0.000000  0.000000  0.500000  1
  Ir  Ir20  1  0.847412  0.154308  0.248049  1
  Ir  Ir21  1  0.845692  0.847412  0.751951  1
  Ir  Ir22  1  0.154308  0.152588  0.751951  1
  Ir  Ir23  1  0.152588  0.845692  0.248049  1
  Ir  Ir24  1  0.646532  0.354439  0.748533  1
  Ir  Ir25  1  0.645561  0.646532  0.251467  1
  Ir  Ir26  1  0.354439  0.353468  0.251467  1
  Ir  Ir27  1  0.353468  0.645561  0.748533  1
  Ir  Ir28  1  0.500000  0.000000  0.118579  1
  Ir  Ir29  1  0.500000  0.000000  0.614654  1
  Ir  Ir30  1  0.000000  0.500000  0.881421  1
  Ir  Ir31  1  0.000000  0.500000  0.385346  1
