# generated using pymatgen
data_InRe6As13
_symmetry_space_group_name_H-M   'P 1'
_cell_length_a   7.69096632
_cell_length_b   7.69096644
_cell_length_c   7.69096624
_cell_angle_alpha   110.46190090
_cell_angle_beta   107.50751755
_cell_angle_gamma   110.46190654
_symmetry_Int_Tables_number   1
_chemical_formula_structural   InRe6As13
_chemical_formula_sum   'In1 Re6 As13'
_cell_volume   349.89659071
_cell_formula_units_Z   1
loop_
 _symmetry_equiv_pos_site_id
 _symmetry_equiv_pos_as_xyz
  1  'x, y, z'
loop_
 _atom_site_type_symbol
 _atom_site_label
 _atom_site_symmetry_multiplicity
 _atom_site_fract_x
 _atom_site_fract_y
 _atom_site_fract_z
 _atom_site_occupancy
  In  In0  1  0.750000  0.500000  0.250000  1
  Re  Re1  1  0.341645  0.000000  0.341645  1
  Re  Re2  1  0.011256  0.334698  0.345954  1
  Re  Re3  1  0.011256  0.665302  0.676558  1
  Re  Re4  1  0.323442  0.334698  0.988744  1
  Re  Re5  1  0.654046  0.665302  0.988744  1
  Re  Re6  1  0.658355  0.000000  0.658355  1
  As  As7  1  0.496472  0.748369  0.244841  1
  As  As8  1  0.496472  0.251631  0.748103  1
  As  As9  1  0.755159  0.251631  0.503528  1
  As  As10  1  0.251897  0.748369  0.503528  1
  As  As11  1  0.250000  0.500000  0.750000  1
  As  As12  1  0.996381  0.992234  0.326766  1
  As  As13  1  0.673234  0.007766  0.003619  1
  As  As14  1  0.996381  0.669615  0.004147  1
  As  As15  1  0.334532  0.330385  0.326766  1
  As  As16  1  0.995853  0.330385  0.003619  1
  As  As17  1  0.673234  0.669615  0.665468  1
  As  As18  1  0.334532  0.007766  0.004147  1
  As  As19  1  0.995853  0.992234  0.665468  1
