# generated using pymatgen
data_Zr3Pa5(InPd2)4
_symmetry_space_group_name_H-M   'P 1'
_cell_length_a   7.55652438
_cell_length_b   7.55652438
_cell_length_c   7.36741500
_cell_angle_alpha   90.00000000
_cell_angle_beta   90.00000000
_cell_angle_gamma   89.62535825
_symmetry_Int_Tables_number   1
_chemical_formula_structural   Zr3Pa5(InPd2)4
_chemical_formula_sum   'Zr3 Pa5 In4 Pd8'
_cell_volume   420.67821849
_cell_formula_units_Z   1
loop_
 _symmetry_equiv_pos_site_id
 _symmetry_equiv_pos_as_xyz
  1  'x, y, z'
loop_
 _atom_site_type_symbol
 _atom_site_label
 _atom_site_symmetry_multiplicity
 _atom_site_fract_x
 _atom_site_fract_y
 _atom_site_fract_z
 _atom_site_occupancy
  Zr  Zr0  1  0.689902  0.685808  0.000000  1
  Zr  Zr1  1  0.189352  0.810648  0.500000  1
  Zr  Zr2  1  0.314192  0.310098  0.000000  1
  Pa  Pa3  1  0.634900  0.639259  0.500000  1
  Pa  Pa4  1  0.812770  0.187230  0.500000  1
  Pa  Pa5  1  0.863186  0.136814  0.000000  1
  Pa  Pa6  1  0.138543  0.861457  0.000000  1
  Pa  Pa7  1  0.360741  0.365100  0.500000  1
  In  In8  1  0.002488  0.503793  0.240601  1
  In  In9  1  0.496207  0.997512  0.759399  1
  In  In10  1  0.496207  0.997512  0.240601  1
  In  In11  1  0.002488  0.503793  0.759399  1
  Pd  Pd12  1  0.635741  0.364259  0.202877  1
  Pd  Pd13  1  0.364624  0.635376  0.798300  1
  Pd  Pd14  1  0.863135  0.863987  0.703089  1
  Pd  Pd15  1  0.635741  0.364259  0.797123  1
  Pd  Pd16  1  0.364624  0.635376  0.201700  1
  Pd  Pd17  1  0.136013  0.136865  0.296911  1
  Pd  Pd18  1  0.863135  0.863987  0.296911  1
  Pd  Pd19  1  0.136013  0.136865  0.703089  1
