# generated using pymatgen
data_Cs4NdUI12
_symmetry_space_group_name_H-M   'P 1'
_cell_length_a   8.64631000
_cell_length_b   8.64631000
_cell_length_c   12.41441400
_cell_angle_alpha   90.00000000
_cell_angle_beta   90.00000000
_cell_angle_gamma   90.00000000
_symmetry_Int_Tables_number   1
_chemical_formula_structural   Cs4NdUI12
_chemical_formula_sum   'Cs4 Nd1 U1 I12'
_cell_volume   928.08516163
_cell_formula_units_Z   1
loop_
 _symmetry_equiv_pos_site_id
 _symmetry_equiv_pos_as_xyz
  1  'x, y, z'
loop_
 _atom_site_type_symbol
 _atom_site_label
 _atom_site_symmetry_multiplicity
 _atom_site_fract_x
 _atom_site_fract_y
 _atom_site_fract_z
 _atom_site_occupancy
  Cs  Cs0  1  0.500000  0.000000  0.786775  1
  Cs  Cs1  1  0.500000  0.000000  0.213225  1
  Cs  Cs2  1  0.000000  0.500000  0.213225  1
  Cs  Cs3  1  0.000000  0.500000  0.786775  1
  Nd  Nd4  1  0.000000  0.000000  0.000000  1
  U  U5  1  0.500000  0.500000  0.500000  1
  I  I6  1  0.747075  0.257630  0.000000  1
  I  I7  1  0.252925  0.742370  0.000000  1
  I  I8  1  0.500000  0.500000  0.262392  1
  I  I9  1  0.293777  0.229385  0.500000  1
  I  I10  1  0.257630  0.252925  0.000000  1
  I  I11  1  0.770615  0.293777  0.500000  1
  I  I12  1  0.000000  0.000000  0.252204  1
  I  I13  1  0.706223  0.770615  0.500000  1
  I  I14  1  0.229385  0.706223  0.500000  1
  I  I15  1  0.500000  0.500000  0.737608  1
  I  I16  1  0.742370  0.747075  0.000000  1
  I  I17  1  0.000000  0.000000  0.747796  1
