# generated using pymatgen
data_TbDy(Al3Pt)6
_symmetry_space_group_name_H-M   'P 1'
_cell_length_a   10.41847807
_cell_length_b   10.41847786
_cell_length_c   10.41847900
_cell_angle_alpha   42.21991769
_cell_angle_beta   42.21991897
_cell_angle_gamma   42.21991827
_symmetry_Int_Tables_number   1
_chemical_formula_structural   TbDy(Al3Pt)6
_chemical_formula_sum   'Tb1 Dy1 Al18 Pt6'
_cell_volume   462.12254409
_cell_formula_units_Z   1
loop_
 _symmetry_equiv_pos_site_id
 _symmetry_equiv_pos_as_xyz
  1  'x, y, z'
loop_
 _atom_site_type_symbol
 _atom_site_label
 _atom_site_symmetry_multiplicity
 _atom_site_fract_x
 _atom_site_fract_y
 _atom_site_fract_z
 _atom_site_occupancy
  Tb  Tb0  1  0.833151  0.833151  0.833151  1
  Dy  Dy1  1  0.166857  0.166857  0.166857  1
  Al  Al2  1  0.107924  0.435987  0.764800  1
  Al  Al3  1  0.435987  0.764800  0.107924  1
  Al  Al4  1  0.563894  0.892131  0.235265  1
  Al  Al5  1  0.949631  0.949631  0.949631  1
  Al  Al6  1  0.050373  0.050373  0.050373  1
  Al  Al7  1  0.296019  0.703964  0.500019  1
  Al  Al8  1  0.892131  0.235265  0.563894  1
  Al  Al9  1  0.385133  0.385133  0.385133  1
  Al  Al10  1  0.500019  0.296019  0.703964  1
  Al  Al11  1  0.235265  0.563894  0.892131  1
  Al  Al12  1  0.716577  0.716577  0.716577  1
  Al  Al13  1  0.614867  0.614867  0.614867  1
  Al  Al14  1  0.334044  0.999997  0.665959  1
  Al  Al15  1  0.703964  0.500019  0.296019  1
  Al  Al16  1  0.665959  0.334044  0.999997  1
  Al  Al17  1  0.283414  0.283414  0.283414  1
  Al  Al18  1  0.999997  0.665959  0.334044  1
  Al  Al19  1  0.764800  0.107924  0.435987  1
  Pt  Pt20  1  0.418803  0.077247  0.760298  1
  Pt  Pt21  1  0.581024  0.239779  0.922840  1
  Pt  Pt22  1  0.077247  0.760298  0.418803  1
  Pt  Pt23  1  0.760298  0.418803  0.077247  1
  Pt  Pt24  1  0.922840  0.581024  0.239779  1
  Pt  Pt25  1  0.239779  0.922840  0.581024  1
