# generated using pymatgen
data_Y2Er4Co17P12Ru
_symmetry_space_group_name_H-M   'P 1'
_cell_length_a   3.69050700
_cell_length_b   10.50234100
_cell_length_c   12.19841400
_cell_angle_alpha   90.00000000
_cell_angle_beta   90.00000000
_cell_angle_gamma   90.00000000
_symmetry_Int_Tables_number   1
_chemical_formula_structural   Y2Er4Co17P12Ru
_chemical_formula_sum   'Y2 Er4 Co17 P12 Ru1'
_cell_volume   472.79787660
_cell_formula_units_Z   1
loop_
 _symmetry_equiv_pos_site_id
 _symmetry_equiv_pos_as_xyz
  1  'x, y, z'
loop_
 _atom_site_type_symbol
 _atom_site_label
 _atom_site_symmetry_multiplicity
 _atom_site_fract_x
 _atom_site_fract_y
 _atom_site_fract_z
 _atom_site_occupancy
  Y  Y0  1  0.000000  0.500000  0.524518  1
  Y  Y1  1  0.500000  0.000000  0.478415  1
  Er  Er2  1  0.500000  0.817401  0.206882  1
  Er  Er3  1  0.500000  0.182599  0.206882  1
  Er  Er4  1  0.000000  0.682976  0.793793  1
  Er  Er5  1  0.000000  0.317024  0.793793  1
  Co  Co6  1  0.000000  0.000000  0.840273  1
  Co  Co7  1  0.500000  0.500000  0.704732  1
  Co  Co8  1  0.000000  0.000000  0.294870  1
  Co  Co9  1  0.000000  0.500000  0.986944  1
  Co  Co10  1  0.500000  0.000000  0.014320  1
  Co  Co11  1  0.500000  0.331985  0.991232  1
  Co  Co12  1  0.500000  0.668015  0.991232  1
  Co  Co13  1  0.000000  0.166613  0.005477  1
  Co  Co14  1  0.000000  0.833387  0.005477  1
  Co  Co15  1  0.500000  0.297305  0.430120  1
  Co  Co16  1  0.500000  0.702695  0.430120  1
  Co  Co17  1  0.000000  0.203058  0.569096  1
  Co  Co18  1  0.000000  0.796942  0.569096  1
  Co  Co19  1  0.500000  0.878973  0.709559  1
  Co  Co20  1  0.500000  0.121027  0.709559  1
  Co  Co21  1  0.000000  0.620927  0.291409  1
  Co  Co22  1  0.000000  0.379073  0.291409  1
  P  P23  1  0.500000  0.500000  0.881652  1
  P  P24  1  0.000000  0.000000  0.117267  1
  P  P25  1  0.500000  0.500000  0.349897  1
  P  P26  1  0.000000  0.000000  0.656171  1
  P  P27  1  0.500000  0.310770  0.616935  1
  P  P28  1  0.500000  0.689230  0.616935  1
  P  P29  1  0.000000  0.188311  0.383599  1
  P  P30  1  0.000000  0.811689  0.383599  1
  P  P31  1  0.500000  0.848722  0.891836  1
  P  P32  1  0.500000  0.151278  0.891836  1
  P  P33  1  0.000000  0.655701  0.105958  1
  P  P34  1  0.000000  0.344299  0.105958  1
  Ru  Ru35  1  0.500000  0.500000  0.159152  1
