# generated using pymatgen
data_Tb9Cd4AgPd4
_symmetry_space_group_name_H-M   'P 1'
_cell_length_a   10.99420200
_cell_length_b   10.99420200
_cell_length_c   3.72223100
_cell_angle_alpha   90.00000000
_cell_angle_beta   90.00000000
_cell_angle_gamma   90.00000000
_symmetry_Int_Tables_number   1
_chemical_formula_structural   Tb9Cd4AgPd4
_chemical_formula_sum   'Tb9 Cd4 Ag1 Pd4'
_cell_volume   449.91528323
_cell_formula_units_Z   1
loop_
 _symmetry_equiv_pos_site_id
 _symmetry_equiv_pos_as_xyz
  1  'x, y, z'
loop_
 _atom_site_type_symbol
 _atom_site_label
 _atom_site_symmetry_multiplicity
 _atom_site_fract_x
 _atom_site_fract_y
 _atom_site_fract_z
 _atom_site_occupancy
  Tb  Tb0  1  0.333876  0.333876  0.500000  1
  Tb  Tb1  1  0.666124  0.666124  0.500000  1
  Tb  Tb2  1  0.333876  0.666124  0.500000  1
  Tb  Tb3  1  0.666124  0.333876  0.500000  1
  Tb  Tb4  1  0.000000  0.291489  0.500000  1
  Tb  Tb5  1  0.000000  0.708511  0.500000  1
  Tb  Tb6  1  0.291489  0.000000  0.500000  1
  Tb  Tb7  1  0.708511  0.000000  0.500000  1
  Tb  Tb8  1  0.000000  0.000000  0.000000  1
  Cd  Cd9  1  0.500000  0.143413  0.000000  1
  Cd  Cd10  1  0.500000  0.856587  0.000000  1
  Cd  Cd11  1  0.143413  0.500000  0.000000  1
  Cd  Cd12  1  0.856587  0.500000  0.000000  1
  Ag  Ag13  1  0.500000  0.500000  0.000000  1
  Pd  Pd14  1  0.193972  0.193972  0.000000  1
  Pd  Pd15  1  0.806028  0.806028  0.000000  1
  Pd  Pd16  1  0.193972  0.806028  0.000000  1
  Pd  Pd17  1  0.806028  0.193972  0.000000  1
