# generated using pymatgen
data_Tm3LuAlGa17Ir6
_symmetry_space_group_name_H-M   'P 1'
_cell_length_a   7.56047414
_cell_length_b   7.56063315
_cell_length_c   9.43831700
_cell_angle_alpha   89.98975597
_cell_angle_beta   89.98870174
_cell_angle_gamma   119.93424087
_symmetry_Int_Tables_number   1
_chemical_formula_structural   Tm3LuAlGa17Ir6
_chemical_formula_sum   'Tm3 Lu1 Al1 Ga17 Ir6'
_cell_volume   467.54105841
_cell_formula_units_Z   1
loop_
 _symmetry_equiv_pos_site_id
 _symmetry_equiv_pos_as_xyz
  1  'x, y, z'
loop_
 _atom_site_type_symbol
 _atom_site_label
 _atom_site_symmetry_multiplicity
 _atom_site_fract_x
 _atom_site_fract_y
 _atom_site_fract_z
 _atom_site_occupancy
  Tm  Tm0  1  0.999219  0.668995  0.249757  1
  Tm  Tm1  1  0.001683  0.329452  0.749441  1
  Tm  Tm2  1  0.668997  0.999221  0.249756  1
  Lu  Lu3  1  0.329443  0.001672  0.749449  1
  Al  Al4  1  0.336047  0.336021  0.949059  1
  Ga  Ga5  1  0.126198  0.126198  0.249068  1
  Ga  Ga6  1  0.872092  0.872076  0.749010  1
  Ga  Ga7  1  0.997560  0.334307  0.081300  1
  Ga  Ga8  1  0.000730  0.664858  0.917281  1
  Ga  Ga9  1  0.000442  0.664496  0.582637  1
  Ga  Ga10  1  0.334393  0.998940  0.417083  1
  Ga  Ga11  1  0.998944  0.334395  0.417060  1
  Ga  Ga12  1  0.664411  0.000400  0.582637  1
  Ga  Ga13  1  0.664775  0.000690  0.917281  1
  Ga  Ga14  1  0.334305  0.997553  0.081278  1
  Ga  Ga15  1  0.331130  0.331094  0.565399  1
  Ga  Ga16  1  0.668761  0.668762  0.432386  1
  Ga  Ga17  1  0.673216  0.673218  0.067897  1
  Ga  Ga18  1  0.340754  0.548710  0.249752  1
  Ga  Ga19  1  0.654939  0.449654  0.750151  1
  Ga  Ga20  1  0.548708  0.340753  0.249752  1
  Ga  Ga21  1  0.449682  0.654977  0.750151  1
  Ir  Ir22  1  0.669680  0.328092  0.999011  1
  Ir  Ir23  1  0.328100  0.669698  0.999011  1
  Ir  Ir24  1  0.328141  0.672253  0.499480  1
  Ir  Ir25  1  0.672239  0.328141  0.499476  1
  Ir  Ir26  1  0.005632  0.005611  0.996309  1
  Ir  Ir27  1  0.999775  0.999761  0.499126  1
