# generated using pymatgen
data_Th10Si15Pd3Au2
_symmetry_space_group_name_H-M   'P 1'
_cell_length_a   4.17885349
_cell_length_b   4.25868601
_cell_length_c   35.85074621
_cell_angle_alpha   86.59511860
_cell_angle_beta   86.66131607
_cell_angle_gamma   90.00216758
_symmetry_Int_Tables_number   1
_chemical_formula_structural   Th10Si15Pd3Au2
_chemical_formula_sum   'Th10 Si15 Pd3 Au2'
_cell_volume   635.80397946
_cell_formula_units_Z   1
loop_
 _symmetry_equiv_pos_site_id
 _symmetry_equiv_pos_as_xyz
  1  'x, y, z'
loop_
 _atom_site_type_symbol
 _atom_site_label
 _atom_site_symmetry_multiplicity
 _atom_site_fract_x
 _atom_site_fract_y
 _atom_site_fract_z
 _atom_site_occupancy
  Th  Th0  1  0.949053  0.449362  0.101264  1
  Th  Th1  1  0.349396  0.849503  0.301014  1
  Th  Th2  1  0.750202  0.250263  0.499596  1
  Th  Th3  1  0.149069  0.648942  0.702207  1
  Th  Th4  1  0.548107  0.048156  0.903520  1
  Th  Th5  1  0.000591  0.000684  0.998356  1
  Th  Th6  1  0.400841  0.400907  0.198115  1
  Th  Th7  1  0.801404  0.801383  0.397519  1
  Th  Th8  1  0.201635  0.201393  0.597278  1
  Th  Th9  1  0.601405  0.600912  0.798096  1
  Si  Si10  1  0.665788  0.166186  0.667873  1
  Si  Si11  1  0.065455  0.565483  0.868768  1
  Si  Si12  1  0.916875  0.916942  0.165635  1
  Si  Si13  1  0.317430  0.317540  0.365219  1
  Si  Si14  1  0.718029  0.717961  0.564003  1
  Si  Si15  1  0.117230  0.116962  0.766254  1
  Si  Si16  1  0.515987  0.516210  0.967352  1
  Si  Si17  1  0.433473  0.934059  0.132284  1
  Si  Si18  1  0.834001  0.333987  0.331968  1
  Si  Si19  1  0.234260  0.734249  0.531511  1
  Si  Si20  1  0.633483  0.133079  0.733726  1
  Si  Si21  1  0.032457  0.532731  0.934380  1
  Si  Si22  1  0.483312  0.483052  0.033388  1
  Si  Si23  1  0.884165  0.883899  0.232337  1
  Si  Si24  1  0.284517  0.284476  0.431626  1
  Pd  Pd25  1  0.466943  0.967197  0.065050  1
  Pd  Pd26  1  0.866997  0.367582  0.264893  1
  Pd  Pd27  1  0.267560  0.768059  0.464460  1
  Au  Au28  1  0.684185  0.683558  0.633157  1
  Au  Au29  1  0.083347  0.082485  0.834751  1
