# generated using pymatgen
data_Zr2ZnCuNi8
_symmetry_space_group_name_H-M   'P 1'
_cell_length_a   4.77483248
_cell_length_b   4.77483263
_cell_length_c   8.25856637
_cell_angle_alpha   106.80309646
_cell_angle_beta   73.19688861
_cell_angle_gamma   120.00000619
_symmetry_Int_Tables_number   1
_chemical_formula_structural   Zr2ZnCuNi8
_chemical_formula_sum   'Zr2 Zn1 Cu1 Ni8'
_cell_volume   153.70868524
_cell_formula_units_Z   1
loop_
 _symmetry_equiv_pos_site_id
 _symmetry_equiv_pos_as_xyz
  1  'x, y, z'
loop_
 _atom_site_type_symbol
 _atom_site_label
 _atom_site_symmetry_multiplicity
 _atom_site_fract_x
 _atom_site_fract_y
 _atom_site_fract_z
 _atom_site_occupancy
  Zr  Zr0  1  0.998191  0.001809  0.005426  1
  Zr  Zr1  1  0.501915  0.498085  0.494252  1
  Zn  Zn2  1  0.375615  0.624385  0.873154  1
  Cu  Cu3  1  0.874231  0.125769  0.377308  1
  Ni  Ni4  1  0.435907  0.564093  0.187873  1
  Ni  Ni5  1  0.936171  0.063829  0.687977  1
  Ni  Ni6  1  0.435907  0.059689  0.187873  1
  Ni  Ni7  1  0.936171  0.560319  0.687977  1
  Ni  Ni8  1  0.187927  0.812073  0.436217  1
  Ni  Ni9  1  0.687969  0.312031  0.936094  1
  Ni  Ni10  1  0.940311  0.564093  0.187873  1
  Ni  Ni11  1  0.439681  0.063829  0.687977  1
