# generated using pymatgen
data_Dy20Ir5RuAu6
_symmetry_space_group_name_H-M   'P 1'
_cell_length_a   11.27276500
_cell_length_b   11.20185776
_cell_length_c   6.32495279
_cell_angle_alpha   90.03949247
_cell_angle_beta   89.71376026
_cell_angle_gamma   90.01190336
_symmetry_Int_Tables_number   1
_chemical_formula_structural   Dy20Ir5RuAu6
_chemical_formula_sum   'Dy20 Ir5 Ru1 Au6'
_cell_volume   798.67899647
_cell_formula_units_Z   1
loop_
 _symmetry_equiv_pos_site_id
 _symmetry_equiv_pos_as_xyz
  1  'x, y, z'
loop_
 _atom_site_type_symbol
 _atom_site_label
 _atom_site_symmetry_multiplicity
 _atom_site_fract_x
 _atom_site_fract_y
 _atom_site_fract_z
 _atom_site_occupancy
  Dy  Dy0  1  0.299875  0.090327  0.358647  1
  Dy  Dy1  1  0.300564  0.908374  0.860398  1
  Dy  Dy2  1  0.695442  0.083411  0.853116  1
  Dy  Dy3  1  0.695504  0.917343  0.349951  1
  Dy  Dy4  1  0.574994  0.792333  0.856736  1
  Dy  Dy5  1  0.574816  0.208211  0.354405  1
  Dy  Dy6  1  0.410668  0.793827  0.369674  1
  Dy  Dy7  1  0.410158  0.204441  0.870396  1
  Dy  Dy8  1  0.213981  0.418350  0.629493  1
  Dy  Dy9  1  0.214567  0.582280  0.129295  1
  Dy  Dy10  1  0.800313  0.415732  0.144224  1
  Dy  Dy11  1  0.799958  0.584487  0.645047  1
  Dy  Dy12  1  0.920862  0.700112  0.146876  1
  Dy  Dy13  1  0.920149  0.299971  0.646972  1
  Dy  Dy14  1  0.096013  0.699533  0.643411  1
  Dy  Dy15  1  0.096228  0.301402  0.143493  1
  Dy  Dy16  1  0.996331  0.999120  0.499118  1
  Dy  Dy17  1  0.997297  0.001037  0.999186  1
  Dy  Dy18  1  0.493584  0.496724  0.996722  1
  Dy  Dy19  1  0.493186  0.502902  0.497218  1
  Ir  Ir20  1  0.347100  0.345895  0.248882  1
  Ir  Ir21  1  0.347303  0.653099  0.748846  1
  Ir  Ir22  1  0.497801  0.000858  0.606087  1
  Ir  Ir23  1  0.001360  0.500352  0.898551  1
  Ir  Ir24  1  0.001157  0.500010  0.399264  1
  Ru  Ru25  1  0.498024  0.999091  0.108136  1
  Au  Au26  1  0.840345  0.155530  0.251978  1
  Au  Au27  1  0.839787  0.844961  0.751739  1
  Au  Au28  1  0.153832  0.155122  0.748632  1
  Au  Au29  1  0.154304  0.845035  0.249498  1
  Au  Au30  1  0.656794  0.346110  0.746702  1
  Au  Au31  1  0.657703  0.654023  0.247307  1
