# generated using pymatgen
data_KVNiS4
_symmetry_space_group_name_H-M   'P 1'
_cell_length_a   7.89109600
_cell_length_b   7.89109600
_cell_length_c   11.55635200
_cell_angle_alpha   90.00000000
_cell_angle_beta   90.00000000
_cell_angle_gamma   90.00000000
_symmetry_Int_Tables_number   1
_chemical_formula_structural   KVNiS4
_chemical_formula_sum   'K4 V4 Ni4 S16'
_cell_volume   719.60705994
_cell_formula_units_Z   4
loop_
 _symmetry_equiv_pos_site_id
 _symmetry_equiv_pos_as_xyz
  1  'x, y, z'
loop_
 _atom_site_type_symbol
 _atom_site_label
 _atom_site_symmetry_multiplicity
 _atom_site_fract_x
 _atom_site_fract_y
 _atom_site_fract_z
 _atom_site_occupancy
  K  K0  1  0.000000  0.500000  0.250000  1
  K  K1  1  0.500000  0.000000  0.750000  1
  K  K2  1  0.500000  0.000000  0.250000  1
  K  K3  1  0.000000  0.500000  0.750000  1
  V  V4  1  0.250057  0.749943  0.500000  1
  V  V5  1  0.749943  0.250057  0.500000  1
  V  V6  1  0.249943  0.249943  0.000000  1
  V  V7  1  0.750057  0.750057  0.000000  1
  Ni  Ni8  1  0.500000  0.500000  0.500000  1
  Ni  Ni9  1  0.000000  0.000000  0.000000  1
  Ni  Ni10  1  0.000000  0.000000  0.500000  1
  Ni  Ni11  1  0.500000  0.500000  0.000000  1
  S  S12  1  0.279089  0.978712  0.000000  1
  S  S13  1  0.021288  0.720911  0.000000  1
  S  S14  1  0.478712  0.220911  0.500000  1
  S  S15  1  0.978712  0.279089  0.000000  1
  S  S16  1  0.521288  0.779089  0.500000  1
  S  S17  1  0.870647  0.129353  0.646051  1
  S  S18  1  0.720911  0.021288  0.000000  1
  S  S19  1  0.370647  0.370647  0.146051  1
  S  S20  1  0.220911  0.478712  0.500000  1
  S  S21  1  0.870647  0.129353  0.353949  1
  S  S22  1  0.779089  0.521288  0.500000  1
  S  S23  1  0.370647  0.370647  0.853949  1
  S  S24  1  0.629353  0.629353  0.853949  1
  S  S25  1  0.629353  0.629353  0.146051  1
  S  S26  1  0.129353  0.870647  0.353949  1
  S  S27  1  0.129353  0.870647  0.646051  1
