# generated using pymatgen
data_Pr3Nd7(Al2Ru3)2
_symmetry_space_group_name_H-M   'P 1'
_cell_length_a   8.57766931
_cell_length_b   8.57766800
_cell_length_c   8.57766800
_cell_angle_alpha   109.47207889
_cell_angle_beta   109.47207917
_cell_angle_gamma   109.47209183
_symmetry_Int_Tables_number   1
_chemical_formula_structural   Pr3Nd7(Al2Ru3)2
_chemical_formula_sum   'Pr3 Nd7 Al4 Ru6'
_cell_volume   485.81621026
_cell_formula_units_Z   1
loop_
 _symmetry_equiv_pos_site_id
 _symmetry_equiv_pos_as_xyz
  1  'x, y, z'
loop_
 _atom_site_type_symbol
 _atom_site_label
 _atom_site_symmetry_multiplicity
 _atom_site_fract_x
 _atom_site_fract_y
 _atom_site_fract_z
 _atom_site_occupancy
  Pr  Pr0  1  0.499863  0.000061  0.285592  1
  Pr  Pr1  1  0.285592  0.499863  0.000061  1
  Pr  Pr2  1  0.000061  0.285592  0.499863  1
  Nd  Nd3  1  0.249987  0.684418  0.434530  1
  Nd  Nd4  1  0.750220  0.815570  0.065462  1
  Nd  Nd5  1  0.434530  0.249987  0.684418  1
  Nd  Nd6  1  0.684418  0.434530  0.249987  1
  Nd  Nd7  1  0.065462  0.750220  0.815570  1
  Nd  Nd8  1  0.815570  0.065462  0.750220  1
  Nd  Nd9  1  0.213983  0.213983  0.213983  1
  Al  Al10  1  0.590380  0.590380  0.590380  1
  Al  Al11  1  0.499989  0.000011  0.909345  1
  Al  Al12  1  0.909345  0.499989  0.000011  1
  Al  Al13  1  0.000011  0.909345  0.499989  1
  Ru  Ru14  1  0.250046  0.117536  0.867777  1
  Ru  Ru15  1  0.749953  0.382629  0.632647  1
  Ru  Ru16  1  0.867776  0.250046  0.117536  1
  Ru  Ru17  1  0.117536  0.867776  0.250046  1
  Ru  Ru18  1  0.632647  0.749953  0.382629  1
  Ru  Ru19  1  0.382629  0.632647  0.749953  1
