# generated using pymatgen
data_Li4MgP12Ir19
_symmetry_space_group_name_H-M   'P 1'
_cell_length_a   12.60505156
_cell_length_b   12.60505105
_cell_length_c   3.90703000
_cell_angle_alpha   90.00000000
_cell_angle_beta   90.00000000
_cell_angle_gamma   120.40611721
_symmetry_Int_Tables_number   1
_chemical_formula_structural   Li4MgP12Ir19
_chemical_formula_sum   'Li4 Mg1 P12 Ir19'
_cell_volume   535.39555438
_cell_formula_units_Z   1
loop_
 _symmetry_equiv_pos_site_id
 _symmetry_equiv_pos_as_xyz
  1  'x, y, z'
loop_
 _atom_site_type_symbol
 _atom_site_label
 _atom_site_symmetry_multiplicity
 _atom_site_fract_x
 _atom_site_fract_y
 _atom_site_fract_z
 _atom_site_occupancy
  Li  Li0  1  0.333777  0.666368  0.000000  1
  Li  Li1  1  0.666368  0.333777  0.000000  1
  Li  Li2  1  0.826404  0.998727  0.500000  1
  Li  Li3  1  0.998727  0.826404  0.500000  1
  Mg  Mg4  1  0.166741  0.166741  0.500000  1
  P  P5  1  0.176115  0.993868  0.000000  1
  P  P6  1  0.993868  0.176115  0.000000  1
  P  P7  1  0.822335  0.822335  0.000000  1
  P  P8  1  0.176496  0.488307  0.500000  1
  P  P9  1  0.513205  0.689238  0.500000  1
  P  P10  1  0.314071  0.824973  0.500000  1
  P  P11  1  0.689238  0.513205  0.500000  1
  P  P12  1  0.824973  0.314071  0.500000  1
  P  P13  1  0.488307  0.176496  0.500000  1
  P  P14  1  0.641604  0.999984  0.000000  1
  P  P15  1  0.999984  0.641604  0.000000  1
  P  P16  1  0.358306  0.358306  0.000000  1
  Ir  Ir17  1  0.459297  0.001578  0.000000  1
  Ir  Ir18  1  0.001578  0.459297  0.000000  1
  Ir  Ir19  1  0.541330  0.541330  0.000000  1
  Ir  Ir20  1  0.359859  0.491570  0.500000  1
  Ir  Ir21  1  0.511313  0.871132  0.500000  1
  Ir  Ir22  1  0.133515  0.640160  0.500000  1
  Ir  Ir23  1  0.871132  0.511313  0.500000  1
  Ir  Ir24  1  0.640160  0.133515  0.500000  1
  Ir  Ir25  1  0.491570  0.359859  0.500000  1
  Ir  Ir26  1  0.180874  0.371232  0.000000  1
  Ir  Ir27  1  0.623901  0.805578  0.000000  1
  Ir  Ir28  1  0.195326  0.816977  0.000000  1
  Ir  Ir29  1  0.805578  0.623901  0.000000  1
  Ir  Ir30  1  0.816977  0.195326  0.000000  1
  Ir  Ir31  1  0.371232  0.180874  0.000000  1
  Ir  Ir32  1  0.291770  0.000042  0.500000  1
  Ir  Ir33  1  0.000042  0.291770  0.500000  1
  Ir  Ir34  1  0.710733  0.710733  0.500000  1
  Ir  Ir35  1  0.003297  0.003297  0.000000  1
