# generated using pymatgen
data_Er8Hf11Si16Rh
_symmetry_space_group_name_H-M   'P 1'
_cell_length_a   7.24358901
_cell_length_b   7.24358939
_cell_length_c   13.18367406
_cell_angle_alpha   90.21950619
_cell_angle_beta   89.78049523
_cell_angle_gamma   89.95079194
_symmetry_Int_Tables_number   1
_chemical_formula_structural   Er8Hf11Si16Rh
_chemical_formula_sum   'Er8 Hf11 Si16 Rh1'
_cell_volume   691.73148352
_cell_formula_units_Z   1
loop_
 _symmetry_equiv_pos_site_id
 _symmetry_equiv_pos_as_xyz
  1  'x, y, z'
loop_
 _atom_site_type_symbol
 _atom_site_label
 _atom_site_symmetry_multiplicity
 _atom_site_fract_x
 _atom_site_fract_y
 _atom_site_fract_z
 _atom_site_occupancy
  Er  Er0  1  0.345005  0.005777  0.464923  1
  Er  Er1  1  0.493794  0.847718  0.717282  1
  Er  Er2  1  0.502694  0.153751  0.211139  1
  Er  Er3  1  0.847718  0.493794  0.282718  1
  Er  Er4  1  0.153751  0.502694  0.788861  1
  Er  Er5  1  0.650791  0.998724  0.966929  1
  Er  Er6  1  0.005777  0.345005  0.535077  1
  Er  Er7  1  0.998724  0.650791  0.033071  1
  Hf  Hf8  1  0.178236  0.822345  0.248098  1
  Hf  Hf9  1  0.822345  0.178236  0.751902  1
  Hf  Hf10  1  0.675722  0.675722  0.500000  1
  Hf  Hf11  1  0.144255  0.003554  0.877167  1
  Hf  Hf12  1  0.497598  0.644991  0.121201  1
  Hf  Hf13  1  0.501597  0.355099  0.627619  1
  Hf  Hf14  1  0.644991  0.497598  0.878799  1
  Hf  Hf15  1  0.355099  0.501597  0.372381  1
  Hf  Hf16  1  0.854492  0.997519  0.373968  1
  Hf  Hf17  1  0.003554  0.144255  0.122833  1
  Hf  Hf18  1  0.997519  0.854492  0.626032  1
  Si  Si19  1  0.203748  0.143311  0.684627  1
  Si  Si20  1  0.362254  0.711978  0.930086  1
  Si  Si21  1  0.640717  0.293222  0.431920  1
  Si  Si22  1  0.711978  0.362254  0.069914  1
  Si  Si23  1  0.293222  0.640717  0.568080  1
  Si  Si24  1  0.795310  0.857902  0.180762  1
  Si  Si25  1  0.143311  0.203748  0.315373  1
  Si  Si26  1  0.857902  0.795310  0.819238  1
  Si  Si27  1  0.292639  0.944990  0.063270  1
  Si  Si28  1  0.550284  0.796454  0.313844  1
  Si  Si29  1  0.442182  0.208081  0.818990  1
  Si  Si30  1  0.796454  0.550284  0.686156  1
  Si  Si31  1  0.208081  0.442182  0.181010  1
  Si  Si32  1  0.702440  0.050552  0.565250  1
  Si  Si33  1  0.944990  0.292639  0.936730  1
  Si  Si34  1  0.050552  0.702440  0.434750  1
  Rh  Rh35  1  0.330271  0.330271  0.000000  1
