# generated using pymatgen
data_HoEr6Th(CdNi)2
_symmetry_space_group_name_H-M   'P 1'
_cell_length_a   9.52768044
_cell_length_b   9.52767960
_cell_length_c   9.53643900
_cell_angle_alpha   59.96957957
_cell_angle_beta   59.96958249
_cell_angle_gamma   59.94417814
_symmetry_Int_Tables_number   1
_chemical_formula_structural   HoEr6Th(CdNi)2
_chemical_formula_sum   'Ho2 Er12 Th2 Cd4 Ni4'
_cell_volume   611.59277450
_cell_formula_units_Z   2
loop_
 _symmetry_equiv_pos_site_id
 _symmetry_equiv_pos_as_xyz
  1  'x, y, z'
loop_
 _atom_site_type_symbol
 _atom_site_label
 _atom_site_symmetry_multiplicity
 _atom_site_fract_x
 _atom_site_fract_y
 _atom_site_fract_z
 _atom_site_occupancy
  Ho  Ho0  1  0.565175  0.565175  0.934825  1
  Ho  Ho1  1  0.935632  0.935632  0.564368  1
  Er  Er2  1  0.349305  0.949631  0.350531  1
  Er  Er3  1  0.949631  0.349305  0.350531  1
  Er  Er4  1  0.812869  0.189252  0.187185  1
  Er  Er5  1  0.189252  0.812869  0.810693  1
  Er  Er6  1  0.189252  0.812869  0.187185  1
  Er  Er7  1  0.812869  0.189252  0.810693  1
  Er  Er8  1  0.187523  0.187523  0.812477  1
  Er  Er9  1  0.812539  0.812539  0.187461  1
  Er  Er10  1  0.936299  0.564539  0.565713  1
  Er  Er11  1  0.564539  0.936299  0.933449  1
  Er  Er12  1  0.564539  0.936299  0.565713  1
  Er  Er13  1  0.936299  0.564539  0.933449  1
  Th  Th14  1  0.344267  0.344267  0.351180  1
  Th  Th15  1  0.344267  0.344267  0.960284  1
  Cd  Cd16  1  0.582940  0.582940  0.579986  1
  Cd  Cd17  1  0.582940  0.582940  0.254135  1
  Cd  Cd18  1  0.583956  0.253313  0.581366  1
  Cd  Cd19  1  0.253313  0.583956  0.581366  1
  Ni  Ni20  1  0.144168  0.144168  0.140234  1
  Ni  Ni21  1  0.144168  0.144168  0.571429  1
  Ni  Ni22  1  0.144597  0.569663  0.142869  1
  Ni  Ni23  1  0.569663  0.144597  0.142869  1
