# generated using pymatgen
data_Ho16Cd3Hg(IrRu)2
_symmetry_space_group_name_H-M   'P 1'
_cell_length_a   9.61122462
_cell_length_b   9.61122646
_cell_length_c   9.62572315
_cell_angle_alpha   59.57045295
_cell_angle_beta   59.57044507
_cell_angle_gamma   59.55169652
_symmetry_Int_Tables_number   1
_chemical_formula_structural   Ho16Cd3Hg(IrRu)2
_chemical_formula_sum   'Ho16 Cd3 Hg1 Ir2 Ru2'
_cell_volume   622.51765721
_cell_formula_units_Z   1
loop_
 _symmetry_equiv_pos_site_id
 _symmetry_equiv_pos_as_xyz
  1  'x, y, z'
loop_
 _atom_site_type_symbol
 _atom_site_label
 _atom_site_symmetry_multiplicity
 _atom_site_fract_x
 _atom_site_fract_y
 _atom_site_fract_z
 _atom_site_occupancy
  Ho  Ho0  1  0.597989  0.597989  0.599421  1
  Ho  Ho1  1  0.599094  0.599094  0.204850  1
  Ho  Ho2  1  0.597470  0.208063  0.598071  1
  Ho  Ho3  1  0.208063  0.597470  0.598071  1
  Ho  Ho4  1  0.061730  0.438441  0.438981  1
  Ho  Ho5  1  0.437634  0.061208  0.058930  1
  Ho  Ho6  1  0.438441  0.061730  0.438981  1
  Ho  Ho7  1  0.061208  0.437634  0.058930  1
  Ho  Ho8  1  0.438218  0.438218  0.060782  1
  Ho  Ho9  1  0.059012  0.059012  0.439550  1
  Ho  Ho10  1  0.186965  0.810076  0.813126  1
  Ho  Ho11  1  0.809650  0.188050  0.188650  1
  Ho  Ho12  1  0.810076  0.186965  0.813126  1
  Ho  Ho13  1  0.188050  0.809650  0.188650  1
  Ho  Ho14  1  0.811233  0.811233  0.188048  1
  Ho  Ho15  1  0.188458  0.188458  0.811069  1
  Cd  Cd16  1  0.830226  0.830226  0.508395  1
  Cd  Cd17  1  0.830416  0.507535  0.830276  1
  Cd  Cd18  1  0.507535  0.830416  0.830276  1
  Hg  Hg19  1  0.833478  0.833478  0.833401  1
  Ir  Ir20  1  0.393977  0.827275  0.391048  1
  Ir  Ir21  1  0.827275  0.393977  0.391048  1
  Ru  Ru22  1  0.391190  0.391190  0.387889  1
  Ru  Ru23  1  0.392614  0.392614  0.828434  1
