# generated using pymatgen
data_Ac3Zr(NiP)4
_symmetry_space_group_name_H-M   'P 1'
_cell_length_a   4.00406800
_cell_length_b   4.00406834
_cell_length_c   16.55874600
_cell_angle_alpha   90.00000000
_cell_angle_beta   90.00000000
_cell_angle_gamma   119.99999718
_symmetry_Int_Tables_number   1
_chemical_formula_structural   Ac3Zr(NiP)4
_chemical_formula_sum   'Ac3 Zr1 Ni4 P4'
_cell_volume   229.91166901
_cell_formula_units_Z   1
loop_
 _symmetry_equiv_pos_site_id
 _symmetry_equiv_pos_as_xyz
  1  'x, y, z'
loop_
 _atom_site_type_symbol
 _atom_site_label
 _atom_site_symmetry_multiplicity
 _atom_site_fract_x
 _atom_site_fract_y
 _atom_site_fract_z
 _atom_site_occupancy
  Ac  Ac0  1  0.000000  0.000000  0.483336  1
  Ac  Ac1  1  0.000000  0.000000  0.016664  1
  Ac  Ac2  1  0.000000  0.000000  0.750000  1
  Zr  Zr3  1  0.000000  0.000000  0.250000  1
  Ni  Ni4  1  0.333333  0.666667  0.334509  1
  Ni  Ni5  1  0.666667  0.333333  0.613700  1
  Ni  Ni6  1  0.666667  0.333333  0.886300  1
  Ni  Ni7  1  0.333333  0.666667  0.165491  1
  P  P8  1  0.333333  0.666667  0.880209  1
  P  P9  1  0.666667  0.333333  0.142502  1
  P  P10  1  0.666667  0.333333  0.357498  1
  P  P11  1  0.333333  0.666667  0.619791  1
