# generated using pymatgen
data_Tm7LuB24Ru3W
_symmetry_space_group_name_H-M   'P 1'
_cell_length_a   3.60436800
_cell_length_b   9.09769953
_cell_length_c   11.48216008
_cell_angle_alpha   89.86018785
_cell_angle_beta   90.00000000
_cell_angle_gamma   90.00000000
_symmetry_Int_Tables_number   1
_chemical_formula_structural   Tm7LuB24Ru3W
_chemical_formula_sum   'Tm7 Lu1 B24 Ru3 W1'
_cell_volume   376.51563836
_cell_formula_units_Z   1
loop_
 _symmetry_equiv_pos_site_id
 _symmetry_equiv_pos_as_xyz
  1  'x, y, z'
loop_
 _atom_site_type_symbol
 _atom_site_label
 _atom_site_symmetry_multiplicity
 _atom_site_fract_x
 _atom_site_fract_y
 _atom_site_fract_z
 _atom_site_occupancy
  Tm  Tm0  1  0.000000  0.321080  0.413703  1
  Tm  Tm1  1  0.000000  0.678129  0.585680  1
  Tm  Tm2  1  0.000000  0.819908  0.087102  1
  Tm  Tm3  1  0.000000  0.177833  0.914822  1
  Tm  Tm4  1  0.000000  0.946442  0.373278  1
  Tm  Tm5  1  0.000000  0.057597  0.628891  1
  Tm  Tm6  1  0.000000  0.442626  0.125467  1
  Lu  Lu7  1  0.000000  0.556739  0.871099  1
  B  B8  1  0.500000  0.549782  0.437149  1
  B  B9  1  0.500000  0.445810  0.568356  1
  B  B10  1  0.500000  0.053727  0.066195  1
  B  B11  1  0.500000  0.946117  0.933421  1
  B  B12  1  0.500000  0.752599  0.423202  1
  B  B13  1  0.500000  0.251446  0.580821  1
  B  B14  1  0.500000  0.248512  0.079444  1
  B  B15  1  0.500000  0.750610  0.919408  1
  B  B16  1  0.500000  0.796276  0.263518  1
  B  B17  1  0.500000  0.208547  0.734876  1
  B  B18  1  0.500000  0.290582  0.232713  1
  B  B19  1  0.500000  0.708658  0.765530  1
  B  B20  1  0.500000  0.631663  0.181296  1
  B  B21  1  0.500000  0.368514  0.815515  1
  B  B22  1  0.500000  0.131705  0.314451  1
  B  B23  1  0.500000  0.869334  0.685147  1
  B  B24  1  0.500000  0.983529  0.212208  1
  B  B25  1  0.500000  0.017574  0.788322  1
  B  B26  1  0.500000  0.475999  0.286403  1
  B  B27  1  0.500000  0.517236  0.713204  1
  B  B28  1  0.500000  0.605282  0.026849  1
  B  B29  1  0.500000  0.393835  0.969357  1
  B  B30  1  0.500000  0.107163  0.471319  1
  B  B31  1  0.500000  0.896767  0.530632  1
  Ru  Ru32  1  0.000000  0.361414  0.680688  1
  Ru  Ru33  1  0.000000  0.137671  0.177898  1
  Ru  Ru34  1  0.000000  0.861613  0.820722  1
  W  W35  1  0.000000  0.637683  0.321315  1
