# generated using pymatgen
data_Ba4SmReWO12
_symmetry_space_group_name_H-M   'P 1'
_cell_length_a   10.22949044
_cell_length_b   10.22949095
_cell_length_c   10.22949122
_cell_angle_alpha   33.91044405
_cell_angle_beta   33.91044057
_cell_angle_gamma   33.91044280
_symmetry_Int_Tables_number   1
_chemical_formula_structural   Ba4SmReWO12
_chemical_formula_sum   'Ba4 Sm1 Re1 W1 O12'
_cell_volume   296.93779697
_cell_formula_units_Z   1
loop_
 _symmetry_equiv_pos_site_id
 _symmetry_equiv_pos_as_xyz
  1  'x, y, z'
loop_
 _atom_site_type_symbol
 _atom_site_label
 _atom_site_symmetry_multiplicity
 _atom_site_fract_x
 _atom_site_fract_y
 _atom_site_fract_z
 _atom_site_occupancy
  Ba  Ba0  1  0.709676  0.709676  0.709676  1
  Ba  Ba1  1  0.285902  0.285902  0.285902  1
  Ba  Ba2  1  0.868386  0.868386  0.868386  1
  Ba  Ba3  1  0.138408  0.138408  0.138408  1
  Sm  Sm4  1  0.999986  0.999986  0.999986  1
  Re  Re5  1  0.422014  0.422014  0.422014  1
  W  W6  1  0.577538  0.577538  0.577538  1
  O  O7  1  0.385419  0.385419  0.862708  1
  O  O8  1  0.862708  0.385419  0.385419  1
  O  O9  1  0.385419  0.862708  0.385419  1
  O  O10  1  0.608314  0.608314  0.145376  1
  O  O11  1  0.145376  0.608314  0.608314  1
  O  O12  1  0.608314  0.145376  0.608314  1
  O  O13  1  0.229444  0.229444  0.679008  1
  O  O14  1  0.679008  0.229444  0.229444  1
  O  O15  1  0.229444  0.679008  0.229444  1
  O  O16  1  0.775007  0.775007  0.314628  1
  O  O17  1  0.314628  0.775007  0.775007  1
  O  O18  1  0.775007  0.314628  0.775007  1
