# generated using pymatgen
data_Pa6Al8Mo3Ir
_symmetry_space_group_name_H-M   'P 1'
_cell_length_a   9.69435208
_cell_length_b   9.51328355
_cell_length_c   8.50377900
_cell_angle_alpha   90.00000000
_cell_angle_beta   90.00000000
_cell_angle_gamma   119.21705670
_symmetry_Int_Tables_number   1
_chemical_formula_structural   Pa6Al8Mo3Ir
_chemical_formula_sum   'Pa12 Al16 Mo6 Ir2'
_cell_volume   684.48571784
_cell_formula_units_Z   2
loop_
 _symmetry_equiv_pos_site_id
 _symmetry_equiv_pos_as_xyz
  1  'x, y, z'
loop_
 _atom_site_type_symbol
 _atom_site_label
 _atom_site_symmetry_multiplicity
 _atom_site_fract_x
 _atom_site_fract_y
 _atom_site_fract_z
 _atom_site_occupancy
  Pa  Pa0  1  0.339542  0.018775  0.073924  1
  Pa  Pa1  1  0.660458  0.981225  0.926076  1
  Pa  Pa2  1  0.006654  0.340336  0.070839  1
  Pa  Pa3  1  0.660458  0.981225  0.573924  1
  Pa  Pa4  1  0.006654  0.340336  0.429161  1
  Pa  Pa5  1  0.993346  0.659664  0.929161  1
  Pa  Pa6  1  0.339542  0.018775  0.426076  1
  Pa  Pa7  1  0.993346  0.659664  0.570839  1
  Pa  Pa8  1  0.666803  0.672747  0.078052  1
  Pa  Pa9  1  0.333197  0.327253  0.921948  1
  Pa  Pa10  1  0.333197  0.327253  0.578052  1
  Pa  Pa11  1  0.666803  0.672747  0.421948  1
  Al  Al12  1  0.327141  0.831353  0.750000  1
  Al  Al13  1  0.665892  0.502529  0.750000  1
  Al  Al14  1  0.672859  0.168647  0.250000  1
  Al  Al15  1  0.334108  0.497471  0.250000  1
  Al  Al16  1  0.828029  0.320997  0.750000  1
  Al  Al17  1  0.171971  0.679003  0.250000  1
  Al  Al18  1  0.333238  0.664210  0.502102  1
  Al  Al19  1  0.666762  0.335790  0.497898  1
  Al  Al20  1  0.666762  0.335790  0.002102  1
  Al  Al21  1  0.333238  0.664210  0.997898  1
  Al  Al22  1  0.163404  0.997733  0.750000  1
  Al  Al23  1  0.836596  0.002267  0.250000  1
  Al  Al24  1  0.999611  0.163916  0.750000  1
  Al  Al25  1  0.000389  0.836084  0.250000  1
  Al  Al26  1  0.837581  0.833519  0.750000  1
  Al  Al27  1  0.162419  0.166481  0.250000  1
  Mo  Mo28  1  0.147990  0.492740  0.750000  1
  Mo  Mo29  1  0.852010  0.507260  0.250000  1
  Mo  Mo30  1  0.512926  0.669383  0.750000  1
  Mo  Mo31  1  0.490949  0.151575  0.750000  1
  Mo  Mo32  1  0.487074  0.330617  0.250000  1
  Mo  Mo33  1  0.509051  0.848425  0.250000  1
  Ir  Ir34  1  0.000000  0.000000  0.500000  1
  Ir  Ir35  1  0.000000  0.000000  0.000000  1
