# generated using pymatgen
data_Ce7Pt20Rh
_symmetry_space_group_name_H-M   'P 1'
_cell_length_a   5.87589000
_cell_length_b   5.89175292
_cell_length_c   16.92534329
_cell_angle_alpha   90.38447435
_cell_angle_beta   90.00000000
_cell_angle_gamma   119.91096498
_symmetry_Int_Tables_number   1
_chemical_formula_structural   Ce7Pt20Rh
_chemical_formula_sum   'Ce7 Pt20 Rh1'
_cell_volume   507.88130464
_cell_formula_units_Z   1
loop_
 _symmetry_equiv_pos_site_id
 _symmetry_equiv_pos_as_xyz
  1  'x, y, z'
loop_
 _atom_site_type_symbol
 _atom_site_label
 _atom_site_symmetry_multiplicity
 _atom_site_fract_x
 _atom_site_fract_y
 _atom_site_fract_z
 _atom_site_occupancy
  Ce  Ce0  1  0.997295  0.994592  0.712997  1
  Ce  Ce1  1  0.666474  0.332948  0.856018  1
  Ce  Ce2  1  0.333753  0.667508  0.143858  1
  Ce  Ce3  1  0.999918  0.999837  0.284799  1
  Ce  Ce4  1  0.670231  0.340461  0.432849  1
  Ce  Ce5  1  0.000086  0.000171  0.999438  1
  Ce  Ce6  1  0.333130  0.666261  0.570653  1
  Pt  Pt7  1  0.331783  0.165381  0.571451  1
  Pt  Pt8  1  0.171980  0.343960  0.856689  1
  Pt  Pt9  1  0.166185  0.332369  0.428618  1
  Pt  Pt10  1  0.167928  0.836001  0.428967  1
  Pt  Pt11  1  0.500466  0.000930  0.712885  1
  Pt  Pt12  1  0.668073  0.836001  0.428967  1
  Pt  Pt13  1  0.172429  0.826004  0.856534  1
  Pt  Pt14  1  0.653574  0.826004  0.856534  1
  Pt  Pt15  1  0.827558  0.173653  0.143036  1
  Pt  Pt16  1  0.833597  0.165381  0.571451  1
  Pt  Pt17  1  0.499984  0.498050  0.712531  1
  Pt  Pt18  1  0.346095  0.173653  0.143036  1
  Pt  Pt19  1  0.826982  0.653965  0.143082  1
  Pt  Pt20  1  0.499714  0.500747  0.287548  1
  Pt  Pt21  1  0.500815  0.001632  0.287393  1
  Pt  Pt22  1  0.499987  0.999976  0.999885  1
  Pt  Pt23  1  0.001031  0.500747  0.287548  1
  Pt  Pt24  1  0.998067  0.498050  0.712531  1
  Pt  Pt25  1  0.499947  0.500329  0.999957  1
  Pt  Pt26  1  0.000382  0.500329  0.999957  1
  Rh  Rh27  1  0.832532  0.665064  0.570788  1
