# generated using pymatgen
data_SrTb2Sm4CoI12
_symmetry_space_group_name_H-M   'P 1'
_cell_length_a   9.90860884
_cell_length_b   9.91652096
_cell_length_c   9.81055031
_cell_angle_alpha   106.47965780
_cell_angle_beta   106.07456500
_cell_angle_gamma   106.23913972
_symmetry_Int_Tables_number   1
_chemical_formula_structural   SrTb2Sm4CoI12
_chemical_formula_sum   'Sr1 Tb2 Sm4 Co1 I12'
_cell_volume   818.37296413
_cell_formula_units_Z   1
loop_
 _symmetry_equiv_pos_site_id
 _symmetry_equiv_pos_as_xyz
  1  'x, y, z'
loop_
 _atom_site_type_symbol
 _atom_site_label
 _atom_site_symmetry_multiplicity
 _atom_site_fract_x
 _atom_site_fract_y
 _atom_site_fract_z
 _atom_site_occupancy
  Sr  Sr0  1  0.499844  0.499914  0.500076  1
  Tb  Tb1  1  0.905761  0.707137  0.979817  1
  Tb  Tb2  1  0.707282  0.979214  0.906688  1
  Sm  Sm3  1  0.019042  0.089591  0.282812  1
  Sm  Sm4  1  0.093761  0.296962  0.019639  1
  Sm  Sm5  1  0.296742  0.020084  0.094405  1
  Sm  Sm6  1  0.979939  0.908965  0.716777  1
  Co  Co7  1  0.999556  0.999480  0.999594  1
  I  I8  1  0.138228  0.450370  0.371407  1
  I  I9  1  0.450919  0.369810  0.137077  1
  I  I10  1  0.369596  0.139016  0.452275  1
  I  I11  1  0.861878  0.549780  0.632346  1
  I  I12  1  0.553189  0.633572  0.864929  1
  I  I13  1  0.630376  0.862656  0.551802  1
  I  I14  1  0.677788  0.073049  0.222570  1
  I  I15  1  0.072669  0.222682  0.676210  1
  I  I16  1  0.220315  0.676757  0.072516  1
  I  I17  1  0.323409  0.925901  0.773705  1
  I  I18  1  0.926214  0.774592  0.319467  1
  I  I19  1  0.773491  0.320469  0.925886  1
