# generated using pymatgen
data_Lu12InFe2TcAg
_symmetry_space_group_name_H-M   'P 1'
_cell_length_a   8.15841887
_cell_length_b   8.15856523
_cell_length_c   8.15841914
_cell_angle_alpha   110.53313304
_cell_angle_beta   107.12528009
_cell_angle_gamma   110.77973896
_symmetry_Int_Tables_number   1
_chemical_formula_structural   Lu12InFe2TcAg
_chemical_formula_sum   'Lu12 In1 Fe2 Tc1 Ag1'
_cell_volume   417.50574426
_cell_formula_units_Z   1
loop_
 _symmetry_equiv_pos_site_id
 _symmetry_equiv_pos_as_xyz
  1  'x, y, z'
loop_
 _atom_site_type_symbol
 _atom_site_label
 _atom_site_symmetry_multiplicity
 _atom_site_fract_x
 _atom_site_fract_y
 _atom_site_fract_z
 _atom_site_occupancy
  Lu  Lu0  1  0.309245  0.308191  0.617355  1
  Lu  Lu1  1  0.690755  0.691809  0.382645  1
  Lu  Lu2  1  0.690837  0.308191  0.998946  1
  Lu  Lu3  1  0.309163  0.691809  0.001054  1
  Lu  Lu4  1  0.195699  0.447050  0.251351  1
  Lu  Lu5  1  0.804301  0.552950  0.748649  1
  Lu  Lu6  1  0.195660  0.944317  0.748658  1
  Lu  Lu7  1  0.961486  0.191678  0.769777  1
  Lu  Lu8  1  0.804340  0.055683  0.251342  1
  Lu  Lu9  1  0.038514  0.808322  0.230223  1
  Lu  Lu10  1  0.421900  0.191678  0.230191  1
  Lu  Lu11  1  0.578100  0.808322  0.769809  1
  In  In12  1  0.500000  0.000000  0.500000  1
  Fe  Fe13  1  0.381848  0.381671  0.999823  1
  Fe  Fe14  1  0.618152  0.618329  0.000177  1
  Tc  Tc15  1  0.000000  0.000000  0.000000  1
  Ag  Ag16  1  0.000000  0.500000  0.500000  1
