# generated using pymatgen
data_SrPr3(Al8Pt3)3
_symmetry_space_group_name_H-M   'P 1'
_cell_length_a   7.56783041
_cell_length_b   7.58725812
_cell_length_c   13.42090918
_cell_angle_alpha   84.67872258
_cell_angle_beta   100.76997098
_cell_angle_gamma   119.70299847
_symmetry_Int_Tables_number   1
_chemical_formula_structural   SrPr3(Al8Pt3)3
_chemical_formula_sum   'Sr1 Pr3 Al24 Pt9'
_cell_volume   657.57101859
_cell_formula_units_Z   1
loop_
 _symmetry_equiv_pos_site_id
 _symmetry_equiv_pos_as_xyz
  1  'x, y, z'
loop_
 _atom_site_type_symbol
 _atom_site_label
 _atom_site_symmetry_multiplicity
 _atom_site_fract_x
 _atom_site_fract_y
 _atom_site_fract_z
 _atom_site_occupancy
  Sr  Sr0  1  0.232115  0.497182  0.191643  1
  Pr  Pr1  1  0.436880  0.830710  0.808026  1
  Pr  Pr2  1  0.562992  0.169183  0.192287  1
  Pr  Pr3  1  0.768752  0.502584  0.808239  1
  Al  Al4  1  0.479541  0.166131  0.945665  1
  Al  Al5  1  0.520474  0.833886  0.052282  1
  Al  Al6  1  0.022020  0.168196  0.560478  1
  Al  Al7  1  0.978480  0.831654  0.440809  1
  Al  Al8  1  0.354381  0.833912  0.558463  1
  Al  Al9  1  0.646311  0.166227  0.442684  1
  Al  Al10  1  0.620394  0.834243  0.335040  1
  Al  Al11  1  0.380300  0.165713  0.666700  1
  Al  Al12  1  0.055079  0.493008  0.665841  1
  Al  Al13  1  0.945923  0.508267  0.335462  1
  Al  Al14  1  0.730478  0.841260  0.664595  1
  Al  Al15  1  0.269568  0.158527  0.337452  1
  Al  Al16  1  0.147716  0.497835  0.946880  1
  Al  Al17  1  0.851150  0.502225  0.051624  1
  Al  Al18  1  0.818709  0.834096  0.955798  1
  Al  Al19  1  0.179373  0.164337  0.040945  1
  Al  Al20  1  0.314351  0.500675  0.442285  1
  Al  Al21  1  0.686146  0.499764  0.558841  1
  Al  Al22  1  0.102067  0.840396  0.183918  1
  Al  Al23  1  0.899179  0.164540  0.815590  1
  Al  Al24  1  0.304083  0.366395  0.814300  1
  Al  Al25  1  0.699176  0.631994  0.184868  1
  Al  Al26  1  0.102083  0.962349  0.815027  1
  Al  Al27  1  0.892612  0.034575  0.184577  1
  Pt  Pt28  1  0.385160  0.505542  0.636035  1
  Pt  Pt29  1  0.615746  0.494701  0.365072  1
  Pt  Pt30  1  0.170523  0.829395  0.998653  1
  Pt  Pt31  1  0.828527  0.169973  0.999556  1
  Pt  Pt32  1  0.293282  0.832721  0.364742  1
  Pt  Pt33  1  0.706682  0.167394  0.636335  1
  Pt  Pt34  1  0.047244  0.828422  0.635275  1
  Pt  Pt35  1  0.952828  0.172004  0.365402  1
  Pt  Pt36  1  0.499674  0.499982  0.998612  1
