# generated using pymatgen
data_YPaB6W
_symmetry_space_group_name_H-M   'P 1'
_cell_length_a   3.73343300
_cell_length_b   9.25325700
_cell_length_c   11.59882900
_cell_angle_alpha   90.00000000
_cell_angle_beta   90.00000000
_cell_angle_gamma   90.00000000
_symmetry_Int_Tables_number   1
_chemical_formula_structural   YPaB6W
_chemical_formula_sum   'Y4 Pa4 B24 W4'
_cell_volume   400.69796063
_cell_formula_units_Z   4
loop_
 _symmetry_equiv_pos_site_id
 _symmetry_equiv_pos_as_xyz
  1  'x, y, z'
loop_
 _atom_site_type_symbol
 _atom_site_label
 _atom_site_symmetry_multiplicity
 _atom_site_fract_x
 _atom_site_fract_y
 _atom_site_fract_z
 _atom_site_occupancy
  Y  Y0  1  0.000000  0.945856  0.374719  1
  Y  Y1  1  0.000000  0.054144  0.625281  1
  Y  Y2  1  0.000000  0.445856  0.125281  1
  Y  Y3  1  0.000000  0.554144  0.874719  1
  Pa  Pa4  1  0.000000  0.322361  0.412926  1
  Pa  Pa5  1  0.000000  0.677639  0.587074  1
  Pa  Pa6  1  0.000000  0.822361  0.087074  1
  Pa  Pa7  1  0.000000  0.177639  0.912926  1
  B  B8  1  0.500000  0.552566  0.433354  1
  B  B9  1  0.500000  0.447434  0.566646  1
  B  B10  1  0.500000  0.052566  0.066646  1
  B  B11  1  0.500000  0.947434  0.933354  1
  B  B12  1  0.500000  0.747693  0.421040  1
  B  B13  1  0.500000  0.252307  0.578960  1
  B  B14  1  0.500000  0.247693  0.078960  1
  B  B15  1  0.500000  0.752307  0.921040  1
  B  B16  1  0.500000  0.793589  0.265441  1
  B  B17  1  0.500000  0.206411  0.734559  1
  B  B18  1  0.500000  0.293589  0.234559  1
  B  B19  1  0.500000  0.706411  0.765441  1
  B  B20  1  0.500000  0.633707  0.185701  1
  B  B21  1  0.500000  0.366293  0.814299  1
  B  B22  1  0.500000  0.133707  0.314299  1
  B  B23  1  0.500000  0.866293  0.685701  1
  B  B24  1  0.500000  0.981616  0.212660  1
  B  B25  1  0.500000  0.018384  0.787340  1
  B  B26  1  0.500000  0.481616  0.287340  1
  B  B27  1  0.500000  0.518384  0.712660  1
  B  B28  1  0.500000  0.615849  0.032373  1
  B  B29  1  0.500000  0.384151  0.967627  1
  B  B30  1  0.500000  0.115849  0.467627  1
  B  B31  1  0.500000  0.884151  0.532373  1
  W  W32  1  0.000000  0.638482  0.322177  1
  W  W33  1  0.000000  0.361518  0.677823  1
  W  W34  1  0.000000  0.138482  0.177823  1
  W  W35  1  0.000000  0.861518  0.822177  1
