# generated using pymatgen
data_Cs3ReF7
_symmetry_space_group_name_H-M   'P 1'
_cell_length_a   8.72578200
_cell_length_b   8.72578200
_cell_length_c   6.43568500
_cell_angle_alpha   90.00000000
_cell_angle_beta   90.00000000
_cell_angle_gamma   90.00000000
_symmetry_Int_Tables_number   1
_chemical_formula_structural   Cs3ReF7
_chemical_formula_sum   'Cs6 Re2 F14'
_cell_volume   490.00836758
_cell_formula_units_Z   2
loop_
 _symmetry_equiv_pos_site_id
 _symmetry_equiv_pos_as_xyz
  1  'x, y, z'
loop_
 _atom_site_type_symbol
 _atom_site_label
 _atom_site_symmetry_multiplicity
 _atom_site_fract_x
 _atom_site_fract_y
 _atom_site_fract_z
 _atom_site_occupancy
  Cs  Cs0  1  0.692372  0.192372  0.500000  1
  Cs  Cs1  1  0.807628  0.692372  0.500000  1
  Cs  Cs2  1  0.500000  0.500000  0.000000  1
  Cs  Cs3  1  0.192372  0.307628  0.500000  1
  Cs  Cs4  1  0.307628  0.807628  0.500000  1
  Cs  Cs5  1  0.000000  0.000000  0.000000  1
  Re  Re6  1  0.500000  0.000000  0.000000  1
  Re  Re7  1  0.000000  0.500000  0.000000  1
  F  F8  1  0.500000  0.500000  0.500000  1
  F  F9  1  0.000000  0.000000  0.500000  1
  F  F10  1  0.889039  0.389039  0.224101  1
  F  F11  1  0.610961  0.889039  0.775899  1
  F  F12  1  0.161164  0.338836  0.000000  1
  F  F13  1  0.889039  0.389039  0.775899  1
  F  F14  1  0.389039  0.110961  0.775899  1
  F  F15  1  0.838836  0.661164  0.000000  1
  F  F16  1  0.110961  0.610961  0.224101  1
  F  F17  1  0.661164  0.161164  0.000000  1
  F  F18  1  0.610961  0.889039  0.224101  1
  F  F19  1  0.389039  0.110961  0.224101  1
  F  F20  1  0.110961  0.610961  0.775899  1
  F  F21  1  0.338836  0.838836  0.000000  1
