# generated using pymatgen
data_Ba2CaEuPb2
_symmetry_space_group_name_H-M   'P 1'
_cell_length_a   5.38112700
_cell_length_b   9.02382200
_cell_length_c   10.00619900
_cell_angle_alpha   90.00000000
_cell_angle_beta   90.00000000
_cell_angle_gamma   90.00000000
_symmetry_Int_Tables_number   1
_chemical_formula_structural   Ba2CaEuPb2
_chemical_formula_sum   'Ba4 Ca2 Eu2 Pb4'
_cell_volume   485.88433518
_cell_formula_units_Z   2
loop_
 _symmetry_equiv_pos_site_id
 _symmetry_equiv_pos_as_xyz
  1  'x, y, z'
loop_
 _atom_site_type_symbol
 _atom_site_label
 _atom_site_symmetry_multiplicity
 _atom_site_fract_x
 _atom_site_fract_y
 _atom_site_fract_z
 _atom_site_occupancy
  Ba  Ba0  1  0.250000  0.521961  0.318176  1
  Ba  Ba1  1  0.250000  0.021961  0.181824  1
  Ba  Ba2  1  0.750000  0.479960  0.681132  1
  Ba  Ba3  1  0.750000  0.979960  0.818868  1
  Ca  Ca4  1  0.750000  0.354138  0.072116  1
  Ca  Ca5  1  0.750000  0.854138  0.427884  1
  Eu  Eu6  1  0.250000  0.646014  0.927276  1
  Eu  Eu7  1  0.250000  0.146014  0.572724  1
  Pb  Pb8  1  0.250000  0.270716  0.894656  1
  Pb  Pb9  1  0.250000  0.770716  0.605344  1
  Pb  Pb10  1  0.750000  0.727211  0.112082  1
  Pb  Pb11  1  0.750000  0.227211  0.387918  1
