# generated using pymatgen
data_SrLi4Yb3Si8
_symmetry_space_group_name_H-M   'P 1'
_cell_length_a   3.81776000
_cell_length_b   7.92813404
_cell_length_c   10.73949692
_cell_angle_alpha   90.08156715
_cell_angle_beta   90.00000000
_cell_angle_gamma   90.00000000
_symmetry_Int_Tables_number   1
_chemical_formula_structural   SrLi4Yb3Si8
_chemical_formula_sum   'Sr1 Li4 Yb3 Si8'
_cell_volume   325.05968128
_cell_formula_units_Z   1
loop_
 _symmetry_equiv_pos_site_id
 _symmetry_equiv_pos_as_xyz
  1  'x, y, z'
loop_
 _atom_site_type_symbol
 _atom_site_label
 _atom_site_symmetry_multiplicity
 _atom_site_fract_x
 _atom_site_fract_y
 _atom_site_fract_z
 _atom_site_occupancy
  Sr  Sr0  1  0.750000  0.362253  0.364831  1
  Li  Li1  1  0.250000  0.001495  0.388654  1
  Li  Li2  1  0.750000  0.999424  0.613892  1
  Li  Li3  1  0.250000  0.500605  0.109686  1
  Li  Li4  1  0.750000  0.499953  0.888867  1
  Yb  Yb5  1  0.250000  0.131565  0.865204  1
  Yb  Yb6  1  0.750000  0.864910  0.132783  1
  Yb  Yb7  1  0.250000  0.635431  0.635325  1
  Si  Si8  1  0.750000  0.262296  0.061998  1
  Si  Si9  1  0.250000  0.734260  0.931793  1
  Si  Si10  1  0.750000  0.773128  0.432799  1
  Si  Si11  1  0.250000  0.228690  0.577988  1
  Si  Si12  1  0.750000  0.832801  0.824445  1
  Si  Si13  1  0.250000  0.159829  0.167654  1
  Si  Si14  1  0.750000  0.332894  0.682063  1
  Si  Si15  1  0.250000  0.680464  0.322017  1
