# generated using pymatgen
data_Nd4Dy3FeBr12
_symmetry_space_group_name_H-M   'P 1'
_cell_length_a   9.29137044
_cell_length_b   9.40588759
_cell_length_c   9.38914201
_cell_angle_alpha   106.82464271
_cell_angle_beta   107.17231129
_cell_angle_gamma   106.71607088
_symmetry_Int_Tables_number   1
_chemical_formula_structural   Nd4Dy3FeBr12
_chemical_formula_sum   'Nd4 Dy3 Fe1 Br12'
_cell_volume   685.12873891
_cell_formula_units_Z   1
loop_
 _symmetry_equiv_pos_site_id
 _symmetry_equiv_pos_as_xyz
  1  'x, y, z'
loop_
 _atom_site_type_symbol
 _atom_site_label
 _atom_site_symmetry_multiplicity
 _atom_site_fract_x
 _atom_site_fract_y
 _atom_site_fract_z
 _atom_site_occupancy
  Nd  Nd0  1  0.701530  0.978567  0.905089  1
  Nd  Nd1  1  0.976072  0.896998  0.684895  1
  Nd  Nd2  1  0.101231  0.312875  0.021945  1
  Nd  Nd3  1  0.299604  0.023509  0.098479  1
  Dy  Dy4  1  0.498761  0.498385  0.502719  1
  Dy  Dy5  1  0.901773  0.697613  0.976845  1
  Dy  Dy6  1  0.022702  0.096023  0.303061  1
  Fe  Fe7  1  0.000526  0.000619  0.998816  1
  Br  Br8  1  0.070353  0.222692  0.673413  1
  Br  Br9  1  0.383420  0.172392  0.466773  1
  Br  Br10  1  0.605744  0.822364  0.532700  1
  Br  Br11  1  0.217913  0.681888  0.070202  1
  Br  Br12  1  0.774384  0.325293  0.929763  1
  Br  Br13  1  0.691119  0.073770  0.232462  1
  Br  Br14  1  0.540737  0.610223  0.831266  1
  Br  Br15  1  0.828103  0.532606  0.617447  1
  Br  Br16  1  0.928468  0.776878  0.309459  1
  Br  Br17  1  0.320188  0.927864  0.775309  1
  Br  Br18  1  0.469739  0.391613  0.178238  1
  Br  Br19  1  0.167631  0.457830  0.391121  1
