# generated using pymatgen
data_SmThSi5Rh3
_symmetry_space_group_name_H-M   'P 1'
_cell_length_a   8.24809872
_cell_length_b   8.23656234
_cell_length_c   8.23656262
_cell_angle_alpha   138.22405510
_cell_angle_beta   105.56278882
_cell_angle_gamma   89.17459404
_symmetry_Int_Tables_number   1
_chemical_formula_structural   SmThSi5Rh3
_chemical_formula_sum   'Sm2 Th2 Si10 Rh6'
_cell_volume   343.76398083
_cell_formula_units_Z   2
loop_
 _symmetry_equiv_pos_site_id
 _symmetry_equiv_pos_as_xyz
  1  'x, y, z'
loop_
 _atom_site_type_symbol
 _atom_site_label
 _atom_site_symmetry_multiplicity
 _atom_site_fract_x
 _atom_site_fract_y
 _atom_site_fract_z
 _atom_site_occupancy
  Sm  Sm0  1  0.101758  0.369059  0.732699  1
  Sm  Sm1  1  0.898242  0.630941  0.267301  1
  Th  Th2  1  0.636245  0.869616  0.766629  1
  Th  Th3  1  0.363755  0.130384  0.233371  1
  Si  Si4  1  0.274443  0.028074  0.750110  1
  Si  Si5  1  0.725557  0.971926  0.249890  1
  Si  Si6  1  0.725557  0.475667  0.753631  1
  Si  Si7  1  0.274443  0.524333  0.246369  1
  Si  Si8  1  0.452537  0.605123  0.847413  1
  Si  Si9  1  0.547463  0.394877  0.152587  1
  Si  Si10  1  0.763041  0.108507  0.654535  1
  Si  Si11  1  0.236959  0.891493  0.345465  1
  Si  Si12  1  0.000000  0.747766  0.747766  1
  Si  Si13  1  0.000000  0.252234  0.252234  1
  Rh  Rh14  1  0.249084  0.638973  0.610110  1
  Rh  Rh15  1  0.750916  0.361027  0.389890  1
  Rh  Rh16  1  0.029467  0.138136  0.891331  1
  Rh  Rh17  1  0.970533  0.861864  0.108669  1
  Rh  Rh18  1  0.500000  0.752122  0.252122  1
  Rh  Rh19  1  0.500000  0.247878  0.747878  1
