# generated using pymatgen
data_Dy9Ho3Ga2(TcNi)2
_symmetry_space_group_name_H-M   'P 1'
_cell_length_a   8.35572960
_cell_length_b   8.35860097
_cell_length_c   8.35572979
_cell_angle_alpha   113.08632386
_cell_angle_beta   111.04893642
_cell_angle_gamma   104.38860983
_symmetry_Int_Tables_number   1
_chemical_formula_structural   Dy9Ho3Ga2(TcNi)2
_chemical_formula_sum   'Dy9 Ho3 Ga2 Tc2 Ni2'
_cell_volume   446.54522548
_cell_formula_units_Z   1
loop_
 _symmetry_equiv_pos_site_id
 _symmetry_equiv_pos_as_xyz
  1  'x, y, z'
loop_
 _atom_site_type_symbol
 _atom_site_label
 _atom_site_symmetry_multiplicity
 _atom_site_fract_x
 _atom_site_fract_y
 _atom_site_fract_z
 _atom_site_occupancy
  Dy  Dy0  1  0.434159  0.243622  0.190290  1
  Dy  Dy1  1  0.566239  0.756440  0.810294  1
  Dy  Dy2  1  0.053331  0.243622  0.809464  1
  Dy  Dy3  1  0.946147  0.756440  0.190198  1
  Dy  Dy4  1  0.179834  0.280632  0.460669  1
  Dy  Dy5  1  0.820580  0.719594  0.539878  1
  Dy  Dy6  1  0.179716  0.719594  0.899015  1
  Dy  Dy7  1  0.819963  0.280632  0.100797  1
  Dy  Dy8  1  0.332482  0.648198  0.315715  1
  Ho  Ho9  1  0.667408  0.351219  0.683812  1
  Ho  Ho10  1  0.332609  0.016478  0.683868  1
  Ho  Ho11  1  0.667529  0.983903  0.316375  1
  Ga  Ga12  1  0.500120  0.499722  0.999602  1
  Ga  Ga13  1  0.000200  0.000260  0.000060  1
  Tc  Tc14  1  0.320212  0.000155  0.320234  1
  Tc  Tc15  1  0.679921  0.000155  0.679943  1
  Ni  Ni16  1  0.116709  0.617143  0.500434  1
  Ni  Ni17  1  0.882840  0.382190  0.499350  1
