# generated using pymatgen
data_Mn2ZnCo3(PO4)4
_symmetry_space_group_name_H-M   'P 1'
_cell_length_a   5.11406939
_cell_length_b   7.81210419
_cell_length_c   8.63396811
_cell_angle_alpha   89.97921608
_cell_angle_beta   89.88932918
_cell_angle_gamma   94.24918037
_symmetry_Int_Tables_number   1
_chemical_formula_structural   Mn2ZnCo3(PO4)4
_chemical_formula_sum   'Mn2 Zn1 Co3 P4 O16'
_cell_volume   343.99236574
_cell_formula_units_Z   1
loop_
 _symmetry_equiv_pos_site_id
 _symmetry_equiv_pos_as_xyz
  1  'x, y, z'
loop_
 _atom_site_type_symbol
 _atom_site_label
 _atom_site_symmetry_multiplicity
 _atom_site_fract_x
 _atom_site_fract_y
 _atom_site_fract_z
 _atom_site_occupancy
  Mn  Mn0  1  0.998429  0.500220  0.499872  1
  Mn  Mn1  1  0.500315  0.000002  0.999676  1
  Zn  Zn2  1  0.916788  0.383689  0.863995  1
  Co  Co3  1  0.089407  0.614160  0.138380  1
  Co  Co4  1  0.411931  0.886139  0.638567  1
  Co  Co5  1  0.587082  0.113637  0.362250  1
  P  P6  1  0.467121  0.296913  0.695564  1
  P  P7  1  0.966674  0.795462  0.804159  1
  P  P8  1  0.533226  0.704156  0.303498  1
  P  P9  1  0.033492  0.203830  0.196794  1
  O  O10  1  0.462595  0.139100  0.583136  1
  O  O11  1  0.962098  0.639656  0.918582  1
  O  O12  1  0.536067  0.860226  0.417594  1
  O  O13  1  0.039650  0.360719  0.083214  1
  O  O14  1  0.568516  0.242580  0.858750  1
  O  O15  1  0.064929  0.738991  0.641175  1
  O  O16  1  0.436635  0.760505  0.140316  1
  O  O17  1  0.934872  0.259779  0.359610  1
  O  O18  1  0.185655  0.357886  0.702634  1
  O  O19  1  0.687950  0.860097  0.799434  1
  O  O20  1  0.812226  0.640275  0.298867  1
  O  O21  1  0.312140  0.139435  0.200979  1
  O  O22  1  0.663124  0.442234  0.638977  1
  O  O23  1  0.170052  0.940368  0.854885  1
  O  O24  1  0.329196  0.559700  0.354585  1
  O  O25  1  0.829831  0.060240  0.144510  1
