# generated using pymatgen
data_Sc12Mn3Si12Ag
_symmetry_space_group_name_H-M   'P 1'
_cell_length_a   3.97913391
_cell_length_b   10.38914825
_cell_length_c   11.78522023
_cell_angle_alpha   89.86651359
_cell_angle_beta   89.98361412
_cell_angle_gamma   89.92393298
_symmetry_Int_Tables_number   1
_chemical_formula_structural   Sc12Mn3Si12Ag
_chemical_formula_sum   'Sc12 Mn3 Si12 Ag1'
_cell_volume   487.19701896
_cell_formula_units_Z   1
loop_
 _symmetry_equiv_pos_site_id
 _symmetry_equiv_pos_as_xyz
  1  'x, y, z'
loop_
 _atom_site_type_symbol
 _atom_site_label
 _atom_site_symmetry_multiplicity
 _atom_site_fract_x
 _atom_site_fract_y
 _atom_site_fract_z
 _atom_site_occupancy
  Sc  Sc0  1  0.250229  0.878450  0.024793  1
  Sc  Sc1  1  0.250108  0.620295  0.520236  1
  Sc  Sc2  1  0.750035  0.128004  0.981550  1
  Sc  Sc3  1  0.750183  0.378017  0.477904  1
  Sc  Sc4  1  0.250209  0.922138  0.600814  1
  Sc  Sc5  1  0.250050  0.577303  0.103666  1
  Sc  Sc6  1  0.750026  0.076567  0.398416  1
  Sc  Sc7  1  0.750234  0.424678  0.899892  1
  Sc  Sc8  1  0.250296  0.651476  0.798397  1
  Sc  Sc9  1  0.250126  0.839608  0.298800  1
  Sc  Sc10  1  0.750165  0.340419  0.201354  1
  Sc  Sc11  1  0.750160  0.168442  0.699119  1
  Mn  Mn12  1  0.250200  0.387792  0.675900  1
  Mn  Mn13  1  0.248994  0.112747  0.177451  1
  Mn  Mn14  1  0.748797  0.613206  0.323413  1
  Si  Si15  1  0.249955  0.030463  0.826711  1
  Si  Si16  1  0.249705  0.483580  0.323312  1
  Si  Si17  1  0.749810  0.983300  0.174104  1
  Si  Si18  1  0.750278  0.511437  0.677094  1
  Si  Si19  1  0.250092  0.258808  0.841044  1
  Si  Si20  1  0.250047  0.247140  0.341892  1
  Si  Si21  1  0.750015  0.747132  0.159048  1
  Si  Si22  1  0.750039  0.743869  0.649781  1
  Si  Si23  1  0.250104  0.195278  0.542878  1
  Si  Si24  1  0.249993  0.306749  0.044894  1
  Si  Si25  1  0.749954  0.805161  0.453747  1
  Si  Si26  1  0.750111  0.683229  0.961892  1
  Ag  Ag27  1  0.750086  0.884713  0.821897  1
