# generated using pymatgen
data_Er2Ga4CuIr
_symmetry_space_group_name_H-M   'P 1'
_cell_length_a   5.47382329
_cell_length_b   5.47382279
_cell_length_c   6.63112000
_cell_angle_alpha   90.00000000
_cell_angle_beta   90.00000000
_cell_angle_gamma   134.24125953
_symmetry_Int_Tables_number   1
_chemical_formula_structural   Er2Ga4CuIr
_chemical_formula_sum   'Er2 Ga4 Cu1 Ir1'
_cell_volume   142.34068543
_cell_formula_units_Z   1
loop_
 _symmetry_equiv_pos_site_id
 _symmetry_equiv_pos_as_xyz
  1  'x, y, z'
loop_
 _atom_site_type_symbol
 _atom_site_label
 _atom_site_symmetry_multiplicity
 _atom_site_fract_x
 _atom_site_fract_y
 _atom_site_fract_z
 _atom_site_occupancy
  Er  Er0  1  0.583041  0.416959  0.250000  1
  Er  Er1  1  0.416803  0.583197  0.750000  1
  Ga  Ga2  1  0.868430  0.131570  0.443524  1
  Ga  Ga3  1  0.131572  0.868428  0.548509  1
  Ga  Ga4  1  0.868430  0.131570  0.056476  1
  Ga  Ga5  1  0.131572  0.868428  0.951491  1
  Cu  Cu6  1  0.296300  0.703700  0.250000  1
  Ir  Ir7  1  0.703852  0.296148  0.750000  1
