# generated using pymatgen
data_CaSm3(B8Ru7)2
_symmetry_space_group_name_H-M   'P 1'
_cell_length_a   6.45404972
_cell_length_b   6.46169172
_cell_length_c   10.05807400
_cell_angle_alpha   90.00000000
_cell_angle_beta   90.00000000
_cell_angle_gamma   89.91630813
_symmetry_Int_Tables_number   1
_chemical_formula_structural   CaSm3(B8Ru7)2
_chemical_formula_sum   'Ca1 Sm3 B16 Ru14'
_cell_volume   419.46227190
_cell_formula_units_Z   1
loop_
 _symmetry_equiv_pos_site_id
 _symmetry_equiv_pos_as_xyz
  1  'x, y, z'
loop_
 _atom_site_type_symbol
 _atom_site_label
 _atom_site_symmetry_multiplicity
 _atom_site_fract_x
 _atom_site_fract_y
 _atom_site_fract_z
 _atom_site_occupancy
  Ca  Ca0  1  0.733299  0.876882  0.000000  1
  Sm  Sm1  1  0.125781  0.735766  0.500000  1
  Sm  Sm2  1  0.875709  0.265829  0.500000  1
  Sm  Sm3  1  0.268728  0.123378  0.000000  1
  B  B4  1  0.499791  0.999894  0.588740  1
  B  B5  1  0.499791  0.999894  0.411260  1
  B  B6  1  0.897642  0.275013  0.168869  1
  B  B7  1  0.101971  0.725647  0.831605  1
  B  B8  1  0.500252  0.499525  0.341192  1
  B  B9  1  0.500837  0.499412  0.841258  1
  B  B10  1  0.272261  0.101440  0.668220  1
  B  B11  1  0.101971  0.725647  0.168395  1
  B  B12  1  0.272261  0.101440  0.331780  1
  B  B13  1  0.897642  0.275013  0.831131  1
  B  B14  1  0.500252  0.499525  0.658808  1
  B  B15  1  0.500837  0.499412  0.158742  1
  B  B16  1  0.999905  0.500660  0.911298  1
  B  B17  1  0.725961  0.897519  0.668507  1
  B  B18  1  0.725961  0.897519  0.331493  1
  B  B19  1  0.999905  0.500660  0.088702  1
  Ru  Ru20  1  0.204298  0.397984  0.752814  1
  Ru  Ru21  1  0.399465  0.286897  0.500000  1
  Ru  Ru22  1  0.397338  0.795154  0.254181  1
  Ru  Ru23  1  0.204298  0.397984  0.247186  1
  Ru  Ru24  1  0.600384  0.712116  0.500000  1
  Ru  Ru25  1  0.602190  0.204528  0.746204  1
  Ru  Ru26  1  0.287376  0.598224  0.000000  1
  Ru  Ru27  1  0.712830  0.403022  0.000000  1
  Ru  Ru28  1  0.796568  0.602181  0.247587  1
  Ru  Ru29  1  0.796568  0.602181  0.752413  1
  Ru  Ru30  1  0.397338  0.795154  0.745819  1
  Ru  Ru31  1  0.999199  0.999984  0.249602  1
  Ru  Ru32  1  0.602190  0.204528  0.253796  1
  Ru  Ru33  1  0.999199  0.999984  0.750398  1
