# generated using pymatgen
data_Dy7Ho2TmRu4
_symmetry_space_group_name_H-M   'P 1'
_cell_length_a   6.33724702
_cell_length_b   7.26441282
_cell_length_c   8.48578637
_cell_angle_alpha   96.69588058
_cell_angle_beta   112.06604591
_cell_angle_gamma   89.86782688
_symmetry_Int_Tables_number   1
_chemical_formula_structural   Dy7Ho2TmRu4
_chemical_formula_sum   'Dy7 Ho2 Tm1 Ru4'
_cell_volume   359.20488740
_cell_formula_units_Z   1
loop_
 _symmetry_equiv_pos_site_id
 _symmetry_equiv_pos_as_xyz
  1  'x, y, z'
loop_
 _atom_site_type_symbol
 _atom_site_label
 _atom_site_symmetry_multiplicity
 _atom_site_fract_x
 _atom_site_fract_y
 _atom_site_fract_z
 _atom_site_occupancy
  Dy  Dy0  1  0.791623  0.083533  0.813608  1
  Dy  Dy1  1  0.977900  0.416199  0.185708  1
  Dy  Dy2  1  0.207602  0.915215  0.186389  1
  Dy  Dy3  1  0.022216  0.585006  0.814361  1
  Dy  Dy4  1  0.207274  0.184703  0.566510  1
  Dy  Dy5  1  0.640261  0.315348  0.434033  1
  Dy  Dy6  1  0.793210  0.814840  0.433167  1
  Ho  Ho7  1  0.360289  0.684963  0.566788  1
  Ho  Ho8  1  0.420951  0.249321  0.999776  1
  Tm  Tm9  1  0.577826  0.750656  0.999816  1
  Ru  Ru10  1  0.603368  0.425772  0.780611  1
  Ru  Ru11  1  0.822529  0.075879  0.218890  1
  Ru  Ru12  1  0.396913  0.575800  0.220035  1
  Ru  Ru13  1  0.178039  0.922766  0.780309  1
