# generated using pymatgen
data_Zn5CdNi8(SbO6)4
_symmetry_space_group_name_H-M   'P 1'
_cell_length_a   6.14118123
_cell_length_b   6.14193904
_cell_length_c   13.63008539
_cell_angle_alpha   77.79551595
_cell_angle_beta   77.96999477
_cell_angle_gamma   90.01941358
_symmetry_Int_Tables_number   1
_chemical_formula_structural   Zn5CdNi8(SbO6)4
_chemical_formula_sum   'Zn5 Cd1 Ni8 Sb4 O24'
_cell_volume   490.92491352
_cell_formula_units_Z   1
loop_
 _symmetry_equiv_pos_site_id
 _symmetry_equiv_pos_as_xyz
  1  'x, y, z'
loop_
 _atom_site_type_symbol
 _atom_site_label
 _atom_site_symmetry_multiplicity
 _atom_site_fract_x
 _atom_site_fract_y
 _atom_site_fract_z
 _atom_site_occupancy
  Zn  Zn0  1  0.635903  0.360759  0.753035  1
  Zn  Zn1  1  0.988646  0.701916  0.072773  1
  Zn  Zn2  1  0.363325  0.637463  0.247706  1
  Zn  Zn3  1  0.011896  0.301026  0.925496  1
  Zn  Zn4  1  0.698840  0.986221  0.575392  1
  Cd  Cd5  1  0.300911  0.014809  0.423238  1
  Ni  Ni6  1  0.500819  0.501174  0.999471  1
  Ni  Ni7  1  0.173749  0.660078  0.667639  1
  Ni  Ni8  1  0.827541  0.338575  0.334030  1
  Ni  Ni9  1  0.501080  0.998838  0.999589  1
  Ni  Ni10  1  0.500684  0.497210  0.503403  1
  Ni  Ni11  1  0.994409  0.497343  0.503687  1
  Ni  Ni12  1  0.666632  0.177387  0.159846  1
  Ni  Ni13  1  0.336845  0.823423  0.837338  1
  Sb  Sb14  1  0.175206  0.170161  0.667670  1
  Sb  Sb15  1  0.825411  0.829223  0.333239  1
  Sb  Sb16  1  0.169118  0.178267  0.160083  1
  Sb  Sb17  1  0.829934  0.822710  0.836915  1
  O  O18  1  0.242435  0.694716  0.517365  1
  O  O19  1  0.924880  0.394079  0.168934  1
  O  O20  1  0.594970  0.048351  0.837847  1
  O  O21  1  0.239764  0.262370  0.516663  1
  O  O22  1  0.924020  0.929476  0.171970  1
  O  O23  1  0.594699  0.601306  0.833898  1
  O  O24  1  0.944974  0.401901  0.667778  1
  O  O25  1  0.626675  0.083923  0.318033  1
  O  O26  1  0.286807  0.752161  0.991383  1
  O  O27  1  0.398783  0.402720  0.671507  1
  O  O28  1  0.060890  0.084906  0.318065  1
  O  O29  1  0.749918  0.755317  0.989862  1
  O  O30  1  0.751966  0.283218  0.490328  1
  O  O31  1  0.404043  0.950871  0.162260  1
  O  O32  1  0.076816  0.609784  0.828943  1
  O  O33  1  0.755567  0.754137  0.487439  1
  O  O34  1  0.404401  0.398470  0.165893  1
  O  O35  1  0.078726  0.065883  0.826587  1
  O  O36  1  0.052600  0.596239  0.337336  1
  O  O37  1  0.713893  0.248632  0.006554  1
  O  O38  1  0.389564  0.923046  0.673411  1
  O  O39  1  0.599529  0.595782  0.332811  1
  O  O40  1  0.251732  0.245469  0.007585  1
  O  O41  1  0.931400  0.920659  0.676999  1
