# generated using pymatgen
data_LuTa4Nb5N12
_symmetry_space_group_name_H-M   'P 1'
_cell_length_a   5.27041400
_cell_length_b   5.28280293
_cell_length_c   10.47867800
_cell_angle_alpha   90.00433829
_cell_angle_beta   90.00197856
_cell_angle_gamma   120.05768174
_symmetry_Int_Tables_number   1
_chemical_formula_structural   LuTa4Nb5N12
_chemical_formula_sum   'Lu1 Ta4 Nb5 N12'
_cell_volume   252.51869872
_cell_formula_units_Z   1
loop_
 _symmetry_equiv_pos_site_id
 _symmetry_equiv_pos_as_xyz
  1  'x, y, z'
loop_
 _atom_site_type_symbol
 _atom_site_label
 _atom_site_symmetry_multiplicity
 _atom_site_fract_x
 _atom_site_fract_y
 _atom_site_fract_z
 _atom_site_occupancy
  Lu  Lu0  1  0.665357  0.331388  0.000283  1
  Ta  Ta1  1  0.998205  0.676831  0.252809  1
  Ta  Ta2  1  0.334743  0.666204  0.999470  1
  Ta  Ta3  1  0.335292  0.666871  0.499592  1
  Ta  Ta4  1  0.664614  0.331975  0.499708  1
  Nb  Nb5  1  0.677039  0.674966  0.746608  1
  Nb  Nb6  1  0.324514  0.001495  0.746551  1
  Nb  Nb7  1  0.998319  0.322985  0.746662  1
  Nb  Nb8  1  0.324830  0.323846  0.253849  1
  Nb  Nb9  1  0.676614  0.001895  0.253862  1
  N  N10  1  0.663270  0.659841  0.382705  1
  N  N11  1  0.336575  0.996375  0.382578  1
  N  N12  1  0.999833  0.346931  0.381728  1
  N  N13  1  0.341301  0.341305  0.617098  1
  N  N14  1  0.658241  0.999712  0.617030  1
  N  N15  1  0.999960  0.656315  0.617168  1
  N  N16  1  0.335897  0.350238  0.873163  1
  N  N17  1  0.649634  0.985447  0.872957  1
  N  N18  1  0.014660  0.662557  0.872881  1
  N  N19  1  0.653814  0.664036  0.127452  1
  N  N20  1  0.332690  0.982083  0.127586  1
  N  N21  1  0.014594  0.356706  0.128259  1
