# generated using pymatgen
data_Dy2HoIn3Cu2Hg
_symmetry_space_group_name_H-M   'P 1'
_cell_length_a   7.68441123
_cell_length_b   7.67526170
_cell_length_c   3.93645200
_cell_angle_alpha   90.00000000
_cell_angle_beta   90.00000000
_cell_angle_gamma   120.06778313
_symmetry_Int_Tables_number   1
_chemical_formula_structural   Dy2HoIn3Cu2Hg
_chemical_formula_sum   'Dy2 Ho1 In3 Cu2 Hg1'
_cell_volume   200.92886985
_cell_formula_units_Z   1
loop_
 _symmetry_equiv_pos_site_id
 _symmetry_equiv_pos_as_xyz
  1  'x, y, z'
loop_
 _atom_site_type_symbol
 _atom_site_label
 _atom_site_symmetry_multiplicity
 _atom_site_fract_x
 _atom_site_fract_y
 _atom_site_fract_z
 _atom_site_occupancy
  Dy  Dy0  1  0.983879  0.585837  0.500000  1
  Dy  Dy1  1  0.414116  0.397933  0.500000  1
  Ho  Ho2  1  0.602545  0.016528  0.500000  1
  In  In3  1  0.753238  0.745016  0.000000  1
  In  In4  1  0.991231  0.246528  0.000000  1
  In  In5  1  0.255120  0.008476  0.000000  1
  Cu  Cu6  1  0.999600  0.999800  0.500000  1
  Cu  Cu7  1  0.666316  0.332207  0.000000  1
  Hg  Hg8  1  0.333955  0.667674  0.000000  1
