# generated using pymatgen
data_Rb3YbInI6
_symmetry_space_group_name_H-M   'P 1'
_cell_length_a   10.06757803
_cell_length_b   10.06757858
_cell_length_c   10.06757927
_cell_angle_alpha   90.96621739
_cell_angle_beta   90.96622441
_cell_angle_gamma   90.96621575
_symmetry_Int_Tables_number   1
_chemical_formula_structural   Rb3YbInI6
_chemical_formula_sum   'Rb6 Yb2 In2 I12'
_cell_volume   1019.97067265
_cell_formula_units_Z   2
loop_
 _symmetry_equiv_pos_site_id
 _symmetry_equiv_pos_as_xyz
  1  'x, y, z'
loop_
 _atom_site_type_symbol
 _atom_site_label
 _atom_site_symmetry_multiplicity
 _atom_site_fract_x
 _atom_site_fract_y
 _atom_site_fract_z
 _atom_site_occupancy
  Rb  Rb0  1  0.869854  0.630146  0.250000  1
  Rb  Rb1  1  0.630146  0.250000  0.869854  1
  Rb  Rb2  1  0.250000  0.869854  0.630146  1
  Rb  Rb3  1  0.130146  0.369854  0.750000  1
  Rb  Rb4  1  0.369854  0.750000  0.130146  1
  Rb  Rb5  1  0.750000  0.130146  0.369854  1
  Yb  Yb6  1  0.000000  0.000000  0.000000  1
  Yb  Yb7  1  0.500000  0.500000  0.500000  1
  In  In8  1  0.250000  0.250000  0.250000  1
  In  In9  1  0.750000  0.750000  0.750000  1
  I  I10  1  0.203000  0.552262  0.426099  1
  I  I11  1  0.052262  0.703000  0.926099  1
  I  I12  1  0.926099  0.052262  0.703000  1
  I  I13  1  0.797000  0.447738  0.573901  1
  I  I14  1  0.703000  0.926099  0.052262  1
  I  I15  1  0.447738  0.573901  0.797000  1
  I  I16  1  0.573901  0.797000  0.447738  1
  I  I17  1  0.552262  0.426099  0.203000  1
  I  I18  1  0.073901  0.947738  0.297000  1
  I  I19  1  0.947738  0.297000  0.073901  1
  I  I20  1  0.297000  0.073901  0.947738  1
  I  I21  1  0.426099  0.203000  0.552262  1
