# generated using pymatgen
data_Tm5(In2Rh)2
_symmetry_space_group_name_H-M   'P 1'
_cell_length_a   3.54745100
_cell_length_b   7.97442200
_cell_length_c   18.15191300
_cell_angle_alpha   90.00000000
_cell_angle_beta   90.00000000
_cell_angle_gamma   90.00000000
_symmetry_Int_Tables_number   1
_chemical_formula_structural   Tm5(In2Rh)2
_chemical_formula_sum   'Tm10 In8 Rh4'
_cell_volume   513.49713068
_cell_formula_units_Z   2
loop_
 _symmetry_equiv_pos_site_id
 _symmetry_equiv_pos_as_xyz
  1  'x, y, z'
loop_
 _atom_site_type_symbol
 _atom_site_label
 _atom_site_symmetry_multiplicity
 _atom_site_fract_x
 _atom_site_fract_y
 _atom_site_fract_z
 _atom_site_occupancy
  Tm  Tm0  1  0.000000  0.500000  0.500000  1
  Tm  Tm1  1  0.000000  0.000000  0.000000  1
  Tm  Tm2  1  0.000000  0.745361  0.278699  1
  Tm  Tm3  1  0.000000  0.254639  0.721301  1
  Tm  Tm4  1  0.000000  0.754639  0.778699  1
  Tm  Tm5  1  0.000000  0.245361  0.221301  1
  Tm  Tm6  1  0.000000  0.618078  0.086888  1
  Tm  Tm7  1  0.000000  0.381922  0.913112  1
  Tm  Tm8  1  0.000000  0.881922  0.586888  1
  Tm  Tm9  1  0.000000  0.118078  0.413112  1
  In  In10  1  0.500000  0.707176  0.931829  1
  In  In11  1  0.500000  0.292824  0.068171  1
  In  In12  1  0.500000  0.792824  0.431829  1
  In  In13  1  0.500000  0.207176  0.568171  1
  In  In14  1  0.500000  0.572330  0.650286  1
  In  In15  1  0.500000  0.427670  0.349714  1
  In  In16  1  0.500000  0.927670  0.150286  1
  In  In17  1  0.500000  0.072330  0.849714  1
  Rh  Rh18  1  0.500000  0.525153  0.195400  1
  Rh  Rh19  1  0.500000  0.474847  0.804600  1
  Rh  Rh20  1  0.500000  0.974847  0.695400  1
  Rh  Rh21  1  0.500000  0.025153  0.304600  1
