# generated using pymatgen
data_TbY(ZnIr)2
_symmetry_space_group_name_H-M   'P 1'
_cell_length_a   4.05692600
_cell_length_b   7.04515800
_cell_length_c   8.12334700
_cell_angle_alpha   90.00000000
_cell_angle_beta   90.00000000
_cell_angle_gamma   90.00000000
_symmetry_Int_Tables_number   1
_chemical_formula_structural   TbY(ZnIr)2
_chemical_formula_sum   'Tb2 Y2 Zn4 Ir4'
_cell_volume   232.17894237
_cell_formula_units_Z   2
loop_
 _symmetry_equiv_pos_site_id
 _symmetry_equiv_pos_as_xyz
  1  'x, y, z'
loop_
 _atom_site_type_symbol
 _atom_site_label
 _atom_site_symmetry_multiplicity
 _atom_site_fract_x
 _atom_site_fract_y
 _atom_site_fract_z
 _atom_site_occupancy
  Tb  Tb0  1  0.250000  0.036245  0.317094  1
  Tb  Tb1  1  0.250000  0.536245  0.182906  1
  Y  Y2  1  0.750000  0.963313  0.682966  1
  Y  Y3  1  0.750000  0.463313  0.817034  1
  Zn  Zn4  1  0.250000  0.638068  0.566746  1
  Zn  Zn5  1  0.250000  0.138068  0.933254  1
  Zn  Zn6  1  0.750000  0.362144  0.434140  1
  Zn  Zn7  1  0.750000  0.862144  0.065860  1
  Ir  Ir8  1  0.250000  0.259034  0.621566  1
  Ir  Ir9  1  0.250000  0.759034  0.878434  1
  Ir  Ir10  1  0.750000  0.741197  0.377615  1
  Ir  Ir11  1  0.750000  0.241197  0.122385  1
