# generated using pymatgen
data_Y2Ho8In8Pt3Rh
_symmetry_space_group_name_H-M   'P 1'
_cell_length_a   3.61904400
_cell_length_b   8.13493240
_cell_length_c   18.23594929
_cell_angle_alpha   90.08771198
_cell_angle_beta   90.00000000
_cell_angle_gamma   90.00000000
_symmetry_Int_Tables_number   1
_chemical_formula_structural   Y2Ho8In8Pt3Rh
_chemical_formula_sum   'Y2 Ho8 In8 Pt3 Rh1'
_cell_volume   536.87808773
_cell_formula_units_Z   1
loop_
 _symmetry_equiv_pos_site_id
 _symmetry_equiv_pos_as_xyz
  1  'x, y, z'
loop_
 _atom_site_type_symbol
 _atom_site_label
 _atom_site_symmetry_multiplicity
 _atom_site_fract_x
 _atom_site_fract_y
 _atom_site_fract_z
 _atom_site_occupancy
  Y  Y0  1  0.000000  0.999777  0.999982  1
  Y  Y1  1  0.000000  0.500593  0.499764  1
  Ho  Ho2  1  0.000000  0.114066  0.412226  1
  Ho  Ho3  1  0.000000  0.883073  0.584947  1
  Ho  Ho4  1  0.000000  0.384030  0.915124  1
  Ho  Ho5  1  0.000000  0.616077  0.086245  1
  Ho  Ho6  1  0.000000  0.237801  0.221822  1
  Ho  Ho7  1  0.000000  0.759447  0.779837  1
  Ho  Ho8  1  0.000000  0.258485  0.720886  1
  Ho  Ho9  1  0.000000  0.749146  0.278663  1
  In  In10  1  0.500000  0.422530  0.351031  1
  In  In11  1  0.500000  0.576699  0.649141  1
  In  In12  1  0.500000  0.077663  0.851276  1
  In  In13  1  0.500000  0.926619  0.149620  1
  In  In14  1  0.500000  0.291665  0.067192  1
  In  In15  1  0.500000  0.707363  0.933859  1
  In  In16  1  0.500000  0.207105  0.566265  1
  In  In17  1  0.500000  0.792670  0.430704  1
  Pt  Pt18  1  0.500000  0.976054  0.696275  1
  Pt  Pt19  1  0.500000  0.476671  0.803894  1
  Pt  Pt20  1  0.500000  0.521157  0.196805  1
  Rh  Rh21  1  0.500000  0.021310  0.304442  1
