# generated using pymatgen
data_Pr17Ho3Si15S
_symmetry_space_group_name_H-M   'P 1'
_cell_length_a   7.89766475
_cell_length_b   7.86543520
_cell_length_c   15.23314700
_cell_angle_alpha   89.99348766
_cell_angle_beta   89.67538336
_cell_angle_gamma   90.17126296
_symmetry_Int_Tables_number   1
_chemical_formula_structural   Pr17Ho3Si15S
_chemical_formula_sum   'Pr17 Ho3 Si15 S1'
_cell_volume   946.24189185
_cell_formula_units_Z   1
loop_
 _symmetry_equiv_pos_site_id
 _symmetry_equiv_pos_as_xyz
  1  'x, y, z'
loop_
 _atom_site_type_symbol
 _atom_site_label
 _atom_site_symmetry_multiplicity
 _atom_site_fract_x
 _atom_site_fract_y
 _atom_site_fract_z
 _atom_site_occupancy
  Pr  Pr0  1  0.688777  0.689407  0.498517  1
  Pr  Pr1  1  0.381294  0.005720  0.442164  1
  Pr  Pr2  1  0.491118  0.872764  0.698966  1
  Pr  Pr3  1  0.511419  0.122410  0.195549  1
  Pr  Pr4  1  0.877842  0.485246  0.301379  1
  Pr  Pr5  1  0.124664  0.508568  0.802264  1
  Pr  Pr6  1  0.632280  0.983820  0.950458  1
  Pr  Pr7  1  0.002780  0.379015  0.550592  1
  Pr  Pr8  1  0.990879  0.623119  0.052695  1
  Pr  Pr9  1  0.141386  0.990332  0.870807  1
  Pr  Pr10  1  0.520719  0.628162  0.126002  1
  Pr  Pr11  1  0.465667  0.362299  0.633473  1
  Pr  Pr12  1  0.632220  0.523571  0.875565  1
  Pr  Pr13  1  0.370437  0.476514  0.372883  1
  Pr  Pr14  1  0.874058  0.021855  0.377537  1
  Pr  Pr15  1  0.981624  0.126117  0.122554  1
  Pr  Pr16  1  0.022474  0.876357  0.623027  1
  Ho  Ho17  1  0.313377  0.311346  0.999233  1
  Ho  Ho18  1  0.188273  0.809507  0.248726  1
  Ho  Ho19  1  0.802607  0.190551  0.752135  1
  Si  Si20  1  0.328836  0.693460  0.952933  1
  Si  Si21  1  0.663043  0.305046  0.457079  1
  Si  Si22  1  0.697075  0.331371  0.046840  1
  Si  Si23  1  0.304749  0.666821  0.547442  1
  Si  Si24  1  0.810685  0.829234  0.204616  1
  Si  Si25  1  0.171561  0.188728  0.293172  1
  Si  Si26  1  0.839087  0.808517  0.795776  1
  Si  Si27  1  0.286917  0.923896  0.060645  1
  Si  Si28  1  0.575566  0.785992  0.308161  1
  Si  Si29  1  0.454654  0.210529  0.825419  1
  Si  Si30  1  0.787460  0.576872  0.689331  1
  Si  Si31  1  0.212346  0.423845  0.186963  1
  Si  Si32  1  0.704518  0.077868  0.564872  1
  Si  Si33  1  0.929018  0.288500  0.937817  1
  Si  Si34  1  0.079995  0.712931  0.437059  1
  S  S35  1  0.140594  0.189706  0.697352  1
