# generated using pymatgen
data_Hf6FePtN2
_symmetry_space_group_name_H-M   'P 1'
_cell_length_a   5.90120655
_cell_length_b   5.90120752
_cell_length_c   8.73673700
_cell_angle_alpha   90.00000000
_cell_angle_beta   90.00000000
_cell_angle_gamma   147.98084520
_symmetry_Int_Tables_number   1
_chemical_formula_structural   Hf6FePtN2
_chemical_formula_sum   'Hf6 Fe1 Pt1 N2'
_cell_volume   161.31432688
_cell_formula_units_Z   1
loop_
 _symmetry_equiv_pos_site_id
 _symmetry_equiv_pos_as_xyz
  1  'x, y, z'
loop_
 _atom_site_type_symbol
 _atom_site_label
 _atom_site_symmetry_multiplicity
 _atom_site_fract_x
 _atom_site_fract_y
 _atom_site_fract_z
 _atom_site_occupancy
  Hf  Hf0  1  0.365995  0.634004  0.066731  1
  Hf  Hf1  1  0.061125  0.938874  0.250000  1
  Hf  Hf2  1  0.365995  0.634004  0.433270  1
  Hf  Hf3  1  0.630745  0.369254  0.548926  1
  Hf  Hf4  1  0.949337  0.050662  0.750000  1
  Hf  Hf5  1  0.630745  0.369254  0.951074  1
  Fe  Fe6  1  0.745080  0.254918  0.250000  1
  Pt  Pt7  1  0.251916  0.748082  0.750000  1
  N  N8  1  0.999529  0.000471  0.000888  1
  N  N9  1  0.999529  0.000471  0.499112  1
