# generated using pymatgen
data_Tb10CuPPb6
_symmetry_space_group_name_H-M   'P 1'
_cell_length_a   9.22817800
_cell_length_b   9.22817923
_cell_length_c   6.74500300
_cell_angle_alpha   90.00000000
_cell_angle_beta   90.00000000
_cell_angle_gamma   119.99999559
_symmetry_Int_Tables_number   1
_chemical_formula_structural   Tb10CuPPb6
_chemical_formula_sum   'Tb10 Cu1 P1 Pb6'
_cell_volume   497.44467011
_cell_formula_units_Z   1
loop_
 _symmetry_equiv_pos_site_id
 _symmetry_equiv_pos_as_xyz
  1  'x, y, z'
loop_
 _atom_site_type_symbol
 _atom_site_label
 _atom_site_symmetry_multiplicity
 _atom_site_fract_x
 _atom_site_fract_y
 _atom_site_fract_z
 _atom_site_occupancy
  Tb  Tb0  1  0.247052  0.000000  0.237765  1
  Tb  Tb1  1  0.752948  0.000000  0.762235  1
  Tb  Tb2  1  0.000000  0.247052  0.237765  1
  Tb  Tb3  1  0.000000  0.752948  0.762235  1
  Tb  Tb4  1  0.752948  0.752948  0.237765  1
  Tb  Tb5  1  0.247052  0.247052  0.762235  1
  Tb  Tb6  1  0.333333  0.666667  0.000000  1
  Tb  Tb7  1  0.666667  0.333333  0.000000  1
  Tb  Tb8  1  0.666667  0.333333  0.500000  1
  Tb  Tb9  1  0.333333  0.666667  0.500000  1
  Cu  Cu10  1  0.000000  0.000000  0.500000  1
  P  P11  1  0.000000  0.000000  0.000000  1
  Pb  Pb12  1  0.606680  0.000000  0.249894  1
  Pb  Pb13  1  0.393320  0.000000  0.750106  1
  Pb  Pb14  1  0.000000  0.606680  0.249894  1
  Pb  Pb15  1  0.000000  0.393320  0.750106  1
  Pb  Pb16  1  0.393320  0.393320  0.249894  1
  Pb  Pb17  1  0.606680  0.606680  0.750106  1
