# generated using pymatgen
data_Nd3Er2P12Ru9Rh10
_symmetry_space_group_name_H-M   'P 1'
_cell_length_a   12.66614200
_cell_length_b   12.66614273
_cell_length_c   3.96550400
_cell_angle_alpha   90.00000000
_cell_angle_beta   90.00000000
_cell_angle_gamma   120.00000333
_symmetry_Int_Tables_number   1
_chemical_formula_structural   Nd3Er2P12Ru9Rh10
_chemical_formula_sum   'Nd3 Er2 P12 Ru9 Rh10'
_cell_volume   550.95704344
_cell_formula_units_Z   1
loop_
 _symmetry_equiv_pos_site_id
 _symmetry_equiv_pos_as_xyz
  1  'x, y, z'
loop_
 _atom_site_type_symbol
 _atom_site_label
 _atom_site_symmetry_multiplicity
 _atom_site_fract_x
 _atom_site_fract_y
 _atom_site_fract_z
 _atom_site_occupancy
  Nd  Nd0  1  0.186155  0.186155  0.500000  1
  Nd  Nd1  1  0.813845  0.000000  0.500000  1
  Nd  Nd2  1  0.000000  0.813845  0.500000  1
  Er  Er3  1  0.333333  0.666667  0.000000  1
  Er  Er4  1  0.666667  0.333333  0.000000  1
  P  P5  1  0.814764  0.814764  0.000000  1
  P  P6  1  0.185236  0.000000  0.000000  1
  P  P7  1  0.000000  0.185236  0.000000  1
  P  P8  1  0.174148  0.484262  0.500000  1
  P  P9  1  0.515738  0.689885  0.500000  1
  P  P10  1  0.310115  0.825852  0.500000  1
  P  P11  1  0.689885  0.515738  0.500000  1
  P  P12  1  0.825852  0.310115  0.500000  1
  P  P13  1  0.484262  0.174148  0.500000  1
  P  P14  1  0.371963  0.371963  0.000000  1
  P  P15  1  0.628037  0.000000  0.000000  1
  P  P16  1  0.000000  0.628037  0.000000  1
  Ru  Ru17  1  0.711600  0.711600  0.500000  1
  Ru  Ru18  1  0.288400  0.000000  0.500000  1
  Ru  Ru19  1  0.000000  0.288400  0.500000  1
  Ru  Ru20  1  0.362936  0.490146  0.500000  1
  Ru  Ru21  1  0.509854  0.872790  0.500000  1
  Ru  Ru22  1  0.127210  0.637064  0.500000  1
  Ru  Ru23  1  0.872790  0.509854  0.500000  1
  Ru  Ru24  1  0.637064  0.127210  0.500000  1
  Ru  Ru25  1  0.490146  0.362936  0.500000  1
  Rh  Rh26  1  0.551057  0.551057  0.000000  1
  Rh  Rh27  1  0.448943  0.000000  0.000000  1
  Rh  Rh28  1  0.000000  0.448943  0.000000  1
  Rh  Rh29  1  0.183151  0.378926  0.000000  1
  Rh  Rh30  1  0.621074  0.804223  0.000000  1
  Rh  Rh31  1  0.195777  0.816849  0.000000  1
  Rh  Rh32  1  0.804223  0.621074  0.000000  1
  Rh  Rh33  1  0.816849  0.195777  0.000000  1
  Rh  Rh34  1  0.378926  0.183151  0.000000  1
  Rh  Rh35  1  0.000000  0.000000  0.000000  1
