# generated using pymatgen
data_Th6Cu3Ni3Sn8
_symmetry_space_group_name_H-M   'P 1'
_cell_length_a   8.42918136
_cell_length_b   8.42686800
_cell_length_c   8.42686679
_cell_angle_alpha   109.45945047
_cell_angle_beta   109.75255634
_cell_angle_gamma   109.19102269
_symmetry_Int_Tables_number   1
_chemical_formula_structural   Th6Cu3Ni3Sn8
_chemical_formula_sum   'Th6 Cu3 Ni3 Sn8'
_cell_volume   460.83448792
_cell_formula_units_Z   1
loop_
 _symmetry_equiv_pos_site_id
 _symmetry_equiv_pos_as_xyz
  1  'x, y, z'
loop_
 _atom_site_type_symbol
 _atom_site_label
 _atom_site_symmetry_multiplicity
 _atom_site_fract_x
 _atom_site_fract_y
 _atom_site_fract_z
 _atom_site_occupancy
  Th  Th0  1  0.870805  0.245825  0.122079  1
  Th  Th1  1  0.629195  0.751274  0.375019  1
  Th  Th2  1  0.250000  0.128440  0.878440  1
  Th  Th3  1  0.750000  0.371472  0.621472  1
  Th  Th4  1  0.119728  0.875148  0.248439  1
  Th  Th5  1  0.380272  0.628711  0.755419  1
  Cu  Cu6  1  0.374880  0.250014  0.625189  1
  Cu  Cu7  1  0.125120  0.750309  0.875135  1
  Cu  Cu8  1  0.250000  0.625071  0.375071  1
  Ni  Ni9  1  0.750000  0.874575  0.124575  1
  Ni  Ni10  1  0.624750  0.374636  0.249651  1
  Ni  Ni11  1  0.875250  0.124901  0.749886  1
  Sn  Sn12  1  0.661249  0.502007  0.002679  1
  Sn  Sn13  1  0.502588  0.000451  0.660169  1
  Sn  Sn14  1  0.997412  0.657581  0.497864  1
  Sn  Sn15  1  0.838751  0.841430  0.840758  1
  Sn  Sn16  1  0.502657  0.002150  0.161074  1
  Sn  Sn17  1  0.157314  0.497178  0.997723  1
  Sn  Sn18  1  0.997343  0.158417  0.499493  1
  Sn  Sn19  1  0.342686  0.340409  0.339864  1
