# generated using pymatgen
data_LaPa5(Al3Os)8
_symmetry_space_group_name_H-M   'P 1'
_cell_length_a   8.90445015
_cell_length_b   8.90444997
_cell_length_c   9.45261600
_cell_angle_alpha   90.00000000
_cell_angle_beta   90.00000000
_cell_angle_gamma   119.88522902
_symmetry_Int_Tables_number   1
_chemical_formula_structural   LaPa5(Al3Os)8
_chemical_formula_sum   'La1 Pa5 Al24 Os8'
_cell_volume   649.82730648
_cell_formula_units_Z   1
loop_
 _symmetry_equiv_pos_site_id
 _symmetry_equiv_pos_as_xyz
  1  'x, y, z'
loop_
 _atom_site_type_symbol
 _atom_site_label
 _atom_site_symmetry_multiplicity
 _atom_site_fract_x
 _atom_site_fract_y
 _atom_site_fract_z
 _atom_site_occupancy
  La  La0  1  0.808276  0.191724  0.750000  1
  Pa  Pa1  1  0.195472  0.395200  0.250000  1
  Pa  Pa2  1  0.800706  0.607270  0.750000  1
  Pa  Pa3  1  0.604800  0.804528  0.250000  1
  Pa  Pa4  1  0.392730  0.199294  0.750000  1
  Pa  Pa5  1  0.198178  0.801822  0.250000  1
  Al  Al6  1  0.334370  0.665630  0.016214  1
  Al  Al7  1  0.668089  0.331911  0.981256  1
  Al  Al8  1  0.668089  0.331911  0.518744  1
  Al  Al9  1  0.334370  0.665630  0.483786  1
  Al  Al10  1  0.163402  0.325114  0.576792  1
  Al  Al11  1  0.837437  0.676051  0.421059  1
  Al  Al12  1  0.674886  0.836598  0.576792  1
  Al  Al13  1  0.837437  0.676051  0.078941  1
  Al  Al14  1  0.323949  0.162563  0.421059  1
  Al  Al15  1  0.163402  0.325114  0.923208  1
  Al  Al16  1  0.161706  0.838294  0.579200  1
  Al  Al17  1  0.323949  0.162563  0.078941  1
  Al  Al18  1  0.837897  0.162103  0.419178  1
  Al  Al19  1  0.674886  0.836598  0.923208  1
  Al  Al20  1  0.837897  0.162103  0.080822  1
  Al  Al21  1  0.161706  0.838294  0.920800  1
  Al  Al22  1  0.562952  0.127690  0.250000  1
  Al  Al23  1  0.437471  0.877062  0.750000  1
  Al  Al24  1  0.872310  0.437048  0.250000  1
  Al  Al25  1  0.122938  0.562529  0.750000  1
  Al  Al26  1  0.561664  0.438336  0.250000  1
  Al  Al27  1  0.435890  0.564110  0.750000  1
  Al  Al28  1  0.000212  0.999788  0.250000  1
  Al  Al29  1  0.003642  0.996358  0.750000  1
  Os  Os30  1  0.494761  0.995422  0.005656  1
  Os  Os31  1  0.004578  0.505239  0.005656  1
  Os  Os32  1  0.494761  0.995422  0.494344  1
  Os  Os33  1  0.500525  0.499475  0.999193  1
  Os  Os34  1  0.004578  0.505239  0.494344  1
  Os  Os35  1  0.500525  0.499475  0.500807  1
  Os  Os36  1  0.999778  0.000222  0.000586  1
  Os  Os37  1  0.999778  0.000222  0.499414  1
