# generated using pymatgen
data_K5Rb(SiTe3)2
_symmetry_space_group_name_H-M   'P 1'
_cell_length_a   8.49337833
_cell_length_b   8.49337859
_cell_length_c   9.08795487
_cell_angle_alpha   74.58463893
_cell_angle_beta   74.58463946
_cell_angle_gamma   109.23914342
_symmetry_Int_Tables_number   1
_chemical_formula_structural   K5Rb(SiTe3)2
_chemical_formula_sum   'K5 Rb1 Si2 Te6'
_cell_volume   549.88545934
_cell_formula_units_Z   1
loop_
 _symmetry_equiv_pos_site_id
 _symmetry_equiv_pos_as_xyz
  1  'x, y, z'
loop_
 _atom_site_type_symbol
 _atom_site_label
 _atom_site_symmetry_multiplicity
 _atom_site_fract_x
 _atom_site_fract_y
 _atom_site_fract_z
 _atom_site_occupancy
  K  K0  1  0.999625  0.499674  0.000007  1
  K  K1  1  0.657525  0.342060  0.500310  1
  K  K2  1  0.342060  0.657525  0.500310  1
  K  K3  1  0.499674  0.999625  0.000007  1
  K  K4  1  0.793355  0.793355  0.676046  1
  Rb  Rb5  1  0.209321  0.209321  0.324280  1
  Si  Si6  1  0.107066  0.107066  0.861932  1
  Si  Si7  1  0.893713  0.893713  0.137634  1
  Te  Te8  1  0.642328  0.642328  0.119982  1
  Te  Te9  1  0.361697  0.361697  0.873082  1
  Te  Te10  1  0.749585  0.049288  0.296441  1
  Te  Te11  1  0.947098  0.247667  0.706764  1
  Te  Te12  1  0.247667  0.947098  0.706764  1
  Te  Te13  1  0.049288  0.749585  0.296441  1
