# generated using pymatgen
data_Ba4Mo(N2Cl)2
_symmetry_space_group_name_H-M   'P 1'
_cell_length_a   6.22404300
_cell_length_b   8.55071903
_cell_length_c   10.88200696
_cell_angle_alpha   81.12803597
_cell_angle_beta   90.00000000
_cell_angle_gamma   90.00000000
_symmetry_Int_Tables_number   1
_chemical_formula_structural   Ba4Mo(N2Cl)2
_chemical_formula_sum   'Ba8 Mo2 N8 Cl4'
_cell_volume   572.21171758
_cell_formula_units_Z   2
loop_
 _symmetry_equiv_pos_site_id
 _symmetry_equiv_pos_as_xyz
  1  'x, y, z'
loop_
 _atom_site_type_symbol
 _atom_site_label
 _atom_site_symmetry_multiplicity
 _atom_site_fract_x
 _atom_site_fract_y
 _atom_site_fract_z
 _atom_site_occupancy
  Ba  Ba0  1  0.750000  0.286580  0.293028  1
  Ba  Ba1  1  0.750000  0.003177  0.627423  1
  Ba  Ba2  1  0.750000  0.445281  0.622214  1
  Ba  Ba3  1  0.750000  0.814071  0.091184  1
  Ba  Ba4  1  0.250000  0.996823  0.372577  1
  Ba  Ba5  1  0.250000  0.554719  0.377786  1
  Ba  Ba6  1  0.250000  0.185929  0.908816  1
  Ba  Ba7  1  0.250000  0.713420  0.706972  1
  Mo  Mo8  1  0.750000  0.771106  0.399522  1
  Mo  Mo9  1  0.250000  0.228894  0.600478  1
  N  N10  1  0.250000  0.036999  0.709823  1
  N  N11  1  0.003353  0.245507  0.498034  1
  N  N12  1  0.503353  0.754493  0.501966  1
  N  N13  1  0.996647  0.754493  0.501966  1
  N  N14  1  0.750000  0.610619  0.298861  1
  N  N15  1  0.750000  0.963001  0.290177  1
  N  N16  1  0.496647  0.245507  0.498034  1
  N  N17  1  0.250000  0.389381  0.701139  1
  Cl  Cl18  1  0.250000  0.326461  0.165221  1
  Cl  Cl19  1  0.750000  0.673539  0.834779  1
  Cl  Cl20  1  0.250000  0.840847  0.098571  1
  Cl  Cl21  1  0.750000  0.159153  0.901429  1
