# generated using pymatgen
data_Ti5SnBSb2
_symmetry_space_group_name_H-M   'P 1'
_cell_length_a   8.08438856
_cell_length_b   8.08438922
_cell_length_c   5.43594500
_cell_angle_alpha   90.00000000
_cell_angle_beta   90.00000000
_cell_angle_gamma   119.92400659
_symmetry_Int_Tables_number   1
_chemical_formula_structural   Ti5SnBSb2
_chemical_formula_sum   'Ti10 Sn2 B2 Sb4'
_cell_volume   307.91591387
_cell_formula_units_Z   2
loop_
 _symmetry_equiv_pos_site_id
 _symmetry_equiv_pos_as_xyz
  1  'x, y, z'
loop_
 _atom_site_type_symbol
 _atom_site_label
 _atom_site_symmetry_multiplicity
 _atom_site_fract_x
 _atom_site_fract_y
 _atom_site_fract_z
 _atom_site_occupancy
  Ti  Ti0  1  0.666370  0.335091  0.000366  1
  Ti  Ti1  1  0.335091  0.666370  0.000366  1
  Ti  Ti2  1  0.335091  0.666370  0.499634  1
  Ti  Ti3  1  0.666370  0.335091  0.499634  1
  Ti  Ti4  1  0.771458  0.771458  0.750000  1
  Ti  Ti5  1  0.225746  0.998935  0.750000  1
  Ti  Ti6  1  0.998935  0.225746  0.750000  1
  Ti  Ti7  1  0.229790  0.229790  0.250000  1
  Ti  Ti8  1  0.771004  0.000454  0.250000  1
  Ti  Ti9  1  0.000454  0.771004  0.250000  1
  Sn  Sn10  1  0.396946  0.000054  0.250000  1
  Sn  Sn11  1  0.000054  0.396946  0.250000  1
  B  B12  1  0.000457  0.000457  0.002163  1
  B  B13  1  0.000457  0.000457  0.497837  1
  Sb  Sb14  1  0.395407  0.395407  0.750000  1
  Sb  Sb15  1  0.600895  0.001207  0.750000  1
  Sb  Sb16  1  0.001207  0.600895  0.750000  1
  Sb  Sb17  1  0.604267  0.604267  0.250000  1
