# generated using pymatgen
data_Dy9LuIr5Pt
_symmetry_space_group_name_H-M   'P 1'
_cell_length_a   10.92594843
_cell_length_b   10.93043900
_cell_length_c   6.33337000
_cell_angle_alpha   90.00000000
_cell_angle_beta   89.95457114
_cell_angle_gamma   90.00000000
_symmetry_Int_Tables_number   1
_chemical_formula_structural   Dy9LuIr5Pt
_chemical_formula_sum   'Dy18 Lu2 Ir10 Pt2'
_cell_volume   756.36508942
_cell_formula_units_Z   2
loop_
 _symmetry_equiv_pos_site_id
 _symmetry_equiv_pos_as_xyz
  1  'x, y, z'
loop_
 _atom_site_type_symbol
 _atom_site_label
 _atom_site_symmetry_multiplicity
 _atom_site_fract_x
 _atom_site_fract_y
 _atom_site_fract_z
 _atom_site_occupancy
  Dy  Dy0  1  0.291255  0.088232  0.375765  1
  Dy  Dy1  1  0.291250  0.911773  0.875759  1
  Dy  Dy2  1  0.705234  0.090029  0.873704  1
  Dy  Dy3  1  0.705229  0.909967  0.373705  1
  Dy  Dy4  1  0.584146  0.789875  0.878207  1
  Dy  Dy5  1  0.584148  0.210127  0.378205  1
  Dy  Dy6  1  0.411035  0.790375  0.377344  1
  Dy  Dy7  1  0.411034  0.209625  0.877346  1
  Dy  Dy8  1  0.209936  0.411769  0.622427  1
  Dy  Dy9  1  0.209938  0.588229  0.122437  1
  Dy  Dy10  1  0.790029  0.414876  0.123111  1
  Dy  Dy11  1  0.790022  0.585126  0.623118  1
  Dy  Dy12  1  0.913581  0.707054  0.127007  1
  Dy  Dy13  1  0.913580  0.292945  0.627006  1
  Dy  Dy14  1  0.091542  0.706645  0.622730  1
  Dy  Dy15  1  0.091549  0.293354  0.122729  1
  Dy  Dy16  1  0.002745  0.999489  0.500044  1
  Dy  Dy17  1  0.002748  0.000509  0.000044  1
  Lu  Lu18  1  0.499981  0.499456  0.999941  1
  Lu  Lu19  1  0.499984  0.500538  0.499939  1
  Ir  Ir20  1  0.153238  0.154079  0.749994  1
  Ir  Ir21  1  0.153237  0.845922  0.249992  1
  Ir  Ir22  1  0.652986  0.347936  0.749420  1
  Ir  Ir23  1  0.652986  0.652060  0.249417  1
  Ir  Ir24  1  0.348791  0.348208  0.250363  1
  Ir  Ir25  1  0.348793  0.651796  0.750365  1
  Ir  Ir26  1  0.500653  0.999825  0.123301  1
  Ir  Ir27  1  0.500652  0.000177  0.623307  1
  Ir  Ir28  1  0.999683  0.500248  0.876819  1
  Ir  Ir29  1  0.999682  0.499754  0.376824  1
  Pt  Pt30  1  0.845166  0.153618  0.249813  1
  Pt  Pt31  1  0.845168  0.846383  0.749810  1
