# generated using pymatgen
data_CeDy3Si(PtRh)6
_symmetry_space_group_name_H-M   'P 1'
_cell_length_a   7.25104674
_cell_length_b   7.25104684
_cell_length_c   7.25104758
_cell_angle_alpha   109.49416159
_cell_angle_beta   109.49415460
_cell_angle_gamma   109.49416737
_symmetry_Int_Tables_number   1
_chemical_formula_structural   CeDy3Si(PtRh)6
_chemical_formula_sum   'Ce1 Dy3 Si1 Pt6 Rh6'
_cell_volume   293.23166184
_cell_formula_units_Z   1
loop_
 _symmetry_equiv_pos_site_id
 _symmetry_equiv_pos_as_xyz
  1  'x, y, z'
loop_
 _atom_site_type_symbol
 _atom_site_label
 _atom_site_symmetry_multiplicity
 _atom_site_fract_x
 _atom_site_fract_y
 _atom_site_fract_z
 _atom_site_occupancy
  Ce  Ce0  1  0.500000  0.500000  0.500000  1
  Dy  Dy1  1  0.000000  0.000000  0.500000  1
  Dy  Dy2  1  0.000000  0.500000  0.000000  1
  Dy  Dy3  1  0.500000  0.000000  0.000000  1
  Si  Si4  1  0.000000  0.000000  0.000000  1
  Pt  Pt5  1  0.749872  0.250128  0.500000  1
  Pt  Pt6  1  0.749872  0.500000  0.250128  1
  Pt  Pt7  1  0.500000  0.250128  0.749872  1
  Pt  Pt8  1  0.250128  0.500000  0.749872  1
  Pt  Pt9  1  0.250128  0.749872  0.500000  1
  Pt  Pt10  1  0.500000  0.749872  0.250128  1
  Rh  Rh11  1  0.723865  0.723865  0.998741  1
  Rh  Rh12  1  0.276135  0.001259  0.276135  1
  Rh  Rh13  1  0.001259  0.276135  0.276135  1
  Rh  Rh14  1  0.276135  0.276135  0.001259  1
  Rh  Rh15  1  0.723865  0.998741  0.723865  1
  Rh  Rh16  1  0.998741  0.723865  0.723865  1
