# generated using pymatgen
data_RbCo7AsO16
_symmetry_space_group_name_H-M   'P 1'
_cell_length_a   5.71407461
_cell_length_b   6.90534491
_cell_length_c   6.88480900
_cell_angle_alpha   87.96407578
_cell_angle_beta   101.88644207
_cell_angle_gamma   102.02371006
_symmetry_Int_Tables_number   1
_chemical_formula_structural   RbCo7AsO16
_chemical_formula_sum   'Rb1 Co7 As1 O16'
_cell_volume   259.99373255
_cell_formula_units_Z   1
loop_
 _symmetry_equiv_pos_site_id
 _symmetry_equiv_pos_as_xyz
  1  'x, y, z'
loop_
 _atom_site_type_symbol
 _atom_site_label
 _atom_site_symmetry_multiplicity
 _atom_site_fract_x
 _atom_site_fract_y
 _atom_site_fract_z
 _atom_site_occupancy
  Rb  Rb0  1  0.003198  0.993581  0.997624  1
  Co  Co1  1  0.075877  0.819622  0.483819  1
  Co  Co2  1  0.925259  0.187607  0.513323  1
  Co  Co3  1  0.425568  0.188281  0.515169  1
  Co  Co4  1  0.165293  0.483088  0.183464  1
  Co  Co5  1  0.667089  0.481025  0.183794  1
  Co  Co6  1  0.332380  0.509970  0.820602  1
  Co  Co7  1  0.831504  0.507092  0.820367  1
  As  As8  1  0.575604  0.818476  0.486195  1
  O  O9  1  0.673027  0.051715  0.643940  1
  O  O10  1  0.172077  0.050477  0.637796  1
  O  O11  1  0.823344  0.951364  0.354628  1
  O  O12  1  0.330377  0.951979  0.354952  1
  O  O13  1  0.648291  0.635306  0.956367  1
  O  O14  1  0.147314  0.635961  0.955610  1
  O  O15  1  0.850078  0.351711  0.049735  1
  O  O16  1  0.350284  0.353000  0.048996  1
  O  O17  1  0.979048  0.623179  0.295516  1
  O  O18  1  0.480395  0.626072  0.294287  1
  O  O19  1  0.518687  0.379655  0.700814  1
  O  O20  1  0.021215  0.380702  0.700567  1
  O  O21  1  0.668526  0.297397  0.377230  1
  O  O22  1  0.168114  0.296397  0.374928  1
  O  O23  1  0.830301  0.713912  0.626381  1
  O  O24  1  0.337150  0.712430  0.623896  1
