# generated using pymatgen
data_Pr20Ga3Si8Ag
_symmetry_space_group_name_H-M   'P 1'
_cell_length_a   7.84125800
_cell_length_b   7.84125800
_cell_length_c   14.66129900
_cell_angle_alpha   90.00000000
_cell_angle_beta   90.00000000
_cell_angle_gamma   90.00000000
_symmetry_Int_Tables_number   1
_chemical_formula_structural   Pr20Ga3Si8Ag
_chemical_formula_sum   'Pr20 Ga3 Si8 Ag1'
_cell_volume   901.45476359
_cell_formula_units_Z   1
loop_
 _symmetry_equiv_pos_site_id
 _symmetry_equiv_pos_as_xyz
  1  'x, y, z'
loop_
 _atom_site_type_symbol
 _atom_site_label
 _atom_site_symmetry_multiplicity
 _atom_site_fract_x
 _atom_site_fract_y
 _atom_site_fract_z
 _atom_site_occupancy
  Pr  Pr0  1  0.812480  0.837219  0.609364  1
  Pr  Pr1  1  0.187483  0.829580  0.108434  1
  Pr  Pr2  1  0.171076  0.817284  0.391341  1
  Pr  Pr3  1  0.000000  0.500000  0.725023  1
  Pr  Pr4  1  0.828924  0.182716  0.391341  1
  Pr  Pr5  1  0.682716  0.671076  0.391341  1
  Pr  Pr6  1  0.662781  0.312480  0.609364  1
  Pr  Pr7  1  0.337219  0.687520  0.609364  1
  Pr  Pr8  1  0.000000  0.500000  0.227565  1
  Pr  Pr9  1  0.670420  0.687483  0.108434  1
  Pr  Pr10  1  0.685244  0.327701  0.892180  1
  Pr  Pr11  1  0.827701  0.814756  0.892180  1
  Pr  Pr12  1  0.317284  0.328924  0.391341  1
  Pr  Pr13  1  0.187520  0.162781  0.609364  1
  Pr  Pr14  1  0.812517  0.170420  0.108434  1
  Pr  Pr15  1  0.314756  0.672299  0.892180  1
  Pr  Pr16  1  0.329580  0.312517  0.108434  1
  Pr  Pr17  1  0.500000  0.000000  0.269893  1
  Pr  Pr18  1  0.172299  0.185244  0.892180  1
  Pr  Pr19  1  0.500000  0.000000  0.769677  1
  Ga  Ga20  1  0.500000  0.000000  0.494130  1
  Ga  Ga21  1  0.500000  0.000000  0.993914  1
  Ga  Ga22  1  0.000000  0.500000  0.006297  1
  Si  Si23  1  0.613860  0.386717  0.249112  1
  Si  Si24  1  0.112774  0.884976  0.752090  1
  Si  Si25  1  0.384976  0.387226  0.752090  1
  Si  Si26  1  0.386140  0.613283  0.249112  1
  Si  Si27  1  0.886717  0.886140  0.249112  1
  Si  Si28  1  0.615024  0.612774  0.752090  1
  Si  Si29  1  0.887226  0.115024  0.752090  1
  Si  Si30  1  0.113283  0.113860  0.249112  1
  Ag  Ag31  1  0.000000  0.500000  0.503416  1
