# generated using pymatgen
data_Tb7Dy(ErRu2)2
_symmetry_space_group_name_H-M   'P 1'
_cell_length_a   6.36168160
_cell_length_b   7.28029301
_cell_length_c   8.50411894
_cell_angle_alpha   96.66142913
_cell_angle_beta   111.98714562
_cell_angle_gamma   89.96635123
_symmetry_Int_Tables_number   1
_chemical_formula_structural   Tb7Dy(ErRu2)2
_chemical_formula_sum   'Tb7 Dy1 Er2 Ru4'
_cell_volume   362.36232963
_cell_formula_units_Z   1
loop_
 _symmetry_equiv_pos_site_id
 _symmetry_equiv_pos_as_xyz
  1  'x, y, z'
loop_
 _atom_site_type_symbol
 _atom_site_label
 _atom_site_symmetry_multiplicity
 _atom_site_fract_x
 _atom_site_fract_y
 _atom_site_fract_z
 _atom_site_occupancy
  Tb  Tb0  1  0.792017  0.584298  0.814244  1
  Tb  Tb1  1  0.977696  0.915691  0.185732  1
  Tb  Tb2  1  0.207945  0.415660  0.185769  1
  Tb  Tb3  1  0.022370  0.084369  0.814277  1
  Tb  Tb4  1  0.206838  0.685031  0.566929  1
  Tb  Tb5  1  0.639950  0.815068  0.433168  1
  Tb  Tb6  1  0.793238  0.314957  0.433127  1
  Dy  Dy7  1  0.360077  0.184940  0.566900  1
  Er  Er8  1  0.421282  0.749925  0.999943  1
  Er  Er9  1  0.578631  0.250041  0.999920  1
  Ru  Ru10  1  0.603209  0.924501  0.780751  1
  Ru  Ru11  1  0.822440  0.575703  0.219156  1
  Ru  Ru12  1  0.396713  0.075567  0.219282  1
  Ru  Ru13  1  0.177594  0.424250  0.780801  1
