# generated using pymatgen
data_Er8Tc(B8Ir)3
_symmetry_space_group_name_H-M   'P 1'
_cell_length_a   3.64006700
_cell_length_b   9.13453750
_cell_length_c   11.46682224
_cell_angle_alpha   89.88976178
_cell_angle_beta   90.00000000
_cell_angle_gamma   90.00000000
_symmetry_Int_Tables_number   1
_chemical_formula_structural   Er8Tc(B8Ir)3
_chemical_formula_sum   'Er8 Tc1 B24 Ir3'
_cell_volume   381.27490070
_cell_formula_units_Z   1
loop_
 _symmetry_equiv_pos_site_id
 _symmetry_equiv_pos_as_xyz
  1  'x, y, z'
loop_
 _atom_site_type_symbol
 _atom_site_label
 _atom_site_symmetry_multiplicity
 _atom_site_fract_x
 _atom_site_fract_y
 _atom_site_fract_z
 _atom_site_occupancy
  Er  Er0  1  0.000000  0.324189  0.412420  1
  Er  Er1  1  0.000000  0.679558  0.582391  1
  Er  Er2  1  0.000000  0.816555  0.090186  1
  Er  Er3  1  0.000000  0.179754  0.913884  1
  Er  Er4  1  0.000000  0.941818  0.374457  1
  Er  Er5  1  0.000000  0.056622  0.626081  1
  Er  Er6  1  0.000000  0.446421  0.127019  1
  Er  Er7  1  0.000000  0.556518  0.873305  1
  Tc  Tc8  1  0.000000  0.637406  0.321229  1
  B  B9  1  0.500000  0.553222  0.433542  1
  B  B10  1  0.500000  0.446587  0.566104  1
  B  B11  1  0.500000  0.052469  0.066295  1
  B  B12  1  0.500000  0.946541  0.934343  1
  B  B13  1  0.500000  0.748036  0.419839  1
  B  B14  1  0.500000  0.251016  0.578896  1
  B  B15  1  0.500000  0.249770  0.079186  1
  B  B16  1  0.500000  0.749818  0.920674  1
  B  B17  1  0.500000  0.791624  0.265600  1
  B  B18  1  0.500000  0.207095  0.735508  1
  B  B19  1  0.500000  0.292062  0.234004  1
  B  B20  1  0.500000  0.707905  0.764630  1
  B  B21  1  0.500000  0.630973  0.185253  1
  B  B22  1  0.500000  0.368067  0.815976  1
  B  B23  1  0.500000  0.131327  0.315853  1
  B  B24  1  0.500000  0.869085  0.684021  1
  B  B25  1  0.500000  0.981331  0.213720  1
  B  B26  1  0.500000  0.019253  0.787377  1
  B  B27  1  0.500000  0.482384  0.286889  1
  B  B28  1  0.500000  0.518706  0.712851  1
  B  B29  1  0.500000  0.608347  0.028796  1
  B  B30  1  0.500000  0.391055  0.969718  1
  B  B31  1  0.500000  0.109846  0.470287  1
  B  B32  1  0.500000  0.892162  0.530703  1
  Ir  Ir33  1  0.000000  0.362535  0.678695  1
  Ir  Ir34  1  0.000000  0.137096  0.177920  1
  Ir  Ir35  1  0.000000  0.862846  0.822346  1
