# generated using pymatgen
data_Eu2Hf3NbF22
_symmetry_space_group_name_H-M   'P 1'
_cell_length_a   8.49003363
_cell_length_b   8.49003245
_cell_length_c   8.45637232
_cell_angle_alpha   124.95381393
_cell_angle_beta   106.58260053
_cell_angle_gamma   98.34248112
_symmetry_Int_Tables_number   1
_chemical_formula_structural   Eu2Hf3NbF22
_chemical_formula_sum   'Eu2 Hf3 Nb1 F22'
_cell_volume   440.31378149
_cell_formula_units_Z   1
loop_
 _symmetry_equiv_pos_site_id
 _symmetry_equiv_pos_as_xyz
  1  'x, y, z'
loop_
 _atom_site_type_symbol
 _atom_site_label
 _atom_site_symmetry_multiplicity
 _atom_site_fract_x
 _atom_site_fract_y
 _atom_site_fract_z
 _atom_site_occupancy
  Eu  Eu0  1  0.750977  0.254032  0.506939  1
  Eu  Eu1  1  0.252907  0.755961  0.506939  1
  Hf  Hf2  1  0.314484  0.363338  0.677823  1
  Hf  Hf3  1  0.183233  0.863677  0.046910  1
  Hf  Hf4  1  0.823740  0.131642  0.955382  1
  Nb  Nb5  1  0.680149  0.630490  0.310640  1
  F  F6  1  0.706209  0.879912  0.338092  1
  F  F7  1  0.294780  0.114179  0.663621  1
  F  F8  1  0.549442  0.368842  0.663621  1
  F  F9  1  0.949650  0.609805  0.814284  1
  F  F10  1  0.458180  0.631882  0.338092  1
  F  F11  1  0.047598  0.394384  0.187047  1
  F  F12  1  0.792662  0.139447  0.187047  1
  F  F13  1  0.204479  0.864636  0.814284  1
  F  F14  1  0.505353  0.504789  0.010142  1
  F  F15  1  0.997991  0.996870  0.994861  1
  F  F16  1  0.778856  0.862048  0.640903  1
  F  F17  1  0.216634  0.127800  0.344435  1
  F  F18  1  0.283666  0.627075  0.910741  1
  F  F19  1  0.717419  0.378411  0.095829  1
  F  F20  1  0.939200  0.737403  0.414336  1
  F  F21  1  0.048563  0.259170  0.579792  1
  F  F22  1  0.320621  0.531228  0.579792  1
  F  F23  1  0.181216  0.762280  0.212777  1
  F  F24  1  0.676934  0.475136  0.414336  1
  F  F25  1  0.818316  0.233038  0.789280  1
  F  F26  1  0.556242  0.970963  0.789280  1
  F  F27  1  0.450497  0.031562  0.212777  1
