# generated using pymatgen
data_Pu2Cu(SbH)2
_symmetry_space_group_name_H-M   'P 1'
_cell_length_a   4.19438300
_cell_length_b   4.19438300
_cell_length_c   7.07633600
_cell_angle_alpha   90.00000000
_cell_angle_beta   90.00000000
_cell_angle_gamma   90.00000000
_symmetry_Int_Tables_number   1
_chemical_formula_structural   Pu2Cu(SbH)2
_chemical_formula_sum   'Pu2 Cu1 Sb2 H2'
_cell_volume   124.49290896
_cell_formula_units_Z   1
loop_
 _symmetry_equiv_pos_site_id
 _symmetry_equiv_pos_as_xyz
  1  'x, y, z'
loop_
 _atom_site_type_symbol
 _atom_site_label
 _atom_site_symmetry_multiplicity
 _atom_site_fract_x
 _atom_site_fract_y
 _atom_site_fract_z
 _atom_site_occupancy
  Pu  Pu0  1  0.500000  0.000000  0.850672  1
  Pu  Pu1  1  0.000000  0.500000  0.149328  1
  Cu  Cu2  1  0.500000  0.500000  0.500000  1
  Sb  Sb3  1  0.500000  0.000000  0.300987  1
  Sb  Sb4  1  0.000000  0.500000  0.699013  1
  H  H5  1  0.500000  0.500000  0.000000  1
  H  H6  1  0.000000  0.000000  0.000000  1
