# generated using pymatgen
data_Tb2TaB2Ir2Ru3
_symmetry_space_group_name_H-M   'P 1'
_cell_length_a   9.76010300
_cell_length_b   9.73494600
_cell_length_c   3.12731400
_cell_angle_alpha   90.00000000
_cell_angle_beta   90.00000000
_cell_angle_gamma   90.00000000
_symmetry_Int_Tables_number   1
_chemical_formula_structural   Tb2TaB2Ir2Ru3
_chemical_formula_sum   'Tb4 Ta2 B4 Ir4 Ru6'
_cell_volume   297.13884901
_cell_formula_units_Z   2
loop_
 _symmetry_equiv_pos_site_id
 _symmetry_equiv_pos_as_xyz
  1  'x, y, z'
loop_
 _atom_site_type_symbol
 _atom_site_label
 _atom_site_symmetry_multiplicity
 _atom_site_fract_x
 _atom_site_fract_y
 _atom_site_fract_z
 _atom_site_occupancy
  Tb  Tb0  1  0.824941  0.675053  0.000000  1
  Tb  Tb1  1  0.175059  0.324947  0.000000  1
  Tb  Tb2  1  0.324941  0.824947  0.000000  1
  Tb  Tb3  1  0.675059  0.175053  0.000000  1
  Ta  Ta4  1  0.500000  0.500000  0.000000  1
  Ta  Ta5  1  0.000000  0.000000  0.000000  1
  B  B6  1  0.623676  0.885515  0.000000  1
  B  B7  1  0.376324  0.114485  0.000000  1
  B  B8  1  0.123676  0.614485  0.000000  1
  B  B9  1  0.876324  0.385515  0.000000  1
  Ir  Ir10  1  0.570665  0.720765  0.500000  1
  Ir  Ir11  1  0.429335  0.279235  0.500000  1
  Ir  Ir12  1  0.070665  0.779235  0.500000  1
  Ir  Ir13  1  0.929335  0.220765  0.500000  1
  Ru  Ru14  1  0.282021  0.569711  0.500000  1
  Ru  Ru15  1  0.717979  0.430289  0.500000  1
  Ru  Ru16  1  0.217979  0.069711  0.500000  1
  Ru  Ru17  1  0.782021  0.930289  0.500000  1
  Ru  Ru18  1  0.500000  0.000000  0.500000  1
  Ru  Ru19  1  0.000000  0.500000  0.500000  1
