# generated using pymatgen
data_Nb12Al8CoNi3C4
_symmetry_space_group_name_H-M   'P 1'
_cell_length_a   8.27221949
_cell_length_b   8.27229453
_cell_length_c   8.28134643
_cell_angle_alpha   60.03566903
_cell_angle_beta   60.03507722
_cell_angle_gamma   59.99907278
_symmetry_Int_Tables_number   1
_chemical_formula_structural   Nb12Al8CoNi3C4
_chemical_formula_sum   'Nb12 Al8 Co1 Ni3 C4'
_cell_volume   400.92481845
_cell_formula_units_Z   1
loop_
 _symmetry_equiv_pos_site_id
 _symmetry_equiv_pos_as_xyz
  1  'x, y, z'
loop_
 _atom_site_type_symbol
 _atom_site_label
 _atom_site_symmetry_multiplicity
 _atom_site_fract_x
 _atom_site_fract_y
 _atom_site_fract_z
 _atom_site_occupancy
  Nb  Nb0  1  0.688634  0.312788  0.685798  1
  Nb  Nb1  1  0.937211  0.561366  0.564205  1
  Nb  Nb2  1  0.564138  0.936184  0.935544  1
  Nb  Nb3  1  0.936184  0.564137  0.935543  1
  Nb  Nb4  1  0.564139  0.564135  0.935540  1
  Nb  Nb5  1  0.937215  0.937215  0.564206  1
  Nb  Nb6  1  0.685861  0.685865  0.314460  1
  Nb  Nb7  1  0.312789  0.688634  0.685795  1
  Nb  Nb8  1  0.685862  0.313816  0.314456  1
  Nb  Nb9  1  0.312785  0.312785  0.685794  1
  Nb  Nb10  1  0.561366  0.937212  0.564202  1
  Nb  Nb11  1  0.313816  0.685863  0.314457  1
  Al  Al12  1  0.331476  0.331482  0.333623  1
  Al  Al13  1  0.246580  0.918521  0.916383  1
  Al  Al14  1  0.918525  0.246582  0.916380  1
  Al  Al15  1  0.917268  0.917262  0.248214  1
  Al  Al16  1  0.331475  0.003418  0.333620  1
  Al  Al17  1  0.332732  0.332738  0.001786  1
  Al  Al18  1  0.003420  0.331479  0.333617  1
  Al  Al19  1  0.918524  0.918518  0.916377  1
  Co  Co20  1  0.125000  0.125000  0.625000  1
  Ni  Ni21  1  0.125000  0.125000  0.125000  1
  Ni  Ni22  1  0.625000  0.125000  0.125000  1
  Ni  Ni23  1  0.125000  0.625000  0.125000  1
  C  C24  1  0.625000  0.625000  0.625000  1
  C  C25  1  0.125000  0.625000  0.625000  1
  C  C26  1  0.625000  0.125000  0.625000  1
  C  C27  1  0.625000  0.625000  0.125000  1
