# generated using pymatgen
data_Rb5Au(IO)2
_symmetry_space_group_name_H-M   'P 1'
_cell_length_a   5.88319000
_cell_length_b   7.67004100
_cell_length_c   14.82710700
_cell_angle_alpha   90.00000000
_cell_angle_beta   90.00000000
_cell_angle_gamma   90.00000000
_symmetry_Int_Tables_number   1
_chemical_formula_structural   Rb5Au(IO)2
_chemical_formula_sum   'Rb10 Au2 I4 O4'
_cell_volume   669.06295059
_cell_formula_units_Z   2
loop_
 _symmetry_equiv_pos_site_id
 _symmetry_equiv_pos_as_xyz
  1  'x, y, z'
loop_
 _atom_site_type_symbol
 _atom_site_label
 _atom_site_symmetry_multiplicity
 _atom_site_fract_x
 _atom_site_fract_y
 _atom_site_fract_z
 _atom_site_occupancy
  Rb  Rb0  1  0.500000  0.333932  0.598220  1
  Rb  Rb1  1  0.500000  0.166068  0.098220  1
  Rb  Rb2  1  0.000000  0.604998  0.736415  1
  Rb  Rb3  1  0.000000  0.500000  0.000000  1
  Rb  Rb4  1  0.500000  0.666068  0.401780  1
  Rb  Rb5  1  0.500000  0.833932  0.901780  1
  Rb  Rb6  1  0.000000  0.895002  0.236415  1
  Rb  Rb7  1  0.000000  0.395002  0.263585  1
  Rb  Rb8  1  0.000000  0.104998  0.763585  1
  Rb  Rb9  1  0.000000  0.000000  0.500000  1
  Au  Au10  1  0.000000  0.500000  0.500000  1
  Au  Au11  1  0.000000  0.000000  0.000000  1
  I  I12  1  0.500000  0.646786  0.147028  1
  I  I13  1  0.500000  0.353214  0.852972  1
  I  I14  1  0.500000  0.146786  0.352972  1
  I  I15  1  0.500000  0.853214  0.647028  1
  O  O16  1  0.000000  0.671911  0.393580  1
  O  O17  1  0.000000  0.828089  0.893580  1
  O  O18  1  0.000000  0.171911  0.106420  1
  O  O19  1  0.000000  0.328089  0.606420  1
