# generated using pymatgen
data_MoOsSeBr12
_symmetry_space_group_name_H-M   'P 1'
_cell_length_a   9.62158113
_cell_length_b   9.62158089
_cell_length_c   7.35534314
_cell_angle_alpha   69.64629605
_cell_angle_beta   69.64629089
_cell_angle_gamma   83.77937209
_symmetry_Int_Tables_number   1
_chemical_formula_structural   MoOsSeBr12
_chemical_formula_sum   'Mo1 Os1 Se1 Br12'
_cell_volume   598.48364926
_cell_formula_units_Z   1
loop_
 _symmetry_equiv_pos_site_id
 _symmetry_equiv_pos_as_xyz
  1  'x, y, z'
loop_
 _atom_site_type_symbol
 _atom_site_label
 _atom_site_symmetry_multiplicity
 _atom_site_fract_x
 _atom_site_fract_y
 _atom_site_fract_z
 _atom_site_occupancy
  Mo  Mo0  1  0.228292  0.228292  0.775038  1
  Os  Os1  1  0.026535  0.026535  0.974191  1
  Se  Se2  1  0.737109  0.737109  0.260208  1
  Br  Br3  1  0.962018  0.264869  0.731384  1
  Br  Br4  1  0.264869  0.962018  0.731384  1
  Br  Br5  1  0.046528  0.774358  0.225405  1
  Br  Br6  1  0.774358  0.046528  0.225405  1
  Br  Br7  1  0.196893  0.475667  0.806770  1
  Br  Br8  1  0.475667  0.196893  0.806770  1
  Br  Br9  1  0.783353  0.499902  0.212118  1
  Br  Br10  1  0.499902  0.783353  0.212118  1
  Br  Br11  1  0.125848  0.125848  0.183280  1
  Br  Br12  1  0.898038  0.898038  0.828128  1
  Br  Br13  1  0.652597  0.652597  0.631189  1
  Br  Br14  1  0.327994  0.327994  0.396614  1
