# generated using pymatgen
data_Th3GaPd(PtAu)2
_symmetry_space_group_name_H-M   'P 1'
_cell_length_a   7.81791621
_cell_length_b   7.61211827
_cell_length_c   3.80290600
_cell_angle_alpha   90.00000000
_cell_angle_beta   90.00000000
_cell_angle_gamma   119.13297350
_symmetry_Int_Tables_number   1
_chemical_formula_structural   Th3GaPd(PtAu)2
_chemical_formula_sum   'Th3 Ga1 Pd1 Pt2 Au2'
_cell_volume   197.68383511
_cell_formula_units_Z   1
loop_
 _symmetry_equiv_pos_site_id
 _symmetry_equiv_pos_as_xyz
  1  'x, y, z'
loop_
 _atom_site_type_symbol
 _atom_site_label
 _atom_site_symmetry_multiplicity
 _atom_site_fract_x
 _atom_site_fract_y
 _atom_site_fract_z
 _atom_site_occupancy
  Th  Th0  1  0.401656  0.393504  0.500000  1
  Th  Th1  1  0.598344  0.991848  0.500000  1
  Th  Th2  1  0.000000  0.611692  0.500000  1
  Ga  Ga3  1  0.000000  0.262259  0.000000  1
  Pd  Pd4  1  0.000000  0.032730  0.500000  1
  Pt  Pt5  1  0.685630  0.328841  0.000000  1
  Pt  Pt6  1  0.314370  0.643213  0.000000  1
  Au  Au7  1  0.730973  0.733443  0.000000  1
  Au  Au8  1  0.269027  0.002469  0.000000  1
