# generated using pymatgen
data_Dy11HoCo6Pb
_symmetry_space_group_name_H-M   'P 1'
_cell_length_a   8.37875333
_cell_length_b   8.38163186
_cell_length_c   8.38458642
_cell_angle_alpha   109.62622415
_cell_angle_beta   109.44807766
_cell_angle_gamma   109.33231373
_symmetry_Int_Tables_number   1
_chemical_formula_structural   Dy11HoCo6Pb
_chemical_formula_sum   'Dy11 Ho1 Co6 Pb1'
_cell_volume   453.31837881
_cell_formula_units_Z   1
loop_
 _symmetry_equiv_pos_site_id
 _symmetry_equiv_pos_as_xyz
  1  'x, y, z'
loop_
 _atom_site_type_symbol
 _atom_site_label
 _atom_site_symmetry_multiplicity
 _atom_site_fract_x
 _atom_site_fract_y
 _atom_site_fract_z
 _atom_site_occupancy
  Dy  Dy0  1  0.805681  0.695717  0.501092  1
  Dy  Dy1  1  0.194077  0.304574  0.499140  1
  Dy  Dy2  1  0.194076  0.694939  0.889496  1
  Dy  Dy3  1  0.805671  0.304582  0.109953  1
  Dy  Dy4  1  0.695467  0.500923  0.805651  1
  Dy  Dy5  1  0.304405  0.498771  0.194026  1
  Dy  Dy6  1  0.695461  0.889805  0.194552  1
  Dy  Dy7  1  0.304387  0.110363  0.805624  1
  Dy  Dy8  1  0.501361  0.805964  0.695405  1
  Dy  Dy9  1  0.499055  0.194340  0.304723  1
  Dy  Dy10  1  0.110471  0.805803  0.304668  1
  Ho  Ho11  1  0.889230  0.194177  0.695071  1
  Co  Co12  1  0.886817  0.386747  0.500052  1
  Co  Co13  1  0.112763  0.612904  0.499843  1
  Co  Co14  1  0.386506  0.499716  0.886755  1
  Co  Co15  1  0.613387  0.500088  0.113269  1
  Co  Co16  1  0.500534  0.887156  0.387164  1
  Co  Co17  1  0.500549  0.113354  0.613373  1
  Pb  Pb18  1  0.000100  0.000077  0.000142  1
