# generated using pymatgen
data_Cs7LiVIn2As5
_symmetry_space_group_name_H-M   'P 1'
_cell_length_a   9.05158887
_cell_length_b   9.79033767
_cell_length_c   15.10621102
_cell_angle_alpha   86.21342037
_cell_angle_beta   80.43256044
_cell_angle_gamma   85.04206280
_symmetry_Int_Tables_number   1
_chemical_formula_structural   Cs7LiVIn2As5
_chemical_formula_sum   'Cs14 Li2 V2 In4 As10'
_cell_volume   1313.30385944
_cell_formula_units_Z   2
loop_
 _symmetry_equiv_pos_site_id
 _symmetry_equiv_pos_as_xyz
  1  'x, y, z'
loop_
 _atom_site_type_symbol
 _atom_site_label
 _atom_site_symmetry_multiplicity
 _atom_site_fract_x
 _atom_site_fract_y
 _atom_site_fract_z
 _atom_site_occupancy
  Cs  Cs0  1  0.856128  0.361140  0.647921  1
  Cs  Cs1  1  0.841138  0.800296  0.131015  1
  Cs  Cs2  1  0.241736  0.018314  0.468798  1
  Cs  Cs3  1  0.281624  0.261300  0.248298  1
  Cs  Cs4  1  0.741249  0.477304  0.972475  1
  Cs  Cs5  1  0.258751  0.522696  0.027525  1
  Cs  Cs6  1  0.639522  0.088164  0.875233  1
  Cs  Cs7  1  0.758264  0.981686  0.531202  1
  Cs  Cs8  1  0.718376  0.738700  0.751702  1
  Cs  Cs9  1  0.346389  0.349395  0.606132  1
  Cs  Cs10  1  0.143872  0.638860  0.352079  1
  Cs  Cs11  1  0.158862  0.199704  0.868985  1
  Cs  Cs12  1  0.360478  0.911836  0.124767  1
  Cs  Cs13  1  0.653611  0.650605  0.393868  1
  Li  Li14  1  0.086920  0.819934  0.821728  1
  Li  Li15  1  0.913080  0.180066  0.178272  1
  V  V16  1  0.337220  0.620812  0.778833  1
  V  V17  1  0.662780  0.379188  0.221167  1
  In  In18  1  0.347696  0.956121  0.705240  1
  In  In19  1  0.104656  0.725944  0.629024  1
  In  In20  1  0.895344  0.274056  0.370976  1
  In  In21  1  0.652304  0.043879  0.294760  1
  As  As22  1  0.918995  0.440390  0.210748  1
  As  As23  1  0.655244  0.183944  0.125756  1
  As  As24  1  0.081005  0.559610  0.789252  1
  As  As25  1  0.581336  0.295526  0.376363  1
  As  As26  1  0.418664  0.704474  0.623637  1
  As  As27  1  0.020397  0.003013  0.703435  1
  As  As28  1  0.489740  0.427508  0.812214  1
  As  As29  1  0.510260  0.572492  0.187786  1
  As  As30  1  0.344756  0.816056  0.874244  1
  As  As31  1  0.979603  0.996987  0.296565  1
