# generated using pymatgen
data_Sr5PdAu5
_symmetry_space_group_name_H-M   'P 1'
_cell_length_a   16.47147218
_cell_length_b   16.47147155
_cell_length_c   4.34360800
_cell_angle_alpha   90.00000000
_cell_angle_beta   90.00000000
_cell_angle_gamma   164.19735052
_symmetry_Int_Tables_number   1
_chemical_formula_structural   Sr5PdAu5
_chemical_formula_sum   'Sr5 Pd1 Au5'
_cell_volume   320.92425545
_cell_formula_units_Z   1
loop_
 _symmetry_equiv_pos_site_id
 _symmetry_equiv_pos_as_xyz
  1  'x, y, z'
loop_
 _atom_site_type_symbol
 _atom_site_label
 _atom_site_symmetry_multiplicity
 _atom_site_fract_x
 _atom_site_fract_y
 _atom_site_fract_z
 _atom_site_occupancy
  Sr  Sr0  1  0.994429  0.005571  0.000000  1
  Sr  Sr1  1  0.616459  0.383541  0.000000  1
  Sr  Sr2  1  0.384815  0.615185  0.000000  1
  Sr  Sr3  1  0.805422  0.194577  0.500000  1
  Sr  Sr4  1  0.199205  0.800794  0.500000  1
  Pd  Pd5  1  0.905612  0.094388  0.500000  1
  Au  Au6  1  0.719139  0.280861  0.000000  1
  Au  Au7  1  0.280873  0.719127  0.000000  1
  Au  Au8  1  0.541789  0.458210  0.500000  1
  Au  Au9  1  0.456029  0.543970  0.500000  1
  Au  Au10  1  0.096225  0.903775  0.500000  1
