# generated using pymatgen
data_Ce7Th7(IrOs2)2
_symmetry_space_group_name_H-M   'P 1'
_cell_length_a   6.17240471
_cell_length_b   9.96669894
_cell_length_c   10.00516290
_cell_angle_alpha   120.09041177
_cell_angle_beta   90.16970186
_cell_angle_gamma   90.03518687
_symmetry_Int_Tables_number   1
_chemical_formula_structural   Ce7Th7(IrOs2)2
_chemical_formula_sum   'Ce7 Th7 Ir2 Os4'
_cell_volume   532.55070178
_cell_formula_units_Z   1
loop_
 _symmetry_equiv_pos_site_id
 _symmetry_equiv_pos_as_xyz
  1  'x, y, z'
loop_
 _atom_site_type_symbol
 _atom_site_label
 _atom_site_symmetry_multiplicity
 _atom_site_fract_x
 _atom_site_fract_y
 _atom_site_fract_z
 _atom_site_occupancy
  Ce  Ce0  1  0.737675  0.875461  0.744618  1
  Ce  Ce1  1  0.453760  0.542420  0.462535  1
  Ce  Ce2  1  0.452075  0.922657  0.465122  1
  Ce  Ce3  1  0.450510  0.536552  0.076805  1
  Ce  Ce4  1  0.955232  0.465305  0.536610  1
  Ce  Ce5  1  0.955162  0.074206  0.538925  1
  Ce  Ce6  1  0.951566  0.460355  0.924336  1
  Th  Th7  1  0.463233  0.333664  0.667677  1
  Th  Th8  1  0.965261  0.665405  0.331723  1
  Th  Th9  1  0.237036  0.127062  0.871930  1
  Th  Th10  1  0.237662  0.747426  0.873686  1
  Th  Th11  1  0.237597  0.126774  0.254267  1
  Th  Th12  1  0.735918  0.868449  0.131188  1
  Th  Th13  1  0.735764  0.257014  0.126586  1
  Ir  Ir14  1  0.707347  0.627770  0.811718  1
  Ir  Ir15  1  0.709764  0.187713  0.373721  1
  Os  Os16  1  0.211726  0.812644  0.185922  1
  Os  Os17  1  0.209313  0.372319  0.186936  1
  Os  Os18  1  0.201975  0.811065  0.625424  1
  Os  Os19  1  0.709418  0.185738  0.810270  1
