# generated using pymatgen
data_Dy4LuOs2
_symmetry_space_group_name_H-M   'P 1'
_cell_length_a   6.34110459
_cell_length_b   7.32790513
_cell_length_c   8.41204982
_cell_angle_alpha   96.93967974
_cell_angle_beta   112.14215792
_cell_angle_gamma   90.00000585
_symmetry_Int_Tables_number   1
_chemical_formula_structural   Dy4LuOs2
_chemical_formula_sum   'Dy8 Lu2 Os4'
_cell_volume   358.96228404
_cell_formula_units_Z   2
loop_
 _symmetry_equiv_pos_site_id
 _symmetry_equiv_pos_as_xyz
  1  'x, y, z'
loop_
 _atom_site_type_symbol
 _atom_site_label
 _atom_site_symmetry_multiplicity
 _atom_site_fract_x
 _atom_site_fract_y
 _atom_site_fract_z
 _atom_site_occupancy
  Dy  Dy0  1  0.524182  0.083019  0.816246  1
  Dy  Dy1  1  0.475818  0.916981  0.183754  1
  Dy  Dy2  1  0.707937  0.416981  0.183754  1
  Dy  Dy3  1  0.292063  0.583019  0.816246  1
  Dy  Dy4  1  0.298467  0.313508  0.432994  1
  Dy  Dy5  1  0.701533  0.686492  0.567006  1
  Dy  Dy6  1  0.865474  0.186492  0.567006  1
  Dy  Dy7  1  0.134526  0.813508  0.432994  1
  Lu  Lu8  1  0.076454  0.250000  0.000000  1
  Lu  Lu9  1  0.923546  0.750000  0.000000  1
  Os  Os10  1  0.318083  0.575687  0.216565  1
  Os  Os11  1  0.681917  0.424313  0.783435  1
  Os  Os12  1  0.101519  0.924313  0.783435  1
  Os  Os13  1  0.898481  0.075687  0.216565  1
