# generated using pymatgen
data_Ho4ErTm3(B6Rh)4
_symmetry_space_group_name_H-M   'P 1'
_cell_length_a   3.63709200
_cell_length_b   9.13668203
_cell_length_c   11.47399604
_cell_angle_alpha   89.99035388
_cell_angle_beta   90.00000000
_cell_angle_gamma   90.00000000
_symmetry_Int_Tables_number   1
_chemical_formula_structural   Ho4ErTm3(B6Rh)4
_chemical_formula_sum   'Ho4 Er1 Tm3 B24 Rh4'
_cell_volume   381.29181920
_cell_formula_units_Z   1
loop_
 _symmetry_equiv_pos_site_id
 _symmetry_equiv_pos_as_xyz
  1  'x, y, z'
loop_
 _atom_site_type_symbol
 _atom_site_label
 _atom_site_symmetry_multiplicity
 _atom_site_fract_x
 _atom_site_fract_y
 _atom_site_fract_z
 _atom_site_occupancy
  Ho  Ho0  1  0.500000  0.321792  0.413928  1
  Ho  Ho1  1  0.500000  0.678213  0.586177  1
  Ho  Ho2  1  0.500000  0.178023  0.913702  1
  Ho  Ho3  1  0.500000  0.822007  0.086128  1
  Er  Er4  1  0.500000  0.444237  0.126811  1
  Tm  Tm5  1  0.500000  0.555798  0.873020  1
  Tm  Tm6  1  0.500000  0.055741  0.626823  1
  Tm  Tm7  1  0.500000  0.944281  0.373291  1
  B  B8  1  0.000000  0.107946  0.470893  1
  B  B9  1  0.000000  0.892037  0.529221  1
  B  B10  1  0.000000  0.391523  0.970402  1
  B  B11  1  0.000000  0.608702  0.029066  1
  B  B12  1  0.000000  0.132713  0.316612  1
  B  B13  1  0.000000  0.867257  0.683471  1
  B  B14  1  0.000000  0.367187  0.816397  1
  B  B15  1  0.000000  0.633169  0.183640  1
  B  B16  1  0.000000  0.054059  0.065373  1
  B  B17  1  0.000000  0.945740  0.934492  1
  B  B18  1  0.000000  0.445786  0.565471  1
  B  B19  1  0.000000  0.554289  0.434689  1
  B  B20  1  0.000000  0.482950  0.286755  1
  B  B21  1  0.000000  0.517253  0.713524  1
  B  B22  1  0.000000  0.017237  0.786396  1
  B  B23  1  0.000000  0.982706  0.213631  1
  B  B24  1  0.000000  0.249593  0.079487  1
  B  B25  1  0.000000  0.750016  0.920326  1
  B  B26  1  0.000000  0.249879  0.579582  1
  B  B27  1  0.000000  0.750159  0.420538  1
  B  B28  1  0.000000  0.294002  0.236255  1
  B  B29  1  0.000000  0.705665  0.763898  1
  B  B30  1  0.000000  0.205610  0.735964  1
  B  B31  1  0.000000  0.794489  0.264033  1
  Rh  Rh32  1  0.500000  0.139360  0.179391  1
  Rh  Rh33  1  0.500000  0.860092  0.820461  1
  Rh  Rh34  1  0.500000  0.360001  0.679281  1
  Rh  Rh35  1  0.500000  0.640489  0.320872  1
