# generated using pymatgen
data_SmEr19(CoBi5)2
_symmetry_space_group_name_H-M   'P 1'
_cell_length_a   8.00414731
_cell_length_b   9.34922700
_cell_length_c   12.02766644
_cell_angle_alpha   90.00000000
_cell_angle_beta   90.08688357
_cell_angle_gamma   90.00000000
_symmetry_Int_Tables_number   1
_chemical_formula_structural   SmEr19(CoBi5)2
_chemical_formula_sum   'Sm1 Er19 Co2 Bi10'
_cell_volume   900.06039848
_cell_formula_units_Z   1
loop_
 _symmetry_equiv_pos_site_id
 _symmetry_equiv_pos_as_xyz
  1  'x, y, z'
loop_
 _atom_site_type_symbol
 _atom_site_label
 _atom_site_symmetry_multiplicity
 _atom_site_fract_x
 _atom_site_fract_y
 _atom_site_fract_z
 _atom_site_occupancy
  Sm  Sm0  1  0.573833  0.500000  0.772520  1
  Er  Er1  1  0.429480  0.176744  0.562872  1
  Er  Er2  1  0.570816  0.822444  0.062906  1
  Er  Er3  1  0.071034  0.729937  0.436634  1
  Er  Er4  1  0.928599  0.270217  0.936508  1
  Er  Er5  1  0.071034  0.270063  0.436634  1
  Er  Er6  1  0.928599  0.729783  0.936508  1
  Er  Er7  1  0.429480  0.823256  0.562872  1
  Er  Er8  1  0.570816  0.177556  0.062906  1
  Er  Er9  1  0.427149  0.500000  0.272288  1
  Er  Er10  1  0.907791  0.000000  0.201143  1
  Er  Er11  1  0.092013  0.000000  0.700524  1
  Er  Er12  1  0.259149  0.500000  0.993806  1
  Er  Er13  1  0.741404  0.500000  0.493316  1
  Er  Er14  1  0.197736  0.000000  0.996876  1
  Er  Er15  1  0.801410  0.000000  0.496095  1
  Er  Er16  1  0.088964  0.500000  0.718004  1
  Er  Er17  1  0.910684  0.500000  0.219544  1
  Er  Er18  1  0.371125  0.000000  0.308650  1
  Er  Er19  1  0.629357  0.000000  0.808351  1
  Co  Co20  1  0.173354  0.000000  0.488088  1
  Co  Co21  1  0.826410  0.000000  0.988828  1
  Bi  Bi22  1  0.816977  0.743879  0.670428  1
  Bi  Bi23  1  0.186138  0.258721  0.172092  1
  Bi  Bi24  1  0.679484  0.241654  0.325314  1
  Bi  Bi25  1  0.317361  0.760125  0.825704  1
  Bi  Bi26  1  0.679484  0.758346  0.325314  1
  Bi  Bi27  1  0.317361  0.239875  0.825704  1
  Bi  Bi28  1  0.816977  0.256121  0.670428  1
  Bi  Bi29  1  0.186138  0.741279  0.172092  1
  Bi  Bi30  1  0.345291  0.500000  0.526328  1
  Bi  Bi31  1  0.654551  0.500000  0.030724  1
