# generated using pymatgen
data_Ho16In6PdPt
_symmetry_space_group_name_H-M   'P 1'
_cell_length_a   10.46072500
_cell_length_b   10.46072647
_cell_length_c   6.96539500
_cell_angle_alpha   90.00000000
_cell_angle_beta   90.00000000
_cell_angle_gamma   119.99999852
_symmetry_Int_Tables_number   1
_chemical_formula_structural   Ho16In6PdPt
_chemical_formula_sum   'Ho16 In6 Pd1 Pt1'
_cell_volume   660.08523640
_cell_formula_units_Z   1
loop_
 _symmetry_equiv_pos_site_id
 _symmetry_equiv_pos_as_xyz
  1  'x, y, z'
loop_
 _atom_site_type_symbol
 _atom_site_label
 _atom_site_symmetry_multiplicity
 _atom_site_fract_x
 _atom_site_fract_y
 _atom_site_fract_z
 _atom_site_occupancy
  Ho  Ho0  1  0.530478  0.060956  0.508494  1
  Ho  Ho1  1  0.939044  0.469522  0.508494  1
  Ho  Ho2  1  0.530478  0.469522  0.508494  1
  Ho  Ho3  1  0.469688  0.939376  0.010222  1
  Ho  Ho4  1  0.060624  0.530312  0.010222  1
  Ho  Ho5  1  0.469688  0.530312  0.010222  1
  Ho  Ho6  1  0.174593  0.349185  0.714965  1
  Ho  Ho7  1  0.650815  0.825407  0.714965  1
  Ho  Ho8  1  0.174593  0.825407  0.714965  1
  Ho  Ho9  1  0.824668  0.649336  0.215199  1
  Ho  Ho10  1  0.350664  0.175332  0.215199  1
  Ho  Ho11  1  0.824668  0.175332  0.215199  1
  Ho  Ho12  1  0.666667  0.333333  0.883192  1
  Ho  Ho13  1  0.333333  0.666667  0.380975  1
  Ho  Ho14  1  0.000000  0.000000  0.489558  1
  Ho  Ho15  1  0.000000  0.000000  0.989567  1
  In  In16  1  0.837249  0.674500  0.751324  1
  In  In17  1  0.325500  0.162751  0.751324  1
  In  In18  1  0.837249  0.162751  0.751324  1
  In  In19  1  0.162862  0.325724  0.250742  1
  In  In20  1  0.674276  0.837138  0.250742  1
  In  In21  1  0.162862  0.837138  0.250742  1
  Pd  Pd22  1  0.333333  0.666667  0.779937  1
  Pt  Pt23  1  0.666667  0.333333  0.281974  1
