# generated using pymatgen
data_Lu3In3SnRh2
_symmetry_space_group_name_H-M   'P 1'
_cell_length_a   7.75952600
_cell_length_b   7.75952595
_cell_length_c   3.81159600
_cell_angle_alpha   90.00000000
_cell_angle_beta   90.00000000
_cell_angle_gamma   120.00000136
_symmetry_Int_Tables_number   1
_chemical_formula_structural   Lu3In3SnRh2
_chemical_formula_sum   'Lu3 In3 Sn1 Rh2'
_cell_volume   198.75033561
_cell_formula_units_Z   1
loop_
 _symmetry_equiv_pos_site_id
 _symmetry_equiv_pos_as_xyz
  1  'x, y, z'
loop_
 _atom_site_type_symbol
 _atom_site_label
 _atom_site_symmetry_multiplicity
 _atom_site_fract_x
 _atom_site_fract_y
 _atom_site_fract_z
 _atom_site_occupancy
  Lu  Lu0  1  0.966436  0.582363  0.500000  1
  Lu  Lu1  1  0.417637  0.384073  0.500000  1
  Lu  Lu2  1  0.615927  0.033564  0.500000  1
  In  In3  1  0.748411  0.740837  0.000000  1
  In  In4  1  0.992426  0.251589  0.000000  1
  In  In5  1  0.259163  0.007574  0.000000  1
  Sn  Sn6  1  0.333333  0.666667  0.000000  1
  Rh  Rh7  1  0.000000  0.000000  0.500000  1
  Rh  Rh8  1  0.666667  0.333333  0.000000  1
