# generated using pymatgen
data_AgAu(NO3)4
_symmetry_space_group_name_H-M   'P 1'
_cell_length_a   7.85074411
_cell_length_b   7.70258300
_cell_length_c   8.84675307
_cell_angle_alpha   90.00000000
_cell_angle_beta   94.28703713
_cell_angle_gamma   90.00000000
_symmetry_Int_Tables_number   1
_chemical_formula_structural   AgAu(NO3)4
_chemical_formula_sum   'Ag2 Au2 N8 O24'
_cell_volume   533.47526276
_cell_formula_units_Z   2
loop_
 _symmetry_equiv_pos_site_id
 _symmetry_equiv_pos_as_xyz
  1  'x, y, z'
loop_
 _atom_site_type_symbol
 _atom_site_label
 _atom_site_symmetry_multiplicity
 _atom_site_fract_x
 _atom_site_fract_y
 _atom_site_fract_z
 _atom_site_occupancy
  Ag  Ag0  1  0.500000  0.500000  0.500000  1
  Ag  Ag1  1  0.500000  0.000000  0.000000  1
  Au  Au2  1  0.000000  0.500000  0.000000  1
  Au  Au3  1  0.000000  0.000000  0.500000  1
  N  N4  1  0.685472  0.144309  0.326499  1
  N  N5  1  0.685472  0.355691  0.826499  1
  N  N6  1  0.823659  0.805913  0.870780  1
  N  N7  1  0.823659  0.694087  0.370780  1
  N  N8  1  0.176341  0.194087  0.129220  1
  N  N9  1  0.176341  0.305913  0.629220  1
  N  N10  1  0.314528  0.644309  0.173501  1
  N  N11  1  0.314528  0.855691  0.673501  1
  O  O12  1  0.561918  0.255622  0.820507  1
  O  O13  1  0.561918  0.244378  0.320507  1
  O  O14  1  0.722060  0.456037  0.724832  1
  O  O15  1  0.722060  0.043963  0.224832  1
  O  O16  1  0.726927  0.731819  0.470896  1
  O  O17  1  0.726927  0.768181  0.970896  1
  O  O18  1  0.783350  0.348940  0.957859  1
  O  O19  1  0.783350  0.151060  0.457859  1
  O  O20  1  0.809851  0.932231  0.785725  1
  O  O21  1  0.809851  0.567769  0.285725  1
  O  O22  1  0.957548  0.701829  0.849727  1
  O  O23  1  0.957548  0.798171  0.349727  1
  O  O24  1  0.042452  0.201829  0.650273  1
  O  O25  1  0.042452  0.298171  0.150273  1
  O  O26  1  0.190149  0.432231  0.714275  1
  O  O27  1  0.190149  0.067769  0.214275  1
  O  O28  1  0.216650  0.651060  0.042141  1
  O  O29  1  0.216650  0.848940  0.542141  1
  O  O30  1  0.273073  0.231819  0.029104  1
  O  O31  1  0.273073  0.268181  0.529104  1
  O  O32  1  0.277940  0.543963  0.275168  1
  O  O33  1  0.277940  0.956037  0.775168  1
  O  O34  1  0.438082  0.755622  0.679493  1
  O  O35  1  0.438082  0.744378  0.179493  1
