# generated using pymatgen
data_Er15Tm5(Ir2Ru)4
_symmetry_space_group_name_H-M   'P 1'
_cell_length_a   10.71757002
_cell_length_b   10.71752502
_cell_length_c   6.37177101
_cell_angle_alpha   90.00469378
_cell_angle_beta   90.00224655
_cell_angle_gamma   90.00572015
_symmetry_Int_Tables_number   1
_chemical_formula_structural   Er15Tm5(Ir2Ru)4
_chemical_formula_sum   'Er15 Tm5 Ir8 Ru4'
_cell_volume   731.89872556
_cell_formula_units_Z   1
loop_
 _symmetry_equiv_pos_site_id
 _symmetry_equiv_pos_as_xyz
  1  'x, y, z'
loop_
 _atom_site_type_symbol
 _atom_site_label
 _atom_site_symmetry_multiplicity
 _atom_site_fract_x
 _atom_site_fract_y
 _atom_site_fract_z
 _atom_site_occupancy
  Er  Er0  1  0.293237  0.086519  0.376694  1
  Er  Er1  1  0.293301  0.913567  0.876756  1
  Er  Er2  1  0.706698  0.086440  0.876764  1
  Er  Er3  1  0.706712  0.913567  0.376761  1
  Er  Er4  1  0.586437  0.793294  0.876731  1
  Er  Er5  1  0.586437  0.206719  0.376734  1
  Er  Er6  1  0.413533  0.793283  0.376747  1
  Er  Er7  1  0.413512  0.206714  0.876762  1
  Er  Er8  1  0.206647  0.413518  0.623256  1
  Er  Er9  1  0.206649  0.586323  0.123253  1
  Er  Er10  1  0.793417  0.413512  0.123260  1
  Er  Er11  1  0.793328  0.586440  0.623265  1
  Er  Er12  1  0.913591  0.706673  0.123264  1
  Er  Er13  1  0.913648  0.293319  0.623260  1
  Er  Er14  1  0.086448  0.706662  0.623254  1
  Tm  Tm15  1  0.086375  0.293474  0.123093  1
  Tm  Tm16  1  0.000004  0.000025  0.499989  1
  Tm  Tm17  1  0.000056  0.000108  0.000028  1
  Tm  Tm18  1  0.499994  0.499990  0.000017  1
  Tm  Tm19  1  0.499994  0.499980  0.499990  1
  Ir  Ir20  1  0.847677  0.152518  0.249901  1
  Ir  Ir21  1  0.847542  0.847549  0.749988  1
  Ir  Ir22  1  0.152394  0.152557  0.750337  1
  Ir  Ir23  1  0.152452  0.847542  0.249988  1
  Ir  Ir24  1  0.652464  0.347533  0.750029  1
  Ir  Ir25  1  0.652444  0.652457  0.249985  1
  Ir  Ir26  1  0.347366  0.347496  0.249895  1
  Ir  Ir27  1  0.347532  0.652459  0.750028  1
  Ru  Ru28  1  0.499998  0.000007  0.122222  1
  Ru  Ru29  1  0.500005  0.000002  0.622220  1
  Ru  Ru30  1  0.000053  0.499865  0.877897  1
  Ru  Ru31  1  0.000057  0.499889  0.377631  1
