# generated using pymatgen
data_Th2Cr3Ni9P7
_symmetry_space_group_name_H-M   'P 1'
_cell_length_a   9.18856100
_cell_length_b   9.18856190
_cell_length_c   3.75081200
_cell_angle_alpha   90.00000000
_cell_angle_beta   90.00000000
_cell_angle_gamma   120.00000036
_symmetry_Int_Tables_number   1
_chemical_formula_structural   Th2Cr3Ni9P7
_chemical_formula_sum   'Th2 Cr3 Ni9 P7'
_cell_volume   274.25273989
_cell_formula_units_Z   1
loop_
 _symmetry_equiv_pos_site_id
 _symmetry_equiv_pos_as_xyz
  1  'x, y, z'
loop_
 _atom_site_type_symbol
 _atom_site_label
 _atom_site_symmetry_multiplicity
 _atom_site_fract_x
 _atom_site_fract_y
 _atom_site_fract_z
 _atom_site_occupancy
  Th  Th0  1  0.333333  0.666667  0.000000  1
  Th  Th1  1  0.000000  0.000000  0.500000  1
  Cr  Cr2  1  0.778753  0.231751  0.500000  1
  Cr  Cr3  1  0.768249  0.547002  0.500000  1
  Cr  Cr4  1  0.452998  0.221247  0.500000  1
  Ni  Ni5  1  0.034800  0.268704  0.000000  1
  Ni  Ni6  1  0.731296  0.766095  0.000000  1
  Ni  Ni7  1  0.233905  0.965200  0.000000  1
  Ni  Ni8  1  0.538585  0.056252  0.000000  1
  Ni  Ni9  1  0.943748  0.482333  0.000000  1
  Ni  Ni10  1  0.517667  0.461415  0.000000  1
  Ni  Ni11  1  0.613060  0.898331  0.500000  1
  Ni  Ni12  1  0.101669  0.714727  0.500000  1
  Ni  Ni13  1  0.285273  0.386940  0.500000  1
  P  P14  1  0.770767  0.037444  0.000000  1
  P  P15  1  0.962556  0.733324  0.000000  1
  P  P16  1  0.266676  0.229233  0.000000  1
  P  P17  1  0.374019  0.937327  0.500000  1
  P  P18  1  0.062673  0.436692  0.500000  1
  P  P19  1  0.563308  0.625981  0.500000  1
  P  P20  1  0.666667  0.333333  0.000000  1
