# generated using pymatgen
data_Er9TmSn5Sb
_symmetry_space_group_name_H-M   'P 1'
_cell_length_a   8.87267887
_cell_length_b   8.87264552
_cell_length_c   6.44714800
_cell_angle_alpha   89.99610173
_cell_angle_beta   90.00092460
_cell_angle_gamma   119.85759777
_symmetry_Int_Tables_number   1
_chemical_formula_structural   Er9TmSn5Sb
_chemical_formula_sum   'Er9 Tm1 Sn5 Sb1'
_cell_volume   440.17722143
_cell_formula_units_Z   1
loop_
 _symmetry_equiv_pos_site_id
 _symmetry_equiv_pos_as_xyz
  1  'x, y, z'
loop_
 _atom_site_type_symbol
 _atom_site_label
 _atom_site_symmetry_multiplicity
 _atom_site_fract_x
 _atom_site_fract_y
 _atom_site_fract_z
 _atom_site_occupancy
  Er  Er0  1  0.997262  0.760422  0.749928  1
  Er  Er1  1  0.001165  0.238702  0.250061  1
  Er  Er2  1  0.762362  0.761397  0.250067  1
  Er  Er3  1  0.762186  0.999835  0.749941  1
  Er  Er4  1  0.237189  0.239951  0.749949  1
  Er  Er5  1  0.238741  0.000128  0.250045  1
  Er  Er6  1  0.667904  0.334136  0.000248  1
  Er  Er7  1  0.667844  0.334144  0.499768  1
  Er  Er8  1  0.333021  0.665871  0.000200  1
  Tm  Tm9  1  0.333039  0.665838  0.499751  1
  Sn  Sn10  1  0.395093  0.394190  0.250160  1
  Sn  Sn11  1  0.001416  0.605426  0.250171  1
  Sn  Sn12  1  0.999667  0.395649  0.749833  1
  Sn  Sn13  1  0.604485  0.604892  0.749850  1
  Sn  Sn14  1  0.605774  0.999921  0.250156  1
  Sb  Sb15  1  0.392852  0.999498  0.749871  1
