# generated using pymatgen
data_MnNb2InNi12
_symmetry_space_group_name_H-M   'P 1'
_cell_length_a   3.64836900
_cell_length_b   3.64836900
_cell_length_c   14.56174800
_cell_angle_alpha   90.00000000
_cell_angle_beta   90.00000000
_cell_angle_gamma   90.00000000
_symmetry_Int_Tables_number   1
_chemical_formula_structural   MnNb2InNi12
_chemical_formula_sum   'Mn1 Nb2 In1 Ni12'
_cell_volume   193.82554993
_cell_formula_units_Z   1
loop_
 _symmetry_equiv_pos_site_id
 _symmetry_equiv_pos_as_xyz
  1  'x, y, z'
loop_
 _atom_site_type_symbol
 _atom_site_label
 _atom_site_symmetry_multiplicity
 _atom_site_fract_x
 _atom_site_fract_y
 _atom_site_fract_z
 _atom_site_occupancy
  Mn  Mn0  1  0.000000  0.000000  0.000000  1
  Nb  Nb1  1  0.000000  0.000000  0.243755  1
  Nb  Nb2  1  0.000000  0.000000  0.756245  1
  In  In3  1  0.000000  0.000000  0.500000  1
  Ni  Ni4  1  0.500000  0.500000  0.000000  1
  Ni  Ni5  1  0.500000  0.500000  0.245610  1
  Ni  Ni6  1  0.500000  0.500000  0.500000  1
  Ni  Ni7  1  0.500000  0.500000  0.754390  1
  Ni  Ni8  1  0.500000  0.000000  0.120514  1
  Ni  Ni9  1  0.500000  0.000000  0.368089  1
  Ni  Ni10  1  0.500000  0.000000  0.631911  1
  Ni  Ni11  1  0.500000  0.000000  0.879486  1
  Ni  Ni12  1  0.000000  0.500000  0.120514  1
  Ni  Ni13  1  0.000000  0.500000  0.368089  1
  Ni  Ni14  1  0.000000  0.500000  0.631911  1
  Ni  Ni15  1  0.000000  0.500000  0.879486  1
