# generated using pymatgen
data_Nd2Ga8CuPd3
_symmetry_space_group_name_H-M   'P 1'
_cell_length_a   7.66382884
_cell_length_b   7.66380750
_cell_length_c   9.59185500
_cell_angle_alpha   90.00000000
_cell_angle_beta   90.00000000
_cell_angle_gamma   118.34964026
_symmetry_Int_Tables_number   1
_chemical_formula_structural   Nd2Ga8CuPd3
_chemical_formula_sum   'Nd4 Ga16 Cu2 Pd6'
_cell_volume   495.80211009
_cell_formula_units_Z   2
loop_
 _symmetry_equiv_pos_site_id
 _symmetry_equiv_pos_as_xyz
  1  'x, y, z'
loop_
 _atom_site_type_symbol
 _atom_site_label
 _atom_site_symmetry_multiplicity
 _atom_site_fract_x
 _atom_site_fract_y
 _atom_site_fract_z
 _atom_site_occupancy
  Nd  Nd0  1  0.995868  0.674136  0.250000  1
  Nd  Nd1  1  0.004159  0.325886  0.750000  1
  Nd  Nd2  1  0.674136  0.995868  0.250000  1
  Nd  Nd3  1  0.325885  0.004159  0.750000  1
  Ga  Ga4  1  0.008779  0.331043  0.086859  1
  Ga  Ga5  1  0.991284  0.669033  0.913153  1
  Ga  Ga6  1  0.991284  0.669033  0.586847  1
  Ga  Ga7  1  0.331042  0.008779  0.413141  1
  Ga  Ga8  1  0.008779  0.331043  0.413141  1
  Ga  Ga9  1  0.669034  0.991284  0.586847  1
  Ga  Ga10  1  0.669034  0.991284  0.913153  1
  Ga  Ga11  1  0.331042  0.008779  0.086859  1
  Ga  Ga12  1  0.331628  0.331627  0.553454  1
  Ga  Ga13  1  0.668445  0.668446  0.446537  1
  Ga  Ga14  1  0.668445  0.668446  0.053463  1
  Ga  Ga15  1  0.331628  0.331627  0.946546  1
  Ga  Ga16  1  0.345091  0.544543  0.250000  1
  Ga  Ga17  1  0.654965  0.455499  0.750000  1
  Ga  Ga18  1  0.544541  0.345092  0.250000  1
  Ga  Ga19  1  0.455500  0.654964  0.750000  1
  Cu  Cu20  1  0.154393  0.154392  0.250000  1
  Cu  Cu21  1  0.845552  0.845552  0.750000  1
  Pd  Pd22  1  0.675245  0.324714  0.999997  1
  Pd  Pd23  1  0.324713  0.675244  0.999997  1
  Pd  Pd24  1  0.324713  0.675244  0.500003  1
  Pd  Pd25  1  0.675245  0.324714  0.500003  1
  Pd  Pd26  1  0.999785  0.999784  0.999968  1
  Pd  Pd27  1  0.999785  0.999784  0.500032  1
