# generated using pymatgen
data_Hf8TaTi11Ge16
_symmetry_space_group_name_H-M   'P 1'
_cell_length_a   6.79739301
_cell_length_b   6.90749649
_cell_length_c   13.10995900
_cell_angle_alpha   90.00000000
_cell_angle_beta   90.00000000
_cell_angle_gamma   90.03531530
_symmetry_Int_Tables_number   1
_chemical_formula_structural   Hf8TaTi11Ge16
_chemical_formula_sum   'Hf8 Ta1 Ti11 Ge16'
_cell_volume   615.55137271
_cell_formula_units_Z   1
loop_
 _symmetry_equiv_pos_site_id
 _symmetry_equiv_pos_as_xyz
  1  'x, y, z'
loop_
 _atom_site_type_symbol
 _atom_site_label
 _atom_site_symmetry_multiplicity
 _atom_site_fract_x
 _atom_site_fract_y
 _atom_site_fract_z
 _atom_site_occupancy
  Hf  Hf0  1  0.489642  0.675260  0.593459  1
  Hf  Hf1  1  0.990358  0.824046  0.906430  1
  Hf  Hf2  1  0.511382  0.323393  0.094262  1
  Hf  Hf3  1  0.010108  0.174609  0.405736  1
  Hf  Hf4  1  0.511382  0.323393  0.405738  1
  Hf  Hf5  1  0.010108  0.174609  0.094264  1
  Hf  Hf6  1  0.489642  0.675260  0.906541  1
  Hf  Hf7  1  0.990358  0.824046  0.593570  1
  Ta  Ta8  1  0.670161  0.995424  0.250000  1
  Ti  Ti9  1  0.657121  0.167350  0.626401  1
  Ti  Ti10  1  0.156966  0.333257  0.874260  1
  Ti  Ti11  1  0.343270  0.833378  0.125132  1
  Ti  Ti12  1  0.841394  0.668410  0.374836  1
  Ti  Ti13  1  0.343270  0.833378  0.374868  1
  Ti  Ti14  1  0.841394  0.668410  0.125164  1
  Ti  Ti15  1  0.657121  0.167350  0.873599  1
  Ti  Ti16  1  0.156966  0.333257  0.625740  1
  Ti  Ti17  1  0.829801  0.495117  0.750000  1
  Ti  Ti18  1  0.329871  0.003975  0.750000  1
  Ti  Ti19  1  0.170375  0.505897  0.250000  1
  Ge  Ge20  1  0.684348  0.959509  0.461328  1
  Ge  Ge21  1  0.184035  0.539745  0.040663  1
  Ge  Ge22  1  0.315782  0.040444  0.959188  1
  Ge  Ge23  1  0.816281  0.459373  0.540605  1
  Ge  Ge24  1  0.315782  0.040444  0.540812  1
  Ge  Ge25  1  0.816281  0.459373  0.959395  1
  Ge  Ge26  1  0.684348  0.959509  0.038672  1
  Ge  Ge27  1  0.184035  0.539745  0.459337  1
  Ge  Ge28  1  0.458670  0.379743  0.750000  1
  Ge  Ge29  1  0.960045  0.120071  0.750000  1
  Ge  Ge30  1  0.538605  0.618504  0.250000  1
  Ge  Ge31  1  0.043770  0.877277  0.250000  1
  Ge  Ge32  1  0.689229  0.854184  0.750000  1
  Ge  Ge33  1  0.189077  0.645181  0.750000  1
  Ge  Ge34  1  0.306085  0.147354  0.250000  1
  Ge  Ge35  1  0.812936  0.359728  0.250000  1
