# generated using pymatgen
data_LaLuRe4(SiC)2
_symmetry_space_group_name_H-M   'P 1'
_cell_length_a   5.83583044
_cell_length_b   5.83583068
_cell_length_c   7.35500800
_cell_angle_alpha   90.00000000
_cell_angle_beta   90.00000000
_cell_angle_gamma   140.28102749
_symmetry_Int_Tables_number   1
_chemical_formula_structural   LaLuRe4(SiC)2
_chemical_formula_sum   'La1 Lu1 Re4 Si2 C2'
_cell_volume   160.06806127
_cell_formula_units_Z   1
loop_
 _symmetry_equiv_pos_site_id
 _symmetry_equiv_pos_as_xyz
  1  'x, y, z'
loop_
 _atom_site_type_symbol
 _atom_site_label
 _atom_site_symmetry_multiplicity
 _atom_site_fract_x
 _atom_site_fract_y
 _atom_site_fract_z
 _atom_site_occupancy
  La  La0  1  0.542767  0.457233  0.250000  1
  Lu  Lu1  1  0.457519  0.542481  0.750000  1
  Re  Re2  1  0.826924  0.173076  0.056836  1
  Re  Re3  1  0.174254  0.825746  0.935462  1
  Re  Re4  1  0.174254  0.825746  0.564538  1
  Re  Re5  1  0.826924  0.173076  0.443164  1
  Si  Si6  1  0.264355  0.735645  0.250000  1
  Si  Si7  1  0.735200  0.264800  0.750000  1
  C  C8  1  0.998901  0.001099  0.987195  1
  C  C9  1  0.998901  0.001099  0.512805  1
