# generated using pymatgen
data_Nd6Mn3MoC12
_symmetry_space_group_name_H-M   'P 1'
_cell_length_a   8.33526100
_cell_length_b   8.33526081
_cell_length_c   5.22187100
_cell_angle_alpha   90.00000000
_cell_angle_beta   90.00000000
_cell_angle_gamma   119.99998090
_symmetry_Int_Tables_number   1
_chemical_formula_structural   Nd6Mn3MoC12
_chemical_formula_sum   'Nd6 Mn3 Mo1 C12'
_cell_volume   314.19209282
_cell_formula_units_Z   1
loop_
 _symmetry_equiv_pos_site_id
 _symmetry_equiv_pos_as_xyz
  1  'x, y, z'
loop_
 _atom_site_type_symbol
 _atom_site_label
 _atom_site_symmetry_multiplicity
 _atom_site_fract_x
 _atom_site_fract_y
 _atom_site_fract_z
 _atom_site_occupancy
  Nd  Nd0  1  0.614667  0.684184  0.750436  1
  Nd  Nd1  1  0.930484  0.614667  0.249564  1
  Nd  Nd2  1  0.684184  0.069516  0.249564  1
  Nd  Nd3  1  0.315816  0.930484  0.750436  1
  Nd  Nd4  1  0.069516  0.385333  0.750436  1
  Nd  Nd5  1  0.385333  0.315816  0.249564  1
  Mn  Mn6  1  0.000000  0.000000  0.000000  1
  Mn  Mn7  1  0.666667  0.333333  0.753412  1
  Mn  Mn8  1  0.333333  0.666667  0.246588  1
  Mo  Mo9  1  0.000000  0.000000  0.500000  1
  C  C10  1  0.956149  0.763726  0.747094  1
  C  C11  1  0.192423  0.956149  0.252906  1
  C  C12  1  0.763726  0.807577  0.252906  1
  C  C13  1  0.236274  0.192423  0.747094  1
  C  C14  1  0.807577  0.043851  0.747094  1
  C  C15  1  0.043851  0.236274  0.252906  1
  C  C16  1  0.857029  0.574348  0.751149  1
  C  C17  1  0.282681  0.857029  0.248851  1
  C  C18  1  0.574348  0.717319  0.248851  1
  C  C19  1  0.425652  0.282681  0.751149  1
  C  C20  1  0.142971  0.425652  0.248851  1
  C  C21  1  0.717319  0.142971  0.751149  1
