# generated using pymatgen
data_Pr7Sm3(Pb3Cl)2
_symmetry_space_group_name_H-M   'P 1'
_cell_length_a   9.56977600
_cell_length_b   9.56977453
_cell_length_c   6.84402600
_cell_angle_alpha   90.00000000
_cell_angle_beta   90.00000000
_cell_angle_gamma   119.99999818
_symmetry_Int_Tables_number   1
_chemical_formula_structural   Pr7Sm3(Pb3Cl)2
_chemical_formula_sum   'Pr7 Sm3 Pb6 Cl2'
_cell_volume   542.80741064
_cell_formula_units_Z   1
loop_
 _symmetry_equiv_pos_site_id
 _symmetry_equiv_pos_as_xyz
  1  'x, y, z'
loop_
 _atom_site_type_symbol
 _atom_site_label
 _atom_site_symmetry_multiplicity
 _atom_site_fract_x
 _atom_site_fract_y
 _atom_site_fract_z
 _atom_site_occupancy
  Pr  Pr0  1  0.333333  0.666667  0.000000  1
  Pr  Pr1  1  0.259569  0.000273  0.250331  1
  Pr  Pr2  1  0.740704  0.000273  0.749669  1
  Pr  Pr3  1  0.999727  0.259296  0.250331  1
  Pr  Pr4  1  0.999727  0.740431  0.749669  1
  Pr  Pr5  1  0.740704  0.740431  0.250331  1
  Pr  Pr6  1  0.259569  0.259296  0.749669  1
  Sm  Sm7  1  0.666667  0.333333  0.000000  1
  Sm  Sm8  1  0.666667  0.333333  0.500000  1
  Sm  Sm9  1  0.333333  0.666667  0.500000  1
  Pb  Pb10  1  0.610574  0.001175  0.250873  1
  Pb  Pb11  1  0.390601  0.001175  0.749127  1
  Pb  Pb12  1  0.998825  0.609399  0.250873  1
  Pb  Pb13  1  0.998825  0.389426  0.749127  1
  Pb  Pb14  1  0.390601  0.389426  0.250873  1
  Pb  Pb15  1  0.610574  0.609399  0.749127  1
  Cl  Cl16  1  0.000000  0.000000  0.000000  1
  Cl  Cl17  1  0.000000  0.000000  0.500000  1
