# generated using pymatgen
data_Ho16In4OsPd3
_symmetry_space_group_name_H-M   'P 1'
_cell_length_a   9.69647233
_cell_length_b   9.69647242
_cell_length_c   9.69647448
_cell_angle_alpha   59.62397641
_cell_angle_beta   59.62397293
_cell_angle_gamma   59.62397049
_symmetry_Int_Tables_number   1
_chemical_formula_structural   Ho16In4OsPd3
_chemical_formula_sum   'Ho16 In4 Os1 Pd3'
_cell_volume   639.14474642
_cell_formula_units_Z   1
loop_
 _symmetry_equiv_pos_site_id
 _symmetry_equiv_pos_as_xyz
  1  'x, y, z'
loop_
 _atom_site_type_symbol
 _atom_site_label
 _atom_site_symmetry_multiplicity
 _atom_site_fract_x
 _atom_site_fract_y
 _atom_site_fract_z
 _atom_site_occupancy
  Ho  Ho0  1  0.352793  0.352793  0.352793  1
  Ho  Ho1  1  0.349628  0.349628  0.945794  1
  Ho  Ho2  1  0.349628  0.945794  0.349628  1
  Ho  Ho3  1  0.945794  0.349628  0.349628  1
  Ho  Ho4  1  0.816641  0.188681  0.188681  1
  Ho  Ho5  1  0.189508  0.810004  0.810004  1
  Ho  Ho6  1  0.188681  0.816641  0.188681  1
  Ho  Ho7  1  0.810004  0.189508  0.810004  1
  Ho  Ho8  1  0.188681  0.188681  0.816641  1
  Ho  Ho9  1  0.810004  0.810004  0.189508  1
  Ho  Ho10  1  0.934362  0.564137  0.564137  1
  Ho  Ho11  1  0.555858  0.939378  0.939378  1
  Ho  Ho12  1  0.564137  0.934362  0.564137  1
  Ho  Ho13  1  0.939378  0.555858  0.939378  1
  Ho  Ho14  1  0.564137  0.564137  0.934362  1
  Ho  Ho15  1  0.939378  0.939378  0.555858  1
  In  In16  1  0.583533  0.583533  0.583533  1
  In  In17  1  0.582841  0.582841  0.250378  1
  In  In18  1  0.582841  0.250378  0.582841  1
  In  In19  1  0.250378  0.582841  0.582841  1
  Os  Os20  1  0.143221  0.143221  0.143221  1
  Pd  Pd21  1  0.144520  0.144520  0.569532  1
  Pd  Pd22  1  0.144520  0.569532  0.144520  1
  Pd  Pd23  1  0.569532  0.144520  0.144520  1
