# generated using pymatgen
data_ErLu5(Sc2Sn3)2
_symmetry_space_group_name_H-M   'P 1'
_cell_length_a   8.68813578
_cell_length_b   8.68813691
_cell_length_c   6.21343000
_cell_angle_alpha   90.00000000
_cell_angle_beta   90.00000000
_cell_angle_gamma   120.04865709
_symmetry_Int_Tables_number   1
_chemical_formula_structural   ErLu5(Sc2Sn3)2
_chemical_formula_sum   'Er1 Lu5 Sc4 Sn6'
_cell_volume   405.97767630
_cell_formula_units_Z   1
loop_
 _symmetry_equiv_pos_site_id
 _symmetry_equiv_pos_as_xyz
  1  'x, y, z'
loop_
 _atom_site_type_symbol
 _atom_site_label
 _atom_site_symmetry_multiplicity
 _atom_site_fract_x
 _atom_site_fract_y
 _atom_site_fract_z
 _atom_site_occupancy
  Er  Er0  1  0.762133  0.762133  0.750000  1
  Lu  Lu1  1  0.238128  0.000081  0.750000  1
  Lu  Lu2  1  0.000081  0.238128  0.750000  1
  Lu  Lu3  1  0.237740  0.237740  0.250000  1
  Lu  Lu4  1  0.762030  0.000216  0.250000  1
  Lu  Lu5  1  0.000216  0.762030  0.250000  1
  Sc  Sc6  1  0.666623  0.333283  0.000054  1
  Sc  Sc7  1  0.333283  0.666623  0.000054  1
  Sc  Sc8  1  0.333283  0.666623  0.499946  1
  Sc  Sc9  1  0.666623  0.333283  0.499946  1
  Sn  Sn10  1  0.398057  0.398057  0.750000  1
  Sn  Sn11  1  0.601383  0.000406  0.750000  1
  Sn  Sn12  1  0.000406  0.601383  0.750000  1
  Sn  Sn13  1  0.601576  0.601576  0.250000  1
  Sn  Sn14  1  0.398412  0.000027  0.250000  1
  Sn  Sn15  1  0.000027  0.398412  0.250000  1
