# generated using pymatgen
data_Dy4Tm4Ti11Si16Ag
_symmetry_space_group_name_H-M   'P 1'
_cell_length_a   7.05006214
_cell_length_b   7.05104367
_cell_length_c   12.87650506
_cell_angle_alpha   89.94988302
_cell_angle_beta   90.05979393
_cell_angle_gamma   89.69605709
_symmetry_Int_Tables_number   1
_chemical_formula_structural   Dy4Tm4Ti11Si16Ag
_chemical_formula_sum   'Dy4 Tm4 Ti11 Si16 Ag1'
_cell_volume   640.08527574
_cell_formula_units_Z   1
loop_
 _symmetry_equiv_pos_site_id
 _symmetry_equiv_pos_as_xyz
  1  'x, y, z'
loop_
 _atom_site_type_symbol
 _atom_site_label
 _atom_site_symmetry_multiplicity
 _atom_site_fract_x
 _atom_site_fract_y
 _atom_site_fract_z
 _atom_site_occupancy
  Dy  Dy0  1  0.841871  0.498655  0.285396  1
  Dy  Dy1  1  0.502782  0.159626  0.216418  1
  Dy  Dy2  1  0.498481  0.841498  0.714761  1
  Dy  Dy3  1  0.343303  0.999443  0.468498  1
  Tm  Tm4  1  0.998320  0.659118  0.033254  1
  Tm  Tm5  1  0.999004  0.343822  0.532025  1
  Tm  Tm6  1  0.659213  0.998138  0.966470  1
  Tm  Tm7  1  0.159157  0.501858  0.783481  1
  Ti  Ti8  1  0.348767  0.504578  0.376483  1
  Ti  Ti9  1  0.852065  0.991846  0.377111  1
  Ti  Ti10  1  0.007798  0.149968  0.125097  1
  Ti  Ti11  1  0.992120  0.851931  0.623220  1
  Ti  Ti12  1  0.504716  0.349456  0.623948  1
  Ti  Ti13  1  0.149852  0.007735  0.874686  1
  Ti  Ti14  1  0.826537  0.173888  0.750189  1
  Ti  Ti15  1  0.173276  0.826128  0.249660  1
  Ti  Ti16  1  0.326961  0.327342  0.999747  1
  Ti  Ti17  1  0.492152  0.650256  0.125047  1
  Ti  Ti18  1  0.649907  0.492464  0.874636  1
  Si  Si19  1  0.061141  0.712628  0.434013  1
  Si  Si20  1  0.952796  0.292016  0.935568  1
  Si  Si21  1  0.714719  0.062535  0.566311  1
  Si  Si22  1  0.208170  0.454087  0.185089  1
  Si  Si23  1  0.793945  0.544019  0.691053  1
  Si  Si24  1  0.453142  0.208901  0.814879  1
  Si  Si25  1  0.544663  0.792052  0.308746  1
  Si  Si26  1  0.291297  0.951933  0.063993  1
  Si  Si27  1  0.798649  0.867343  0.183511  1
  Si  Si28  1  0.280123  0.625058  0.571153  1
  Si  Si29  1  0.705929  0.369091  0.066728  1
  Si  Si30  1  0.627102  0.281975  0.429856  1
  Si  Si31  1  0.368253  0.705158  0.932426  1
  Si  Si32  1  0.131880  0.202466  0.317323  1
  Si  Si33  1  0.201500  0.133829  0.682704  1
  Si  Si34  1  0.868161  0.797610  0.816516  1
  Ag  Ag35  1  0.672245  0.671549  0.500003  1
