# generated using pymatgen
data_NdYMn3Co9As7
_symmetry_space_group_name_H-M   'P 1'
_cell_length_a   3.75713300
_cell_length_b   9.47549169
_cell_length_c   9.47549200
_cell_angle_alpha   119.99999411
_cell_angle_beta   90.00000000
_cell_angle_gamma   90.00000000
_symmetry_Int_Tables_number   1
_chemical_formula_structural   NdYMn3Co9As7
_chemical_formula_sum   'Nd1 Y1 Mn3 Co9 As7'
_cell_volume   292.13981553
_cell_formula_units_Z   1
loop_
 _symmetry_equiv_pos_site_id
 _symmetry_equiv_pos_as_xyz
  1  'x, y, z'
loop_
 _atom_site_type_symbol
 _atom_site_label
 _atom_site_symmetry_multiplicity
 _atom_site_fract_x
 _atom_site_fract_y
 _atom_site_fract_z
 _atom_site_occupancy
  Nd  Nd0  1  0.000000  0.666667  0.333333  1
  Y  Y1  1  0.500000  0.333333  0.666667  1
  Mn  Mn2  1  0.500000  0.778853  0.893127  1
  Mn  Mn3  1  0.500000  0.114274  0.221147  1
  Mn  Mn4  1  0.500000  0.106873  0.885726  1
  Co  Co5  1  0.000000  0.571675  0.939214  1
  Co  Co6  1  0.000000  0.367539  0.428325  1
  Co  Co7  1  0.000000  0.060786  0.632461  1
  Co  Co8  1  0.000000  0.882483  0.158597  1
  Co  Co9  1  0.000000  0.276115  0.117517  1
  Co  Co10  1  0.000000  0.841403  0.723885  1
  Co  Co11  1  0.500000  0.952309  0.386050  1
  Co  Co12  1  0.500000  0.433740  0.047691  1
  Co  Co13  1  0.500000  0.613950  0.566260  1
  As  As14  1  0.000000  0.000000  0.000000  1
  As  As15  1  0.500000  0.710548  0.114677  1
  As  As16  1  0.500000  0.404131  0.289452  1
  As  As17  1  0.500000  0.885323  0.595869  1
  As  As18  1  0.000000  0.583958  0.697673  1
  As  As19  1  0.000000  0.113715  0.416042  1
  As  As20  1  0.000000  0.302327  0.886285  1
