# generated using pymatgen
data_Nd4AgHg2Rh3
_symmetry_space_group_name_H-M   'P 1'
_cell_length_a   7.81193489
_cell_length_b   7.81193576
_cell_length_c   3.88577100
_cell_angle_alpha   90.00000000
_cell_angle_beta   90.00000000
_cell_angle_gamma   89.05363002
_symmetry_Int_Tables_number   1
_chemical_formula_structural   Nd4AgHg2Rh3
_chemical_formula_sum   'Nd4 Ag1 Hg2 Rh3'
_cell_volume   237.10201020
_cell_formula_units_Z   1
loop_
 _symmetry_equiv_pos_site_id
 _symmetry_equiv_pos_as_xyz
  1  'x, y, z'
loop_
 _atom_site_type_symbol
 _atom_site_label
 _atom_site_symmetry_multiplicity
 _atom_site_fract_x
 _atom_site_fract_y
 _atom_site_fract_z
 _atom_site_occupancy
  Nd  Nd0  1  0.838640  0.694811  0.500000  1
  Nd  Nd1  1  0.323407  0.823407  0.500000  1
  Nd  Nd2  1  0.649154  0.149154  0.500000  1
  Nd  Nd3  1  0.194811  0.338640  0.500000  1
  Ag  Ag4  1  0.870276  0.370276  0.000000  1
  Hg  Hg5  1  0.001842  0.007136  0.000000  1
  Hg  Hg6  1  0.507136  0.501842  0.000000  1
  Rh  Rh7  1  0.362257  0.127051  0.000000  1
  Rh  Rh8  1  0.627051  0.862257  0.000000  1
  Rh  Rh9  1  0.125428  0.625428  0.000000  1
