# generated using pymatgen
data_K4CuAs2Au
_symmetry_space_group_name_H-M   'P 1'
_cell_length_a   6.33425621
_cell_length_b   6.33425527
_cell_length_c   6.05732546
_cell_angle_alpha   89.08407497
_cell_angle_beta   89.08408138
_cell_angle_gamma   105.36851041
_symmetry_Int_Tables_number   1
_chemical_formula_structural   K4CuAs2Au
_chemical_formula_sum   'K4 Cu1 As2 Au1'
_cell_volume   234.26464007
_cell_formula_units_Z   1
loop_
 _symmetry_equiv_pos_site_id
 _symmetry_equiv_pos_as_xyz
  1  'x, y, z'
loop_
 _atom_site_type_symbol
 _atom_site_label
 _atom_site_symmetry_multiplicity
 _atom_site_fract_x
 _atom_site_fract_y
 _atom_site_fract_z
 _atom_site_occupancy
  K  K0  1  0.977337  0.319601  0.748412  1
  K  K1  1  0.022663  0.680399  0.251588  1
  K  K2  1  0.680399  0.022663  0.251588  1
  K  K3  1  0.319601  0.977337  0.748412  1
  Cu  Cu4  1  0.500000  0.500000  0.000000  1
  As  As5  1  0.750138  0.750138  0.765306  1
  As  As6  1  0.249862  0.249862  0.234694  1
  Au  Au7  1  0.500000  0.500000  0.500000  1
