# generated using pymatgen
data_Pr2Zn14Ni3
_symmetry_space_group_name_H-M   'P 1'
_cell_length_a   6.75436917
_cell_length_b   6.75436948
_cell_length_c   6.75436905
_cell_angle_alpha   82.90031362
_cell_angle_beta   97.09967261
_cell_angle_gamma   97.09968446
_symmetry_Int_Tables_number   1
_chemical_formula_structural   Pr2Zn14Ni3
_chemical_formula_sum   'Pr2 Zn14 Ni3'
_cell_volume   301.59588396
_cell_formula_units_Z   1
loop_
 _symmetry_equiv_pos_site_id
 _symmetry_equiv_pos_as_xyz
  1  'x, y, z'
loop_
 _atom_site_type_symbol
 _atom_site_label
 _atom_site_symmetry_multiplicity
 _atom_site_fract_x
 _atom_site_fract_y
 _atom_site_fract_z
 _atom_site_occupancy
  Pr  Pr0  1  0.660548  0.339451  0.339452  1
  Pr  Pr1  1  0.339451  0.660548  0.660548  1
  Zn  Zn2  1  0.291136  0.291136  0.000000  1
  Zn  Zn3  1  0.708864  0.708864  0.000000  1
  Zn  Zn4  1  0.895685  0.104313  0.104314  1
  Zn  Zn5  1  0.344611  0.655390  0.147601  1
  Zn  Zn6  1  0.000000  0.708864  0.291135  1
  Zn  Zn7  1  0.291136  0.000000  0.291136  1
  Zn  Zn8  1  0.655390  0.852399  0.344609  1
  Zn  Zn9  1  0.147601  0.344610  0.344611  1
  Zn  Zn10  1  0.852399  0.655390  0.655389  1
  Zn  Zn11  1  0.344610  0.147600  0.655390  1
  Zn  Zn12  1  0.000000  0.291136  0.708863  1
  Zn  Zn13  1  0.708864  0.000000  0.708864  1
  Zn  Zn14  1  0.655390  0.344610  0.852399  1
  Zn  Zn15  1  0.104313  0.895687  0.895686  1
  Ni  Ni16  1  0.500000  0.000000  0.000000  1
  Ni  Ni17  1  0.000000  0.499999  0.000000  1
  Ni  Ni18  1  0.000000  0.000000  0.500000  1
