# generated using pymatgen
data_YEr(SbO4)2
_symmetry_space_group_name_H-M   'P 1'
_cell_length_a   5.38234638
_cell_length_b   7.64733544
_cell_length_c   7.54243600
_cell_angle_alpha   81.20078095
_cell_angle_beta   90.38001265
_cell_angle_gamma   92.21330139
_symmetry_Int_Tables_number   1
_chemical_formula_structural   YEr(SbO4)2
_chemical_formula_sum   'Y2 Er2 Sb4 O16'
_cell_volume   306.56842674
_cell_formula_units_Z   2
loop_
 _symmetry_equiv_pos_site_id
 _symmetry_equiv_pos_as_xyz
  1  'x, y, z'
loop_
 _atom_site_type_symbol
 _atom_site_label
 _atom_site_symmetry_multiplicity
 _atom_site_fract_x
 _atom_site_fract_y
 _atom_site_fract_z
 _atom_site_occupancy
  Y  Y0  1  0.261543  0.132850  0.614815  1
  Y  Y1  1  0.738457  0.867150  0.385185  1
  Er  Er2  1  0.212017  0.158445  0.109610  1
  Er  Er3  1  0.787983  0.841555  0.890390  1
  Sb  Sb4  1  0.240088  0.663571  0.193314  1
  Sb  Sb5  1  0.759912  0.336429  0.806686  1
  Sb  Sb6  1  0.724601  0.335812  0.308099  1
  Sb  Sb7  1  0.275399  0.664188  0.691901  1
  O  O8  1  0.087251  0.433890  0.689147  1
  O  O9  1  0.912749  0.566110  0.310853  1
  O  O10  1  0.609306  0.325414  0.561097  1
  O  O11  1  0.390694  0.674586  0.438903  1
  O  O12  1  0.875618  0.331588  0.061952  1
  O  O13  1  0.124382  0.668412  0.938048  1
  O  O14  1  0.399164  0.429796  0.195305  1
  O  O15  1  0.600836  0.570204  0.804695  1
  O  O16  1  0.044465  0.887013  0.171572  1
  O  O17  1  0.955535  0.112987  0.828428  1
  O  O18  1  0.507470  0.111256  0.320528  1
  O  O19  1  0.492530  0.888744  0.679472  1
  O  O20  1  0.462957  0.189223  0.880826  1
  O  O21  1  0.537043  0.810777  0.119174  1
  O  O22  1  0.991872  0.168118  0.380352  1
  O  O23  1  0.008128  0.831882  0.619648  1
