# generated using pymatgen
data_Li8Y8Tl3Sb5
_symmetry_space_group_name_H-M   'P 1'
_cell_length_a   9.40139503
_cell_length_b   9.40139547
_cell_length_c   7.18483000
_cell_angle_alpha   90.10904700
_cell_angle_beta   89.89095299
_cell_angle_gamma   120.00363691
_symmetry_Int_Tables_number   1
_chemical_formula_structural   Li8Y8Tl3Sb5
_chemical_formula_sum   'Li8 Y8 Tl3 Sb5'
_cell_volume   549.93933698
_cell_formula_units_Z   1
loop_
 _symmetry_equiv_pos_site_id
 _symmetry_equiv_pos_as_xyz
  1  'x, y, z'
loop_
 _atom_site_type_symbol
 _atom_site_label
 _atom_site_symmetry_multiplicity
 _atom_site_fract_x
 _atom_site_fract_y
 _atom_site_fract_z
 _atom_site_occupancy
  Li  Li0  1  0.167528  0.832472  0.198458  1
  Li  Li1  1  0.335518  0.167726  0.698008  1
  Li  Li2  1  0.832274  0.664482  0.698008  1
  Li  Li3  1  0.166373  0.334996  0.199233  1
  Li  Li4  1  0.665004  0.833627  0.199233  1
  Li  Li5  1  0.832427  0.167573  0.699756  1
  Li  Li6  1  0.333565  0.666435  0.810030  1
  Li  Li7  1  0.667304  0.332696  0.309165  1
  Y  Y8  1  0.511855  0.488145  0.991691  1
  Y  Y9  1  0.024194  0.509496  0.488134  1
  Y  Y10  1  0.490504  0.975806  0.488134  1
  Y  Y11  1  0.514591  0.026418  0.992735  1
  Y  Y12  1  0.973582  0.485409  0.992735  1
  Y  Y13  1  0.487866  0.512134  0.490619  1
  Y  Y14  1  0.998852  0.001148  0.986018  1
  Y  Y15  1  0.998600  0.001400  0.480631  1
  Tl  Tl16  1  0.833795  0.166205  0.254627  1
  Tl  Tl17  1  0.333568  0.666432  0.225492  1
  Tl  Tl18  1  0.665855  0.334145  0.725280  1
  Sb  Sb19  1  0.165944  0.834056  0.752883  1
  Sb  Sb20  1  0.332538  0.166203  0.252311  1
  Sb  Sb21  1  0.833797  0.667462  0.252311  1
  Sb  Sb22  1  0.166573  0.332106  0.752255  1
  Sb  Sb23  1  0.667894  0.833427  0.752255  1
