# generated using pymatgen
data_Zr2TaGa3
_symmetry_space_group_name_H-M   'P 1'
_cell_length_a   5.58008300
_cell_length_b   8.51366700
_cell_length_c   9.21375400
_cell_angle_alpha   90.00000000
_cell_angle_beta   90.00000000
_cell_angle_gamma   90.00000000
_symmetry_Int_Tables_number   1
_chemical_formula_structural   Zr2TaGa3
_chemical_formula_sum   'Zr8 Ta4 Ga12'
_cell_volume   437.71752099
_cell_formula_units_Z   4
loop_
 _symmetry_equiv_pos_site_id
 _symmetry_equiv_pos_as_xyz
  1  'x, y, z'
loop_
 _atom_site_type_symbol
 _atom_site_label
 _atom_site_symmetry_multiplicity
 _atom_site_fract_x
 _atom_site_fract_y
 _atom_site_fract_z
 _atom_site_occupancy
  Zr  Zr0  1  0.750000  0.469083  0.621340  1
  Zr  Zr1  1  0.250000  0.530917  0.378660  1
  Zr  Zr2  1  0.750000  0.969083  0.378660  1
  Zr  Zr3  1  0.250000  0.030917  0.621340  1
  Zr  Zr4  1  0.750000  0.366888  0.182834  1
  Zr  Zr5  1  0.250000  0.633112  0.817166  1
  Zr  Zr6  1  0.750000  0.866888  0.817166  1
  Zr  Zr7  1  0.250000  0.133112  0.182834  1
  Ta  Ta8  1  0.000000  0.750000  0.111280  1
  Ta  Ta9  1  0.500000  0.250000  0.888720  1
  Ta  Ta10  1  0.000000  0.250000  0.888720  1
  Ta  Ta11  1  0.500000  0.750000  0.111280  1
  Ga  Ga12  1  0.000000  0.750000  0.571679  1
  Ga  Ga13  1  0.500000  0.250000  0.428321  1
  Ga  Ga14  1  0.000000  0.250000  0.428321  1
  Ga  Ga15  1  0.500000  0.750000  0.571679  1
  Ga  Ga16  1  0.750000  0.044562  0.080109  1
  Ga  Ga17  1  0.250000  0.955438  0.919891  1
  Ga  Ga18  1  0.750000  0.544562  0.919891  1
  Ga  Ga19  1  0.250000  0.455438  0.080109  1
  Ga  Ga20  1  0.750000  0.132651  0.653610  1
  Ga  Ga21  1  0.250000  0.867349  0.346390  1
  Ga  Ga22  1  0.750000  0.632651  0.346390  1
  Ga  Ga23  1  0.250000  0.367349  0.653610  1
