# generated using pymatgen
data_Ta11Ti(MoOs)6
_symmetry_space_group_name_H-M   'P 1'
_cell_length_a   4.51253300
_cell_length_b   6.39866800
_cell_length_c   13.59931700
_cell_angle_alpha   90.00000000
_cell_angle_beta   89.99997888
_cell_angle_gamma   90.00000000
_symmetry_Int_Tables_number   1
_chemical_formula_structural   Ta11Ti(MoOs)6
_chemical_formula_sum   'Ta11 Ti1 Mo6 Os6'
_cell_volume   392.66940580
_cell_formula_units_Z   1
loop_
 _symmetry_equiv_pos_site_id
 _symmetry_equiv_pos_as_xyz
  1  'x, y, z'
loop_
 _atom_site_type_symbol
 _atom_site_label
 _atom_site_symmetry_multiplicity
 _atom_site_fract_x
 _atom_site_fract_y
 _atom_site_fract_z
 _atom_site_occupancy
  Ta  Ta0  1  0.499999  0.749237  0.000000  1
  Ta  Ta1  1  0.000001  0.249914  0.164459  1
  Ta  Ta2  1  0.000000  0.750233  0.165196  1
  Ta  Ta3  1  0.500003  0.250572  0.332404  1
  Ta  Ta4  1  0.500002  0.750242  0.332228  1
  Ta  Ta5  1  0.000000  0.249521  0.500000  1
  Ta  Ta6  1  0.000000  0.750046  0.500000  1
  Ta  Ta7  1  0.499998  0.250572  0.667596  1
  Ta  Ta8  1  0.499999  0.750242  0.667772  1
  Ta  Ta9  1  0.999999  0.249914  0.835541  1
  Ta  Ta10  1  0.000000  0.750233  0.834804  1
  Ti  Ti11  1  0.499999  0.249705  0.000000  1
  Mo  Mo12  1  0.000000  0.001534  0.000000  1
  Mo  Mo13  1  0.500002  0.499068  0.165760  1
  Mo  Mo14  1  0.000001  0.999921  0.333059  1
  Mo  Mo15  1  0.499999  0.500182  0.500000  1
  Mo  Mo16  1  0.999999  0.999921  0.666941  1
  Mo  Mo17  1  0.499999  0.499068  0.834240  1
  Os  Os18  1  0.000000  0.498193  0.000000  1
  Os  Os19  1  0.499995  0.000972  0.166016  1
  Os  Os20  1  0.000001  0.499873  0.333031  1
  Os  Os21  1  0.499999  0.999993  0.500000  1
  Os  Os22  1  0.999999  0.499873  0.666969  1
  Os  Os23  1  0.500003  0.000972  0.833984  1
