# generated using pymatgen
data_Tb9Dy(In2Rh)4
_symmetry_space_group_name_H-M   'P 1'
_cell_length_a   3.66033600
_cell_length_b   8.04052252
_cell_length_c   18.38084368
_cell_angle_alpha   90.23214454
_cell_angle_beta   90.00000000
_cell_angle_gamma   90.00000000
_symmetry_Int_Tables_number   1
_chemical_formula_structural   Tb9Dy(In2Rh)4
_chemical_formula_sum   'Tb9 Dy1 In8 Rh4'
_cell_volume   540.96242782
_cell_formula_units_Z   1
loop_
 _symmetry_equiv_pos_site_id
 _symmetry_equiv_pos_as_xyz
  1  'x, y, z'
loop_
 _atom_site_type_symbol
 _atom_site_label
 _atom_site_symmetry_multiplicity
 _atom_site_fract_x
 _atom_site_fract_y
 _atom_site_fract_z
 _atom_site_occupancy
  Tb  Tb0  1  0.500000  0.382214  0.588585  1
  Tb  Tb1  1  0.500000  0.882419  0.911368  1
  Tb  Tb2  1  0.500000  0.117623  0.088646  1
  Tb  Tb3  1  0.500000  0.752766  0.721663  1
  Tb  Tb4  1  0.500000  0.252694  0.778205  1
  Tb  Tb5  1  0.500000  0.500041  0.000039  1
  Tb  Tb6  1  0.500000  0.747336  0.221864  1
  Tb  Tb7  1  0.500000  0.247163  0.278437  1
  Tb  Tb8  1  0.500000  0.000033  0.499946  1
  Dy  Dy9  1  0.500000  0.617498  0.411092  1
  In  In10  1  0.000000  0.792497  0.069069  1
  In  In11  1  0.000000  0.930100  0.349717  1
  In  In12  1  0.000000  0.068861  0.650313  1
  In  In13  1  0.000000  0.568900  0.849664  1
  In  In14  1  0.000000  0.706905  0.568467  1
  In  In15  1  0.000000  0.207504  0.930969  1
  In  In16  1  0.000000  0.293468  0.431277  1
  In  In17  1  0.000000  0.431066  0.150535  1
  Rh  Rh18  1  0.000000  0.978078  0.805296  1
  Rh  Rh19  1  0.000000  0.522503  0.305586  1
  Rh  Rh20  1  0.000000  0.478276  0.694602  1
  Rh  Rh21  1  0.000000  0.022054  0.194662  1
