# generated using pymatgen
data_TbSm6BI12
_symmetry_space_group_name_H-M   'P 1'
_cell_length_a   9.82197714
_cell_length_b   9.82663451
_cell_length_c   9.82859121
_cell_angle_alpha   107.90801193
_cell_angle_beta   107.75297916
_cell_angle_gamma   107.80115741
_symmetry_Int_Tables_number   1
_chemical_formula_structural   TbSm6BI12
_chemical_formula_sum   'Tb1 Sm6 B1 I12'
_cell_volume   771.65341303
_cell_formula_units_Z   1
loop_
 _symmetry_equiv_pos_site_id
 _symmetry_equiv_pos_as_xyz
  1  'x, y, z'
loop_
 _atom_site_type_symbol
 _atom_site_label
 _atom_site_symmetry_multiplicity
 _atom_site_fract_x
 _atom_site_fract_y
 _atom_site_fract_z
 _atom_site_occupancy
  Tb  Tb0  1  0.709885  0.972447  0.904797  1
  Sm  Sm1  1  0.475107  0.475426  0.474889  1
  Sm  Sm2  1  0.106574  0.297014  0.040578  1
  Sm  Sm3  1  0.040587  0.106775  0.296917  1
  Sm  Sm4  1  0.296893  0.040663  0.106668  1
  Sm  Sm5  1  0.903028  0.705312  0.972288  1
  Sm  Sm6  1  0.973322  0.903860  0.705723  1
  B  B7  1  0.992342  0.993200  0.993070  1
  I  I8  1  0.474446  0.392889  0.146198  1
  I  I9  1  0.146445  0.475101  0.391641  1
  I  I10  1  0.391377  0.146326  0.474730  1
  I  I11  1  0.533755  0.614993  0.839424  1
  I  I12  1  0.838848  0.532695  0.611231  1
  I  I13  1  0.611034  0.840905  0.537993  1
  I  I14  1  0.775343  0.308418  0.921860  1
  I  I15  1  0.921556  0.776672  0.313060  1
  I  I16  1  0.315060  0.922822  0.778418  1
  I  I17  1  0.226917  0.689306  0.078015  1
  I  I18  1  0.077887  0.229189  0.690144  1
  I  I19  1  0.689596  0.075987  0.222356  1
