# generated using pymatgen
data_Ta6CrRe2Si3C2
_symmetry_space_group_name_H-M   'P 1'
_cell_length_a   8.21187649
_cell_length_b   8.22390815
_cell_length_c   8.22390807
_cell_angle_alpha   60.16662910
_cell_angle_beta   60.04837748
_cell_angle_gamma   60.04838123
_symmetry_Int_Tables_number   1
_chemical_formula_structural   Ta6CrRe2Si3C2
_chemical_formula_sum   'Ta12 Cr2 Re4 Si6 C4'
_cell_volume   393.50098765
_cell_formula_units_Z   2
loop_
 _symmetry_equiv_pos_site_id
 _symmetry_equiv_pos_as_xyz
  1  'x, y, z'
loop_
 _atom_site_type_symbol
 _atom_site_label
 _atom_site_symmetry_multiplicity
 _atom_site_fract_x
 _atom_site_fract_y
 _atom_site_fract_z
 _atom_site_occupancy
  Ta  Ta0  1  0.557119  0.939869  0.566381  1
  Ta  Ta1  1  0.310018  0.690692  0.690692  1
  Ta  Ta2  1  0.692878  0.307032  0.307032  1
  Ta  Ta3  1  0.313370  0.683619  0.310131  1
  Ta  Ta4  1  0.693883  0.693518  0.307093  1
  Ta  Ta5  1  0.313370  0.310131  0.683619  1
  Ta  Ta6  1  0.557119  0.566381  0.939869  1
  Ta  Ta7  1  0.941401  0.559308  0.559308  1
  Ta  Ta8  1  0.556943  0.942968  0.942968  1
  Ta  Ta9  1  0.944495  0.942907  0.556482  1
  Ta  Ta10  1  0.693883  0.307093  0.693518  1
  Ta  Ta11  1  0.944495  0.556482  0.942907  1
  Cr  Cr12  1  0.225068  0.925530  0.925530  1
  Cr  Cr13  1  0.326126  0.324470  0.324470  1
  Re  Re14  1  0.128126  0.124292  0.124292  1
  Re  Re15  1  0.626710  0.125708  0.125708  1
  Re  Re16  1  0.128372  0.625000  0.125000  1
  Re  Re17  1  0.128372  0.125000  0.625000  1
  Si  Si18  1  0.917994  0.910457  0.910457  1
  Si  Si19  1  0.988906  0.339543  0.339543  1
  Si  Si20  1  0.339911  0.988211  0.336771  1
  Si  Si21  1  0.339911  0.336771  0.988211  1
  Si  Si22  1  0.914895  0.261789  0.913229  1
  Si  Si23  1  0.914895  0.913229  0.261789  1
  C  C24  1  0.624965  0.624758  0.624758  1
  C  C25  1  0.124481  0.625242  0.625242  1
  C  C26  1  0.626145  0.125000  0.625000  1
  C  C27  1  0.626145  0.625000  0.125000  1
