# generated using pymatgen
data_Y6InSiTc
_symmetry_space_group_name_H-M   'P 1'
_cell_length_a   8.57591275
_cell_length_b   8.57591124
_cell_length_c   8.57591200
_cell_angle_alpha   112.67865253
_cell_angle_beta   111.15297888
_cell_angle_gamma   104.68937011
_symmetry_Int_Tables_number   1
_chemical_formula_structural   Y6InSiTc
_chemical_formula_sum   'Y12 In2 Si2 Tc2'
_cell_volume   482.93110736
_cell_formula_units_Z   2
loop_
 _symmetry_equiv_pos_site_id
 _symmetry_equiv_pos_as_xyz
  1  'x, y, z'
loop_
 _atom_site_type_symbol
 _atom_site_label
 _atom_site_symmetry_multiplicity
 _atom_site_fract_x
 _atom_site_fract_y
 _atom_site_fract_z
 _atom_site_occupancy
  Y  Y0  1  0.442032  0.240512  0.201521  1
  Y  Y1  1  0.557968  0.759488  0.798479  1
  Y  Y2  1  0.038990  0.240512  0.798479  1
  Y  Y3  1  0.961010  0.759488  0.201521  1
  Y  Y4  1  0.186203  0.275939  0.462143  1
  Y  Y5  1  0.813797  0.724061  0.537857  1
  Y  Y6  1  0.186203  0.724061  0.910264  1
  Y  Y7  1  0.813797  0.275939  0.089736  1
  Y  Y8  1  0.333505  0.645093  0.311588  1
  Y  Y9  1  0.666495  0.354907  0.688412  1
  Y  Y10  1  0.333505  0.021918  0.688412  1
  Y  Y11  1  0.666495  0.978082  0.311588  1
  In  In12  1  0.500000  0.500000  0.000000  1
  In  In13  1  0.000000  0.000000  0.000000  1
  Si  Si14  1  0.113793  0.613793  0.500000  1
  Si  Si15  1  0.886207  0.386207  0.500000  1
  Tc  Tc16  1  0.329099  0.000000  0.329099  1
  Tc  Tc17  1  0.670901  0.000000  0.670901  1
