# generated using pymatgen
data_PIr3Se7
_symmetry_space_group_name_H-M   'P 1'
_cell_length_a   5.98654563
_cell_length_b   5.98654583
_cell_length_c   5.98654641
_cell_angle_alpha   89.99718248
_cell_angle_beta   89.99717320
_cell_angle_gamma   89.99717758
_symmetry_Int_Tables_number   1
_chemical_formula_structural   PIr3Se7
_chemical_formula_sum   'P1 Ir3 Se7'
_cell_volume   214.55021844
_cell_formula_units_Z   1
loop_
 _symmetry_equiv_pos_site_id
 _symmetry_equiv_pos_as_xyz
  1  'x, y, z'
loop_
 _atom_site_type_symbol
 _atom_site_label
 _atom_site_symmetry_multiplicity
 _atom_site_fract_x
 _atom_site_fract_y
 _atom_site_fract_z
 _atom_site_occupancy
  P  P0  1  0.618983  0.618983  0.618983  1
  Ir  Ir1  1  0.503628  0.984359  0.504445  1
  Ir  Ir2  1  0.984359  0.504445  0.503628  1
  Ir  Ir3  1  0.504445  0.503628  0.984359  1
  Se  Se4  1  0.621340  0.882450  0.117113  1
  Se  Se5  1  0.882450  0.117113  0.621340  1
  Se  Se6  1  0.117113  0.621340  0.882450  1
  Se  Se7  1  0.387659  0.387659  0.387659  1
  Se  Se8  1  0.881797  0.382845  0.115381  1
  Se  Se9  1  0.115381  0.881797  0.382845  1
  Se  Se10  1  0.382845  0.115381  0.881797  1
