# generated using pymatgen
data_Tm4Lu4Sc12Si15Bi
_symmetry_space_group_name_H-M   'P 1'
_cell_length_a   7.11269526
_cell_length_b   7.35674802
_cell_length_c   13.96671038
_cell_angle_alpha   90.05985057
_cell_angle_beta   88.64174155
_cell_angle_gamma   90.12003713
_symmetry_Int_Tables_number   1
_chemical_formula_structural   Tm4Lu4Sc12Si15Bi
_chemical_formula_sum   'Tm4 Lu4 Sc12 Si15 Bi1'
_cell_volume   730.61906133
_cell_formula_units_Z   1
loop_
 _symmetry_equiv_pos_site_id
 _symmetry_equiv_pos_as_xyz
  1  'x, y, z'
loop_
 _atom_site_type_symbol
 _atom_site_label
 _atom_site_symmetry_multiplicity
 _atom_site_fract_x
 _atom_site_fract_y
 _atom_site_fract_z
 _atom_site_occupancy
  Tm  Tm0  1  0.511939  0.323449  0.097000  1
  Tm  Tm1  1  0.999612  0.169999  0.399298  1
  Tm  Tm2  1  0.512262  0.316260  0.397519  1
  Tm  Tm3  1  0.512355  0.687514  0.601083  1
  Lu  Lu4  1  0.012878  0.177637  0.096443  1
  Lu  Lu5  1  0.987456  0.823642  0.904488  1
  Lu  Lu6  1  0.488240  0.676765  0.904131  1
  Lu  Lu7  1  0.991835  0.831779  0.598253  1
  Sc  Sc8  1  0.164045  0.502042  0.756300  1
  Sc  Sc9  1  0.835093  0.497646  0.251331  1
  Sc  Sc10  1  0.335072  0.002896  0.250032  1
  Sc  Sc11  1  0.666694  0.997649  0.751391  1
  Sc  Sc12  1  0.348366  0.155635  0.632018  1
  Sc  Sc13  1  0.659137  0.827089  0.372432  1
  Sc  Sc14  1  0.154455  0.683937  0.368952  1
  Sc  Sc15  1  0.667791  0.822546  0.123510  1
  Sc  Sc16  1  0.826383  0.325844  0.625850  1
  Sc  Sc17  1  0.330171  0.175718  0.875652  1
  Sc  Sc18  1  0.831133  0.323276  0.875880  1
  Sc  Sc19  1  0.168615  0.677069  0.124603  1
  Si  Si20  1  0.035902  0.116413  0.751426  1
  Si  Si21  1  0.961497  0.887785  0.245711  1
  Si  Si22  1  0.461747  0.614331  0.247478  1
  Si  Si23  1  0.535147  0.387005  0.753023  1
  Si  Si24  1  0.288191  0.864881  0.753418  1
  Si  Si25  1  0.711867  0.128664  0.246045  1
  Si  Si26  1  0.209996  0.370895  0.248641  1
  Si  Si27  1  0.793106  0.631348  0.752099  1
  Si  Si28  1  0.811305  0.540451  0.457078  1
  Si  Si29  1  0.328565  0.964043  0.460059  1
  Si  Si30  1  0.842757  0.533597  0.039846  1
  Si  Si31  1  0.673001  0.037786  0.538426  1
  Si  Si32  1  0.157138  0.466032  0.961457  1
  Si  Si33  1  0.656922  0.033344  0.960099  1
  Si  Si34  1  0.341438  0.966542  0.040029  1
  Bi  Bi35  1  0.187880  0.458494  0.538999  1
