# generated using pymatgen
data_Ba3Tm2ReO9
_symmetry_space_group_name_H-M   'P 1'
_cell_length_a   6.03614900
_cell_length_b   6.03614929
_cell_length_c   14.71316700
_cell_angle_alpha   90.00000000
_cell_angle_beta   90.00000000
_cell_angle_gamma   119.99999292
_symmetry_Int_Tables_number   1
_chemical_formula_structural   Ba3Tm2ReO9
_chemical_formula_sum   'Ba6 Tm4 Re2 O18'
_cell_volume   464.25517266
_cell_formula_units_Z   2
loop_
 _symmetry_equiv_pos_site_id
 _symmetry_equiv_pos_as_xyz
  1  'x, y, z'
loop_
 _atom_site_type_symbol
 _atom_site_label
 _atom_site_symmetry_multiplicity
 _atom_site_fract_x
 _atom_site_fract_y
 _atom_site_fract_z
 _atom_site_occupancy
  Ba  Ba0  1  0.333333  0.666667  0.090263  1
  Ba  Ba1  1  0.666667  0.333333  0.909737  1
  Ba  Ba2  1  0.333333  0.666667  0.590263  1
  Ba  Ba3  1  0.666667  0.333333  0.409737  1
  Ba  Ba4  1  0.000000  0.000000  0.250000  1
  Ba  Ba5  1  0.000000  0.000000  0.750000  1
  Tm  Tm6  1  0.333333  0.666667  0.833149  1
  Tm  Tm7  1  0.666667  0.333333  0.166851  1
  Tm  Tm8  1  0.333333  0.666667  0.333149  1
  Tm  Tm9  1  0.666667  0.333333  0.666851  1
  Re  Re10  1  0.000000  0.000000  0.000000  1
  Re  Re11  1  0.000000  0.000000  0.500000  1
  O  O12  1  0.874788  0.693956  0.575283  1
  O  O13  1  0.000000  0.540081  0.250000  1
  O  O14  1  0.180834  0.306044  0.924717  1
  O  O15  1  0.874788  0.180834  0.075283  1
  O  O16  1  0.819166  0.125212  0.575283  1
  O  O17  1  0.819166  0.693956  0.075283  1
  O  O18  1  0.693956  0.819166  0.424717  1
  O  O19  1  0.459919  0.000000  0.750000  1
  O  O20  1  0.540081  0.540081  0.750000  1
  O  O21  1  0.306044  0.180834  0.575283  1
  O  O22  1  0.125212  0.306044  0.424717  1
  O  O23  1  0.180834  0.874788  0.424717  1
  O  O24  1  0.306044  0.125212  0.075283  1
  O  O25  1  0.540081  0.000000  0.250000  1
  O  O26  1  0.459919  0.459919  0.250000  1
  O  O27  1  0.000000  0.459919  0.750000  1
  O  O28  1  0.125212  0.819166  0.924717  1
  O  O29  1  0.693956  0.874788  0.924717  1
