# generated using pymatgen
data_Dy4Lu4Ti12Si15P
_symmetry_space_group_name_H-M   'P 1'
_cell_length_a   7.00038713
_cell_length_b   7.00532451
_cell_length_c   12.87594904
_cell_angle_alpha   89.98918045
_cell_angle_beta   89.93731359
_cell_angle_gamma   89.99913292
_symmetry_Int_Tables_number   1
_chemical_formula_structural   Dy4Lu4Ti12Si15P
_chemical_formula_sum   'Dy4 Lu4 Ti12 Si15 P1'
_cell_volume   631.43593942
_cell_formula_units_Z   1
loop_
 _symmetry_equiv_pos_site_id
 _symmetry_equiv_pos_as_xyz
  1  'x, y, z'
loop_
 _atom_site_type_symbol
 _atom_site_label
 _atom_site_symmetry_multiplicity
 _atom_site_fract_x
 _atom_site_fract_y
 _atom_site_fract_z
 _atom_site_occupancy
  Dy  Dy0  1  0.339746  0.003603  0.468337  1
  Dy  Dy1  1  0.493832  0.843702  0.717185  1
  Dy  Dy2  1  0.503068  0.159128  0.215922  1
  Dy  Dy3  1  0.839945  0.496786  0.283434  1
  Lu  Lu4  1  0.158479  0.497334  0.782550  1
  Lu  Lu5  1  0.660218  0.996191  0.966759  1
  Lu  Lu6  1  0.002717  0.340395  0.534832  1
  Lu  Lu7  1  0.998460  0.659428  0.032530  1
  Ti  Ti8  1  0.326045  0.326932  0.999002  1
  Ti  Ti9  1  0.172509  0.827110  0.249722  1
  Ti  Ti10  1  0.828730  0.173500  0.749660  1
  Ti  Ti11  1  0.673388  0.672392  0.500503  1
  Ti  Ti12  1  0.152790  0.009558  0.872571  1
  Ti  Ti13  1  0.492620  0.652912  0.124648  1
  Ti  Ti14  1  0.505666  0.344844  0.627679  1
  Ti  Ti15  1  0.653732  0.495629  0.874402  1
  Ti  Ti16  1  0.346610  0.506559  0.374397  1
  Ti  Ti17  1  0.848032  0.991980  0.376270  1
  Ti  Ti18  1  0.007172  0.151107  0.123350  1
  Ti  Ti19  1  0.995545  0.850186  0.625538  1
  Si  Si20  1  0.366562  0.702949  0.932529  1
  Si  Si21  1  0.631720  0.298204  0.436070  1
  Si  Si22  1  0.703710  0.369649  0.065010  1
  Si  Si23  1  0.295868  0.628658  0.566602  1
  Si  Si24  1  0.797613  0.868223  0.182909  1
  Si  Si25  1  0.130307  0.202951  0.316382  1
  Si  Si26  1  0.870435  0.796015  0.816920  1
  Si  Si27  1  0.291426  0.952676  0.063056  1
  Si  Si28  1  0.546103  0.790919  0.314746  1
  Si  Si29  1  0.459100  0.211080  0.818237  1
  Si  Si30  1  0.792440  0.546190  0.684825  1
  Si  Si31  1  0.208012  0.454199  0.184556  1
  Si  Si32  1  0.710258  0.046657  0.564787  1
  Si  Si33  1  0.954125  0.292594  0.935056  1
  Si  Si34  1  0.045983  0.706821  0.436339  1
  P  P35  1  0.197031  0.132937  0.682685  1
