# generated using pymatgen
data_HfZr11(AsP)4
_symmetry_space_group_name_H-M   'P 1'
_cell_length_a   3.76344300
_cell_length_b   10.02709963
_cell_length_c   10.35412565
_cell_angle_alpha   89.95936142
_cell_angle_beta   90.00000000
_cell_angle_gamma   90.00000000
_symmetry_Int_Tables_number   1
_chemical_formula_structural   HfZr11(AsP)4
_chemical_formula_sum   'Hf1 Zr11 As4 P4'
_cell_volume   390.72751443
_cell_formula_units_Z   1
loop_
 _symmetry_equiv_pos_site_id
 _symmetry_equiv_pos_as_xyz
  1  'x, y, z'
loop_
 _atom_site_type_symbol
 _atom_site_label
 _atom_site_symmetry_multiplicity
 _atom_site_fract_x
 _atom_site_fract_y
 _atom_site_fract_z
 _atom_site_occupancy
  Hf  Hf0  1  0.750000  0.793495  0.782681  1
  Zr  Zr1  1  0.250000  0.631652  0.545794  1
  Zr  Zr2  1  0.250000  0.868654  0.044852  1
  Zr  Zr3  1  0.750000  0.368594  0.454908  1
  Zr  Zr4  1  0.750000  0.131159  0.954714  1
  Zr  Zr5  1  0.750000  0.066107  0.615394  1
  Zr  Zr6  1  0.750000  0.433986  0.114732  1
  Zr  Zr7  1  0.250000  0.933419  0.385281  1
  Zr  Zr8  1  0.250000  0.567115  0.884108  1
  Zr  Zr9  1  0.250000  0.293758  0.717295  1
  Zr  Zr10  1  0.250000  0.206460  0.217279  1
  Zr  Zr11  1  0.750000  0.706700  0.282764  1
  As  As12  1  0.750000  0.499707  0.694913  1
  As  As13  1  0.750000  0.000079  0.195082  1
  As  As14  1  0.250000  0.500374  0.305060  1
  As  As15  1  0.250000  0.998243  0.804539  1
  P  P16  1  0.250000  0.181076  0.475077  1
  P  P17  1  0.250000  0.318839  0.974911  1
  P  P18  1  0.750000  0.818783  0.526983  1
  P  P19  1  0.750000  0.681801  0.023632  1
