# generated using pymatgen
data_La9Pr(Th2Ir3)2
_symmetry_space_group_name_H-M   'P 1'
_cell_length_a   10.22526400
_cell_length_b   10.11857650
_cell_length_c   6.52271895
_cell_angle_alpha   89.52008820
_cell_angle_beta   90.00000000
_cell_angle_gamma   120.34940748
_symmetry_Int_Tables_number   1
_chemical_formula_structural   La9Pr(Th2Ir3)2
_chemical_formula_sum   'La9 Pr1 Th4 Ir6'
_cell_volume   582.36183380
_cell_formula_units_Z   1
loop_
 _symmetry_equiv_pos_site_id
 _symmetry_equiv_pos_as_xyz
  1  'x, y, z'
loop_
 _atom_site_type_symbol
 _atom_site_label
 _atom_site_symmetry_multiplicity
 _atom_site_fract_x
 _atom_site_fract_y
 _atom_site_fract_z
 _atom_site_occupancy
  La  La0  1  0.123730  0.247459  0.248243  1
  La  La1  1  0.871958  0.127706  0.746305  1
  La  La2  1  0.255746  0.127706  0.746305  1
  La  La3  1  0.873381  0.746765  0.742505  1
  La  La4  1  0.537355  0.463646  0.439127  1
  La  La5  1  0.926292  0.463646  0.439127  1
  La  La6  1  0.535982  0.071966  0.445633  1
  La  La7  1  0.465070  0.540904  0.937910  1
  La  La8  1  0.075834  0.540904  0.937910  1
  Pr  Pr9  1  0.461585  0.923170  0.948387  1
  Th  Th10  1  0.333778  0.667558  0.469665  1
  Th  Th11  1  0.666703  0.333406  0.979424  1
  Th  Th12  1  0.128385  0.873154  0.253359  1
  Th  Th13  1  0.744769  0.873154  0.253359  1
  Ir  Ir14  1  0.805341  0.182864  0.190013  1
  Ir  Ir15  1  0.377523  0.182864  0.190013  1
  Ir  Ir16  1  0.815635  0.631270  0.195423  1
  Ir  Ir17  1  0.189250  0.809862  0.674861  1
  Ir  Ir18  1  0.620612  0.809862  0.674861  1
  Ir  Ir19  1  0.191068  0.382135  0.689658  1
