# generated using pymatgen
data_Zr4Al18Co5Ru
_symmetry_space_group_name_H-M   'P 1'
_cell_length_a   7.32255987
_cell_length_b   7.32256114
_cell_length_c   9.10289623
_cell_angle_alpha   90.06764506
_cell_angle_beta   90.06764869
_cell_angle_gamma   119.60065974
_symmetry_Int_Tables_number   1
_chemical_formula_structural   Zr4Al18Co5Ru
_chemical_formula_sum   'Zr4 Al18 Co5 Ru1'
_cell_volume   424.39332703
_cell_formula_units_Z   1
loop_
 _symmetry_equiv_pos_site_id
 _symmetry_equiv_pos_as_xyz
  1  'x, y, z'
loop_
 _atom_site_type_symbol
 _atom_site_label
 _atom_site_symmetry_multiplicity
 _atom_site_fract_x
 _atom_site_fract_y
 _atom_site_fract_z
 _atom_site_occupancy
  Zr  Zr0  1  0.992066  0.671065  0.250271  1
  Zr  Zr1  1  0.006112  0.326806  0.749291  1
  Zr  Zr2  1  0.673194  0.993888  0.250709  1
  Zr  Zr3  1  0.328935  0.007934  0.749729  1
  Al  Al4  1  0.002380  0.335318  0.074413  1
  Al  Al5  1  0.008084  0.667908  0.925945  1
  Al  Al6  1  0.006439  0.666462  0.572844  1
  Al  Al7  1  0.333538  0.993561  0.427156  1
  Al  Al8  1  0.994560  0.335034  0.426961  1
  Al  Al9  1  0.664966  0.005440  0.573039  1
  Al  Al10  1  0.664682  0.997620  0.925587  1
  Al  Al11  1  0.332092  0.991916  0.074055  1
  Al  Al12  1  0.338912  0.561655  0.250864  1
  Al  Al13  1  0.660713  0.444290  0.744870  1
  Al  Al14  1  0.555710  0.339287  0.255130  1
  Al  Al15  1  0.438345  0.661088  0.749136  1
  Al  Al16  1  0.329044  0.329924  0.547219  1
  Al  Al17  1  0.670076  0.670956  0.452781  1
  Al  Al18  1  0.669717  0.671318  0.049392  1
  Al  Al19  1  0.328682  0.330283  0.950608  1
  Al  Al20  1  0.117673  0.117443  0.251078  1
  Al  Al21  1  0.882557  0.882327  0.748922  1
  Co  Co22  1  0.328654  0.671346  0.000000  1
  Co  Co23  1  0.327656  0.672344  0.500000  1
  Co  Co24  1  0.672179  0.327821  0.500000  1
  Co  Co25  1  0.000427  0.999573  0.000000  1
  Co  Co26  1  0.999481  0.000519  0.500000  1
  Ru  Ru27  1  0.673127  0.326873  0.000000  1
