# generated using pymatgen
data_Pr3PtAu5
_symmetry_space_group_name_H-M   'P 1'
_cell_length_a   7.85094400
_cell_length_b   7.85094231
_cell_length_c   3.93466700
_cell_angle_alpha   90.00000000
_cell_angle_beta   90.00000000
_cell_angle_gamma   120.00000711
_symmetry_Int_Tables_number   1
_chemical_formula_structural   Pr3PtAu5
_chemical_formula_sum   'Pr3 Pt1 Au5'
_cell_volume   210.03044347
_cell_formula_units_Z   1
loop_
 _symmetry_equiv_pos_site_id
 _symmetry_equiv_pos_as_xyz
  1  'x, y, z'
loop_
 _atom_site_type_symbol
 _atom_site_label
 _atom_site_symmetry_multiplicity
 _atom_site_fract_x
 _atom_site_fract_y
 _atom_site_fract_z
 _atom_site_occupancy
  Pr  Pr0  1  0.611606  0.013077  0.000000  1
  Pr  Pr1  1  0.986923  0.598529  0.000000  1
  Pr  Pr2  1  0.401471  0.388394  0.000000  1
  Pt  Pt3  1  0.666667  0.333333  0.500000  1
  Au  Au4  1  0.271829  0.001134  0.500000  1
  Au  Au5  1  0.998866  0.270695  0.500000  1
  Au  Au6  1  0.729305  0.728171  0.500000  1
  Au  Au7  1  0.333333  0.666667  0.500000  1
  Au  Au8  1  0.000000  0.000000  0.000000  1
