# generated using pymatgen
data_Tb10Ce2Tc3Ni
_symmetry_space_group_name_H-M   'P 1'
_cell_length_a   6.33403156
_cell_length_b   7.18807037
_cell_length_c   9.53007400
_cell_angle_alpha   90.00000000
_cell_angle_beta   90.00000000
_cell_angle_gamma   90.04177212
_symmetry_Int_Tables_number   1
_chemical_formula_structural   Tb10Ce2Tc3Ni
_chemical_formula_sum   'Tb10 Ce2 Tc3 Ni1'
_cell_volume   433.89905100
_cell_formula_units_Z   1
loop_
 _symmetry_equiv_pos_site_id
 _symmetry_equiv_pos_as_xyz
  1  'x, y, z'
loop_
 _atom_site_type_symbol
 _atom_site_label
 _atom_site_symmetry_multiplicity
 _atom_site_fract_x
 _atom_site_fract_y
 _atom_site_fract_z
 _atom_site_occupancy
  Tb  Tb0  1  0.327859  0.679905  0.066168  1
  Tb  Tb1  1  0.163774  0.180150  0.439818  1
  Tb  Tb2  1  0.672674  0.325433  0.566662  1
  Tb  Tb3  1  0.830010  0.821114  0.933190  1
  Tb  Tb4  1  0.672674  0.325433  0.933338  1
  Tb  Tb5  1  0.830010  0.821114  0.566810  1
  Tb  Tb6  1  0.327859  0.679905  0.433832  1
  Tb  Tb7  1  0.163774  0.180150  0.060182  1
  Tb  Tb8  1  0.144559  0.460256  0.750000  1
  Tb  Tb9  1  0.372261  0.959640  0.750000  1
  Ce  Ce10  1  0.859413  0.556651  0.250000  1
  Ce  Ce11  1  0.632804  0.057173  0.250000  1
  Tc  Tc12  1  0.997625  0.863721  0.250000  1
  Tc  Tc13  1  0.495029  0.364163  0.250000  1
  Tc  Tc14  1  0.958355  0.111194  0.750000  1
  Ni  Ni15  1  0.551320  0.613996  0.750000  1
