# generated using pymatgen
data_Sm2Si4Tc7Os
_symmetry_space_group_name_H-M   'P 1'
_cell_length_a   7.21160602
_cell_length_b   7.68448584
_cell_length_c   4.09961800
_cell_angle_alpha   90.00000000
_cell_angle_beta   90.00000000
_cell_angle_gamma   89.67071147
_symmetry_Int_Tables_number   1
_chemical_formula_structural   Sm2Si4Tc7Os
_chemical_formula_sum   'Sm2 Si4 Tc7 Os1'
_cell_volume   227.18676418
_cell_formula_units_Z   1
loop_
 _symmetry_equiv_pos_site_id
 _symmetry_equiv_pos_as_xyz
  1  'x, y, z'
loop_
 _atom_site_type_symbol
 _atom_site_label
 _atom_site_symmetry_multiplicity
 _atom_site_fract_x
 _atom_site_fract_y
 _atom_site_fract_z
 _atom_site_occupancy
  Sm  Sm0  1  0.499437  0.500125  0.000000  1
  Sm  Sm1  1  0.998145  0.999483  0.500000  1
  Si  Si2  1  0.724831  0.697009  0.500000  1
  Si  Si3  1  0.275249  0.301122  0.500000  1
  Si  Si4  1  0.224437  0.803429  0.000000  1
  Si  Si5  1  0.772816  0.196573  0.000000  1
  Tc  Tc6  1  0.422967  0.843371  0.500000  1
  Tc  Tc7  1  0.075520  0.340089  0.000000  1
  Tc  Tc8  1  0.923780  0.657788  0.000000  1
  Tc  Tc9  1  0.154077  0.602919  0.500000  1
  Tc  Tc10  1  0.849803  0.398785  0.500000  1
  Tc  Tc11  1  0.347182  0.101649  0.000000  1
  Tc  Tc12  1  0.652614  0.897876  0.000000  1
  Os  Os13  1  0.579140  0.159781  0.500000  1
