# generated using pymatgen
data_TbY(AuO3)2
_symmetry_space_group_name_H-M   'P 1'
_cell_length_a   3.84600800
_cell_length_b   5.60198400
_cell_length_c   12.98711400
_cell_angle_alpha   90.00000000
_cell_angle_beta   90.00000000
_cell_angle_gamma   90.00000000
_symmetry_Int_Tables_number   1
_chemical_formula_structural   TbY(AuO3)2
_chemical_formula_sum   'Tb2 Y2 Au4 O12'
_cell_volume   279.81094622
_cell_formula_units_Z   2
loop_
 _symmetry_equiv_pos_site_id
 _symmetry_equiv_pos_as_xyz
  1  'x, y, z'
loop_
 _atom_site_type_symbol
 _atom_site_label
 _atom_site_symmetry_multiplicity
 _atom_site_fract_x
 _atom_site_fract_y
 _atom_site_fract_z
 _atom_site_occupancy
  Tb  Tb0  1  0.738959  0.250000  0.926012  1
  Tb  Tb1  1  0.738959  0.750000  0.573988  1
  Y  Y2  1  0.258788  0.750000  0.076135  1
  Y  Y3  1  0.258788  0.250000  0.423865  1
  Au  Au4  1  0.065370  0.750000  0.831117  1
  Au  Au5  1  0.065370  0.250000  0.668883  1
  Au  Au6  1  0.935642  0.250000  0.169948  1
  Au  Au7  1  0.935642  0.750000  0.330052  1
  O  O8  1  0.200784  0.500000  0.250000  1
  O  O9  1  0.803875  0.000000  0.750000  1
  O  O10  1  0.803875  0.500000  0.750000  1
  O  O11  1  0.200784  0.000000  0.250000  1
  O  O12  1  0.741831  0.501621  0.075481  1
  O  O13  1  0.741831  0.498379  0.424519  1
  O  O14  1  0.256459  0.000482  0.926662  1
  O  O15  1  0.256459  0.999518  0.573338  1
  O  O16  1  0.741831  0.001621  0.424519  1
  O  O17  1  0.741831  0.998379  0.075481  1
  O  O18  1  0.256459  0.500482  0.573338  1
  O  O19  1  0.256459  0.499518  0.926662  1
