# generated using pymatgen
data_Tb2U(GaRu)3
_symmetry_space_group_name_H-M   'P 1'
_cell_length_a   6.91699124
_cell_length_b   6.91699124
_cell_length_c   3.99118500
_cell_angle_alpha   90.00000000
_cell_angle_beta   90.00000000
_cell_angle_gamma   116.36214669
_symmetry_Int_Tables_number   1
_chemical_formula_structural   Tb2U(GaRu)3
_chemical_formula_sum   'Tb2 U1 Ga3 Ru3'
_cell_volume   171.09877438
_cell_formula_units_Z   1
loop_
 _symmetry_equiv_pos_site_id
 _symmetry_equiv_pos_as_xyz
  1  'x, y, z'
loop_
 _atom_site_type_symbol
 _atom_site_label
 _atom_site_symmetry_multiplicity
 _atom_site_fract_x
 _atom_site_fract_y
 _atom_site_fract_z
 _atom_site_occupancy
  Tb  Tb0  1  0.413598  0.008475  0.500000  1
  Tb  Tb1  1  0.008475  0.413598  0.500000  1
  U  U2  1  0.617912  0.617912  0.500000  1
  Ga  Ga3  1  0.744936  0.031669  0.000000  1
  Ga  Ga4  1  0.031669  0.744936  0.000000  1
  Ga  Ga5  1  0.210641  0.210641  0.000000  1
  Ru  Ru6  1  0.381721  0.635358  0.000000  1
  Ru  Ru7  1  0.635358  0.381721  0.000000  1
  Ru  Ru8  1  0.955690  0.955690  0.500000  1
