# generated using pymatgen
data_YTh2(ZnPd)3
_symmetry_space_group_name_H-M   'P 1'
_cell_length_a   7.50453706
_cell_length_b   7.56523998
_cell_length_c   3.84717200
_cell_angle_alpha   90.00000000
_cell_angle_beta   90.00000000
_cell_angle_gamma   120.26793740
_symmetry_Int_Tables_number   1
_chemical_formula_structural   YTh2(ZnPd)3
_chemical_formula_sum   'Y1 Th2 Zn3 Pd3'
_cell_volume   188.64267625
_cell_formula_units_Z   1
loop_
 _symmetry_equiv_pos_site_id
 _symmetry_equiv_pos_as_xyz
  1  'x, y, z'
loop_
 _atom_site_type_symbol
 _atom_site_label
 _atom_site_symmetry_multiplicity
 _atom_site_fract_x
 _atom_site_fract_y
 _atom_site_fract_z
 _atom_site_occupancy
  Y  Y0  1  0.000000  0.402599  0.000000  1
  Th  Th1  1  0.591707  0.593363  0.000000  1
  Th  Th2  1  0.408293  0.001656  0.000000  1
  Zn  Zn3  1  0.241871  0.251225  0.500000  1
  Zn  Zn4  1  0.758129  0.009354  0.500000  1
  Zn  Zn5  1  0.000000  0.740497  0.500000  1
  Pd  Pd6  1  0.000000  0.995138  0.000000  1
  Pd  Pd7  1  0.338927  0.672548  0.500000  1
  Pd  Pd8  1  0.661073  0.333621  0.500000  1
