# generated using pymatgen
data_DyEr7Ga12CoCu3
_symmetry_space_group_name_H-M   'P 1'
_cell_length_a   6.95102000
_cell_length_b   8.76913330
_cell_length_c   8.76913400
_cell_angle_alpha   120.00000266
_cell_angle_beta   90.00000000
_cell_angle_gamma   90.00000000
_symmetry_Int_Tables_number   1
_chemical_formula_structural   DyEr7Ga12CoCu3
_chemical_formula_sum   'Dy1 Er7 Ga12 Co1 Cu3'
_cell_volume   462.90570834
_cell_formula_units_Z   1
loop_
 _symmetry_equiv_pos_site_id
 _symmetry_equiv_pos_as_xyz
  1  'x, y, z'
loop_
 _atom_site_type_symbol
 _atom_site_label
 _atom_site_symmetry_multiplicity
 _atom_site_fract_x
 _atom_site_fract_y
 _atom_site_fract_z
 _atom_site_occupancy
  Dy  Dy0  1  0.745691  0.000000  0.000000  1
  Er  Er1  1  0.249924  0.000000  0.000000  1
  Er  Er2  1  0.749440  0.486190  0.513810  1
  Er  Er3  1  0.256193  0.522073  0.477927  1
  Er  Er4  1  0.749440  0.027620  0.513810  1
  Er  Er5  1  0.256193  0.955854  0.477927  1
  Er  Er6  1  0.749440  0.486190  0.972380  1
  Er  Er7  1  0.256193  0.522073  0.044146  1
  Ga  Ga8  1  0.962303  0.830904  0.169096  1
  Ga  Ga9  1  0.041286  0.170829  0.829171  1
  Ga  Ga10  1  0.962303  0.338194  0.169096  1
  Ga  Ga11  1  0.462342  0.169949  0.830051  1
  Ga  Ga12  1  0.041286  0.658340  0.829171  1
  Ga  Ga13  1  0.540260  0.826658  0.173342  1
  Ga  Ga14  1  0.962303  0.830904  0.661806  1
  Ga  Ga15  1  0.462342  0.660100  0.830051  1
  Ga  Ga16  1  0.041286  0.170829  0.341660  1
  Ga  Ga17  1  0.540260  0.346684  0.173342  1
  Ga  Ga18  1  0.462342  0.169949  0.339900  1
  Ga  Ga19  1  0.540260  0.826658  0.653316  1
  Co  Co20  1  0.511914  0.666667  0.333333  1
  Cu  Cu21  1  0.955910  0.666667  0.333333  1
  Cu  Cu22  1  0.040969  0.333333  0.666667  1
  Cu  Cu23  1  0.460116  0.333333  0.666667  1
