# generated using pymatgen
data_Tb2ErSn2Rh3Pb
_symmetry_space_group_name_H-M   'P 1'
_cell_length_a   7.74446521
_cell_length_b   7.72388209
_cell_length_c   3.73983700
_cell_angle_alpha   90.00000000
_cell_angle_beta   90.00000000
_cell_angle_gamma   119.84904176
_symmetry_Int_Tables_number   1
_chemical_formula_structural   Tb2ErSn2Rh3Pb
_chemical_formula_sum   'Tb2 Er1 Sn2 Rh3 Pb1'
_cell_volume   194.03005004
_cell_formula_units_Z   1
loop_
 _symmetry_equiv_pos_site_id
 _symmetry_equiv_pos_as_xyz
  1  'x, y, z'
loop_
 _atom_site_type_symbol
 _atom_site_label
 _atom_site_symmetry_multiplicity
 _atom_site_fract_x
 _atom_site_fract_y
 _atom_site_fract_z
 _atom_site_occupancy
  Tb  Tb0  1  0.399136  0.399424  0.000000  1
  Tb  Tb1  1  0.003204  0.597905  0.000000  1
  Er  Er2  1  0.598409  0.003677  0.000000  1
  Sn  Sn3  1  0.998209  0.265633  0.500000  1
  Sn  Sn4  1  0.268032  0.999798  0.500000  1
  Rh  Rh5  1  0.011305  0.011528  0.000000  1
  Rh  Rh6  1  0.663493  0.322135  0.500000  1
  Rh  Rh7  1  0.325860  0.665931  0.500000  1
  Pb  Pb8  1  0.732352  0.733970  0.500000  1
