# generated using pymatgen
data_RbSc6(CBr6)2
_symmetry_space_group_name_H-M   'P 1'
_cell_length_a   8.53189139
_cell_length_b   8.55672367
_cell_length_c   8.96425829
_cell_angle_alpha   72.65600387
_cell_angle_beta   71.67566365
_cell_angle_gamma   73.20458373
_symmetry_Int_Tables_number   1
_chemical_formula_structural   RbSc6(CBr6)2
_chemical_formula_sum   'Rb1 Sc6 C2 Br12'
_cell_volume   579.07635799
_cell_formula_units_Z   1
loop_
 _symmetry_equiv_pos_site_id
 _symmetry_equiv_pos_as_xyz
  1  'x, y, z'
loop_
 _atom_site_type_symbol
 _atom_site_label
 _atom_site_symmetry_multiplicity
 _atom_site_fract_x
 _atom_site_fract_y
 _atom_site_fract_z
 _atom_site_occupancy
  Rb  Rb0  1  0.000004  0.499970  0.999989  1
  Sc  Sc1  1  0.473078  0.113081  0.186318  1
  Sc  Sc2  1  0.768740  0.031732  0.409513  1
  Sc  Sc3  1  0.588739  0.735823  0.479386  1
  Sc  Sc4  1  0.411265  0.264180  0.520611  1
  Sc  Sc5  1  0.231255  0.968275  0.590489  1
  Sc  Sc6  1  0.526917  0.886916  0.813690  1
  C  C7  1  0.492183  0.025813  0.419992  1
  C  C8  1  0.507816  0.974185  0.580008  1
  Br  Br9  1  0.791898  0.153609  0.086889  1
  Br  Br10  1  0.578845  0.791587  0.136327  1
  Br  Br11  1  0.354276  0.425141  0.224795  1
  Br  Br12  1  0.136374  0.067433  0.300280  1
  Br  Br13  1  0.911626  0.726103  0.358589  1
  Br  Br14  1  0.706702  0.356352  0.435170  1
  Br  Br15  1  0.293294  0.643673  0.564818  1
  Br  Br16  1  0.088359  0.273901  0.641416  1
  Br  Br17  1  0.863622  0.932572  0.699725  1
  Br  Br18  1  0.645741  0.574852  0.775213  1
  Br  Br19  1  0.421171  0.208408  0.863679  1
  Br  Br20  1  0.208097  0.846392  0.913103  1
