# generated using pymatgen
data_Tb3YAl18PtRh4Au
_symmetry_space_group_name_H-M   'P 1'
_cell_length_a   7.59608477
_cell_length_b   7.59605336
_cell_length_c   9.48918400
_cell_angle_alpha   89.94459787
_cell_angle_beta   89.94294622
_cell_angle_gamma   119.49900503
_symmetry_Int_Tables_number   1
_chemical_formula_structural   Tb3YAl18PtRh4Au
_chemical_formula_sum   'Tb3 Y1 Al18 Pt1 Rh4 Au1'
_cell_volume   476.54826873
_cell_formula_units_Z   1
loop_
 _symmetry_equiv_pos_site_id
 _symmetry_equiv_pos_as_xyz
  1  'x, y, z'
loop_
 _atom_site_type_symbol
 _atom_site_label
 _atom_site_symmetry_multiplicity
 _atom_site_fract_x
 _atom_site_fract_y
 _atom_site_fract_z
 _atom_site_occupancy
  Tb  Tb0  1  0.003338  0.324986  0.749708  1
  Tb  Tb1  1  0.675059  0.996682  0.250293  1
  Tb  Tb2  1  0.326486  0.005411  0.749410  1
  Y  Y3  1  0.994583  0.673541  0.250628  1
  Al  Al4  1  0.135937  0.135240  0.258119  1
  Al  Al5  1  0.864735  0.863937  0.741905  1
  Al  Al6  1  0.006472  0.345369  0.079681  1
  Al  Al7  1  0.002072  0.659173  0.920384  1
  Al  Al8  1  0.001279  0.663874  0.572681  1
  Al  Al9  1  0.335987  0.998661  0.427198  1
  Al  Al10  1  0.999761  0.336119  0.426999  1
  Al  Al11  1  0.663978  0.000238  0.572966  1
  Al  Al12  1  0.654682  0.993488  0.920321  1
  Al  Al13  1  0.340720  0.997875  0.079624  1
  Al  Al14  1  0.332440  0.332542  0.549517  1
  Al  Al15  1  0.667553  0.667566  0.450327  1
  Al  Al16  1  0.657493  0.661045  0.058512  1
  Al  Al17  1  0.338945  0.342588  0.941495  1
  Al  Al18  1  0.340549  0.553106  0.252317  1
  Al  Al19  1  0.660031  0.450548  0.745132  1
  Al  Al20  1  0.549556  0.339966  0.254837  1
  Al  Al21  1  0.446953  0.659476  0.747740  1
  Pt  Pt22  1  0.672335  0.327675  0.000034  1
  Rh  Rh23  1  0.328407  0.671542  0.000096  1
  Rh  Rh24  1  0.328466  0.671523  0.500023  1
  Rh  Rh25  1  0.672193  0.327833  0.499970  1
  Rh  Rh26  1  0.000161  0.999828  0.500047  1
  Au  Au27  1  0.999829  0.000166  0.000036  1
