# generated using pymatgen
data_Tm4Si3Ge
_symmetry_space_group_name_H-M   'P 1'
_cell_length_a   3.83522800
_cell_length_b   4.20799200
_cell_length_c   10.42742400
_cell_angle_alpha   90.00000000
_cell_angle_beta   90.00000000
_cell_angle_gamma   90.00000000
_symmetry_Int_Tables_number   1
_chemical_formula_structural   Tm4Si3Ge
_chemical_formula_sum   'Tm4 Si3 Ge1'
_cell_volume   168.28411612
_cell_formula_units_Z   1
loop_
 _symmetry_equiv_pos_site_id
 _symmetry_equiv_pos_as_xyz
  1  'x, y, z'
loop_
 _atom_site_type_symbol
 _atom_site_label
 _atom_site_symmetry_multiplicity
 _atom_site_fract_x
 _atom_site_fract_y
 _atom_site_fract_z
 _atom_site_occupancy
  Tm  Tm0  1  0.000000  0.000000  0.137309  1
  Tm  Tm1  1  0.000000  0.500000  0.641596  1
  Tm  Tm2  1  0.500000  0.500000  0.359244  1
  Tm  Tm3  1  0.500000  0.000000  0.860784  1
  Si  Si4  1  0.000000  0.500000  0.922984  1
  Si  Si5  1  0.500000  0.500000  0.077728  1
  Si  Si6  1  0.500000  0.000000  0.582234  1
  Ge  Ge7  1  0.000000  0.000000  0.418123  1
