# generated using pymatgen
data_Nb10Ga3Ge3C
_symmetry_space_group_name_H-M   'P 1'
_cell_length_a   7.74283600
_cell_length_b   7.74283492
_cell_length_c   5.35790600
_cell_angle_alpha   90.00000000
_cell_angle_beta   90.00000000
_cell_angle_gamma   119.99999608
_symmetry_Int_Tables_number   1
_chemical_formula_structural   Nb10Ga3Ge3C
_chemical_formula_sum   'Nb10 Ga3 Ge3 C1'
_cell_volume   278.17993374
_cell_formula_units_Z   1
loop_
 _symmetry_equiv_pos_site_id
 _symmetry_equiv_pos_as_xyz
  1  'x, y, z'
loop_
 _atom_site_type_symbol
 _atom_site_label
 _atom_site_symmetry_multiplicity
 _atom_site_fract_x
 _atom_site_fract_y
 _atom_site_fract_z
 _atom_site_occupancy
  Nb  Nb0  1  0.000000  0.763539  0.259335  1
  Nb  Nb1  1  0.236461  0.236461  0.259335  1
  Nb  Nb2  1  0.763539  0.000000  0.259335  1
  Nb  Nb3  1  0.000000  0.235278  0.741045  1
  Nb  Nb4  1  0.764722  0.764722  0.741045  1
  Nb  Nb5  1  0.235278  0.000000  0.741045  1
  Nb  Nb6  1  0.333333  0.666667  0.000314  1
  Nb  Nb7  1  0.666667  0.333333  0.000314  1
  Nb  Nb8  1  0.666667  0.333333  0.498447  1
  Nb  Nb9  1  0.333333  0.666667  0.498447  1
  Ga  Ga10  1  0.000000  0.399390  0.244646  1
  Ga  Ga11  1  0.600610  0.600610  0.244646  1
  Ga  Ga12  1  0.399390  0.000000  0.244646  1
  Ge  Ge13  1  0.000000  0.599426  0.756269  1
  Ge  Ge14  1  0.400574  0.400574  0.756269  1
  Ge  Ge15  1  0.599426  0.000000  0.756269  1
  C  C16  1  0.000000  0.000000  0.498591  1
