# generated using pymatgen
data_GdBiSb4O13
_symmetry_space_group_name_H-M   'P 1'
_cell_length_a   7.43401300
_cell_length_b   7.35010671
_cell_length_c   10.35012200
_cell_angle_alpha   88.96520479
_cell_angle_beta   90.00000000
_cell_angle_gamma   90.00000000
_symmetry_Int_Tables_number   1
_chemical_formula_structural   GdBiSb4O13
_chemical_formula_sum   'Gd2 Bi2 Sb8 O26'
_cell_volume   565.44659833
_cell_formula_units_Z   2
loop_
 _symmetry_equiv_pos_site_id
 _symmetry_equiv_pos_as_xyz
  1  'x, y, z'
loop_
 _atom_site_type_symbol
 _atom_site_label
 _atom_site_symmetry_multiplicity
 _atom_site_fract_x
 _atom_site_fract_y
 _atom_site_fract_z
 _atom_site_occupancy
  Gd  Gd0  1  0.500000  0.500000  0.000000  1
  Gd  Gd1  1  0.000000  0.500000  0.000000  1
  Bi  Bi2  1  0.250000  0.748657  0.732754  1
  Bi  Bi3  1  0.750000  0.251343  0.267246  1
  Sb  Sb4  1  0.500000  0.000000  0.000000  1
  Sb  Sb5  1  0.750000  0.757541  0.745680  1
  Sb  Sb6  1  0.250000  0.747846  0.253748  1
  Sb  Sb7  1  0.500000  0.500000  0.500000  1
  Sb  Sb8  1  0.000000  0.500000  0.500000  1
  Sb  Sb9  1  0.750000  0.252154  0.746252  1
  Sb  Sb10  1  0.250000  0.242459  0.254320  1
  Sb  Sb11  1  0.000000  0.000000  0.000000  1
  O  O12  1  0.449913  0.689959  0.370829  1
  O  O13  1  0.750000  0.457624  0.124595  1
  O  O14  1  0.250000  0.493035  0.164836  1
  O  O15  1  0.453865  0.304969  0.368695  1
  O  O16  1  0.558830  0.212420  0.884623  1
  O  O17  1  0.941170  0.212420  0.884623  1
  O  O18  1  0.448041  0.203657  0.123088  1
  O  O19  1  0.750000  0.002010  0.075999  1
  O  O20  1  0.250000  0.997990  0.924001  1
  O  O21  1  0.750000  0.004390  0.682347  1
  O  O22  1  0.551959  0.796343  0.876912  1
  O  O23  1  0.948041  0.796343  0.876912  1
  O  O24  1  0.441170  0.787580  0.115377  1
  O  O25  1  0.050087  0.689959  0.370829  1
  O  O26  1  0.546135  0.695031  0.631305  1
  O  O27  1  0.953865  0.695031  0.631305  1
  O  O28  1  0.250000  0.516911  0.575982  1
  O  O29  1  0.750000  0.506965  0.835164  1
  O  O30  1  0.750000  0.483089  0.424018  1
  O  O31  1  0.046135  0.304969  0.368695  1
  O  O32  1  0.550087  0.310041  0.629171  1
  O  O33  1  0.949913  0.310041  0.629171  1
  O  O34  1  0.051959  0.203657  0.123088  1
  O  O35  1  0.250000  0.995610  0.317653  1
  O  O36  1  0.058830  0.787580  0.115377  1
  O  O37  1  0.250000  0.542376  0.875405  1
