# generated using pymatgen
data_Er5Tm3C14
_symmetry_space_group_name_H-M   'P 1'
_cell_length_a   13.64448450
_cell_length_b   3.66092980
_cell_length_c   6.38084652
_cell_angle_alpha   74.91647462
_cell_angle_beta   90.02222214
_cell_angle_gamma   90.05290666
_symmetry_Int_Tables_number   1
_chemical_formula_structural   Er5Tm3C14
_chemical_formula_sum   'Er5 Tm3 C14'
_cell_volume   307.75157479
_cell_formula_units_Z   1
loop_
 _symmetry_equiv_pos_site_id
 _symmetry_equiv_pos_as_xyz
  1  'x, y, z'
loop_
 _atom_site_type_symbol
 _atom_site_label
 _atom_site_symmetry_multiplicity
 _atom_site_fract_x
 _atom_site_fract_y
 _atom_site_fract_z
 _atom_site_occupancy
  Er  Er0  1  0.161859  0.945777  0.160605  1
  Er  Er1  1  0.054477  0.632785  0.739848  1
  Er  Er2  1  0.945098  0.367966  0.259899  1
  Er  Er3  1  0.554851  0.367756  0.760052  1
  Er  Er4  1  0.445403  0.631966  0.240037  1
  Tm  Tm5  1  0.338994  0.945051  0.660268  1
  Tm  Tm6  1  0.661379  0.054760  0.339706  1
  Tm  Tm7  1  0.838499  0.054747  0.839592  1
  C  C8  1  0.895465  0.737737  0.549961  1
  C  C9  1  0.104164  0.263485  0.451094  1
  C  C10  1  0.395613  0.262238  0.950204  1
  C  C11  1  0.604408  0.737384  0.050151  1
  C  C12  1  0.215650  0.539474  0.924229  1
  C  C13  1  0.784495  0.461884  0.073612  1
  C  C14  1  0.715276  0.462002  0.573629  1
  C  C15  1  0.284773  0.535507  0.426902  1
  C  C16  1  0.803049  0.621809  0.544972  1
  C  C17  1  0.196845  0.376872  0.456309  1
  C  C18  1  0.303232  0.379184  0.954017  1
  C  C19  1  0.696844  0.621723  0.045003  1
  C  C20  1  0.500083  0.000010  0.499961  1
  C  C21  1  0.999544  0.999885  0.999948  1
