# generated using pymatgen
data_Ho12InCo4Ir
_symmetry_space_group_name_H-M   'P 1'
_cell_length_a   8.25575640
_cell_length_b   8.25575601
_cell_length_c   8.25575724
_cell_angle_alpha   111.18055890
_cell_angle_beta   110.70640945
_cell_angle_gamma   106.56555778
_symmetry_Int_Tables_number   1
_chemical_formula_structural   Ho12InCo4Ir
_chemical_formula_sum   'Ho12 In1 Co4 Ir1'
_cell_volume   432.32245845
_cell_formula_units_Z   1
loop_
 _symmetry_equiv_pos_site_id
 _symmetry_equiv_pos_as_xyz
  1  'x, y, z'
loop_
 _atom_site_type_symbol
 _atom_site_label
 _atom_site_symmetry_multiplicity
 _atom_site_fract_x
 _atom_site_fract_y
 _atom_site_fract_z
 _atom_site_occupancy
  Ho  Ho0  1  0.315353  0.620537  0.305184  1
  Ho  Ho1  1  0.684647  0.379463  0.694816  1
  Ho  Ho2  1  0.315353  0.010168  0.694816  1
  Ho  Ho3  1  0.684647  0.989832  0.305184  1
  Ho  Ho4  1  0.183106  0.284997  0.468103  1
  Ho  Ho5  1  0.816894  0.715003  0.531897  1
  Ho  Ho6  1  0.183106  0.715003  0.898109  1
  Ho  Ho7  1  0.816894  0.284997  0.101891  1
  Ho  Ho8  1  0.412585  0.217771  0.194814  1
  Ho  Ho9  1  0.587415  0.782229  0.805186  1
  Ho  Ho10  1  0.022957  0.217771  0.805186  1
  Ho  Ho11  1  0.977043  0.782229  0.194814  1
  In  In12  1  0.500000  0.500000  0.000000  1
  Co  Co13  1  0.111712  0.611712  0.500000  1
  Co  Co14  1  0.888288  0.388288  0.500000  1
  Co  Co15  1  0.377982  0.000000  0.377982  1
  Co  Co16  1  0.622018  0.000000  0.622018  1
  Ir  Ir17  1  0.000000  0.000000  0.000000  1
