# generated using pymatgen
data_Tb6Ho2Hf11Si16Ag
_symmetry_space_group_name_H-M   'P 1'
_cell_length_a   7.30155892
_cell_length_b   7.29993017
_cell_length_c   13.31064566
_cell_angle_alpha   89.82696610
_cell_angle_beta   90.17048738
_cell_angle_gamma   89.81735972
_symmetry_Int_Tables_number   1
_chemical_formula_structural   Tb6Ho2Hf11Si16Ag
_chemical_formula_sum   'Tb6 Ho2 Hf11 Si16 Ag1'
_cell_volume   709.45899649
_cell_formula_units_Z   1
loop_
 _symmetry_equiv_pos_site_id
 _symmetry_equiv_pos_as_xyz
  1  'x, y, z'
loop_
 _atom_site_type_symbol
 _atom_site_label
 _atom_site_symmetry_multiplicity
 _atom_site_fract_x
 _atom_site_fract_y
 _atom_site_fract_z
 _atom_site_occupancy
  Tb  Tb0  1  0.155351  0.495574  0.464852  1
  Tb  Tb1  1  0.498964  0.847634  0.033217  1
  Tb  Tb2  1  0.847836  0.498927  0.966747  1
  Tb  Tb3  1  0.495519  0.155495  0.535198  1
  Tb  Tb4  1  0.344732  0.997678  0.788632  1
  Tb  Tb5  1  0.656198  0.004776  0.283636  1
  Ho  Ho6  1  0.998089  0.345193  0.211437  1
  Ho  Ho7  1  0.004229  0.655762  0.716302  1
  Hf  Hf8  1  0.825027  0.824686  0.500089  1
  Hf  Hf9  1  0.323524  0.675894  0.249511  1
  Hf  Hf10  1  0.676300  0.323966  0.750466  1
  Hf  Hf11  1  0.146129  0.995818  0.374170  1
  Hf  Hf12  1  0.856274  0.003098  0.877846  1
  Hf  Hf13  1  0.504176  0.647318  0.626026  1
  Hf  Hf14  1  0.354361  0.492011  0.877450  1
  Hf  Hf15  1  0.491878  0.354489  0.122468  1
  Hf  Hf16  1  0.647412  0.504105  0.373988  1
  Hf  Hf17  1  0.995871  0.146171  0.625871  1
  Hf  Hf18  1  0.003115  0.856252  0.122034  1
  Si  Si19  1  0.359873  0.295906  0.316429  1
  Si  Si20  1  0.639284  0.704498  0.819117  1
  Si  Si21  1  0.206224  0.861414  0.568749  1
  Si  Si22  1  0.131774  0.777428  0.928177  1
  Si  Si23  1  0.778317  0.132360  0.071841  1
  Si  Si24  1  0.861870  0.206690  0.431553  1
  Si  Si25  1  0.295410  0.360794  0.683425  1
  Si  Si26  1  0.705060  0.638316  0.180719  1
  Si  Si27  1  0.295446  0.050904  0.189678  1
  Si  Si28  1  0.705044  0.950725  0.686474  1
  Si  Si29  1  0.450597  0.795298  0.435649  1
  Si  Si30  1  0.209550  0.564098  0.064624  1
  Si  Si31  1  0.564685  0.210009  0.935517  1
  Si  Si32  1  0.795693  0.451070  0.564554  1
  Si  Si33  1  0.050399  0.296547  0.810082  1
  Si  Si34  1  0.951222  0.704252  0.313358  1
  Ag  Ag35  1  0.174569  0.174841  0.000115  1
