# generated using pymatgen
data_Sr10CoW3N14
_symmetry_space_group_name_H-M   'P 1'
_cell_length_a   6.48019538
_cell_length_b   9.31279178
_cell_length_c   9.36414983
_cell_angle_alpha   115.07385511
_cell_angle_beta   96.97718935
_cell_angle_gamma   89.33204728
_symmetry_Int_Tables_number   1
_chemical_formula_structural   Sr10CoW3N14
_chemical_formula_sum   'Sr10 Co1 W3 N14'
_cell_volume   507.57012955
_cell_formula_units_Z   1
loop_
 _symmetry_equiv_pos_site_id
 _symmetry_equiv_pos_as_xyz
  1  'x, y, z'
loop_
 _atom_site_type_symbol
 _atom_site_label
 _atom_site_symmetry_multiplicity
 _atom_site_fract_x
 _atom_site_fract_y
 _atom_site_fract_z
 _atom_site_occupancy
  Sr  Sr0  1  0.843401  0.588375  0.325959  1
  Sr  Sr1  1  0.266809  0.981484  0.556587  1
  Sr  Sr2  1  0.697535  0.411199  0.843263  1
  Sr  Sr3  1  0.293672  0.585180  0.144398  1
  Sr  Sr4  1  0.400189  0.795137  0.929150  1
  Sr  Sr5  1  0.602749  0.212507  0.092125  1
  Sr  Sr6  1  0.149851  0.407953  0.670006  1
  Sr  Sr7  1  0.899086  0.847778  0.759969  1
  Sr  Sr8  1  0.109652  0.156162  0.241770  1
  Sr  Sr9  1  0.738239  0.020460  0.442756  1
  Co  Co10  1  0.575979  0.350704  0.474256  1
  W  W11  1  0.425498  0.633063  0.524600  1
  W  W12  1  0.122963  0.216574  0.914888  1
  W  W13  1  0.880415  0.784292  0.083684  1
  N  N14  1  0.514496  0.553634  0.678120  1
  N  N15  1  0.470091  0.456452  0.329396  1
  N  N16  1  0.152087  0.698061  0.545581  1
  N  N17  1  0.824304  0.288070  0.426864  1
  N  N18  1  0.425507  0.198668  0.482994  1
  N  N19  1  0.590999  0.804922  0.539221  1
  N  N20  1  0.956727  0.136964  0.714148  1
  N  N21  1  0.055400  0.867590  0.280555  1
  N  N22  1  0.235396  0.052768  0.964148  1
  N  N23  1  0.767990  0.948946  0.037301  1
  N  N24  1  0.353256  0.332220  0.904335  1
  N  N25  1  0.966901  0.347088  0.078108  1
  N  N26  1  0.032288  0.652088  0.917359  1
  N  N27  1  0.648520  0.671664  0.098461  1
