# generated using pymatgen
data_NdY4Pa3(ReB6)4
_symmetry_space_group_name_H-M   'P 1'
_cell_length_a   3.72062200
_cell_length_b   9.22388675
_cell_length_c   11.57139418
_cell_angle_alpha   89.81538690
_cell_angle_beta   90.00000000
_cell_angle_gamma   90.00000000
_symmetry_Int_Tables_number   1
_chemical_formula_structural   NdY4Pa3(ReB6)4
_chemical_formula_sum   'Nd1 Y4 Pa3 Re4 B24'
_cell_volume   397.11194035
_cell_formula_units_Z   1
loop_
 _symmetry_equiv_pos_site_id
 _symmetry_equiv_pos_as_xyz
  1  'x, y, z'
loop_
 _atom_site_type_symbol
 _atom_site_label
 _atom_site_symmetry_multiplicity
 _atom_site_fract_x
 _atom_site_fract_y
 _atom_site_fract_z
 _atom_site_occupancy
  Nd  Nd0  1  0.000000  0.677710  0.587481  1
  Y  Y1  1  0.000000  0.445787  0.124251  1
  Y  Y2  1  0.000000  0.554754  0.873667  1
  Y  Y3  1  0.000000  0.944494  0.374500  1
  Y  Y4  1  0.000000  0.053561  0.625922  1
  Pa  Pa5  1  0.000000  0.822951  0.087176  1
  Pa  Pa6  1  0.000000  0.176509  0.912722  1
  Pa  Pa7  1  0.000000  0.324133  0.413243  1
  Re  Re8  1  0.000000  0.138583  0.177623  1
  Re  Re9  1  0.000000  0.865168  0.826660  1
  Re  Re10  1  0.000000  0.638024  0.317833  1
  Re  Re11  1  0.000000  0.357478  0.679240  1
  B  B12  1  0.500000  0.053488  0.067838  1
  B  B13  1  0.500000  0.947821  0.934260  1
  B  B14  1  0.500000  0.552146  0.429932  1
  B  B15  1  0.500000  0.443378  0.567076  1
  B  B16  1  0.500000  0.247272  0.079457  1
  B  B17  1  0.500000  0.753607  0.921035  1
  B  B18  1  0.500000  0.747756  0.418118  1
  B  B19  1  0.500000  0.251789  0.579134  1
  B  B20  1  0.500000  0.292851  0.233558  1
  B  B21  1  0.500000  0.709415  0.768817  1
  B  B22  1  0.500000  0.792920  0.265926  1
  B  B23  1  0.500000  0.206330  0.733906  1
  B  B24  1  0.500000  0.134045  0.314529  1
  B  B25  1  0.500000  0.868477  0.687700  1
  B  B26  1  0.500000  0.634181  0.184875  1
  B  B27  1  0.500000  0.364908  0.813887  1
  B  B28  1  0.500000  0.482860  0.285832  1
  B  B29  1  0.500000  0.514144  0.714424  1
  B  B30  1  0.500000  0.983960  0.213628  1
  B  B31  1  0.500000  0.016754  0.787319  1
  B  B32  1  0.500000  0.112055  0.468584  1
  B  B33  1  0.500000  0.890950  0.530519  1
  B  B34  1  0.500000  0.616847  0.031787  1
  B  B35  1  0.500000  0.382890  0.967539  1
