# generated using pymatgen
data_Lu4Hf3ZrPt4
_symmetry_space_group_name_H-M   'P 1'
_cell_length_a   4.63875700
_cell_length_b   6.98163328
_cell_length_c   8.18181924
_cell_angle_alpha   90.17181862
_cell_angle_beta   90.00000000
_cell_angle_gamma   90.00000000
_symmetry_Int_Tables_number   1
_chemical_formula_structural   Lu4Hf3ZrPt4
_chemical_formula_sum   'Lu4 Hf3 Zr1 Pt4'
_cell_volume   264.97602645
_cell_formula_units_Z   1
loop_
 _symmetry_equiv_pos_site_id
 _symmetry_equiv_pos_as_xyz
  1  'x, y, z'
loop_
 _atom_site_type_symbol
 _atom_site_label
 _atom_site_symmetry_multiplicity
 _atom_site_fract_x
 _atom_site_fract_y
 _atom_site_fract_z
 _atom_site_occupancy
  Lu  Lu0  1  0.250000  0.016867  0.677004  1
  Lu  Lu1  1  0.250000  0.518152  0.822805  1
  Lu  Lu2  1  0.750000  0.982366  0.321992  1
  Lu  Lu3  1  0.750000  0.481514  0.177502  1
  Hf  Hf4  1  0.250000  0.145585  0.077010  1
  Hf  Hf5  1  0.250000  0.646879  0.422119  1
  Hf  Hf6  1  0.750000  0.852967  0.923443  1
  Zr  Zr7  1  0.750000  0.353200  0.578513  1
  Pt  Pt8  1  0.250000  0.266071  0.398954  1
  Pt  Pt9  1  0.250000  0.765417  0.097474  1
  Pt  Pt10  1  0.750000  0.738137  0.596687  1
  Pt  Pt11  1  0.750000  0.232847  0.906497  1
