# generated using pymatgen
data_Yb2Lu2B12IrRu
_symmetry_space_group_name_H-M   'P 1'
_cell_length_a   3.60110800
_cell_length_b   9.08384799
_cell_length_c   11.48278851
_cell_angle_alpha   90.07582214
_cell_angle_beta   90.00000000
_cell_angle_gamma   90.00000000
_symmetry_Int_Tables_number   1
_chemical_formula_structural   Yb2Lu2B12IrRu
_chemical_formula_sum   'Yb4 Lu4 B24 Ir2 Ru2'
_cell_volume   375.62370349
_cell_formula_units_Z   2
loop_
 _symmetry_equiv_pos_site_id
 _symmetry_equiv_pos_as_xyz
  1  'x, y, z'
loop_
 _atom_site_type_symbol
 _atom_site_label
 _atom_site_symmetry_multiplicity
 _atom_site_fract_x
 _atom_site_fract_y
 _atom_site_fract_z
 _atom_site_occupancy
  Yb  Yb0  1  0.000000  0.321173  0.413242  1
  Yb  Yb1  1  0.000000  0.678827  0.586758  1
  Yb  Yb2  1  0.000000  0.825944  0.083667  1
  Yb  Yb3  1  0.000000  0.174056  0.916333  1
  Lu  Lu4  1  0.000000  0.945628  0.369043  1
  Lu  Lu5  1  0.000000  0.054372  0.630957  1
  Lu  Lu6  1  0.000000  0.439843  0.129028  1
  Lu  Lu7  1  0.000000  0.560157  0.870972  1
  B  B8  1  0.500000  0.554972  0.432987  1
  B  B9  1  0.500000  0.445028  0.567013  1
  B  B10  1  0.500000  0.054421  0.067607  1
  B  B11  1  0.500000  0.945579  0.932393  1
  B  B12  1  0.500000  0.750066  0.418431  1
  B  B13  1  0.500000  0.249934  0.581569  1
  B  B14  1  0.500000  0.248833  0.082360  1
  B  B15  1  0.500000  0.751167  0.917640  1
  B  B16  1  0.500000  0.791527  0.263990  1
  B  B17  1  0.500000  0.208473  0.736010  1
  B  B18  1  0.500000  0.291457  0.235503  1
  B  B19  1  0.500000  0.708543  0.764497  1
  B  B20  1  0.500000  0.630631  0.184122  1
  B  B21  1  0.500000  0.369369  0.815878  1
  B  B22  1  0.500000  0.130978  0.315277  1
  B  B23  1  0.500000  0.869022  0.684723  1
  B  B24  1  0.500000  0.983806  0.212022  1
  B  B25  1  0.500000  0.016194  0.787978  1
  B  B26  1  0.500000  0.482909  0.288053  1
  B  B27  1  0.500000  0.517091  0.711947  1
  B  B28  1  0.500000  0.598831  0.027221  1
  B  B29  1  0.500000  0.401169  0.972779  1
  B  B30  1  0.500000  0.098902  0.473382  1
  B  B31  1  0.500000  0.901098  0.526618  1
  Ir  Ir32  1  0.000000  0.639057  0.319964  1
  Ir  Ir33  1  0.000000  0.360943  0.680036  1
  Ru  Ru34  1  0.000000  0.139780  0.181299  1
  Ru  Ru35  1  0.000000  0.860220  0.818701  1
