# generated using pymatgen
data_Hf18Re7MoRuSe
_symmetry_space_group_name_H-M   'P 1'
_cell_length_a   8.63236015
_cell_length_b   8.63236034
_cell_length_c   8.60934200
_cell_angle_alpha   90.00000000
_cell_angle_beta   90.00000000
_cell_angle_gamma   120.02105656
_symmetry_Int_Tables_number   1
_chemical_formula_structural   Hf18Re7MoRuSe
_chemical_formula_sum   'Hf18 Re7 Mo1 Ru1 Se1'
_cell_volume   555.47883508
_cell_formula_units_Z   1
loop_
 _symmetry_equiv_pos_site_id
 _symmetry_equiv_pos_as_xyz
  1  'x, y, z'
loop_
 _atom_site_type_symbol
 _atom_site_label
 _atom_site_symmetry_multiplicity
 _atom_site_fract_x
 _atom_site_fract_y
 _atom_site_fract_z
 _atom_site_occupancy
  Hf  Hf0  1  0.196762  0.803238  0.444901  1
  Hf  Hf1  1  0.196703  0.393377  0.445174  1
  Hf  Hf2  1  0.606623  0.803297  0.445174  1
  Hf  Hf3  1  0.808353  0.191647  0.547810  1
  Hf  Hf4  1  0.807993  0.616509  0.547498  1
  Hf  Hf5  1  0.383491  0.192007  0.547498  1
  Hf  Hf6  1  0.808353  0.191647  0.952190  1
  Hf  Hf7  1  0.807993  0.616509  0.952502  1
  Hf  Hf8  1  0.383491  0.192007  0.952502  1
  Hf  Hf9  1  0.196762  0.803238  0.055099  1
  Hf  Hf10  1  0.196703  0.393377  0.054826  1
  Hf  Hf11  1  0.606623  0.803297  0.054826  1
  Hf  Hf12  1  0.541900  0.458100  0.250000  1
  Hf  Hf13  1  0.542118  0.083949  0.250000  1
  Hf  Hf14  1  0.916051  0.457882  0.250000  1
  Hf  Hf15  1  0.455705  0.544295  0.750000  1
  Hf  Hf16  1  0.456189  0.911384  0.750000  1
  Hf  Hf17  1  0.088616  0.543811  0.750000  1
  Re  Re18  1  0.889415  0.110585  0.250000  1
  Re  Re19  1  0.889400  0.778921  0.250000  1
  Re  Re20  1  0.221079  0.110600  0.250000  1
  Re  Re21  1  0.110545  0.221093  0.750000  1
  Re  Re22  1  0.778907  0.889455  0.750000  1
  Re  Re23  1  0.999891  0.000109  0.498754  1
  Re  Re24  1  0.999891  0.000109  0.001246  1
  Mo  Mo25  1  0.110192  0.889808  0.750000  1
  Ru  Ru26  1  0.333476  0.666524  0.250000  1
  Se  Se27  1  0.666778  0.333222  0.750000  1
