# generated using pymatgen
data_Lu9Th3Tc3Ir
_symmetry_space_group_name_H-M   'P 1'
_cell_length_a   6.27515625
_cell_length_b   7.27180761
_cell_length_c   9.19773100
_cell_angle_alpha   90.00000000
_cell_angle_beta   90.00000000
_cell_angle_gamma   90.17458951
_symmetry_Int_Tables_number   1
_chemical_formula_structural   Lu9Th3Tc3Ir
_chemical_formula_sum   'Lu9 Th3 Tc3 Ir1'
_cell_volume   419.70641958
_cell_formula_units_Z   1
loop_
 _symmetry_equiv_pos_site_id
 _symmetry_equiv_pos_as_xyz
  1  'x, y, z'
loop_
 _atom_site_type_symbol
 _atom_site_label
 _atom_site_symmetry_multiplicity
 _atom_site_fract_x
 _atom_site_fract_y
 _atom_site_fract_z
 _atom_site_occupancy
  Lu  Lu0  1  0.332790  0.679340  0.062197  1
  Lu  Lu1  1  0.164226  0.171645  0.437280  1
  Lu  Lu2  1  0.662069  0.323564  0.565827  1
  Lu  Lu3  1  0.832643  0.825084  0.932023  1
  Lu  Lu4  1  0.662069  0.323564  0.934173  1
  Lu  Lu5  1  0.832643  0.825084  0.567977  1
  Lu  Lu6  1  0.332790  0.679340  0.437803  1
  Lu  Lu7  1  0.164226  0.171645  0.062720  1
  Lu  Lu8  1  0.373775  0.965316  0.750000  1
  Th  Th9  1  0.865059  0.545373  0.250000  1
  Th  Th10  1  0.633503  0.047295  0.250000  1
  Th  Th11  1  0.139261  0.450933  0.750000  1
  Tc  Tc12  1  0.019432  0.869261  0.250000  1
  Tc  Tc13  1  0.472886  0.369994  0.250000  1
  Tc  Tc14  1  0.968694  0.130840  0.750000  1
  Ir  Ir15  1  0.543934  0.621720  0.750000  1
