# generated using pymatgen
data_Dy5Y5Er2Co5Hg
_symmetry_space_group_name_H-M   'P 1'
_cell_length_a   8.26454346
_cell_length_b   8.26656020
_cell_length_c   8.26454488
_cell_angle_alpha   107.97339699
_cell_angle_beta   109.99667094
_cell_angle_gamma   110.44442364
_symmetry_Int_Tables_number   1
_chemical_formula_structural   Dy5Y5Er2Co5Hg
_chemical_formula_sum   'Dy5 Y5 Er2 Co5 Hg1'
_cell_volume   434.47543105
_cell_formula_units_Z   1
loop_
 _symmetry_equiv_pos_site_id
 _symmetry_equiv_pos_as_xyz
  1  'x, y, z'
loop_
 _atom_site_type_symbol
 _atom_site_label
 _atom_site_symmetry_multiplicity
 _atom_site_fract_x
 _atom_site_fract_y
 _atom_site_fract_z
 _atom_site_occupancy
  Dy  Dy0  1  0.696435  0.012797  0.316363  1
  Dy  Dy1  1  0.193384  0.208270  0.402689  1
  Dy  Dy2  1  0.807795  0.791282  0.598967  1
  Dy  Dy3  1  0.192314  0.791282  0.983485  1
  Dy  Dy4  1  0.805582  0.208270  0.014887  1
  Y  Y5  1  0.477461  0.291496  0.185476  1
  Y  Y6  1  0.106020  0.291496  0.814034  1
  Y  Y7  1  0.893044  0.707846  0.185323  1
  Y  Y8  1  0.522523  0.707846  0.814802  1
  Y  Y9  1  0.301649  0.618153  0.316504  1
  Er  Er10  1  0.304390  0.987593  0.683202  1
  Er  Er11  1  0.695634  0.379235  0.683602  1
  Co  Co12  1  0.500671  0.612932  0.112261  1
  Co  Co13  1  0.499677  0.384288  0.884611  1
  Co  Co14  1  0.380574  0.002553  0.380603  1
  Co  Co15  1  0.621950  0.002553  0.621980  1
  Co  Co16  1  0.000617  0.000950  0.000333  1
  Hg  Hg17  1  0.000278  0.501159  0.500879  1
