# generated using pymatgen
data_RbPb(CO3)2
_symmetry_space_group_name_H-M   'P 1'
_cell_length_a   7.39901580
_cell_length_b   7.39894136
_cell_length_c   7.39898030
_cell_angle_alpha   43.10972192
_cell_angle_beta   43.10875542
_cell_angle_gamma   43.10947521
_symmetry_Int_Tables_number   1
_chemical_formula_structural   RbPb(CO3)2
_chemical_formula_sum   'Rb1 Pb1 C2 O6'
_cell_volume   171.50369193
_cell_formula_units_Z   1
loop_
 _symmetry_equiv_pos_site_id
 _symmetry_equiv_pos_as_xyz
  1  'x, y, z'
loop_
 _atom_site_type_symbol
 _atom_site_label
 _atom_site_symmetry_multiplicity
 _atom_site_fract_x
 _atom_site_fract_y
 _atom_site_fract_z
 _atom_site_occupancy
  Rb  Rb0  1  0.000000  0.000000  0.000000  1
  Pb  Pb1  1  0.500000  0.500000  0.500000  1
  C  C2  1  0.237382  0.237381  0.237398  1
  C  C3  1  0.762618  0.762619  0.762602  1
  O  O4  1  0.739709  0.535184  0.010119  1
  O  O5  1  0.464809  0.989883  0.260302  1
  O  O6  1  0.989872  0.260291  0.464825  1
  O  O7  1  0.010128  0.739709  0.535175  1
  O  O8  1  0.535191  0.010117  0.739698  1
  O  O9  1  0.260291  0.464816  0.989881  1
