# generated using pymatgen
data_Tb2ErHfIn2Ir3
_symmetry_space_group_name_H-M   'P 1'
_cell_length_a   7.40998499
_cell_length_b   7.23857187
_cell_length_c   4.18300700
_cell_angle_alpha   90.00000000
_cell_angle_beta   90.00000000
_cell_angle_gamma   119.11600816
_symmetry_Int_Tables_number   1
_chemical_formula_structural   Tb2ErHfIn2Ir3
_chemical_formula_sum   'Tb2 Er1 Hf1 In2 Ir3'
_cell_volume   196.01508076
_cell_formula_units_Z   1
loop_
 _symmetry_equiv_pos_site_id
 _symmetry_equiv_pos_as_xyz
  1  'x, y, z'
loop_
 _atom_site_type_symbol
 _atom_site_label
 _atom_site_symmetry_multiplicity
 _atom_site_fract_x
 _atom_site_fract_y
 _atom_site_fract_z
 _atom_site_occupancy
  Tb  Tb0  1  0.582478  0.995531  0.000000  1
  Tb  Tb1  1  0.999623  0.604258  0.000000  1
  Er  Er2  1  0.415565  0.412460  0.000000  1
  Hf  Hf3  1  0.000886  0.246887  0.500000  1
  In  In4  1  0.744828  0.746331  0.500000  1
  In  In5  1  0.254686  0.002182  0.500000  1
  Ir  Ir6  1  0.002146  0.023302  0.000000  1
  Ir  Ir7  1  0.317546  0.641744  0.500000  1
  Ir  Ir8  1  0.682242  0.327303  0.500000  1
