# generated using pymatgen
data_Er2Fe(BIr)4
_symmetry_space_group_name_H-M   'P 1'
_cell_length_a   7.40308694
_cell_length_b   6.24270648
_cell_length_c   5.51854306
_cell_angle_alpha   77.74941240
_cell_angle_beta   55.49283378
_cell_angle_gamma   46.75774592
_symmetry_Int_Tables_number   1
_chemical_formula_structural   Er2Fe(BIr)4
_chemical_formula_sum   'Er2 Fe1 B4 Ir4'
_cell_volume   146.37799259
_cell_formula_units_Z   1
loop_
 _symmetry_equiv_pos_site_id
 _symmetry_equiv_pos_as_xyz
  1  'x, y, z'
loop_
 _atom_site_type_symbol
 _atom_site_label
 _atom_site_symmetry_multiplicity
 _atom_site_fract_x
 _atom_site_fract_y
 _atom_site_fract_z
 _atom_site_occupancy
  Er  Er0  1  0.857841  0.857840  0.142160  1
  Er  Er1  1  0.142160  0.142160  0.857840  1
  Fe  Fe2  1  0.749999  0.750002  0.750000  1
  B  B3  1  0.498248  0.777516  0.188490  1
  B  B4  1  0.188490  0.535747  0.498248  1
  B  B5  1  0.777516  0.498248  0.535747  1
  B  B6  1  0.535747  0.188490  0.777516  1
  Ir  Ir7  1  0.502506  0.502509  0.997492  1
  Ir  Ir8  1  0.249998  0.250001  0.250001  1
  Ir  Ir9  1  0.997492  0.997492  0.502508  1
  Ir  Ir10  1  0.500000  0.499999  0.500000  1
