# generated using pymatgen
data_Tb3Tm(CrB4)4
_symmetry_space_group_name_H-M   'P 1'
_cell_length_a   3.44538400
_cell_length_b   5.93391681
_cell_length_c   11.46888256
_cell_angle_alpha   89.94014925
_cell_angle_beta   90.00000000
_cell_angle_gamma   90.00000000
_symmetry_Int_Tables_number   1
_chemical_formula_structural   Tb3Tm(CrB4)4
_chemical_formula_sum   'Tb3 Tm1 Cr4 B16'
_cell_volume   234.47684123
_cell_formula_units_Z   1
loop_
 _symmetry_equiv_pos_site_id
 _symmetry_equiv_pos_as_xyz
  1  'x, y, z'
loop_
 _atom_site_type_symbol
 _atom_site_label
 _atom_site_symmetry_multiplicity
 _atom_site_fract_x
 _atom_site_fract_y
 _atom_site_fract_z
 _atom_site_occupancy
  Tb  Tb0  1  0.000000  0.624232  0.349204  1
  Tb  Tb1  1  0.000000  0.375546  0.651312  1
  Tb  Tb2  1  0.000000  0.124434  0.150546  1
  Tm  Tm3  1  0.000000  0.875775  0.849318  1
  Cr  Cr4  1  0.000000  0.624464  0.079869  1
  Cr  Cr5  1  0.000000  0.376257  0.918628  1
  Cr  Cr6  1  0.000000  0.123496  0.419708  1
  Cr  Cr7  1  0.000000  0.876049  0.581569  1
  B  B8  1  0.500000  0.780799  0.183545  1
  B  B9  1  0.500000  0.217593  0.816043  1
  B  B10  1  0.500000  0.280528  0.316062  1
  B  B11  1  0.500000  0.719534  0.685285  1
  B  B12  1  0.500000  0.863166  0.031249  1
  B  B13  1  0.500000  0.136961  0.966670  1
  B  B14  1  0.500000  0.362105  0.467906  1
  B  B15  1  0.500000  0.637666  0.533130  1
  B  B16  1  0.500000  0.886755  0.453760  1
  B  B17  1  0.500000  0.112528  0.547253  1
  B  B18  1  0.500000  0.387384  0.045785  1
  B  B19  1  0.500000  0.614692  0.952283  1
  B  B20  1  0.500000  0.974962  0.308956  1
  B  B21  1  0.500000  0.023946  0.692557  1
  B  B22  1  0.500000  0.475090  0.190710  1
  B  B23  1  0.500000  0.526040  0.808651  1
