# generated using pymatgen
data_Ba3GaSb3
_symmetry_space_group_name_H-M   'P 1'
_cell_length_a   7.28058100
_cell_length_b   11.30205499
_cell_length_c   14.27142800
_cell_angle_alpha   90.00000000
_cell_angle_beta   90.00000000
_cell_angle_gamma   108.78942590
_symmetry_Int_Tables_number   1
_chemical_formula_structural   Ba3GaSb3
_chemical_formula_sum   'Ba12 Ga4 Sb12'
_cell_volume   1111.75031622
_cell_formula_units_Z   4
loop_
 _symmetry_equiv_pos_site_id
 _symmetry_equiv_pos_as_xyz
  1  'x, y, z'
loop_
 _atom_site_type_symbol
 _atom_site_label
 _atom_site_symmetry_multiplicity
 _atom_site_fract_x
 _atom_site_fract_y
 _atom_site_fract_z
 _atom_site_occupancy
  Ba  Ba0  1  0.477054  0.348869  0.128084  1
  Ba  Ba1  1  0.628186  0.651131  0.371916  1
  Ba  Ba2  1  0.022946  0.651131  0.628084  1
  Ba  Ba3  1  0.871814  0.348869  0.871916  1
  Ba  Ba4  1  0.522946  0.651131  0.871916  1
  Ba  Ba5  1  0.371814  0.348869  0.628084  1
  Ba  Ba6  1  0.977054  0.348869  0.371916  1
  Ba  Ba7  1  0.128186  0.651131  0.128084  1
  Ba  Ba8  1  0.188280  0.000000  0.353850  1
  Ba  Ba9  1  0.688280  0.000000  0.146150  1
  Ba  Ba10  1  0.311720  0.000000  0.853850  1
  Ba  Ba11  1  0.811720  0.000000  0.646150  1
  Ga  Ga12  1  0.414078  0.828156  0.500000  1
  Ga  Ga13  1  0.085922  0.171844  0.000000  1
  Ga  Ga14  1  0.585922  0.171844  0.500000  1
  Ga  Ga15  1  0.914078  0.828156  0.000000  1
  Sb  Sb16  1  0.957094  0.318543  0.120835  1
  Sb  Sb17  1  0.138552  0.681457  0.379165  1
  Sb  Sb18  1  0.542906  0.681457  0.620835  1
  Sb  Sb19  1  0.361448  0.318543  0.879165  1
  Sb  Sb20  1  0.042906  0.681457  0.879165  1
  Sb  Sb21  1  0.861448  0.318543  0.620835  1
  Sb  Sb22  1  0.457094  0.318543  0.379165  1
  Sb  Sb23  1  0.638552  0.681457  0.120835  1
  Sb  Sb24  1  0.296752  0.000000  0.602552  1
  Sb  Sb25  1  0.796752  0.000000  0.897448  1
  Sb  Sb26  1  0.203248  0.000000  0.102552  1
  Sb  Sb27  1  0.703248  0.000000  0.397448  1
