# generated using pymatgen
data_TmTh2In3Ir2Rh
_symmetry_space_group_name_H-M   'P 1'
_cell_length_a   7.66485100
_cell_length_b   7.73438466
_cell_length_c   3.90290400
_cell_angle_alpha   90.00000000
_cell_angle_beta   90.00000000
_cell_angle_gamma   119.70305383
_symmetry_Int_Tables_number   1
_chemical_formula_structural   TmTh2In3Ir2Rh
_chemical_formula_sum   'Tm1 Th2 In3 Ir2 Rh1'
_cell_volume   200.97393261
_cell_formula_units_Z   1
loop_
 _symmetry_equiv_pos_site_id
 _symmetry_equiv_pos_as_xyz
  1  'x, y, z'
loop_
 _atom_site_type_symbol
 _atom_site_label
 _atom_site_symmetry_multiplicity
 _atom_site_fract_x
 _atom_site_fract_y
 _atom_site_fract_z
 _atom_site_occupancy
  Tm  Tm0  1  0.409133  0.000000  0.500000  1
  Th  Th1  1  0.001979  0.415055  0.500000  1
  Th  Th2  1  0.586925  0.584945  0.500000  1
  In  In3  1  0.253403  0.238600  0.000000  1
  In  In4  1  0.014803  0.761400  0.000000  1
  In  In5  1  0.732346  0.000000  0.000000  1
  Ir  Ir6  1  0.330814  0.650311  0.000000  1
  Ir  Ir7  1  0.680504  0.349689  0.000000  1
  Rh  Rh8  1  0.990091  0.000000  0.500000  1
