# generated using pymatgen
data_Cs6Ho(BiI6)3
_symmetry_space_group_name_H-M   'P 1'
_cell_length_a   8.60847739
_cell_length_b   8.59753124
_cell_length_c   22.08112776
_cell_angle_alpha   91.11310327
_cell_angle_beta   88.94890143
_cell_angle_gamma   60.12051158
_symmetry_Int_Tables_number   1
_chemical_formula_structural   Cs6Ho(BiI6)3
_chemical_formula_sum   'Cs6 Ho1 Bi3 I18'
_cell_volume   1416.01918238
_cell_formula_units_Z   1
loop_
 _symmetry_equiv_pos_site_id
 _symmetry_equiv_pos_as_xyz
  1  'x, y, z'
loop_
 _atom_site_type_symbol
 _atom_site_label
 _atom_site_symmetry_multiplicity
 _atom_site_fract_x
 _atom_site_fract_y
 _atom_site_fract_z
 _atom_site_occupancy
  Cs  Cs0  1  0.326858  0.334388  0.071987  1
  Cs  Cs1  1  0.336378  0.324709  0.429533  1
  Cs  Cs2  1  0.676477  0.662014  0.930413  1
  Cs  Cs3  1  0.662967  0.675512  0.575643  1
  Cs  Cs4  1  0.003792  0.003791  0.750396  1
  Cs  Cs5  1  0.994299  0.997244  0.244220  1
  Ho  Ho6  1  0.652740  0.675223  0.156921  1
  Bi  Bi7  1  0.674957  0.652792  0.343674  1
  Bi  Bi8  1  0.346970  0.325184  0.843650  1
  Bi  Bi9  1  0.325029  0.346911  0.656737  1
  I  I10  1  0.504561  0.998627  0.740970  1
  I  I11  1  0.998629  0.504805  0.758435  1
  I  I12  1  0.499961  0.991589  0.254861  1
  I  I13  1  0.990097  0.501747  0.238027  1
  I  I14  1  0.191170  0.145268  0.917124  1
  I  I15  1  0.144569  0.191153  0.582572  1
  I  I16  1  0.807838  0.854993  0.086656  1
  I  I17  1  0.855322  0.809335  0.416482  1
  I  I18  1  0.504829  0.504315  0.749666  1
  I  I19  1  0.499923  0.501053  0.246339  1
  I  I20  1  0.651422  0.187036  0.575044  1
  I  I21  1  0.186853  0.651668  0.924928  1
  I  I22  1  0.348652  0.813211  0.424779  1
  I  I23  1  0.813316  0.349138  0.078693  1
  I  I24  1  0.691713  0.149927  0.908809  1
  I  I25  1  0.148972  0.692860  0.591131  1
  I  I26  1  0.309879  0.849628  0.094809  1
  I  I27  1  0.851819  0.305883  0.407501  1
