# generated using pymatgen
data_Ta3NbCo2(B3Mo)2
_symmetry_space_group_name_H-M   'P 1'
_cell_length_a   3.22842600
_cell_length_b   4.59008096
_cell_length_c   10.99759467
_cell_angle_alpha   90.03746630
_cell_angle_beta   90.00000000
_cell_angle_gamma   110.58973693
_symmetry_Int_Tables_number   1
_chemical_formula_structural   Ta3NbCo2(B3Mo)2
_chemical_formula_sum   'Ta3 Nb1 Co2 B6 Mo2'
_cell_volume   152.56028418
_cell_formula_units_Z   1
loop_
 _symmetry_equiv_pos_site_id
 _symmetry_equiv_pos_as_xyz
  1  'x, y, z'
loop_
 _atom_site_type_symbol
 _atom_site_label
 _atom_site_symmetry_multiplicity
 _atom_site_fract_x
 _atom_site_fract_y
 _atom_site_fract_z
 _atom_site_occupancy
  Ta  Ta0  1  0.792039  0.584078  0.606240  1
  Ta  Ta1  1  0.207897  0.415792  0.106375  1
  Ta  Ta2  1  0.792036  0.584074  0.893624  1
  Nb  Nb3  1  0.208300  0.416599  0.393312  1
  Co  Co4  1  0.499682  0.999363  0.500408  1
  Co  Co5  1  0.500066  0.000132  0.999894  1
  B  B6  1  0.912807  0.825614  0.394355  1
  B  B7  1  0.087181  0.174363  0.605814  1
  B  B8  1  0.912616  0.825233  0.105530  1
  B  B9  1  0.087401  0.174802  0.894496  1
  B  B10  1  0.795422  0.590846  0.249684  1
  B  B11  1  0.205072  0.410143  0.749949  1
  Mo  Mo12  1  0.497841  0.995679  0.249976  1
  Mo  Mo13  1  0.501640  0.003282  0.750342  1
