# generated using pymatgen
data_Ba5FeOs3O16
_symmetry_space_group_name_H-M   'P 1'
_cell_length_a   6.04829508
_cell_length_b   6.05496664
_cell_length_c   10.34524558
_cell_angle_alpha   93.26470348
_cell_angle_beta   93.22901206
_cell_angle_gamma   89.69671937
_symmetry_Int_Tables_number   1
_chemical_formula_structural   Ba5FeOs3O16
_chemical_formula_sum   'Ba5 Fe1 Os3 O16'
_cell_volume   377.64969625
_cell_formula_units_Z   1
loop_
 _symmetry_equiv_pos_site_id
 _symmetry_equiv_pos_as_xyz
  1  'x, y, z'
loop_
 _atom_site_type_symbol
 _atom_site_label
 _atom_site_symmetry_multiplicity
 _atom_site_fract_x
 _atom_site_fract_y
 _atom_site_fract_z
 _atom_site_occupancy
  Ba  Ba0  1  0.509909  0.030456  0.191315  1
  Ba  Ba1  1  0.030999  0.509032  0.191414  1
  Ba  Ba2  1  0.000065  0.000025  0.500003  1
  Ba  Ba3  1  0.968932  0.490915  0.808568  1
  Ba  Ba4  1  0.490037  0.969444  0.808687  1
  Fe  Fe5  1  0.499865  0.499787  0.000021  1
  Os  Os6  1  0.999925  0.999992  0.999998  1
  Os  Os7  1  0.563541  0.563339  0.387592  1
  Os  Os8  1  0.436526  0.436737  0.612479  1
  O  O9  1  0.766195  0.227034  0.999505  1
  O  O10  1  0.776884  0.771016  0.018171  1
  O  O11  1  0.040461  0.042252  0.178531  1
  O  O12  1  0.482083  0.480837  0.195047  1
  O  O13  1  0.762136  0.762344  0.327722  1
  O  O14  1  0.321025  0.746872  0.374515  1
  O  O15  1  0.748266  0.321913  0.375012  1
  O  O16  1  0.329906  0.329040  0.438102  1
  O  O17  1  0.670155  0.671082  0.561880  1
  O  O18  1  0.251759  0.678223  0.625005  1
  O  O19  1  0.679076  0.253163  0.625454  1
  O  O20  1  0.237904  0.237712  0.672253  1
  O  O21  1  0.517897  0.519089  0.805002  1
  O  O22  1  0.959595  0.957851  0.821434  1
  O  O23  1  0.223153  0.228989  0.981819  1
  O  O24  1  0.233702  0.772847  0.000485  1
