# generated using pymatgen
data_YEr7Mn(B8Ru)3
_symmetry_space_group_name_H-M   'P 1'
_cell_length_a   3.61784800
_cell_length_b   9.09415820
_cell_length_c   11.47219000
_cell_angle_alpha   89.98870562
_cell_angle_beta   90.00000000
_cell_angle_gamma   90.00000000
_symmetry_Int_Tables_number   1
_chemical_formula_structural   YEr7Mn(B8Ru)3
_chemical_formula_sum   'Y1 Er7 Mn1 B24 Ru3'
_cell_volume   377.44975171
_cell_formula_units_Z   1
loop_
 _symmetry_equiv_pos_site_id
 _symmetry_equiv_pos_as_xyz
  1  'x, y, z'
loop_
 _atom_site_type_symbol
 _atom_site_label
 _atom_site_symmetry_multiplicity
 _atom_site_fract_x
 _atom_site_fract_y
 _atom_site_fract_z
 _atom_site_occupancy
  Y  Y0  1  0.000000  0.325778  0.412730  1
  Er  Er1  1  0.000000  0.676396  0.581808  1
  Er  Er2  1  0.000000  0.820359  0.088547  1
  Er  Er3  1  0.000000  0.177378  0.915225  1
  Er  Er4  1  0.000000  0.940281  0.371404  1
  Er  Er5  1  0.000000  0.056582  0.627903  1
  Er  Er6  1  0.000000  0.445986  0.130285  1
  Er  Er7  1  0.000000  0.556779  0.871792  1
  Mn  Mn8  1  0.000000  0.638544  0.320641  1
  B  B9  1  0.500000  0.554759  0.431690  1
  B  B10  1  0.500000  0.447021  0.566797  1
  B  B11  1  0.500000  0.053493  0.067029  1
  B  B12  1  0.500000  0.946403  0.933514  1
  B  B13  1  0.500000  0.746462  0.417834  1
  B  B14  1  0.500000  0.251670  0.580456  1
  B  B15  1  0.500000  0.248967  0.080576  1
  B  B16  1  0.500000  0.751701  0.920065  1
  B  B17  1  0.500000  0.789859  0.266428  1
  B  B18  1  0.500000  0.208446  0.734301  1
  B  B19  1  0.500000  0.291678  0.233798  1
  B  B20  1  0.500000  0.708670  0.765695  1
  B  B21  1  0.500000  0.631926  0.186680  1
  B  B22  1  0.500000  0.368390  0.815290  1
  B  B23  1  0.500000  0.130884  0.314470  1
  B  B24  1  0.500000  0.868077  0.684702  1
  B  B25  1  0.500000  0.982108  0.212691  1
  B  B26  1  0.500000  0.017149  0.787628  1
  B  B27  1  0.500000  0.486018  0.287976  1
  B  B28  1  0.500000  0.517354  0.712451  1
  B  B29  1  0.500000  0.607037  0.029820  1
  B  B30  1  0.500000  0.393390  0.970832  1
  B  B31  1  0.500000  0.105946  0.470390  1
  B  B32  1  0.500000  0.892806  0.529232  1
  Ru  Ru33  1  0.000000  0.361745  0.679814  1
  Ru  Ru34  1  0.000000  0.137772  0.178444  1
  Ru  Ru35  1  0.000000  0.862183  0.821062  1
