# generated using pymatgen
data_Dy3Lu2Pb3
_symmetry_space_group_name_H-M   'P 1'
_cell_length_a   6.52837500
_cell_length_b   9.00736752
_cell_length_c   9.00676407
_cell_angle_alpha   120.00221298
_cell_angle_beta   90.00002150
_cell_angle_gamma   89.99995497
_symmetry_Int_Tables_number   1
_chemical_formula_structural   Dy3Lu2Pb3
_chemical_formula_sum   'Dy6 Lu4 Pb6'
_cell_volume   458.66194614
_cell_formula_units_Z   2
loop_
 _symmetry_equiv_pos_site_id
 _symmetry_equiv_pos_as_xyz
  1  'x, y, z'
loop_
 _atom_site_type_symbol
 _atom_site_label
 _atom_site_symmetry_multiplicity
 _atom_site_fract_x
 _atom_site_fract_y
 _atom_site_fract_z
 _atom_site_occupancy
  Dy  Dy0  1  0.750005  0.237635  0.000000  1
  Dy  Dy1  1  0.750008  0.762405  0.762378  1
  Dy  Dy2  1  0.750008  0.000028  0.237622  1
  Dy  Dy3  1  0.249997  0.762382  0.000000  1
  Dy  Dy4  1  0.249998  0.237592  0.237625  1
  Dy  Dy5  1  0.249998  0.999966  0.762375  1
  Lu  Lu6  1  0.500002  0.333318  0.666682  1
  Lu  Lu7  1  0.500002  0.666636  0.333318  1
  Lu  Lu8  1  0.000000  0.666685  0.333315  1
  Lu  Lu9  1  0.000000  0.333369  0.666685  1
  Pb  Pb10  1  0.749986  0.603954  0.000000  1
  Pb  Pb11  1  0.750004  0.396082  0.396139  1
  Pb  Pb12  1  0.750004  0.999944  0.603861  1
  Pb  Pb13  1  0.249986  0.396046  0.000000  1
  Pb  Pb14  1  0.250001  0.603913  0.603864  1
  Pb  Pb15  1  0.250001  0.000048  0.396136  1
