# generated using pymatgen
data_Tb4TmTh3TlZnRu2
_symmetry_space_group_name_H-M   'P 1'
_cell_length_a   9.57018404
_cell_length_b   9.64875851
_cell_length_c   9.65586000
_cell_angle_alpha   59.43786529
_cell_angle_beta   60.24411955
_cell_angle_gamma   60.31798935
_symmetry_Int_Tables_number   1
_chemical_formula_structural   Tb4TmTh3TlZnRu2
_chemical_formula_sum   'Tb8 Tm2 Th6 Tl2 Zn2 Ru4'
_cell_volume   630.38356268
_cell_formula_units_Z   2
loop_
 _symmetry_equiv_pos_site_id
 _symmetry_equiv_pos_as_xyz
  1  'x, y, z'
loop_
 _atom_site_type_symbol
 _atom_site_label
 _atom_site_symmetry_multiplicity
 _atom_site_fract_x
 _atom_site_fract_y
 _atom_site_fract_z
 _atom_site_occupancy
  Tb  Tb0  1  0.440494  0.440494  0.059506  1
  Tb  Tb1  1  0.059495  0.059495  0.440505  1
  Tb  Tb2  1  0.191988  0.815680  0.813886  1
  Tb  Tb3  1  0.815680  0.191988  0.178446  1
  Tb  Tb4  1  0.812460  0.194340  0.811243  1
  Tb  Tb5  1  0.194340  0.812460  0.181958  1
  Tb  Tb6  1  0.811810  0.811810  0.188190  1
  Tb  Tb7  1  0.187184  0.187184  0.812816  1
  Tm  Tm8  1  0.440815  0.058030  0.442485  1
  Tm  Tm9  1  0.058030  0.440815  0.058670  1
  Th  Th10  1  0.595820  0.602565  0.603662  1
  Th  Th11  1  0.602565  0.595820  0.197954  1
  Th  Th12  1  0.598770  0.200888  0.597294  1
  Th  Th13  1  0.200888  0.598770  0.603050  1
  Th  Th14  1  0.065052  0.433845  0.435084  1
  Th  Th15  1  0.433845  0.065052  0.066018  1
  Tl  Tl16  1  0.833744  0.830269  0.834668  1
  Tl  Tl17  1  0.830269  0.833744  0.501317  1
  Zn  Zn18  1  0.829474  0.498528  0.837902  1
  Zn  Zn19  1  0.498528  0.829474  0.834095  1
  Ru  Ru20  1  0.379617  0.395624  0.399225  1
  Ru  Ru21  1  0.395624  0.379617  0.825535  1
  Ru  Ru22  1  0.400937  0.822572  0.380168  1
  Ru  Ru23  1  0.822572  0.400937  0.396324  1
