# generated using pymatgen
data_Er16Tm4Si15Au
_symmetry_space_group_name_H-M   'P 1'
_cell_length_a   7.31991811
_cell_length_b   7.62948512
_cell_length_c   14.51031000
_cell_angle_alpha   90.00000000
_cell_angle_beta   90.00000000
_cell_angle_gamma   90.54996542
_symmetry_Int_Tables_number   1
_chemical_formula_structural   Er16Tm4Si15Au
_chemical_formula_sum   'Er16 Tm4 Si15 Au1'
_cell_volume   810.32294433
_cell_formula_units_Z   1
loop_
 _symmetry_equiv_pos_site_id
 _symmetry_equiv_pos_as_xyz
  1  'x, y, z'
loop_
 _atom_site_type_symbol
 _atom_site_label
 _atom_site_symmetry_multiplicity
 _atom_site_fract_x
 _atom_site_fract_y
 _atom_site_fract_z
 _atom_site_occupancy
  Er  Er0  1  0.025044  0.823900  0.592243  1
  Er  Er1  1  0.529291  0.681943  0.593134  1
  Er  Er2  1  0.317361  0.821761  0.123554  1
  Er  Er3  1  0.816826  0.677808  0.124310  1
  Er  Er4  1  0.471975  0.316138  0.097724  1
  Er  Er5  1  0.025044  0.823900  0.907757  1
  Er  Er6  1  0.471975  0.316138  0.402276  1
  Er  Er7  1  0.529291  0.681943  0.906866  1
  Er  Er8  1  0.683023  0.179278  0.878639  1
  Er  Er9  1  0.184325  0.317884  0.619612  1
  Er  Er10  1  0.184325  0.317884  0.880388  1
  Er  Er11  1  0.816826  0.677808  0.375690  1
  Er  Er12  1  0.317361  0.821761  0.376446  1
  Er  Er13  1  0.683023  0.179278  0.621361  1
  Er  Er14  1  0.970902  0.181909  0.099238  1
  Er  Er15  1  0.970902  0.181909  0.400762  1
  Tm  Tm16  1  0.857531  0.520580  0.750000  1
  Tm  Tm17  1  0.647432  0.011246  0.250000  1
  Tm  Tm18  1  0.347564  0.985045  0.750000  1
  Tm  Tm19  1  0.146947  0.486957  0.250000  1
  Si  Si20  1  0.649832  0.971274  0.457981  1
  Si  Si21  1  0.353349  0.026495  0.540078  1
  Si  Si22  1  0.019585  0.895292  0.250000  1
  Si  Si23  1  0.733873  0.877117  0.750000  1
  Si  Si24  1  0.265486  0.127489  0.250000  1
  Si  Si25  1  0.852811  0.470869  0.538757  1
  Si  Si26  1  0.484140  0.391308  0.750000  1
  Si  Si27  1  0.146208  0.526862  0.457661  1
  Si  Si28  1  0.146208  0.526862  0.042339  1
  Si  Si29  1  0.976332  0.108242  0.750000  1
  Si  Si30  1  0.764757  0.370788  0.250000  1
  Si  Si31  1  0.353349  0.026495  0.959922  1
  Si  Si32  1  0.852811  0.470869  0.961243  1
  Si  Si33  1  0.649832  0.971274  0.042019  1
  Si  Si34  1  0.517586  0.604926  0.250000  1
  Au  Au35  1  0.236866  0.628765  0.750000  1
