# generated using pymatgen
data_Tb16Dy(ErIr4)3
_symmetry_space_group_name_H-M   'P 1'
_cell_length_a   10.92457300
_cell_length_b   10.92457300
_cell_length_c   6.38049800
_cell_angle_alpha   90.00000000
_cell_angle_beta   90.00000000
_cell_angle_gamma   90.00000000
_symmetry_Int_Tables_number   1
_chemical_formula_structural   Tb16Dy(ErIr4)3
_chemical_formula_sum   'Tb16 Dy1 Er3 Ir12'
_cell_volume   761.48879804
_cell_formula_units_Z   1
loop_
 _symmetry_equiv_pos_site_id
 _symmetry_equiv_pos_as_xyz
  1  'x, y, z'
loop_
 _atom_site_type_symbol
 _atom_site_label
 _atom_site_symmetry_multiplicity
 _atom_site_fract_x
 _atom_site_fract_y
 _atom_site_fract_z
 _atom_site_occupancy
  Tb  Tb0  1  0.290766  0.087847  0.377975  1
  Tb  Tb1  1  0.290580  0.912193  0.878094  1
  Tb  Tb2  1  0.709420  0.087807  0.878094  1
  Tb  Tb3  1  0.709234  0.912153  0.377975  1
  Tb  Tb4  1  0.587785  0.790451  0.878020  1
  Tb  Tb5  1  0.587720  0.209556  0.378054  1
  Tb  Tb6  1  0.412280  0.790444  0.378054  1
  Tb  Tb7  1  0.412215  0.209549  0.878020  1
  Tb  Tb8  1  0.209556  0.412280  0.621946  1
  Tb  Tb9  1  0.209549  0.587785  0.121980  1
  Tb  Tb10  1  0.790451  0.412215  0.121980  1
  Tb  Tb11  1  0.790444  0.587720  0.621946  1
  Tb  Tb12  1  0.912193  0.709420  0.121906  1
  Tb  Tb13  1  0.912153  0.290766  0.622025  1
  Tb  Tb14  1  0.087847  0.709234  0.622025  1
  Tb  Tb15  1  0.087807  0.290580  0.121906  1
  Dy  Dy16  1  0.000000  0.000000  0.500000  1
  Er  Er17  1  0.000000  0.000000  0.000000  1
  Er  Er18  1  0.500000  0.500000  0.000000  1
  Er  Er19  1  0.500000  0.500000  0.500000  1
  Ir  Ir20  1  0.847391  0.152605  0.249362  1
  Ir  Ir21  1  0.847395  0.847391  0.750638  1
  Ir  Ir22  1  0.152605  0.152609  0.750638  1
  Ir  Ir23  1  0.152609  0.847395  0.249362  1
  Ir  Ir24  1  0.652159  0.347857  0.749980  1
  Ir  Ir25  1  0.652143  0.652159  0.250020  1
  Ir  Ir26  1  0.347857  0.347841  0.250020  1
  Ir  Ir27  1  0.347841  0.652143  0.749980  1
  Ir  Ir28  1  0.500000  0.000000  0.121361  1
  Ir  Ir29  1  0.500000  0.000000  0.621357  1
  Ir  Ir30  1  0.000000  0.500000  0.878639  1
  Ir  Ir31  1  0.000000  0.500000  0.378643  1
