# generated using pymatgen
data_Tb3Ho3Er2(CdPt)2
_symmetry_space_group_name_H-M   'P 1'
_cell_length_a   9.66895058
_cell_length_b   9.66780799
_cell_length_c   9.66780907
_cell_angle_alpha   60.00781626
_cell_angle_beta   59.99609069
_cell_angle_gamma   59.99609171
_symmetry_Int_Tables_number   1
_chemical_formula_structural   Tb3Ho3Er2(CdPt)2
_chemical_formula_sum   'Tb6 Ho6 Er4 Cd4 Pt4'
_cell_volume   639.02876428
_cell_formula_units_Z   2
loop_
 _symmetry_equiv_pos_site_id
 _symmetry_equiv_pos_as_xyz
  1  'x, y, z'
loop_
 _atom_site_type_symbol
 _atom_site_label
 _atom_site_symmetry_multiplicity
 _atom_site_fract_x
 _atom_site_fract_y
 _atom_site_fract_z
 _atom_site_occupancy
  Tb  Tb0  1  0.935697  0.564303  0.564303  1
  Tb  Tb1  1  0.564303  0.935697  0.935697  1
  Tb  Tb2  1  0.564320  0.935680  0.564320  1
  Tb  Tb3  1  0.935680  0.564320  0.935680  1
  Tb  Tb4  1  0.564320  0.564320  0.935680  1
  Tb  Tb5  1  0.935680  0.935680  0.564320  1
  Ho  Ho6  1  0.351696  0.351776  0.351776  1
  Ho  Ho7  1  0.351776  0.351696  0.944753  1
  Ho  Ho8  1  0.351776  0.944753  0.351696  1
  Ho  Ho9  1  0.944753  0.351776  0.351776  1
  Ho  Ho10  1  0.810726  0.189274  0.189274  1
  Ho  Ho11  1  0.189274  0.810726  0.810726  1
  Er  Er12  1  0.189344  0.810656  0.189344  1
  Er  Er13  1  0.810656  0.189344  0.810656  1
  Er  Er14  1  0.189344  0.189344  0.810656  1
  Er  Er15  1  0.810656  0.810656  0.189344  1
  Cd  Cd16  1  0.581519  0.581457  0.581457  1
  Cd  Cd17  1  0.581457  0.581519  0.255566  1
  Cd  Cd18  1  0.581457  0.255566  0.581519  1
  Cd  Cd19  1  0.255566  0.581457  0.581457  1
  Pt  Pt20  1  0.143030  0.142916  0.142916  1
  Pt  Pt21  1  0.142916  0.143030  0.571137  1
  Pt  Pt22  1  0.142916  0.571137  0.143030  1
  Pt  Pt23  1  0.571137  0.142916  0.142916  1
