# generated using pymatgen
data_TmCu3AgRh
_symmetry_space_group_name_H-M   'P 1'
_cell_length_a   5.18324303
_cell_length_b   5.18324313
_cell_length_c   5.18324278
_cell_angle_alpha   57.55871793
_cell_angle_beta   57.55872303
_cell_angle_gamma   57.55871312
_symmetry_Int_Tables_number   1
_chemical_formula_structural   TmCu3AgRh
_chemical_formula_sum   'Tm1 Cu3 Ag1 Rh1'
_cell_volume   92.93972366
_cell_formula_units_Z   1
loop_
 _symmetry_equiv_pos_site_id
 _symmetry_equiv_pos_as_xyz
  1  'x, y, z'
loop_
 _atom_site_type_symbol
 _atom_site_label
 _atom_site_symmetry_multiplicity
 _atom_site_fract_x
 _atom_site_fract_y
 _atom_site_fract_z
 _atom_site_occupancy
  Tm  Tm0  1  0.252182  0.252182  0.252182  1
  Cu  Cu1  1  0.623888  0.623888  0.121895  1
  Cu  Cu2  1  0.623888  0.121895  0.623888  1
  Cu  Cu3  1  0.121895  0.623888  0.623888  1
  Ag  Ag4  1  0.004998  0.004998  0.004998  1
  Rh  Rh5  1  0.623149  0.623149  0.623149  1
