# generated using pymatgen
data_Gd12In3Tc2
_symmetry_space_group_name_H-M   'P 1'
_cell_length_a   8.57067242
_cell_length_b   8.57067380
_cell_length_c   8.57067300
_cell_angle_alpha   110.50943387
_cell_angle_beta   110.50943734
_cell_angle_gamma   107.41416746
_symmetry_Int_Tables_number   1
_chemical_formula_structural   Gd12In3Tc2
_chemical_formula_sum   'Gd12 In3 Tc2'
_cell_volume   484.17763158
_cell_formula_units_Z   1
loop_
 _symmetry_equiv_pos_site_id
 _symmetry_equiv_pos_as_xyz
  1  'x, y, z'
loop_
 _atom_site_type_symbol
 _atom_site_label
 _atom_site_symmetry_multiplicity
 _atom_site_fract_x
 _atom_site_fract_y
 _atom_site_fract_z
 _atom_site_occupancy
  Gd  Gd0  1  0.453034  0.201124  0.251911  1
  Gd  Gd1  1  0.546966  0.798876  0.748089  1
  Gd  Gd2  1  0.949213  0.201124  0.748089  1
  Gd  Gd3  1  0.201124  0.949213  0.748089  1
  Gd  Gd4  1  0.050787  0.798876  0.251911  1
  Gd  Gd5  1  0.798876  0.050787  0.251911  1
  Gd  Gd6  1  0.201124  0.453034  0.251911  1
  Gd  Gd7  1  0.798876  0.546966  0.748089  1
  Gd  Gd8  1  0.315911  0.315911  0.631822  1
  Gd  Gd9  1  0.684089  0.684089  0.368178  1
  Gd  Gd10  1  0.315911  0.684089  0.000000  1
  Gd  Gd11  1  0.684089  0.315911  0.000000  1
  In  In12  1  0.500000  0.000000  0.500000  1
  In  In13  1  0.000000  0.500000  0.500000  1
  In  In14  1  0.000000  0.000000  0.000000  1
  Tc  Tc15  1  0.343955  0.343955  0.000000  1
  Tc  Tc16  1  0.656045  0.656045  0.000000  1
