# generated using pymatgen
data_Yb10InGaCu4
_symmetry_space_group_name_H-M   'P 1'
_cell_length_a   8.97190671
_cell_length_b   8.97190747
_cell_length_c   8.97190666
_cell_angle_alpha   128.86280858
_cell_angle_beta   128.86280623
_cell_angle_gamma   75.23142268
_symmetry_Int_Tables_number   1
_chemical_formula_structural   Yb10InGaCu4
_chemical_formula_sum   'Yb10 In1 Ga1 Cu4'
_cell_volume   426.23789802
_cell_formula_units_Z   1
loop_
 _symmetry_equiv_pos_site_id
 _symmetry_equiv_pos_as_xyz
  1  'x, y, z'
loop_
 _atom_site_type_symbol
 _atom_site_label
 _atom_site_symmetry_multiplicity
 _atom_site_fract_x
 _atom_site_fract_y
 _atom_site_fract_z
 _atom_site_occupancy
  Yb  Yb0  1  0.496734  0.496734  0.000000  1
  Yb  Yb1  1  0.003266  0.003266  0.000000  1
  Yb  Yb2  1  0.536479  0.025766  0.839487  1
  Yb  Yb3  1  0.186279  0.696992  0.160513  1
  Yb  Yb4  1  0.025766  0.186279  0.489287  1
  Yb  Yb5  1  0.696992  0.536479  0.510713  1
  Yb  Yb6  1  0.474234  0.963521  0.160513  1
  Yb  Yb7  1  0.803008  0.313721  0.839487  1
  Yb  Yb8  1  0.963521  0.803008  0.489287  1
  Yb  Yb9  1  0.313721  0.474234  0.510713  1
  In  In10  1  0.250000  0.250000  0.000000  1
  Ga  Ga11  1  0.750000  0.750000  0.000000  1
  Cu  Cu12  1  0.117638  0.617638  0.735276  1
  Cu  Cu13  1  0.882362  0.382362  0.264724  1
  Cu  Cu14  1  0.617638  0.882362  0.500000  1
  Cu  Cu15  1  0.382362  0.117638  0.500000  1
