# generated using pymatgen
data_LuAl10TcRh
_symmetry_space_group_name_H-M   'P 1'
_cell_length_a   6.87288000
_cell_length_b   6.88732339
_cell_length_c   9.17466800
_cell_angle_alpha   90.00000000
_cell_angle_beta   90.00000000
_cell_angle_gamma   96.69810617
_symmetry_Int_Tables_number   1
_chemical_formula_structural   LuAl10TcRh
_chemical_formula_sum   'Lu2 Al20 Tc2 Rh2'
_cell_volume   431.32552238
_cell_formula_units_Z   2
loop_
 _symmetry_equiv_pos_site_id
 _symmetry_equiv_pos_as_xyz
  1  'x, y, z'
loop_
 _atom_site_type_symbol
 _atom_site_label
 _atom_site_symmetry_multiplicity
 _atom_site_fract_x
 _atom_site_fract_y
 _atom_site_fract_z
 _atom_site_occupancy
  Lu  Lu0  1  0.866163  0.122359  0.750000  1
  Lu  Lu1  1  0.133837  0.877641  0.250000  1
  Al  Al2  1  0.620524  0.375257  0.548812  1
  Al  Al3  1  0.379476  0.624743  0.451188  1
  Al  Al4  1  0.379476  0.624743  0.048812  1
  Al  Al5  1  0.620524  0.375257  0.951188  1
  Al  Al6  1  0.225092  0.223278  0.498346  1
  Al  Al7  1  0.774908  0.776722  0.501654  1
  Al  Al8  1  0.774908  0.776722  0.998346  1
  Al  Al9  1  0.225092  0.223278  0.001654  1
  Al  Al10  1  0.844971  0.154933  0.099383  1
  Al  Al11  1  0.155029  0.845067  0.900617  1
  Al  Al12  1  0.155029  0.845067  0.599383  1
  Al  Al13  1  0.844971  0.154933  0.400617  1
  Al  Al14  1  0.857391  0.586405  0.750000  1
  Al  Al15  1  0.142609  0.413595  0.250000  1
  Al  Al16  1  0.411487  0.141262  0.750000  1
  Al  Al17  1  0.588513  0.858738  0.250000  1
  Al  Al18  1  0.220847  0.478084  0.750000  1
  Al  Al19  1  0.779153  0.521916  0.250000  1
  Al  Al20  1  0.520391  0.780346  0.750000  1
  Al  Al21  1  0.479609  0.219654  0.250000  1
  Tc  Tc22  1  0.500000  0.000000  0.000000  1
  Tc  Tc23  1  0.500000  0.000000  0.500000  1
  Rh  Rh24  1  0.000000  0.500000  0.500000  1
  Rh  Rh25  1  0.000000  0.500000  0.000000  1
