# generated using pymatgen
data_Tb2Ho3Sn4
_symmetry_space_group_name_H-M   'P 1'
_cell_length_a   8.03390200
_cell_length_b   8.17691600
_cell_length_c   15.45399600
_cell_angle_alpha   90.00000000
_cell_angle_beta   90.00000000
_cell_angle_gamma   90.00000000
_symmetry_Int_Tables_number   1
_chemical_formula_structural   Tb2Ho3Sn4
_chemical_formula_sum   'Tb8 Ho12 Sn16'
_cell_volume   1015.21227830
_cell_formula_units_Z   4
loop_
 _symmetry_equiv_pos_site_id
 _symmetry_equiv_pos_as_xyz
  1  'x, y, z'
loop_
 _atom_site_type_symbol
 _atom_site_label
 _atom_site_symmetry_multiplicity
 _atom_site_fract_x
 _atom_site_fract_y
 _atom_site_fract_z
 _atom_site_occupancy
  Tb  Tb0  1  0.520474  0.319652  0.902290  1
  Tb  Tb1  1  0.020474  0.180348  0.597710  1
  Tb  Tb2  1  0.479526  0.680348  0.402290  1
  Tb  Tb3  1  0.979526  0.819652  0.097710  1
  Tb  Tb4  1  0.479526  0.680348  0.097710  1
  Tb  Tb5  1  0.979526  0.819652  0.402290  1
  Tb  Tb6  1  0.520474  0.319652  0.597710  1
  Tb  Tb7  1  0.020474  0.180348  0.902290  1
  Ho  Ho8  1  0.367652  0.835610  0.878299  1
  Ho  Ho9  1  0.867652  0.664390  0.621701  1
  Ho  Ho10  1  0.632348  0.164390  0.378299  1
  Ho  Ho11  1  0.132348  0.335610  0.121701  1
  Ho  Ho12  1  0.632348  0.164390  0.121701  1
  Ho  Ho13  1  0.132348  0.335610  0.378299  1
  Ho  Ho14  1  0.367652  0.835610  0.621701  1
  Ho  Ho15  1  0.867652  0.664390  0.878299  1
  Ho  Ho16  1  0.198075  0.502810  0.750000  1
  Ho  Ho17  1  0.698075  0.997190  0.750000  1
  Ho  Ho18  1  0.801925  0.497190  0.250000  1
  Ho  Ho19  1  0.301925  0.002810  0.250000  1
  Sn  Sn20  1  0.292578  0.034701  0.042104  1
  Sn  Sn21  1  0.792578  0.465299  0.457896  1
  Sn  Sn22  1  0.707422  0.965299  0.542104  1
  Sn  Sn23  1  0.207422  0.534701  0.957896  1
  Sn  Sn24  1  0.707422  0.965299  0.957896  1
  Sn  Sn25  1  0.207422  0.534701  0.542104  1
  Sn  Sn26  1  0.292578  0.034701  0.457896  1
  Sn  Sn27  1  0.792578  0.465299  0.042104  1
  Sn  Sn28  1  0.565036  0.620143  0.750000  1
  Sn  Sn29  1  0.065036  0.879857  0.750000  1
  Sn  Sn30  1  0.434964  0.379857  0.250000  1
  Sn  Sn31  1  0.934964  0.120143  0.250000  1
  Sn  Sn32  1  0.328346  0.145629  0.750000  1
  Sn  Sn33  1  0.828346  0.354371  0.750000  1
  Sn  Sn34  1  0.671654  0.854371  0.250000  1
  Sn  Sn35  1  0.171654  0.645629  0.250000  1
