# generated using pymatgen
data_Tm6Al4CuAuC2
_symmetry_space_group_name_H-M   'P 1'
_cell_length_a   9.07664988
_cell_length_b   9.07664979
_cell_length_c   9.06775000
_cell_angle_alpha   60.03242987
_cell_angle_beta   60.03243020
_cell_angle_gamma   60.07102367
_symmetry_Int_Tables_number   1
_chemical_formula_structural   Tm6Al4CuAuC2
_chemical_formula_sum   'Tm12 Al8 Cu2 Au2 C4'
_cell_volume   528.78753636
_cell_formula_units_Z   2
loop_
 _symmetry_equiv_pos_site_id
 _symmetry_equiv_pos_as_xyz
  1  'x, y, z'
loop_
 _atom_site_type_symbol
 _atom_site_label
 _atom_site_symmetry_multiplicity
 _atom_site_fract_x
 _atom_site_fract_y
 _atom_site_fract_z
 _atom_site_occupancy
  Tm  Tm0  1  0.555434  0.944281  0.556024  1
  Tm  Tm1  1  0.305719  0.694566  0.693976  1
  Tm  Tm2  1  0.694566  0.305719  0.305739  1
  Tm  Tm3  1  0.305719  0.694566  0.305739  1
  Tm  Tm4  1  0.694195  0.694195  0.305805  1
  Tm  Tm5  1  0.305556  0.305556  0.694444  1
  Tm  Tm6  1  0.555805  0.555805  0.944195  1
  Tm  Tm7  1  0.944281  0.555434  0.556024  1
  Tm  Tm8  1  0.555434  0.944281  0.944261  1
  Tm  Tm9  1  0.944444  0.944444  0.555556  1
  Tm  Tm10  1  0.694566  0.305719  0.693976  1
  Tm  Tm11  1  0.944281  0.555434  0.944261  1
  Al  Al12  1  0.926377  0.926377  0.916594  1
  Al  Al13  1  0.018842  0.321316  0.329921  1
  Al  Al14  1  0.321316  0.018842  0.329921  1
  Al  Al15  1  0.323623  0.323623  0.019347  1
  Al  Al16  1  0.928684  0.231158  0.920079  1
  Al  Al17  1  0.926377  0.926377  0.230653  1
  Al  Al18  1  0.231158  0.928684  0.920079  1
  Al  Al19  1  0.323623  0.323623  0.333406  1
  Cu  Cu20  1  0.125000  0.125000  0.125000  1
  Cu  Cu21  1  0.125000  0.125000  0.625000  1
  Au  Au22  1  0.625000  0.125000  0.125000  1
  Au  Au23  1  0.125000  0.625000  0.125000  1
  C  C24  1  0.625000  0.625000  0.625000  1
  C  C25  1  0.125000  0.625000  0.625000  1
  C  C26  1  0.625000  0.125000  0.625000  1
  C  C27  1  0.625000  0.625000  0.125000  1
