# generated using pymatgen
data_LiDy3Zn2In3
_symmetry_space_group_name_H-M   'P 1'
_cell_length_a   7.22701900
_cell_length_b   7.22701834
_cell_length_c   4.47294300
_cell_angle_alpha   90.00000000
_cell_angle_beta   90.00000000
_cell_angle_gamma   120.00000759
_symmetry_Int_Tables_number   1
_chemical_formula_structural   LiDy3Zn2In3
_chemical_formula_sum   'Li1 Dy3 Zn2 In3'
_cell_volume   202.32163029
_cell_formula_units_Z   1
loop_
 _symmetry_equiv_pos_site_id
 _symmetry_equiv_pos_as_xyz
  1  'x, y, z'
loop_
 _atom_site_type_symbol
 _atom_site_label
 _atom_site_symmetry_multiplicity
 _atom_site_fract_x
 _atom_site_fract_y
 _atom_site_fract_z
 _atom_site_occupancy
  Li  Li0  1  0.000000  0.000000  0.500000  1
  Dy  Dy1  1  0.419619  0.000000  0.500000  1
  Dy  Dy2  1  0.000000  0.419619  0.500000  1
  Dy  Dy3  1  0.580381  0.580381  0.500000  1
  Zn  Zn4  1  0.333333  0.666667  0.000000  1
  Zn  Zn5  1  0.666667  0.333333  0.000000  1
  In  In6  1  0.752338  0.000000  0.000000  1
  In  In7  1  0.000000  0.752338  0.000000  1
  In  In8  1  0.247662  0.247662  0.000000  1
