# generated using pymatgen
data_Ce4NiIr3Pb2
_symmetry_space_group_name_H-M   'P 1'
_cell_length_a   7.80075843
_cell_length_b   7.80075846
_cell_length_c   3.69371600
_cell_angle_alpha   90.00000000
_cell_angle_beta   90.00000000
_cell_angle_gamma   89.90021872
_symmetry_Int_Tables_number   1
_chemical_formula_structural   Ce4NiIr3Pb2
_chemical_formula_sum   'Ce4 Ni1 Ir3 Pb2'
_cell_volume   224.76904595
_cell_formula_units_Z   1
loop_
 _symmetry_equiv_pos_site_id
 _symmetry_equiv_pos_as_xyz
  1  'x, y, z'
loop_
 _atom_site_type_symbol
 _atom_site_label
 _atom_site_symmetry_multiplicity
 _atom_site_fract_x
 _atom_site_fract_y
 _atom_site_fract_z
 _atom_site_occupancy
  Ce  Ce0  1  0.677870  0.166110  0.500000  1
  Ce  Ce1  1  0.168356  0.331644  0.500000  1
  Ce  Ce2  1  0.827999  0.672001  0.500000  1
  Ce  Ce3  1  0.333890  0.822130  0.500000  1
  Ni  Ni4  1  0.366322  0.133678  0.000000  1
  Ir  Ir5  1  0.131493  0.632157  0.000000  1
  Ir  Ir6  1  0.616100  0.883900  0.000000  1
  Ir  Ir7  1  0.867843  0.368507  0.000000  1
  Pb  Pb8  1  0.011003  0.000876  0.000000  1
  Pb  Pb9  1  0.499124  0.488997  0.000000  1
