# generated using pymatgen
data_Tb3Pr8Nd9Si16
_symmetry_space_group_name_H-M   'P 1'
_cell_length_a   7.89233291
_cell_length_b   7.89233291
_cell_length_c   15.27626300
_cell_angle_alpha   89.95080117
_cell_angle_beta   90.04919883
_cell_angle_gamma   89.99906945
_symmetry_Int_Tables_number   1
_chemical_formula_structural   Tb3Pr8Nd9Si16
_chemical_formula_sum   'Tb3 Pr8 Nd9 Si16'
_cell_volume   951.54120331
_cell_formula_units_Z   1
loop_
 _symmetry_equiv_pos_site_id
 _symmetry_equiv_pos_as_xyz
  1  'x, y, z'
loop_
 _atom_site_type_symbol
 _atom_site_label
 _atom_site_symmetry_multiplicity
 _atom_site_fract_x
 _atom_site_fract_y
 _atom_site_fract_z
 _atom_site_occupancy
  Tb  Tb0  1  0.689464  0.689464  0.500000  1
  Tb  Tb1  1  0.809925  0.189476  0.749710  1
  Tb  Tb2  1  0.189476  0.809925  0.250290  1
  Pr  Pr3  1  0.988236  0.622631  0.053129  1
  Pr  Pr4  1  0.012171  0.377524  0.552956  1
  Pr  Pr5  1  0.622631  0.988236  0.946871  1
  Pr  Pr6  1  0.122251  0.512670  0.802326  1
  Pr  Pr7  1  0.877178  0.487712  0.303241  1
  Pr  Pr8  1  0.512670  0.122251  0.197674  1
  Pr  Pr9  1  0.487712  0.877178  0.696759  1
  Pr  Pr10  1  0.377524  0.012171  0.447044  1
  Nd  Nd11  1  0.373092  0.479621  0.373030  1
  Nd  Nd12  1  0.873095  0.020611  0.377687  1
  Nd  Nd13  1  0.979632  0.126817  0.123003  1
  Nd  Nd14  1  0.020611  0.873095  0.622313  1
  Nd  Nd15  1  0.626345  0.520950  0.872019  1
  Nd  Nd16  1  0.479621  0.373092  0.626970  1
  Nd  Nd17  1  0.520950  0.626345  0.127981  1
  Nd  Nd18  1  0.126817  0.979632  0.876997  1
  Nd  Nd19  1  0.308636  0.308636  0.000000  1
  Si  Si20  1  0.077661  0.713696  0.437662  1
  Si  Si21  1  0.919485  0.285586  0.936857  1
  Si  Si22  1  0.713696  0.077661  0.562338  1
  Si  Si23  1  0.212507  0.424014  0.190137  1
  Si  Si24  1  0.786502  0.578068  0.687284  1
  Si  Si25  1  0.424014  0.212507  0.809863  1
  Si  Si26  1  0.578068  0.786502  0.312716  1
  Si  Si27  1  0.285586  0.919485  0.063143  1
  Si  Si28  1  0.829969  0.809439  0.794718  1
  Si  Si29  1  0.170078  0.190733  0.295645  1
  Si  Si30  1  0.809439  0.829969  0.205282  1
  Si  Si31  1  0.309172  0.670429  0.544742  1
  Si  Si32  1  0.693343  0.331284  0.045507  1
  Si  Si33  1  0.670429  0.309172  0.455258  1
  Si  Si34  1  0.331284  0.693343  0.954493  1
  Si  Si35  1  0.190733  0.170078  0.704355  1
