# generated using pymatgen
data_NdTh(CoB)8
_symmetry_space_group_name_H-M   'P 1'
_cell_length_a   7.08989100
_cell_length_b   7.08989100
_cell_length_c   3.79903200
_cell_angle_alpha   90.00000000
_cell_angle_beta   90.00000000
_cell_angle_gamma   90.00000000
_symmetry_Int_Tables_number   1
_chemical_formula_structural   NdTh(CoB)8
_chemical_formula_sum   'Nd1 Th1 Co8 B8'
_cell_volume   190.96424866
_cell_formula_units_Z   1
loop_
 _symmetry_equiv_pos_site_id
 _symmetry_equiv_pos_as_xyz
  1  'x, y, z'
loop_
 _atom_site_type_symbol
 _atom_site_label
 _atom_site_symmetry_multiplicity
 _atom_site_fract_x
 _atom_site_fract_y
 _atom_site_fract_z
 _atom_site_occupancy
  Nd  Nd0  1  0.500000  0.500000  0.500000  1
  Th  Th1  1  0.000000  0.000000  0.000000  1
  Co  Co2  1  0.355055  0.884675  0.393962  1
  Co  Co3  1  0.616626  0.856324  0.895586  1
  Co  Co4  1  0.644945  0.115325  0.393962  1
  Co  Co5  1  0.143676  0.616626  0.104414  1
  Co  Co6  1  0.884675  0.644945  0.606038  1
  Co  Co7  1  0.856324  0.383374  0.104414  1
  Co  Co8  1  0.383374  0.143676  0.895586  1
  Co  Co9  1  0.115325  0.355055  0.606038  1
  B  B10  1  0.838251  0.295864  0.601865  1
  B  B11  1  0.161749  0.704136  0.601865  1
  B  B12  1  0.794961  0.660815  0.104215  1
  B  B13  1  0.339185  0.794961  0.895785  1
  B  B14  1  0.660815  0.205039  0.895785  1
  B  B15  1  0.295864  0.161749  0.398135  1
  B  B16  1  0.704136  0.838251  0.398135  1
  B  B17  1  0.205039  0.339185  0.104215  1
