# generated using pymatgen
data_Pa5Nb(GaPt)6
_symmetry_space_group_name_H-M   'P 1'
_cell_length_a   6.96427938
_cell_length_b   7.05064308
_cell_length_c   8.28172717
_cell_angle_alpha   90.10516141
_cell_angle_beta   89.98382848
_cell_angle_gamma   120.24042422
_symmetry_Int_Tables_number   1
_chemical_formula_structural   Pa5Nb(GaPt)6
_chemical_formula_sum   'Pa5 Nb1 Ga6 Pt6'
_cell_volume   351.31634382
_cell_formula_units_Z   1
loop_
 _symmetry_equiv_pos_site_id
 _symmetry_equiv_pos_as_xyz
  1  'x, y, z'
loop_
 _atom_site_type_symbol
 _atom_site_label
 _atom_site_symmetry_multiplicity
 _atom_site_fract_x
 _atom_site_fract_y
 _atom_site_fract_z
 _atom_site_occupancy
  Pa  Pa0  1  0.418018  0.418651  0.250065  1
  Pa  Pa1  1  0.579991  0.001632  0.750008  1
  Pa  Pa2  1  0.419807  0.422471  0.750063  1
  Pa  Pa3  1  0.999168  0.572666  0.249872  1
  Pa  Pa4  1  0.583148  0.001105  0.250008  1
  Nb  Nb5  1  0.999731  0.602714  0.750010  1
  Ga  Ga6  1  0.241131  0.993317  0.999642  1
  Ga  Ga7  1  0.241178  0.993353  0.500337  1
  Ga  Ga8  1  0.999762  0.249556  0.510697  1
  Ga  Ga9  1  0.999764  0.249553  0.989274  1
  Ga  Ga10  1  0.759075  0.752803  0.999543  1
  Ga  Ga11  1  0.759015  0.752763  0.500453  1
  Pt  Pt12  1  0.667291  0.333710  0.505210  1
  Pt  Pt13  1  0.000404  0.992714  0.749963  1
  Pt  Pt14  1  0.667256  0.333718  0.994792  1
  Pt  Pt15  1  0.332220  0.665856  0.995359  1
  Pt  Pt16  1  0.332190  0.665851  0.504622  1
  Pt  Pt17  1  0.000849  0.997567  0.250081  1
