# generated using pymatgen
data_K5Sm(MoH9)3
_symmetry_space_group_name_H-M   'P 1'
_cell_length_a   9.59341500
_cell_length_b   9.27113221
_cell_length_c   5.45444400
_cell_angle_alpha   90.00000000
_cell_angle_beta   90.00000000
_cell_angle_gamma   118.89481259
_symmetry_Int_Tables_number   1
_chemical_formula_structural   K5Sm(MoH9)3
_chemical_formula_sum   'K5 Sm1 Mo3 H27'
_cell_volume   424.73372888
_cell_formula_units_Z   1
loop_
 _symmetry_equiv_pos_site_id
 _symmetry_equiv_pos_as_xyz
  1  'x, y, z'
loop_
 _atom_site_type_symbol
 _atom_site_label
 _atom_site_symmetry_multiplicity
 _atom_site_fract_x
 _atom_site_fract_y
 _atom_site_fract_z
 _atom_site_occupancy
  K  K0  1  0.728663  0.744422  0.500000  1
  K  K1  1  0.271337  0.015759  0.500000  1
  K  K2  1  0.000000  0.621321  0.000000  1
  K  K3  1  0.426243  0.398773  0.000000  1
  K  K4  1  0.573757  0.972531  0.000000  1
  Sm  Sm5  1  0.000000  0.260669  0.500000  1
  Mo  Mo6  1  0.710692  0.337064  0.500000  1
  Mo  Mo7  1  0.289308  0.626373  0.500000  1
  Mo  Mo8  1  0.000000  0.039255  0.000000  1
  H  H9  1  0.822528  0.319273  0.746786  1
  H  H10  1  0.726446  0.482305  0.723175  1
  H  H11  1  0.559548  0.203866  0.697881  1
  H  H12  1  0.177472  0.496745  0.253214  1
  H  H13  1  0.559548  0.203866  0.302119  1
  H  H14  1  0.822528  0.319273  0.253214  1
  H  H15  1  0.726446  0.482305  0.276825  1
  H  H16  1  0.273554  0.755861  0.723175  1
  H  H17  1  0.440452  0.644319  0.697881  1
  H  H18  1  0.176025  0.031463  0.000000  1
  H  H19  1  0.823975  0.855439  0.000000  1
  H  H20  1  0.000000  0.230278  0.000000  1
  H  H21  1  0.868812  0.034445  0.235555  1
  H  H22  1  0.131188  0.165633  0.764445  1
  H  H23  1  0.000000  0.900582  0.782247  1
  H  H24  1  0.000000  0.900582  0.217753  1
  H  H25  1  0.131188  0.165633  0.235555  1
  H  H26  1  0.868812  0.034445  0.764445  1
  H  H27  1  0.055120  0.568947  0.500000  1
  H  H28  1  0.449294  0.821408  0.500000  1
  H  H29  1  0.293780  0.439038  0.500000  1
  H  H30  1  0.550706  0.372114  0.500000  1
  H  H31  1  0.944880  0.513826  0.500000  1
  H  H32  1  0.706220  0.145257  0.500000  1
  H  H33  1  0.177472  0.496745  0.746786  1
  H  H34  1  0.273554  0.755861  0.276825  1
  H  H35  1  0.440452  0.644319  0.302119  1
