# generated using pymatgen
data_Rb12Na8Ti3SiAs12
_symmetry_space_group_name_H-M   'P 1'
_cell_length_a   10.81723315
_cell_length_b   10.81723339
_cell_length_c   15.82659752
_cell_angle_alpha   89.97529023
_cell_angle_beta   89.97529089
_cell_angle_gamma   142.60854571
_symmetry_Int_Tables_number   1
_chemical_formula_structural   Rb12Na8Ti3SiAs12
_chemical_formula_sum   'Rb12 Na8 Ti3 Si1 As12'
_cell_volume   1124.58511766
_cell_formula_units_Z   1
loop_
 _symmetry_equiv_pos_site_id
 _symmetry_equiv_pos_as_xyz
  1  'x, y, z'
loop_
 _atom_site_type_symbol
 _atom_site_label
 _atom_site_symmetry_multiplicity
 _atom_site_fract_x
 _atom_site_fract_y
 _atom_site_fract_z
 _atom_site_occupancy
  Rb  Rb0  1  0.605959  0.942689  0.824893  1
  Rb  Rb1  1  0.273278  0.271492  0.317232  1
  Rb  Rb2  1  0.225246  0.224765  0.817323  1
  Rb  Rb3  1  0.728508  0.726722  0.682768  1
  Rb  Rb4  1  0.433914  0.102436  0.671478  1
  Rb  Rb5  1  0.897564  0.566086  0.328522  1
  Rb  Rb6  1  0.057311  0.394041  0.175107  1
  Rb  Rb7  1  0.392333  0.056687  0.174651  1
  Rb  Rb8  1  0.557133  0.893423  0.326080  1
  Rb  Rb9  1  0.106577  0.442867  0.673920  1
  Rb  Rb10  1  0.943313  0.607667  0.825349  1
  Rb  Rb11  1  0.775235  0.774754  0.182677  1
  Na  Na12  1  0.079599  0.920401  0.000000  1
  Na  Na13  1  0.580281  0.419719  0.500000  1
  Na  Na14  1  0.920339  0.079661  0.000000  1
  Na  Na15  1  0.754984  0.245016  0.000000  1
  Na  Na16  1  0.744828  0.255172  0.500000  1
  Na  Na17  1  0.245100  0.754900  0.000000  1
  Na  Na18  1  0.253978  0.746022  0.500000  1
  Na  Na19  1  0.421017  0.578983  0.500000  1
  Ti  Ti20  1  0.415618  0.584382  0.000000  1
  Ti  Ti21  1  0.919009  0.080991  0.500000  1
  Ti  Ti22  1  0.584482  0.415518  0.000000  1
  Si  Si23  1  0.082360  0.917640  0.500000  1
  As  As24  1  0.053055  0.357703  0.406235  1
  As  As25  1  0.860710  0.553205  0.094450  1
  As  As26  1  0.446795  0.139290  0.905550  1
  As  As27  1  0.642297  0.946945  0.593765  1
  As  As28  1  0.949183  0.648348  0.592535  1
  As  As29  1  0.139506  0.446843  0.905502  1
  As  As30  1  0.553157  0.860494  0.094498  1
  As  As31  1  0.351652  0.050817  0.407465  1
  As  As32  1  0.193718  0.187919  0.585869  1
  As  As33  1  0.691474  0.691591  0.915097  1
  As  As34  1  0.308409  0.308526  0.084903  1
  As  As35  1  0.812081  0.806282  0.414131  1
