# generated using pymatgen
data_HfZr2SiN
_symmetry_space_group_name_H-M   'P 1'
_cell_length_a   5.88053804
_cell_length_b   5.88053810
_cell_length_c   8.55479400
_cell_angle_alpha   90.00000000
_cell_angle_beta   90.00000000
_cell_angle_gamma   145.96319742
_symmetry_Int_Tables_number   1
_chemical_formula_structural   HfZr2SiN
_chemical_formula_sum   'Hf2 Zr4 Si2 N2'
_cell_volume   165.58409772
_cell_formula_units_Z   2
loop_
 _symmetry_equiv_pos_site_id
 _symmetry_equiv_pos_as_xyz
  1  'x, y, z'
loop_
 _atom_site_type_symbol
 _atom_site_label
 _atom_site_symmetry_multiplicity
 _atom_site_fract_x
 _atom_site_fract_y
 _atom_site_fract_z
 _atom_site_occupancy
  Hf  Hf0  1  0.943904  0.056096  0.250000  1
  Hf  Hf1  1  0.056096  0.943904  0.750000  1
  Zr  Zr2  1  0.631482  0.368518  0.446391  1
  Zr  Zr3  1  0.368518  0.631482  0.553609  1
  Zr  Zr4  1  0.631482  0.368518  0.053609  1
  Zr  Zr5  1  0.368518  0.631482  0.946391  1
  Si  Si6  1  0.257606  0.742394  0.250000  1
  Si  Si7  1  0.742394  0.257606  0.750000  1
  N  N8  1  0.000000  0.000000  0.500000  1
  N  N9  1  0.000000  0.000000  0.000000  1
