# generated using pymatgen
data_Y2Zn2Ga7PdPt2
_symmetry_space_group_name_H-M   'P 1'
_cell_length_a   7.60195275
_cell_length_b   7.64139843
_cell_length_c   9.56918819
_cell_angle_alpha   89.98448259
_cell_angle_beta   89.99297243
_cell_angle_gamma   119.50202974
_symmetry_Int_Tables_number   1
_chemical_formula_structural   Y2Zn2Ga7PdPt2
_chemical_formula_sum   'Y4 Zn4 Ga14 Pd2 Pt4'
_cell_volume   483.79474078
_cell_formula_units_Z   2
loop_
 _symmetry_equiv_pos_site_id
 _symmetry_equiv_pos_as_xyz
  1  'x, y, z'
loop_
 _atom_site_type_symbol
 _atom_site_label
 _atom_site_symmetry_multiplicity
 _atom_site_fract_x
 _atom_site_fract_y
 _atom_site_fract_z
 _atom_site_occupancy
  Y  Y0  1  0.996460  0.670545  0.249473  1
  Y  Y1  1  0.003540  0.329455  0.750527  1
  Y  Y2  1  0.673687  0.998908  0.249742  1
  Y  Y3  1  0.326313  0.001092  0.750258  1
  Zn  Zn4  1  0.139586  0.138952  0.250129  1
  Zn  Zn5  1  0.860414  0.861048  0.749871  1
  Zn  Zn6  1  0.342474  0.545141  0.250540  1
  Zn  Zn7  1  0.657526  0.454859  0.749460  1
  Ga  Ga8  1  0.008172  0.336790  0.086751  1
  Ga  Ga9  1  0.991828  0.663210  0.913249  1
  Ga  Ga10  1  0.991619  0.662754  0.586111  1
  Ga  Ga11  1  0.333302  0.000165  0.414949  1
  Ga  Ga12  1  0.008381  0.337246  0.413889  1
  Ga  Ga13  1  0.666698  0.999835  0.585051  1
  Ga  Ga14  1  0.667196  0.999732  0.914631  1
  Ga  Ga15  1  0.332804  0.000268  0.085369  1
  Ga  Ga16  1  0.336923  0.333767  0.565997  1
  Ga  Ga17  1  0.663077  0.666233  0.434003  1
  Ga  Ga18  1  0.663673  0.667267  0.066439  1
  Ga  Ga19  1  0.336327  0.332733  0.933561  1
  Ga  Ga20  1  0.538275  0.342271  0.250863  1
  Ga  Ga21  1  0.461725  0.657729  0.749137  1
  Pd  Pd22  1  0.325528  0.673778  0.503816  1
  Pd  Pd23  1  0.674472  0.326222  0.496184  1
  Pt  Pt24  1  0.674713  0.325844  0.004023  1
  Pt  Pt25  1  0.325287  0.674156  0.995977  1
  Pt  Pt26  1  0.000000  0.000000  0.000000  1
  Pt  Pt27  1  0.000000  0.000000  0.500000  1
