# generated using pymatgen
data_La3PrCdHgPd4
_symmetry_space_group_name_H-M   'P 1'
_cell_length_a   7.89333576
_cell_length_b   7.89793575
_cell_length_c   3.99111600
_cell_angle_alpha   90.00000000
_cell_angle_beta   90.00000000
_cell_angle_gamma   89.77108914
_symmetry_Int_Tables_number   1
_chemical_formula_structural   La3PrCdHgPd4
_chemical_formula_sum   'La3 Pr1 Cd1 Hg1 Pd4'
_cell_volume   248.80841095
_cell_formula_units_Z   1
loop_
 _symmetry_equiv_pos_site_id
 _symmetry_equiv_pos_as_xyz
  1  'x, y, z'
loop_
 _atom_site_type_symbol
 _atom_site_label
 _atom_site_symmetry_multiplicity
 _atom_site_fract_x
 _atom_site_fract_y
 _atom_site_fract_z
 _atom_site_occupancy
  La  La0  1  0.319326  0.833282  0.500000  1
  La  La1  1  0.832564  0.681092  0.500000  1
  La  La2  1  0.166905  0.318632  0.500000  1
  Pr  Pr3  1  0.681000  0.166675  0.500000  1
  Cd  Cd4  1  0.500439  0.499414  0.000000  1
  Hg  Hg5  1  0.999351  0.000507  0.000000  1
  Pd  Pd6  1  0.378654  0.135350  0.000000  1
  Pd  Pd7  1  0.865121  0.379497  0.000000  1
  Pd  Pd8  1  0.135593  0.621257  0.000000  1
  Pd  Pd9  1  0.621047  0.864295  0.000000  1
