# generated using pymatgen
data_DyTm3(NiPt)2
_symmetry_space_group_name_H-M   'P 1'
_cell_length_a   4.33719600
_cell_length_b   5.44672943
_cell_length_c   6.97138514
_cell_angle_alpha   90.26300637
_cell_angle_beta   90.00000000
_cell_angle_gamma   90.00000000
_symmetry_Int_Tables_number   1
_chemical_formula_structural   DyTm3(NiPt)2
_chemical_formula_sum   'Dy1 Tm3 Ni2 Pt2'
_cell_volume   164.68701263
_cell_formula_units_Z   1
loop_
 _symmetry_equiv_pos_site_id
 _symmetry_equiv_pos_as_xyz
  1  'x, y, z'
loop_
 _atom_site_type_symbol
 _atom_site_label
 _atom_site_symmetry_multiplicity
 _atom_site_fract_x
 _atom_site_fract_y
 _atom_site_fract_z
 _atom_site_occupancy
  Dy  Dy0  1  0.500000  0.612899  0.817998  1
  Tm  Tm1  1  0.000000  0.115240  0.679404  1
  Tm  Tm2  1  0.000000  0.884936  0.180757  1
  Tm  Tm3  1  0.500000  0.387371  0.319357  1
  Ni  Ni4  1  0.000000  0.602458  0.537127  1
  Ni  Ni5  1  0.000000  0.394507  0.045491  1
  Pt  Pt6  1  0.500000  0.888764  0.457817  1
  Pt  Pt7  1  0.500000  0.113824  0.962050  1
