# generated using pymatgen
data_Tb5GeRuO12
_symmetry_space_group_name_H-M   'P 1'
_cell_length_a   5.89113100
_cell_length_b   6.85432534
_cell_length_c   7.30737413
_cell_angle_alpha   105.60134634
_cell_angle_beta   90.00000000
_cell_angle_gamma   115.45094280
_symmetry_Int_Tables_number   1
_chemical_formula_structural   Tb5GeRuO12
_chemical_formula_sum   'Tb5 Ge1 Ru1 O12'
_cell_volume   254.34178203
_cell_formula_units_Z   1
loop_
 _symmetry_equiv_pos_site_id
 _symmetry_equiv_pos_as_xyz
  1  'x, y, z'
loop_
 _atom_site_type_symbol
 _atom_site_label
 _atom_site_symmetry_multiplicity
 _atom_site_fract_x
 _atom_site_fract_y
 _atom_site_fract_z
 _atom_site_occupancy
  Tb  Tb0  1  0.308352  0.613490  0.168129  1
  Tb  Tb1  1  0.695785  0.395316  0.359657  1
  Tb  Tb2  1  0.001406  0.000000  0.500000  1
  Tb  Tb3  1  0.300468  0.604684  0.640345  1
  Tb  Tb4  1  0.694863  0.386509  0.831871  1
  Ge  Ge5  1  0.243348  0.000000  0.000000  1
  Ru  Ru6  1  0.756080  0.000000  0.000000  1
  O  O7  1  0.417636  0.314923  0.079505  1
  O  O8  1  0.903687  0.330619  0.082030  1
  O  O9  1  0.498392  0.000055  0.181113  1
  O  O10  1  0.002942  0.000502  0.180403  1
  O  O11  1  0.097213  0.694352  0.425440  1
  O  O12  1  0.597282  0.694153  0.424428  1
  O  O13  1  0.402862  0.305647  0.574560  1
  O  O14  1  0.903128  0.305846  0.575572  1
  O  O15  1  0.002441  0.999499  0.819597  1
  O  O16  1  0.498336  0.999944  0.818886  1
  O  O17  1  0.102712  0.685077  0.920495  1
  O  O18  1  0.573068  0.669381  0.917970  1
