# generated using pymatgen
data_YbTm7(LuIr3)2
_symmetry_space_group_name_H-M   'P 1'
_cell_length_a   10.77714928
_cell_length_b   10.79859900
_cell_length_c   6.31870800
_cell_angle_alpha   90.00000000
_cell_angle_beta   90.20094488
_cell_angle_gamma   90.00000000
_symmetry_Int_Tables_number   1
_chemical_formula_structural   YbTm7(LuIr3)2
_chemical_formula_sum   'Yb2 Tm14 Lu4 Ir12'
_cell_volume   735.35479391
_cell_formula_units_Z   2
loop_
 _symmetry_equiv_pos_site_id
 _symmetry_equiv_pos_as_xyz
  1  'x, y, z'
loop_
 _atom_site_type_symbol
 _atom_site_label
 _atom_site_symmetry_multiplicity
 _atom_site_fract_x
 _atom_site_fract_y
 _atom_site_fract_z
 _atom_site_occupancy
  Yb  Yb0  1  0.289197  0.087735  0.375754  1
  Yb  Yb1  1  0.289197  0.912265  0.875754  1
  Tm  Tm2  1  0.708860  0.086179  0.878683  1
  Tm  Tm3  1  0.708860  0.913821  0.378683  1
  Tm  Tm4  1  0.586993  0.792346  0.877204  1
  Tm  Tm5  1  0.586993  0.207654  0.377204  1
  Tm  Tm6  1  0.412831  0.792552  0.378808  1
  Tm  Tm7  1  0.412831  0.207448  0.878808  1
  Tm  Tm8  1  0.209487  0.413594  0.622758  1
  Tm  Tm9  1  0.209487  0.586406  0.122758  1
  Tm  Tm10  1  0.791173  0.412699  0.120941  1
  Tm  Tm11  1  0.791173  0.587301  0.620941  1
  Tm  Tm12  1  0.912968  0.709435  0.123220  1
  Tm  Tm13  1  0.912968  0.290565  0.623220  1
  Tm  Tm14  1  0.087105  0.708634  0.621238  1
  Tm  Tm15  1  0.087105  0.291366  0.121238  1
  Lu  Lu16  1  0.000502  0.999441  0.499789  1
  Lu  Lu17  1  0.000502  0.000559  0.999789  1
  Lu  Lu18  1  0.500163  0.499959  0.998980  1
  Lu  Lu19  1  0.500163  0.500041  0.498980  1
  Ir  Ir20  1  0.849552  0.152932  0.250129  1
  Ir  Ir21  1  0.849552  0.847068  0.750129  1
  Ir  Ir22  1  0.146447  0.159161  0.753929  1
  Ir  Ir23  1  0.146447  0.840839  0.253929  1
  Ir  Ir24  1  0.650857  0.346447  0.750732  1
  Ir  Ir25  1  0.650857  0.653553  0.250732  1
  Ir  Ir26  1  0.348236  0.352616  0.245750  1
  Ir  Ir27  1  0.348236  0.647384  0.745750  1
  Ir  Ir28  1  0.505589  0.000251  0.123821  1
  Ir  Ir29  1  0.505589  0.999749  0.623821  1
  Ir  Ir30  1  0.000039  0.500291  0.878263  1
  Ir  Ir31  1  0.000039  0.499709  0.378263  1
