# generated using pymatgen
data_PrSm2Mn(Co4P3)2
_symmetry_space_group_name_H-M   'P 1'
_cell_length_a   3.73014900
_cell_length_b   10.60664800
_cell_length_c   12.30179300
_cell_angle_alpha   90.00000000
_cell_angle_beta   90.00000000
_cell_angle_gamma   90.00000000
_symmetry_Int_Tables_number   1
_chemical_formula_structural   PrSm2Mn(Co4P3)2
_chemical_formula_sum   'Pr2 Sm4 Mn2 Co16 P12'
_cell_volume   486.71278132
_cell_formula_units_Z   2
loop_
 _symmetry_equiv_pos_site_id
 _symmetry_equiv_pos_as_xyz
  1  'x, y, z'
loop_
 _atom_site_type_symbol
 _atom_site_label
 _atom_site_symmetry_multiplicity
 _atom_site_fract_x
 _atom_site_fract_y
 _atom_site_fract_z
 _atom_site_occupancy
  Pr  Pr0  1  0.000000  0.500000  0.522550  1
  Pr  Pr1  1  0.500000  0.000000  0.477450  1
  Sm  Sm2  1  0.500000  0.817970  0.204576  1
  Sm  Sm3  1  0.500000  0.182030  0.204576  1
  Sm  Sm4  1  0.000000  0.682030  0.795424  1
  Sm  Sm5  1  0.000000  0.317970  0.795424  1
  Mn  Mn6  1  0.500000  0.500000  0.156231  1
  Mn  Mn7  1  0.000000  0.000000  0.843769  1
  Co  Co8  1  0.500000  0.500000  0.705735  1
  Co  Co9  1  0.000000  0.000000  0.294265  1
  Co  Co10  1  0.000000  0.500000  0.987361  1
  Co  Co11  1  0.500000  0.000000  0.012639  1
  Co  Co12  1  0.500000  0.333277  0.995086  1
  Co  Co13  1  0.500000  0.666723  0.995086  1
  Co  Co14  1  0.000000  0.166723  0.004914  1
  Co  Co15  1  0.000000  0.833277  0.004914  1
  Co  Co16  1  0.500000  0.296350  0.429296  1
  Co  Co17  1  0.500000  0.703650  0.429296  1
  Co  Co18  1  0.000000  0.203650  0.570704  1
  Co  Co19  1  0.000000  0.796350  0.570704  1
  Co  Co20  1  0.500000  0.881123  0.712056  1
  Co  Co21  1  0.500000  0.118877  0.712056  1
  Co  Co22  1  0.000000  0.618877  0.287944  1
  Co  Co23  1  0.000000  0.381123  0.287944  1
  P  P24  1  0.500000  0.500000  0.885828  1
  P  P25  1  0.000000  0.000000  0.114172  1
  P  P26  1  0.500000  0.500000  0.339767  1
  P  P27  1  0.000000  0.000000  0.660233  1
  P  P28  1  0.500000  0.306581  0.616152  1
  P  P29  1  0.500000  0.693419  0.616152  1
  P  P30  1  0.000000  0.193419  0.383848  1
  P  P31  1  0.000000  0.806581  0.383848  1
  P  P32  1  0.500000  0.847556  0.894847  1
  P  P33  1  0.500000  0.152444  0.894847  1
  P  P34  1  0.000000  0.652444  0.105153  1
  P  P35  1  0.000000  0.347556  0.105153  1
