# generated using pymatgen
data_Yb12Tm3Lu5Ge16
_symmetry_space_group_name_H-M   'P 1'
_cell_length_a   7.33219706
_cell_length_b   7.85215804
_cell_length_c   15.03890606
_cell_angle_alpha   89.99651543
_cell_angle_beta   90.00992231
_cell_angle_gamma   89.98924618
_symmetry_Int_Tables_number   1
_chemical_formula_structural   Yb12Tm3Lu5Ge16
_chemical_formula_sum   'Yb12 Tm3 Lu5 Ge16'
_cell_volume   865.84348234
_cell_formula_units_Z   1
loop_
 _symmetry_equiv_pos_site_id
 _symmetry_equiv_pos_as_xyz
  1  'x, y, z'
loop_
 _atom_site_type_symbol
 _atom_site_label
 _atom_site_symmetry_multiplicity
 _atom_site_fract_x
 _atom_site_fract_y
 _atom_site_fract_z
 _atom_site_occupancy
  Yb  Yb0  1  0.983501  0.813973  0.405832  1
  Yb  Yb1  1  0.483552  0.686072  0.094198  1
  Yb  Yb2  1  0.516497  0.313901  0.594204  1
  Yb  Yb3  1  0.016424  0.186012  0.905784  1
  Yb  Yb4  1  0.016615  0.186022  0.594235  1
  Yb  Yb5  1  0.516709  0.313905  0.905770  1
  Yb  Yb6  1  0.483361  0.686110  0.405842  1
  Yb  Yb7  1  0.983295  0.813914  0.094210  1
  Yb  Yb8  1  0.341992  0.019613  0.749924  1
  Yb  Yb9  1  0.841877  0.480423  0.749968  1
  Yb  Yb10  1  0.158081  0.519677  0.250022  1
  Yb  Yb11  1  0.658107  0.980300  0.249977  1
  Tm  Tm12  1  0.319541  0.171440  0.121315  1
  Tm  Tm13  1  0.819549  0.328568  0.378710  1
  Tm  Tm14  1  0.180481  0.671471  0.878638  1
  Lu  Lu15  1  0.680450  0.828708  0.621354  1
  Lu  Lu16  1  0.319495  0.171187  0.378735  1
  Lu  Lu17  1  0.819429  0.328809  0.121312  1
  Lu  Lu18  1  0.180558  0.671302  0.621331  1
  Lu  Lu19  1  0.680554  0.828753  0.878639  1
  Ge  Ge20  1  0.842458  0.534673  0.540089  1
  Ge  Ge21  1  0.342829  0.965553  0.960040  1
  Ge  Ge22  1  0.657286  0.034167  0.460259  1
  Ge  Ge23  1  0.157147  0.465582  0.039953  1
  Ge  Ge24  1  0.158065  0.465705  0.460225  1
  Ge  Ge25  1  0.658089  0.034374  0.039785  1
  Ge  Ge26  1  0.342251  0.965477  0.539889  1
  Ge  Ge27  1  0.841923  0.534355  0.960215  1
  Ge  Ge28  1  0.975435  0.873845  0.749914  1
  Ge  Ge29  1  0.475917  0.626336  0.749812  1
  Ge  Ge30  1  0.524334  0.373956  0.249924  1
  Ge  Ge31  1  0.024324  0.126017  0.250094  1
  Ge  Ge32  1  0.235574  0.387133  0.749838  1
  Ge  Ge33  1  0.735370  0.112690  0.749961  1
  Ge  Ge34  1  0.264461  0.887085  0.250127  1
  Ge  Ge35  1  0.764469  0.612893  0.249877  1
