# generated using pymatgen
data_Eu4LuSn3
_symmetry_space_group_name_H-M   'P 1'
_cell_length_a   9.50861257
_cell_length_b   9.50859115
_cell_length_c   9.50861300
_cell_angle_alpha   96.92313756
_cell_angle_beta   96.92388063
_cell_angle_gamma   139.36852065
_symmetry_Int_Tables_number   1
_chemical_formula_structural   Eu4LuSn3
_chemical_formula_sum   'Eu8 Lu2 Sn6'
_cell_volume   525.00790712
_cell_formula_units_Z   2
loop_
 _symmetry_equiv_pos_site_id
 _symmetry_equiv_pos_as_xyz
  1  'x, y, z'
loop_
 _atom_site_type_symbol
 _atom_site_label
 _atom_site_symmetry_multiplicity
 _atom_site_fract_x
 _atom_site_fract_y
 _atom_site_fract_z
 _atom_site_occupancy
  Eu  Eu0  1  0.085205  0.215121  0.300317  1
  Eu  Eu1  1  0.914795  0.784879  0.699683  1
  Eu  Eu2  1  0.784866  0.085192  0.870074  1
  Eu  Eu3  1  0.414803  0.715121  0.129916  1
  Eu  Eu4  1  0.215134  0.914808  0.129926  1
  Eu  Eu5  1  0.585197  0.284879  0.870084  1
  Eu  Eu6  1  0.715119  0.585192  0.300326  1
  Eu  Eu7  1  0.284881  0.414808  0.699674  1
  Lu  Lu8  1  0.249992  0.750000  0.499992  1
  Lu  Lu9  1  0.750008  0.250000  0.500008  1
  Sn  Sn10  1  0.148939  0.648943  0.797891  1
  Sn  Sn11  1  0.851061  0.351057  0.202109  1
  Sn  Sn12  1  0.351051  0.148943  0.500004  1
  Sn  Sn13  1  0.648949  0.851057  0.499996  1
  Sn  Sn14  1  0.249891  0.250000  0.999891  1
  Sn  Sn15  1  0.750109  0.750000  0.000109  1
