# generated using pymatgen
data_YHo3(Pd2O7)2
_symmetry_space_group_name_H-M   'P 1'
_cell_length_a   7.22971975
_cell_length_b   7.22971931
_cell_length_c   7.22971906
_cell_angle_alpha   60.03301091
_cell_angle_beta   60.03300861
_cell_angle_gamma   60.03301893
_symmetry_Int_Tables_number   1
_chemical_formula_structural   YHo3(Pd2O7)2
_chemical_formula_sum   'Y1 Ho3 Pd4 O14'
_cell_volume   267.40787692
_cell_formula_units_Z   1
loop_
 _symmetry_equiv_pos_site_id
 _symmetry_equiv_pos_as_xyz
  1  'x, y, z'
loop_
 _atom_site_type_symbol
 _atom_site_label
 _atom_site_symmetry_multiplicity
 _atom_site_fract_x
 _atom_site_fract_y
 _atom_site_fract_z
 _atom_site_occupancy
  Y  Y0  1  0.500000  0.500000  0.500000  1
  Ho  Ho1  1  0.500000  0.000000  0.500000  1
  Ho  Ho2  1  0.000000  0.500000  0.500000  1
  Ho  Ho3  1  0.500000  0.500000  0.000000  1
  Pd  Pd4  1  0.000000  0.000000  0.000000  1
  Pd  Pd5  1  0.000000  0.500000  0.000000  1
  Pd  Pd6  1  0.500000  0.000000  0.000000  1
  Pd  Pd7  1  0.000000  0.000000  0.500000  1
  O  O8  1  0.625755  0.625755  0.625755  1
  O  O9  1  0.374245  0.374245  0.374245  1
  O  O10  1  0.909262  0.909262  0.340733  1
  O  O11  1  0.340733  0.909262  0.909262  1
  O  O12  1  0.909262  0.340733  0.909262  1
  O  O13  1  0.340385  0.340385  0.909921  1
  O  O14  1  0.909921  0.340385  0.340385  1
  O  O15  1  0.340385  0.909921  0.340385  1
  O  O16  1  0.090738  0.090738  0.659267  1
  O  O17  1  0.659267  0.090738  0.090738  1
  O  O18  1  0.090738  0.659267  0.090738  1
  O  O19  1  0.659615  0.659615  0.090079  1
  O  O20  1  0.090079  0.659615  0.659615  1
  O  O21  1  0.659615  0.090079  0.659615  1
