# generated using pymatgen
data_Ga3Se3Cl
_symmetry_space_group_name_H-M   'P 1'
_cell_length_a   3.83705800
_cell_length_b   10.57642500
_cell_length_c   18.84997100
_cell_angle_alpha   90.00000000
_cell_angle_beta   90.00000000
_cell_angle_gamma   90.00000000
_symmetry_Int_Tables_number   1
_chemical_formula_structural   Ga3Se3Cl
_chemical_formula_sum   'Ga12 Se12 Cl4'
_cell_volume   764.97623668
_cell_formula_units_Z   4
loop_
 _symmetry_equiv_pos_site_id
 _symmetry_equiv_pos_as_xyz
  1  'x, y, z'
loop_
 _atom_site_type_symbol
 _atom_site_label
 _atom_site_symmetry_multiplicity
 _atom_site_fract_x
 _atom_site_fract_y
 _atom_site_fract_z
 _atom_site_occupancy
  Ga  Ga0  1  0.750000  0.826722  0.508014  1
  Ga  Ga1  1  0.250000  0.173278  0.491986  1
  Ga  Ga2  1  0.250000  0.673278  0.008014  1
  Ga  Ga3  1  0.750000  0.326722  0.991986  1
  Ga  Ga4  1  0.750000  0.950482  0.397938  1
  Ga  Ga5  1  0.250000  0.049518  0.602062  1
  Ga  Ga6  1  0.250000  0.549518  0.897938  1
  Ga  Ga7  1  0.750000  0.450482  0.102062  1
  Ga  Ga8  1  0.750000  0.837726  0.867077  1
  Ga  Ga9  1  0.250000  0.162274  0.132923  1
  Ga  Ga10  1  0.250000  0.662274  0.367077  1
  Ga  Ga11  1  0.750000  0.337726  0.632923  1
  Se  Se12  1  0.750000  0.771613  0.310426  1
  Se  Se13  1  0.250000  0.228387  0.689574  1
  Se  Se14  1  0.250000  0.728387  0.810426  1
  Se  Se15  1  0.750000  0.271613  0.189574  1
  Se  Se16  1  0.750000  0.826028  0.998153  1
  Se  Se17  1  0.250000  0.173972  0.001847  1
  Se  Se18  1  0.250000  0.673972  0.498153  1
  Se  Se19  1  0.750000  0.326028  0.501847  1
  Se  Se20  1  0.750000  0.907832  0.631847  1
  Se  Se21  1  0.250000  0.092168  0.368153  1
  Se  Se22  1  0.250000  0.592168  0.131847  1
  Se  Se23  1  0.750000  0.407832  0.868153  1
  Cl  Cl24  1  0.750000  0.535543  0.666139  1
  Cl  Cl25  1  0.250000  0.464457  0.333861  1
  Cl  Cl26  1  0.250000  0.964457  0.166139  1
  Cl  Cl27  1  0.750000  0.035543  0.833861  1
