# generated using pymatgen
data_Sc6Ti2Al12V2Os7
_symmetry_space_group_name_H-M   'P 1'
_cell_length_a   8.77626523
_cell_length_b   8.78595733
_cell_length_c   8.78595750
_cell_angle_alpha   60.09186847
_cell_angle_beta   60.03649122
_cell_angle_gamma   60.03649313
_symmetry_Int_Tables_number   1
_chemical_formula_structural   Sc6Ti2Al12V2Os7
_chemical_formula_sum   'Sc6 Ti2 Al12 V2 Os7'
_cell_volume   479.63758995
_cell_formula_units_Z   1
loop_
 _symmetry_equiv_pos_site_id
 _symmetry_equiv_pos_as_xyz
  1  'x, y, z'
loop_
 _atom_site_type_symbol
 _atom_site_label
 _atom_site_symmetry_multiplicity
 _atom_site_fract_x
 _atom_site_fract_y
 _atom_site_fract_z
 _atom_site_occupancy
  Sc  Sc0  1  0.712519  0.712634  0.286351  1
  Sc  Sc1  1  0.288496  0.712634  0.286351  1
  Sc  Sc2  1  0.710564  0.289436  0.289436  1
  Sc  Sc3  1  0.288496  0.286351  0.712634  1
  Sc  Sc4  1  0.712519  0.286351  0.712634  1
  Sc  Sc5  1  0.285685  0.714315  0.714315  1
  Ti  Ti6  1  0.879721  0.881481  0.359076  1
  Ti  Ti7  1  0.879721  0.359076  0.881481  1
  Al  Al8  1  0.119960  0.121392  0.638688  1
  Al  Al9  1  0.119960  0.638688  0.121392  1
  Al  Al10  1  0.641506  0.119603  0.119603  1
  Al  Al11  1  0.119289  0.119603  0.119603  1
  Al  Al12  1  0.665603  0.666566  0.002228  1
  Al  Al13  1  0.665603  0.002228  0.666566  1
  Al  Al14  1  0.003283  0.665822  0.665822  1
  Al  Al15  1  0.665073  0.665822  0.665822  1
  Al  Al16  1  0.335436  0.334683  0.994444  1
  Al  Al17  1  0.335436  0.994444  0.334683  1
  Al  Al18  1  0.995516  0.334464  0.334464  1
  Al  Al19  1  0.335556  0.334464  0.334464  1
  V  V20  1  0.361479  0.879904  0.879904  1
  V  V21  1  0.878713  0.879904  0.879904  1
  Os  Os22  1  0.005993  0.994007  0.994007  1
  Os  Os23  1  0.997644  0.998087  0.505681  1
  Os  Os24  1  0.498588  0.998087  0.505681  1
  Os  Os25  1  0.998665  0.501335  0.501335  1
  Os  Os26  1  0.498588  0.505681  0.998087  1
  Os  Os27  1  0.997644  0.505681  0.998087  1
  Os  Os28  1  0.502746  0.997254  0.997254  1
