# generated using pymatgen
data_Ho3Ga6Ni8Ir
_symmetry_space_group_name_H-M   'P 1'
_cell_length_a   4.09752900
_cell_length_b   8.83974335
_cell_length_c   8.83974363
_cell_angle_alpha   58.77096513
_cell_angle_beta   90.00000000
_cell_angle_gamma   90.00000000
_symmetry_Int_Tables_number   1
_chemical_formula_structural   Ho3Ga6Ni8Ir
_chemical_formula_sum   'Ho3 Ga6 Ni8 Ir1'
_cell_volume   273.79095702
_cell_formula_units_Z   1
loop_
 _symmetry_equiv_pos_site_id
 _symmetry_equiv_pos_as_xyz
  1  'x, y, z'
loop_
 _atom_site_type_symbol
 _atom_site_label
 _atom_site_symmetry_multiplicity
 _atom_site_fract_x
 _atom_site_fract_y
 _atom_site_fract_z
 _atom_site_occupancy
  Ho  Ho0  1  0.500000  0.334768  0.334257  1
  Ho  Ho1  1  0.500000  0.665743  0.665232  1
  Ho  Ho2  1  0.000000  0.986402  0.013598  1
  Ga  Ga3  1  0.000000  0.524469  0.475531  1
  Ga  Ga4  1  0.000000  0.480115  0.989264  1
  Ga  Ga5  1  0.000000  0.010736  0.519885  1
  Ga  Ga6  1  0.500000  0.266439  0.733561  1
  Ga  Ga7  1  0.500000  0.724687  0.993639  1
  Ga  Ga8  1  0.500000  0.006361  0.275313  1
  Ni  Ni9  1  0.000000  0.176263  0.198176  1
  Ni  Ni10  1  0.000000  0.200702  0.631380  1
  Ni  Ni11  1  0.000000  0.611741  0.166766  1
  Ni  Ni12  1  0.000000  0.801824  0.823737  1
  Ni  Ni13  1  0.000000  0.368620  0.799298  1
  Ni  Ni14  1  0.000000  0.833234  0.388259  1
  Ni  Ni15  1  0.500000  0.292539  0.997033  1
  Ni  Ni16  1  0.500000  0.002967  0.707461  1
  Ir  Ir17  1  0.500000  0.712289  0.287711  1
