# generated using pymatgen
data_Nd3Sm(ScPt)4
_symmetry_space_group_name_H-M   'P 1'
_cell_length_a   4.69872100
_cell_length_b   7.11952098
_cell_length_c   8.53854194
_cell_angle_alpha   89.98371764
_cell_angle_beta   90.00000000
_cell_angle_gamma   90.00000000
_symmetry_Int_Tables_number   1
_chemical_formula_structural   Nd3Sm(ScPt)4
_chemical_formula_sum   'Nd3 Sm1 Sc4 Pt4'
_cell_volume   285.63678142
_cell_formula_units_Z   1
loop_
 _symmetry_equiv_pos_site_id
 _symmetry_equiv_pos_as_xyz
  1  'x, y, z'
loop_
 _atom_site_type_symbol
 _atom_site_label
 _atom_site_symmetry_multiplicity
 _atom_site_fract_x
 _atom_site_fract_y
 _atom_site_fract_z
 _atom_site_occupancy
  Nd  Nd0  1  0.250000  0.984223  0.320493  1
  Nd  Nd1  1  0.750000  0.016614  0.679792  1
  Nd  Nd2  1  0.250000  0.483874  0.179138  1
  Sm  Sm3  1  0.750000  0.516048  0.821579  1
  Sc  Sc4  1  0.750000  0.639618  0.428887  1
  Sc  Sc5  1  0.250000  0.361266  0.575135  1
  Sc  Sc6  1  0.750000  0.139122  0.071623  1
  Sc  Sc7  1  0.250000  0.858683  0.925881  1
  Pt  Pt8  1  0.250000  0.236884  0.905151  1
  Pt  Pt9  1  0.750000  0.763338  0.090990  1
  Pt  Pt10  1  0.250000  0.735700  0.594150  1
  Pt  Pt11  1  0.750000  0.264628  0.407178  1
