# generated using pymatgen
data_Dy3Lu4Pa(ReB6)4
_symmetry_space_group_name_H-M   'P 1'
_cell_length_a   3.65915600
_cell_length_b   9.10759992
_cell_length_c   11.48920802
_cell_angle_alpha   90.12831103
_cell_angle_beta   90.00000000
_cell_angle_gamma   90.00000000
_symmetry_Int_Tables_number   1
_chemical_formula_structural   Dy3Lu4Pa(ReB6)4
_chemical_formula_sum   'Dy3 Lu4 Pa1 Re4 B24'
_cell_volume   382.88986713
_cell_formula_units_Z   1
loop_
 _symmetry_equiv_pos_site_id
 _symmetry_equiv_pos_as_xyz
  1  'x, y, z'
loop_
 _atom_site_type_symbol
 _atom_site_label
 _atom_site_symmetry_multiplicity
 _atom_site_fract_x
 _atom_site_fract_y
 _atom_site_fract_z
 _atom_site_occupancy
  Dy  Dy0  1  0.000000  0.679983  0.586902  1
  Dy  Dy1  1  0.000000  0.822709  0.085346  1
  Dy  Dy2  1  0.000000  0.176275  0.913424  1
  Lu  Lu3  1  0.000000  0.942959  0.371688  1
  Lu  Lu4  1  0.000000  0.055106  0.629231  1
  Lu  Lu5  1  0.000000  0.443654  0.127580  1
  Lu  Lu6  1  0.000000  0.557078  0.870446  1
  Pa  Pa7  1  0.000000  0.322733  0.414191  1
  Re  Re8  1  0.000000  0.636351  0.321029  1
  Re  Re9  1  0.000000  0.361472  0.677268  1
  Re  Re10  1  0.000000  0.141432  0.182166  1
  Re  Re11  1  0.000000  0.861019  0.820449  1
  B  B12  1  0.500000  0.553049  0.431764  1
  B  B13  1  0.500000  0.445415  0.567352  1
  B  B14  1  0.500000  0.054179  0.067691  1
  B  B15  1  0.500000  0.946482  0.933260  1
  B  B16  1  0.500000  0.750343  0.418135  1
  B  B17  1  0.500000  0.249291  0.581465  1
  B  B18  1  0.500000  0.250260  0.080921  1
  B  B19  1  0.500000  0.749477  0.918692  1
  B  B20  1  0.500000  0.792422  0.265835  1
  B  B21  1  0.500000  0.207382  0.734724  1
  B  B22  1  0.500000  0.292472  0.234368  1
  B  B23  1  0.500000  0.707472  0.765893  1
  B  B24  1  0.500000  0.630396  0.184272  1
  B  B25  1  0.500000  0.370391  0.814731  1
  B  B26  1  0.500000  0.130999  0.315356  1
  B  B27  1  0.500000  0.869705  0.685515  1
  B  B28  1  0.500000  0.982292  0.212897  1
  B  B29  1  0.500000  0.017983  0.787529  1
  B  B30  1  0.500000  0.482349  0.286729  1
  B  B31  1  0.500000  0.518157  0.713542  1
  B  B32  1  0.500000  0.599325  0.027053  1
  B  B33  1  0.500000  0.400700  0.971782  1
  B  B34  1  0.500000  0.101422  0.472135  1
  B  B35  1  0.500000  0.897268  0.528635  1
