# generated using pymatgen
data_Yb7ThPd24Se
_symmetry_space_group_name_H-M   'P 1'
_cell_length_a   8.32971611
_cell_length_b   8.32971622
_cell_length_c   8.32971600
_cell_angle_alpha   90.05694006
_cell_angle_beta   90.05694006
_cell_angle_gamma   89.94305841
_symmetry_Int_Tables_number   1
_chemical_formula_structural   Yb7ThPd24Se
_chemical_formula_sum   'Yb7 Th1 Pd24 Se1'
_cell_volume   577.94958706
_cell_formula_units_Z   1
loop_
 _symmetry_equiv_pos_site_id
 _symmetry_equiv_pos_as_xyz
  1  'x, y, z'
loop_
 _atom_site_type_symbol
 _atom_site_label
 _atom_site_symmetry_multiplicity
 _atom_site_fract_x
 _atom_site_fract_y
 _atom_site_fract_z
 _atom_site_occupancy
  Yb  Yb0  1  0.253322  0.747555  0.252445  1
  Yb  Yb1  1  0.747555  0.253322  0.252445  1
  Yb  Yb2  1  0.747555  0.747555  0.746678  1
  Yb  Yb3  1  0.746747  0.746747  0.253253  1
  Yb  Yb4  1  0.747147  0.252784  0.747216  1
  Yb  Yb5  1  0.252784  0.747147  0.747216  1
  Yb  Yb6  1  0.252784  0.252784  0.252853  1
  Th  Th7  1  0.255979  0.255979  0.744021  1
  Pd  Pd8  1  0.501985  0.501985  0.746437  1
  Pd  Pd9  1  0.501985  0.253563  0.498015  1
  Pd  Pd10  1  0.253563  0.501985  0.498015  1
  Pd  Pd11  1  0.500113  0.500113  0.253125  1
  Pd  Pd12  1  0.500113  0.746875  0.499887  1
  Pd  Pd13  1  0.746875  0.500113  0.499887  1
  Pd  Pd14  1  0.998422  0.998422  0.707852  1
  Pd  Pd15  1  0.998422  0.292148  0.001578  1
  Pd  Pd16  1  0.292148  0.998422  0.001578  1
  Pd  Pd17  1  0.999986  0.999986  0.293290  1
  Pd  Pd18  1  0.999986  0.706710  0.000014  1
  Pd  Pd19  1  0.706710  0.999986  0.000014  1
  Pd  Pd20  1  0.998844  0.500249  0.739427  1
  Pd  Pd21  1  0.500249  0.260573  0.001156  1
  Pd  Pd22  1  0.260573  0.998844  0.499751  1
  Pd  Pd23  1  0.998844  0.260573  0.499751  1
  Pd  Pd24  1  0.500249  0.998844  0.739427  1
  Pd  Pd25  1  0.260573  0.500249  0.001156  1
  Pd  Pd26  1  0.000337  0.500248  0.261161  1
  Pd  Pd27  1  0.500248  0.738839  0.999663  1
  Pd  Pd28  1  0.000337  0.738839  0.499752  1
  Pd  Pd29  1  0.500248  0.000337  0.261161  1
  Pd  Pd30  1  0.738839  0.000337  0.499752  1
  Pd  Pd31  1  0.738839  0.500248  0.999663  1
  Se  Se32  1  0.997642  0.997642  0.002358  1
