# generated using pymatgen
data_TmNb(Ni7B2)3
_symmetry_space_group_name_H-M   'P 1'
_cell_length_a   7.47558703
_cell_length_b   7.47558704
_cell_length_c   7.47558800
_cell_angle_alpha   59.99999576
_cell_angle_beta   59.99999572
_cell_angle_gamma   59.99999718
_symmetry_Int_Tables_number   1
_chemical_formula_structural   TmNb(Ni7B2)3
_chemical_formula_sum   'Tm1 Nb1 Ni21 B6'
_cell_volume   295.40709902
_cell_formula_units_Z   1
loop_
 _symmetry_equiv_pos_site_id
 _symmetry_equiv_pos_as_xyz
  1  'x, y, z'
loop_
 _atom_site_type_symbol
 _atom_site_label
 _atom_site_symmetry_multiplicity
 _atom_site_fract_x
 _atom_site_fract_y
 _atom_site_fract_z
 _atom_site_occupancy
  Tm  Tm0  1  0.250000  0.250000  0.250000  1
  Nb  Nb1  1  0.750000  0.750000  0.750000  1
  Ni  Ni2  1  0.341301  0.997742  0.997742  1
  Ni  Ni3  1  0.663216  0.997742  0.997742  1
  Ni  Ni4  1  0.997742  0.341301  0.663216  1
  Ni  Ni5  1  0.997742  0.663216  0.341301  1
  Ni  Ni6  1  0.997742  0.341301  0.997742  1
  Ni  Ni7  1  0.663216  0.997742  0.341301  1
  Ni  Ni8  1  0.997742  0.663216  0.997742  1
  Ni  Ni9  1  0.341301  0.997742  0.663216  1
  Ni  Ni10  1  0.997742  0.997742  0.341301  1
  Ni  Ni11  1  0.997742  0.997742  0.663216  1
  Ni  Ni12  1  0.663216  0.341301  0.997742  1
  Ni  Ni13  1  0.341301  0.663216  0.997742  1
  Ni  Ni14  1  0.389787  0.389787  0.389787  1
  Ni  Ni15  1  0.617480  0.617480  0.617480  1
  Ni  Ni16  1  0.389787  0.389787  0.830639  1
  Ni  Ni17  1  0.389787  0.830639  0.389787  1
  Ni  Ni18  1  0.617480  0.617480  0.147559  1
  Ni  Ni19  1  0.617480  0.147559  0.617480  1
  Ni  Ni20  1  0.830639  0.389787  0.389787  1
  Ni  Ni21  1  0.147559  0.617480  0.617480  1
  Ni  Ni22  1  0.000000  0.000000  0.000000  1
  B  B23  1  0.731489  0.268511  0.268511  1
  B  B24  1  0.268511  0.731489  0.731489  1
  B  B25  1  0.268511  0.731489  0.268511  1
  B  B26  1  0.731489  0.268511  0.731489  1
  B  B27  1  0.268511  0.268511  0.731489  1
  B  B28  1  0.731489  0.731489  0.268511  1
