# generated using pymatgen
data_Hf3MgSi6Ir7
_symmetry_space_group_name_H-M   'P 1'
_cell_length_a   6.95688011
_cell_length_b   6.95688148
_cell_length_c   7.04275100
_cell_angle_alpha   109.72145327
_cell_angle_beta   109.72145729
_cell_angle_gamma   109.21982915
_symmetry_Int_Tables_number   1
_chemical_formula_structural   Hf3MgSi6Ir7
_chemical_formula_sum   'Hf3 Mg1 Si6 Ir7'
_cell_volume   261.57669371
_cell_formula_units_Z   1
loop_
 _symmetry_equiv_pos_site_id
 _symmetry_equiv_pos_as_xyz
  1  'x, y, z'
loop_
 _atom_site_type_symbol
 _atom_site_label
 _atom_site_symmetry_multiplicity
 _atom_site_fract_x
 _atom_site_fract_y
 _atom_site_fract_z
 _atom_site_occupancy
  Hf  Hf0  1  0.500000  0.500000  0.500000  1
  Hf  Hf1  1  0.000000  0.500000  0.000000  1
  Hf  Hf2  1  0.500000  0.000000  0.000000  1
  Mg  Mg3  1  0.000000  0.000000  0.500000  1
  Si  Si4  1  0.000000  0.313974  0.320412  1
  Si  Si5  1  0.000000  0.686026  0.679588  1
  Si  Si6  1  0.313974  0.000000  0.320412  1
  Si  Si7  1  0.686026  0.000000  0.679588  1
  Si  Si8  1  0.313974  0.313974  0.993562  1
  Si  Si9  1  0.686026  0.686026  0.006438  1
  Ir  Ir10  1  0.498315  0.749157  0.249157  1
  Ir  Ir11  1  0.501685  0.250843  0.750843  1
  Ir  Ir12  1  0.250843  0.501685  0.750843  1
  Ir  Ir13  1  0.749157  0.498315  0.249157  1
  Ir  Ir14  1  0.749157  0.250843  0.500000  1
  Ir  Ir15  1  0.250843  0.749157  0.500000  1
  Ir  Ir16  1  0.000000  0.000000  0.000000  1
