# generated using pymatgen
data_TbTm23Ru14
_symmetry_space_group_name_H-M   'P 1'
_cell_length_a   11.15172321
_cell_length_b   8.27640604
_cell_length_c   11.11904894
_cell_angle_alpha   56.45504147
_cell_angle_beta   89.97533198
_cell_angle_gamma   90.00634005
_symmetry_Int_Tables_number   1
_chemical_formula_structural   TbTm23Ru14
_chemical_formula_sum   'Tb1 Tm23 Ru14'
_cell_volume   855.32698562
_cell_formula_units_Z   1
loop_
 _symmetry_equiv_pos_site_id
 _symmetry_equiv_pos_as_xyz
  1  'x, y, z'
loop_
 _atom_site_type_symbol
 _atom_site_label
 _atom_site_symmetry_multiplicity
 _atom_site_fract_x
 _atom_site_fract_y
 _atom_site_fract_z
 _atom_site_occupancy
  Tb  Tb0  1  0.704078  0.240170  0.533196  1
  Tm  Tm1  1  0.205735  0.758370  0.968587  1
  Tm  Tm2  1  0.844759  0.508690  0.655466  1
  Tm  Tm3  1  0.343903  0.491590  0.844597  1
  Tm  Tm4  1  0.156037  0.491673  0.344803  1
  Tm  Tm5  1  0.655498  0.508684  0.154350  1
  Tm  Tm6  1  0.006786  0.852575  0.362194  1
  Tm  Tm7  1  0.506343  0.147939  0.137249  1
  Tm  Tm8  1  0.994427  0.148008  0.637618  1
  Tm  Tm9  1  0.493189  0.851808  0.862926  1
  Tm  Tm10  1  0.794147  0.240962  0.032189  1
  Tm  Tm11  1  0.294024  0.757884  0.468667  1
  Tm  Tm12  1  0.931383  0.777755  0.090811  1
  Tm  Tm13  1  0.428786  0.222796  0.408029  1
  Tm  Tm14  1  0.068804  0.222399  0.909422  1
  Tm  Tm15  1  0.568702  0.776993  0.590697  1
  Tm  Tm16  1  0.301628  0.241197  0.674745  1
  Tm  Tm17  1  0.802419  0.757713  0.826226  1
  Tm  Tm18  1  0.698685  0.759511  0.325183  1
  Tm  Tm19  1  0.198306  0.241229  0.173808  1
  Tm  Tm20  1  0.925198  0.280413  0.292939  1
  Tm  Tm21  1  0.424728  0.720599  0.206371  1
  Tm  Tm22  1  0.075540  0.719851  0.706984  1
  Tm  Tm23  1  0.574713  0.280013  0.794495  1
  Ru  Ru24  1  0.497683  0.502373  0.499999  1
  Ru  Ru25  1  0.000294  0.499971  0.999984  1
  Ru  Ru26  1  0.646497  0.924298  0.034177  1
  Ru  Ru27  1  0.147096  0.075850  0.464988  1
  Ru  Ru28  1  0.353271  0.075968  0.965504  1
  Ru  Ru29  1  0.853803  0.923052  0.534355  1
  Ru  Ru30  1  0.397581  0.484135  0.104092  1
  Ru  Ru31  1  0.898898  0.516683  0.395315  1
  Ru  Ru32  1  0.602083  0.516250  0.895816  1
  Ru  Ru33  1  0.102081  0.484012  0.604410  1
  Ru  Ru34  1  0.822586  0.100319  0.849405  1
  Ru  Ru35  1  0.321166  0.899848  0.652272  1
  Ru  Ru36  1  0.178808  0.899307  0.152076  1
  Ru  Ru37  1  0.680333  0.099115  0.346053  1
