# generated using pymatgen
data_Ho3Er7Tl5In3Pd4
_symmetry_space_group_name_H-M   'P 1'
_cell_length_a   3.60558000
_cell_length_b   8.18504918
_cell_length_c   18.27338633
_cell_angle_alpha   89.95303304
_cell_angle_beta   90.00000000
_cell_angle_gamma   90.00000000
_symmetry_Int_Tables_number   1
_chemical_formula_structural   Ho3Er7Tl5In3Pd4
_chemical_formula_sum   'Ho3 Er7 Tl5 In3 Pd4'
_cell_volume   539.28124860
_cell_formula_units_Z   1
loop_
 _symmetry_equiv_pos_site_id
 _symmetry_equiv_pos_as_xyz
  1  'x, y, z'
loop_
 _atom_site_type_symbol
 _atom_site_label
 _atom_site_symmetry_multiplicity
 _atom_site_fract_x
 _atom_site_fract_y
 _atom_site_fract_z
 _atom_site_occupancy
  Ho  Ho0  1  0.000000  0.499562  0.499437  1
  Ho  Ho1  1  0.000000  0.999873  0.999844  1
  Ho  Ho2  1  0.000000  0.739746  0.280729  1
  Er  Er3  1  0.000000  0.259903  0.719439  1
  Er  Er4  1  0.000000  0.759965  0.780984  1
  Er  Er5  1  0.000000  0.239915  0.219371  1
  Er  Er6  1  0.000000  0.617419  0.084845  1
  Er  Er7  1  0.000000  0.382519  0.915215  1
  Er  Er8  1  0.000000  0.883468  0.584928  1
  Er  Er9  1  0.000000  0.117535  0.415317  1
  Tl  Tl10  1  0.500000  0.708627  0.933051  1
  Tl  Tl11  1  0.500000  0.291272  0.066854  1
  Tl  Tl12  1  0.500000  0.791791  0.433229  1
  Tl  Tl13  1  0.500000  0.207276  0.566545  1
  Tl  Tl14  1  0.500000  0.582171  0.649532  1
  In  In15  1  0.500000  0.417492  0.349879  1
  In  In16  1  0.500000  0.918800  0.150046  1
  In  In17  1  0.500000  0.081651  0.849813  1
  Pd  Pd18  1  0.500000  0.524141  0.196325  1
  Pd  Pd19  1  0.500000  0.474121  0.804371  1
  Pd  Pd20  1  0.500000  0.976182  0.696793  1
  Pd  Pd21  1  0.500000  0.026572  0.303453  1
