# generated using pymatgen
data_AcCe9(Si3H)2
_symmetry_space_group_name_H-M   'P 1'
_cell_length_a   8.66305481
_cell_length_b   8.61294939
_cell_length_c   8.62904700
_cell_angle_alpha   126.16056641
_cell_angle_beta   126.32943704
_cell_angle_gamma   79.55733808
_symmetry_Int_Tables_number   1
_chemical_formula_structural   AcCe9(Si3H)2
_chemical_formula_sum   'Ac1 Ce9 Si6 H2'
_cell_volume   404.51918831
_cell_formula_units_Z   1
loop_
 _symmetry_equiv_pos_site_id
 _symmetry_equiv_pos_as_xyz
  1  'x, y, z'
loop_
 _atom_site_type_symbol
 _atom_site_label
 _atom_site_symmetry_multiplicity
 _atom_site_fract_x
 _atom_site_fract_y
 _atom_site_fract_z
 _atom_site_occupancy
  Ac  Ac0  1  0.329172  0.475890  0.500000  1
  Ce  Ce1  1  0.501044  0.499648  0.005177  1
  Ce  Ce2  1  0.995866  0.994469  0.994823  1
  Ce  Ce3  1  0.527974  0.027836  0.861497  1
  Ce  Ce4  1  0.166478  0.666340  0.138503  1
  Ce  Ce5  1  0.025931  0.167421  0.500000  1
  Ce  Ce6  1  0.682420  0.526092  0.500000  1
  Ce  Ce7  1  0.476057  0.974134  0.145284  1
  Ce  Ce8  1  0.830772  0.328850  0.854716  1
  Ce  Ce9  1  0.969810  0.833107  0.500000  1
  Si  Si10  1  0.250730  0.246032  0.990628  1
  Si  Si11  1  0.760102  0.755403  0.009372  1
  Si  Si12  1  0.879525  0.384020  0.268812  1
  Si  Si13  1  0.110713  0.615208  0.731188  1
  Si  Si14  1  0.387630  0.104420  0.500000  1
  Si  Si15  1  0.612213  0.883576  0.500000  1
  H  H16  1  0.242856  0.767843  0.500000  1
  H  H17  1  0.750705  0.249710  0.500000  1
