# generated using pymatgen
data_Ho6Tm2VOs3C8
_symmetry_space_group_name_H-M   'P 1'
_cell_length_a   5.06031200
_cell_length_b   6.50157225
_cell_length_c   9.73453232
_cell_angle_alpha   89.83413498
_cell_angle_beta   90.00000000
_cell_angle_gamma   90.00000000
_symmetry_Int_Tables_number   1
_chemical_formula_structural   Ho6Tm2VOs3C8
_chemical_formula_sum   'Ho6 Tm2 V1 Os3 C8'
_cell_volume   320.26461603
_cell_formula_units_Z   1
loop_
 _symmetry_equiv_pos_site_id
 _symmetry_equiv_pos_as_xyz
  1  'x, y, z'
loop_
 _atom_site_type_symbol
 _atom_site_label
 _atom_site_symmetry_multiplicity
 _atom_site_fract_x
 _atom_site_fract_y
 _atom_site_fract_z
 _atom_site_occupancy
  Ho  Ho0  1  0.250000  0.682433  0.557465  1
  Ho  Ho1  1  0.250000  0.175073  0.942929  1
  Ho  Ho2  1  0.250000  0.533236  0.211742  1
  Ho  Ho3  1  0.750000  0.466681  0.780665  1
  Ho  Ho4  1  0.750000  0.972244  0.715695  1
  Ho  Ho5  1  0.250000  0.029869  0.284665  1
  Tm  Tm6  1  0.750000  0.323924  0.443644  1
  Tm  Tm7  1  0.750000  0.822229  0.056011  1
  V  V8  1  0.250000  0.722283  0.867241  1
  Os  Os9  1  0.750000  0.278231  0.134288  1
  Os  Os10  1  0.750000  0.777455  0.365065  1
  Os  Os11  1  0.250000  0.224846  0.633743  1
  C  C12  1  0.250000  0.458313  0.762096  1
  C  C13  1  0.750000  0.543448  0.241775  1
  C  C14  1  0.750000  0.043924  0.259716  1
  C  C15  1  0.250000  0.955183  0.741324  1
  C  C16  1  0.250000  0.821001  0.052283  1
  C  C17  1  0.750000  0.171830  0.950160  1
  C  C18  1  0.750000  0.673575  0.551930  1
  C  C19  1  0.250000  0.324224  0.447565  1
