# generated using pymatgen
data_Ho4Er4Ti11Si16Rh
_symmetry_space_group_name_H-M   'P 1'
_cell_length_a   7.02073903
_cell_length_b   7.02009152
_cell_length_c   12.83664839
_cell_angle_alpha   90.13122001
_cell_angle_beta   89.86917687
_cell_angle_gamma   89.79028177
_symmetry_Int_Tables_number   1
_chemical_formula_structural   Ho4Er4Ti11Si16Rh
_chemical_formula_sum   'Ho4 Er4 Ti11 Si16 Rh1'
_cell_volume   632.66245337
_cell_formula_units_Z   1
loop_
 _symmetry_equiv_pos_site_id
 _symmetry_equiv_pos_as_xyz
  1  'x, y, z'
loop_
 _atom_site_type_symbol
 _atom_site_label
 _atom_site_symmetry_multiplicity
 _atom_site_fract_x
 _atom_site_fract_y
 _atom_site_fract_z
 _atom_site_occupancy
  Ho  Ho0  1  0.340779  0.004147  0.467346  1
  Ho  Ho1  1  0.496530  0.842027  0.717985  1
  Ho  Ho2  1  0.501217  0.157920  0.214452  1
  Ho  Ho3  1  0.841936  0.496622  0.282157  1
  Er  Er4  1  0.157536  0.501261  0.785139  1
  Er  Er5  1  0.656517  0.998274  0.968167  1
  Er  Er6  1  0.003651  0.341190  0.532894  1
  Er  Er7  1  0.998244  0.656600  0.031636  1
  Ti  Ti8  1  0.175788  0.826391  0.248420  1
  Ti  Ti9  1  0.826695  0.176158  0.751410  1
  Ti  Ti10  1  0.674384  0.673737  0.500248  1
  Ti  Ti11  1  0.148455  0.002592  0.875743  1
  Ti  Ti12  1  0.493949  0.655767  0.124924  1
  Ti  Ti13  1  0.507345  0.349970  0.628191  1
  Ti  Ti14  1  0.655688  0.493821  0.874966  1
  Ti  Ti15  1  0.349817  0.507011  0.372196  1
  Ti  Ti16  1  0.849544  0.994207  0.374759  1
  Ti  Ti17  1  0.002788  0.148354  0.124115  1
  Ti  Ti18  1  0.994547  0.849491  0.625608  1
  Si  Si19  1  0.202173  0.134250  0.685272  1
  Si  Si20  1  0.371445  0.702883  0.933595  1
  Si  Si21  1  0.631670  0.295922  0.434246  1
  Si  Si22  1  0.703862  0.371889  0.066201  1
  Si  Si23  1  0.295416  0.630996  0.566287  1
  Si  Si24  1  0.796528  0.866963  0.183234  1
  Si  Si25  1  0.133541  0.202614  0.314754  1
  Si  Si26  1  0.867225  0.796340  0.816865  1
  Si  Si27  1  0.285959  0.948976  0.063817  1
  Si  Si28  1  0.547619  0.792170  0.315645  1
  Si  Si29  1  0.448513  0.210080  0.817678  1
  Si  Si30  1  0.792752  0.547472  0.684486  1
  Si  Si31  1  0.209779  0.448825  0.182120  1
  Si  Si32  1  0.708811  0.048342  0.565710  1
  Si  Si33  1  0.949949  0.286279  0.935933  1
  Si  Si34  1  0.048077  0.708113  0.434671  1
  Rh  Rh35  1  0.331268  0.332345  0.999129  1
