# generated using pymatgen
data_BaNa2(SnIr)4
_symmetry_space_group_name_H-M   'P 1'
_cell_length_a   7.03712323
_cell_length_b   7.03712174
_cell_length_c   7.03712252
_cell_angle_alpha   111.77051503
_cell_angle_beta   111.77051878
_cell_angle_gamma   104.96446110
_symmetry_Int_Tables_number   1
_chemical_formula_structural   BaNa2(SnIr)4
_chemical_formula_sum   'Ba1 Na2 Sn4 Ir4'
_cell_volume   267.03274140
_cell_formula_units_Z   1
loop_
 _symmetry_equiv_pos_site_id
 _symmetry_equiv_pos_as_xyz
  1  'x, y, z'
loop_
 _atom_site_type_symbol
 _atom_site_label
 _atom_site_symmetry_multiplicity
 _atom_site_fract_x
 _atom_site_fract_y
 _atom_site_fract_z
 _atom_site_occupancy
  Ba  Ba0  1  0.500000  0.500000  0.000000  1
  Na  Na1  1  0.000000  0.500000  0.500000  1
  Na  Na2  1  0.500000  0.000000  0.500000  1
  Sn  Sn3  1  0.382110  0.985032  0.000000  1
  Sn  Sn4  1  0.014968  0.014968  0.397078  1
  Sn  Sn5  1  0.985032  0.382110  0.000000  1
  Sn  Sn6  1  0.617889  0.617889  0.602922  1
  Ir  Ir7  1  0.011062  0.754805  0.000000  1
  Ir  Ir8  1  0.988938  0.988938  0.743743  1
  Ir  Ir9  1  0.245195  0.245195  0.256257  1
  Ir  Ir10  1  0.754805  0.011062  0.000000  1
