# generated using pymatgen
data_LiSc(Sn4Ru)2
_symmetry_space_group_name_H-M   'P 1'
_cell_length_a   7.47067092
_cell_length_b   7.47067002
_cell_length_c   7.47067016
_cell_angle_alpha   126.17758632
_cell_angle_beta   126.17757606
_cell_angle_gamma   79.59646574
_symmetry_Int_Tables_number   1
_chemical_formula_structural   LiSc(Sn4Ru)2
_chemical_formula_sum   'Li1 Sc1 Sn8 Ru2'
_cell_volume   262.49322334
_cell_formula_units_Z   1
loop_
 _symmetry_equiv_pos_site_id
 _symmetry_equiv_pos_as_xyz
  1  'x, y, z'
loop_
 _atom_site_type_symbol
 _atom_site_label
 _atom_site_symmetry_multiplicity
 _atom_site_fract_x
 _atom_site_fract_y
 _atom_site_fract_z
 _atom_site_occupancy
  Li  Li0  1  0.500000  0.500000  0.000000  1
  Sc  Sc1  1  0.000000  0.000000  0.000000  1
  Sn  Sn2  1  0.700210  0.513890  0.491243  1
  Sn  Sn3  1  0.513890  0.022647  0.813680  1
  Sn  Sn4  1  0.208967  0.700210  0.186320  1
  Sn  Sn5  1  0.791033  0.299790  0.813680  1
  Sn  Sn6  1  0.486110  0.977353  0.186320  1
  Sn  Sn7  1  0.299790  0.486110  0.508757  1
  Sn  Sn8  1  0.977353  0.791033  0.491243  1
  Sn  Sn9  1  0.022647  0.208967  0.508757  1
  Ru  Ru10  1  0.248226  0.248226  0.000000  1
  Ru  Ru11  1  0.751774  0.751774  0.000000  1
