# generated using pymatgen
data_Lu8Re2TcB24Ru
_symmetry_space_group_name_H-M   'P 1'
_cell_length_a   3.61186700
_cell_length_b   9.05160755
_cell_length_c   11.40891404
_cell_angle_alpha   89.92149142
_cell_angle_beta   90.00000000
_cell_angle_gamma   90.00000000
_symmetry_Int_Tables_number   1
_chemical_formula_structural   Lu8Re2TcB24Ru
_chemical_formula_sum   'Lu8 Re2 Tc1 B24 Ru1'
_cell_volume   372.99358794
_cell_formula_units_Z   1
loop_
 _symmetry_equiv_pos_site_id
 _symmetry_equiv_pos_as_xyz
  1  'x, y, z'
loop_
 _atom_site_type_symbol
 _atom_site_label
 _atom_site_symmetry_multiplicity
 _atom_site_fract_x
 _atom_site_fract_y
 _atom_site_fract_z
 _atom_site_occupancy
  Lu  Lu0  1  0.000000  0.323008  0.413523  1
  Lu  Lu1  1  0.000000  0.676021  0.583994  1
  Lu  Lu2  1  0.000000  0.821811  0.087827  1
  Lu  Lu3  1  0.000000  0.179056  0.914040  1
  Lu  Lu4  1  0.000000  0.942085  0.371211  1
  Lu  Lu5  1  0.000000  0.056737  0.629719  1
  Lu  Lu6  1  0.000000  0.444232  0.129510  1
  Lu  Lu7  1  0.000000  0.558141  0.870397  1
  Re  Re8  1  0.000000  0.361586  0.679900  1
  Re  Re9  1  0.000000  0.137895  0.178320  1
  Tc  Tc10  1  0.000000  0.638640  0.320478  1
  B  B11  1  0.500000  0.552718  0.433400  1
  B  B12  1  0.500000  0.447218  0.565978  1
  B  B13  1  0.500000  0.052483  0.065796  1
  B  B14  1  0.500000  0.946305  0.933297  1
  B  B15  1  0.500000  0.749500  0.419712  1
  B  B16  1  0.500000  0.249378  0.580266  1
  B  B17  1  0.500000  0.250905  0.080119  1
  B  B18  1  0.500000  0.750552  0.919415  1
  B  B19  1  0.500000  0.792641  0.265200  1
  B  B20  1  0.500000  0.206976  0.735685  1
  B  B21  1  0.500000  0.293032  0.235117  1
  B  B22  1  0.500000  0.708262  0.764794  1
  B  B23  1  0.500000  0.630785  0.184575  1
  B  B24  1  0.500000  0.369742  0.816210  1
  B  B25  1  0.500000  0.129852  0.315365  1
  B  B26  1  0.500000  0.869040  0.684564  1
  B  B27  1  0.500000  0.979962  0.212075  1
  B  B28  1  0.500000  0.017968  0.788049  1
  B  B29  1  0.500000  0.480914  0.287789  1
  B  B30  1  0.500000  0.519639  0.712017  1
  B  B31  1  0.500000  0.601627  0.027897  1
  B  B32  1  0.500000  0.400911  0.972116  1
  B  B33  1  0.500000  0.100105  0.472326  1
  B  B34  1  0.500000  0.898732  0.528565  1
  Ru  Ru35  1  0.000000  0.861542  0.820753  1
