# generated using pymatgen
data_Cs2AlGaH4
_symmetry_space_group_name_H-M   'P 1'
_cell_length_a   4.68039600
_cell_length_b   7.88430000
_cell_length_c   10.03154500
_cell_angle_alpha   90.00000000
_cell_angle_beta   90.00000000
_cell_angle_gamma   90.00000000
_symmetry_Int_Tables_number   1
_chemical_formula_structural   Cs2AlGaH4
_chemical_formula_sum   'Cs4 Al2 Ga2 H8'
_cell_volume   370.18052426
_cell_formula_units_Z   2
loop_
 _symmetry_equiv_pos_site_id
 _symmetry_equiv_pos_as_xyz
  1  'x, y, z'
loop_
 _atom_site_type_symbol
 _atom_site_label
 _atom_site_symmetry_multiplicity
 _atom_site_fract_x
 _atom_site_fract_y
 _atom_site_fract_z
 _atom_site_occupancy
  Cs  Cs0  1  0.750000  0.381338  0.673802  1
  Cs  Cs1  1  0.750000  0.881338  0.826198  1
  Cs  Cs2  1  0.250000  0.118929  0.172578  1
  Cs  Cs3  1  0.250000  0.618929  0.327422  1
  Al  Al4  1  0.250000  0.061745  0.533292  1
  Al  Al5  1  0.250000  0.561745  0.966708  1
  Ga  Ga6  1  0.750000  0.438123  0.032520  1
  Ga  Ga7  1  0.750000  0.938123  0.467480  1
  H  H8  1  0.750000  0.734159  0.516754  1
  H  H9  1  0.250000  0.100962  0.698922  1
  H  H10  1  0.250000  0.600962  0.801078  1
  H  H11  1  0.750000  0.234159  0.983246  1
  H  H12  1  0.250000  0.767170  0.017167  1
  H  H13  1  0.750000  0.397573  0.195672  1
  H  H14  1  0.750000  0.897573  0.304328  1
  H  H15  1  0.250000  0.267170  0.482833  1
