# generated using pymatgen
data_Dy2Ho2Si3Rh4
_symmetry_space_group_name_H-M   'P 1'
_cell_length_a   10.69389912
_cell_length_b   10.69389944
_cell_length_c   7.70411596
_cell_angle_alpha   71.22047455
_cell_angle_beta   71.22047299
_cell_angle_gamma   29.81267019
_symmetry_Int_Tables_number   1
_chemical_formula_structural   Dy2Ho2Si3Rh4
_chemical_formula_sum   'Dy4 Ho4 Si6 Rh8'
_cell_volume   413.00162975
_cell_formula_units_Z   2
loop_
 _symmetry_equiv_pos_site_id
 _symmetry_equiv_pos_as_xyz
  1  'x, y, z'
loop_
 _atom_site_type_symbol
 _atom_site_label
 _atom_site_symmetry_multiplicity
 _atom_site_fract_x
 _atom_site_fract_y
 _atom_site_fract_z
 _atom_site_occupancy
  Dy  Dy0  1  0.789712  0.549592  0.600813  1
  Dy  Dy1  1  0.450408  0.210288  0.899187  1
  Dy  Dy2  1  0.210288  0.450408  0.399187  1
  Dy  Dy3  1  0.549592  0.789712  0.100813  1
  Ho  Ho4  1  0.790368  0.074552  0.167389  1
  Ho  Ho5  1  0.925448  0.209632  0.332611  1
  Ho  Ho6  1  0.209632  0.925448  0.832611  1
  Ho  Ho7  1  0.074552  0.790368  0.667389  1
  Si  Si8  1  0.952751  0.703581  0.054874  1
  Si  Si9  1  0.296419  0.047249  0.445126  1
  Si  Si10  1  0.047249  0.296419  0.945126  1
  Si  Si11  1  0.703581  0.952751  0.554874  1
  Si  Si12  1  0.636718  0.363282  0.750000  1
  Si  Si13  1  0.363282  0.636718  0.250000  1
  Rh  Rh14  1  0.576918  0.297686  0.519394  1
  Rh  Rh15  1  0.702314  0.423082  0.980606  1
  Rh  Rh16  1  0.423082  0.702314  0.480606  1
  Rh  Rh17  1  0.297686  0.576918  0.019394  1
  Rh  Rh18  1  0.628198  0.930384  0.308070  1
  Rh  Rh19  1  0.069616  0.371802  0.191930  1
  Rh  Rh20  1  0.371802  0.069616  0.691930  1
  Rh  Rh21  1  0.930384  0.628198  0.808070  1
