# generated using pymatgen
data_Hf4NpSe8
_symmetry_space_group_name_H-M   'P 1'
_cell_length_a   8.25952248
_cell_length_b   8.25952132
_cell_length_c   8.25952200
_cell_angle_alpha   54.04243100
_cell_angle_beta   54.04243680
_cell_angle_gamma   54.04242760
_symmetry_Int_Tables_number   1
_chemical_formula_structural   Hf4NpSe8
_chemical_formula_sum   'Hf4 Np1 Se8'
_cell_volume   342.99367595
_cell_formula_units_Z   1
loop_
 _symmetry_equiv_pos_site_id
 _symmetry_equiv_pos_as_xyz
  1  'x, y, z'
loop_
 _atom_site_type_symbol
 _atom_site_label
 _atom_site_symmetry_multiplicity
 _atom_site_fract_x
 _atom_site_fract_y
 _atom_site_fract_z
 _atom_site_occupancy
  Hf  Hf0  1  0.000000  0.500000  0.500000  1
  Hf  Hf1  1  0.500000  0.000000  0.500000  1
  Hf  Hf2  1  0.500000  0.500000  0.000000  1
  Hf  Hf3  1  0.000000  0.000000  0.000000  1
  Np  Np4  1  0.500000  0.500000  0.500000  1
  Se  Se5  1  0.248810  0.759042  0.759042  1
  Se  Se6  1  0.240958  0.240958  0.751190  1
  Se  Se7  1  0.751190  0.240958  0.240958  1
  Se  Se8  1  0.240958  0.751190  0.240958  1
  Se  Se9  1  0.258663  0.258663  0.258663  1
  Se  Se10  1  0.741337  0.741337  0.741337  1
  Se  Se11  1  0.759042  0.248810  0.759042  1
  Se  Se12  1  0.759042  0.759042  0.248810  1
