# generated using pymatgen
data_Tm3In3CoHg2
_symmetry_space_group_name_H-M   'P 1'
_cell_length_a   3.93576700
_cell_length_b   7.74577638
_cell_length_c   7.74462401
_cell_angle_alpha   120.00492692
_cell_angle_beta   90.00000000
_cell_angle_gamma   90.00000000
_symmetry_Int_Tables_number   1
_chemical_formula_structural   Tm3In3CoHg2
_chemical_formula_sum   'Tm3 In3 Co1 Hg2'
_cell_volume   204.45782727
_cell_formula_units_Z   1
loop_
 _symmetry_equiv_pos_site_id
 _symmetry_equiv_pos_as_xyz
  1  'x, y, z'
loop_
 _atom_site_type_symbol
 _atom_site_label
 _atom_site_symmetry_multiplicity
 _atom_site_fract_x
 _atom_site_fract_y
 _atom_site_fract_z
 _atom_site_occupancy
  Tm  Tm0  1  0.500000  0.387237  0.000000  1
  Tm  Tm1  1  0.500000  0.612628  0.612625  1
  Tm  Tm2  1  0.500000  0.000001  0.387375  1
  In  In3  1  0.000000  0.760194  0.000000  1
  In  In4  1  0.000000  0.239845  0.240002  1
  In  In5  1  0.000000  0.999843  0.759998  1
  Co  Co6  1  0.500000  0.000217  0.000000  1
  Hg  Hg7  1  0.000000  0.666684  0.333231  1
  Hg  Hg8  1  0.000000  0.333453  0.666769  1
