# generated using pymatgen
data_BaLi2SiTe4
_symmetry_space_group_name_H-M   'P 1'
_cell_length_a   6.81610397
_cell_length_b   6.81610382
_cell_length_c   7.42421000
_cell_angle_alpha   57.00211689
_cell_angle_beta   57.00211773
_cell_angle_gamma   65.99576225
_symmetry_Int_Tables_number   1
_chemical_formula_structural   BaLi2SiTe4
_chemical_formula_sum   'Ba1 Li2 Si1 Te4'
_cell_volume   239.62348783
_cell_formula_units_Z   1
loop_
 _symmetry_equiv_pos_site_id
 _symmetry_equiv_pos_as_xyz
  1  'x, y, z'
loop_
 _atom_site_type_symbol
 _atom_site_label
 _atom_site_symmetry_multiplicity
 _atom_site_fract_x
 _atom_site_fract_y
 _atom_site_fract_z
 _atom_site_occupancy
  Ba  Ba0  1  0.000000  0.000000  0.000000  1
  Li  Li1  1  0.250001  0.250001  0.249999  1
  Li  Li2  1  0.750000  0.750000  0.750001  1
  Si  Si3  1  0.499999  0.499999  0.500001  1
  Te  Te4  1  0.466315  0.861238  0.138762  1
  Te  Te5  1  0.533685  0.138762  0.466316  1
  Te  Te6  1  0.861238  0.466315  0.533685  1
  Te  Te7  1  0.138762  0.533685  0.861239  1
