# generated using pymatgen
data_Dy5Ho5Tl8
_symmetry_space_group_name_H-M   'P 1'
_cell_length_a   9.28240741
_cell_length_b   9.28240774
_cell_length_c   6.76440000
_cell_angle_alpha   90.00000000
_cell_angle_beta   90.00000000
_cell_angle_gamma   119.94839139
_symmetry_Int_Tables_number   1
_chemical_formula_structural   Dy5Ho5Tl8
_chemical_formula_sum   'Dy5 Ho5 Tl8'
_cell_volume   505.01792894
_cell_formula_units_Z   1
loop_
 _symmetry_equiv_pos_site_id
 _symmetry_equiv_pos_as_xyz
  1  'x, y, z'
loop_
 _atom_site_type_symbol
 _atom_site_label
 _atom_site_symmetry_multiplicity
 _atom_site_fract_x
 _atom_site_fract_y
 _atom_site_fract_z
 _atom_site_occupancy
  Dy  Dy0  1  0.289361  0.999635  0.750000  1
  Dy  Dy1  1  0.708919  0.999120  0.250000  1
  Dy  Dy2  1  0.999635  0.289361  0.750000  1
  Dy  Dy3  1  0.999120  0.708919  0.250000  1
  Dy  Dy4  1  0.712664  0.712664  0.750000  1
  Ho  Ho5  1  0.333642  0.665499  0.500163  1
  Ho  Ho6  1  0.665499  0.333642  0.500163  1
  Ho  Ho7  1  0.665499  0.333642  0.999837  1
  Ho  Ho8  1  0.333642  0.665499  0.999837  1
  Ho  Ho9  1  0.290453  0.290453  0.250000  1
  Tl  Tl10  1  0.001501  0.001501  0.498524  1
  Tl  Tl11  1  0.001501  0.001501  0.001476  1
  Tl  Tl12  1  0.627965  0.999963  0.750000  1
  Tl  Tl13  1  0.370169  0.999783  0.250000  1
  Tl  Tl14  1  0.999963  0.627965  0.750000  1
  Tl  Tl15  1  0.999783  0.370169  0.250000  1
  Tl  Tl16  1  0.372436  0.372436  0.750000  1
  Tl  Tl17  1  0.628249  0.628249  0.250000  1
