# generated using pymatgen
data_Sm4Dy4Re3B24Ru
_symmetry_space_group_name_H-M   'P 1'
_cell_length_a   3.71319500
_cell_length_b   9.22329095
_cell_length_c   11.64335610
_cell_angle_alpha   90.09568681
_cell_angle_beta   90.00000000
_cell_angle_gamma   90.00000000
_symmetry_Int_Tables_number   1
_chemical_formula_structural   Sm4Dy4Re3B24Ru
_chemical_formula_sum   'Sm4 Dy4 Re3 B24 Ru1'
_cell_volume   398.75968144
_cell_formula_units_Z   1
loop_
 _symmetry_equiv_pos_site_id
 _symmetry_equiv_pos_as_xyz
  1  'x, y, z'
loop_
 _atom_site_type_symbol
 _atom_site_label
 _atom_site_symmetry_multiplicity
 _atom_site_fract_x
 _atom_site_fract_y
 _atom_site_fract_z
 _atom_site_occupancy
  Sm  Sm0  1  0.000000  0.322122  0.414282  1
  Sm  Sm1  1  0.000000  0.677099  0.587453  1
  Sm  Sm2  1  0.000000  0.824614  0.084433  1
  Sm  Sm3  1  0.000000  0.176900  0.913678  1
  Dy  Dy4  1  0.000000  0.941794  0.369205  1
  Dy  Dy5  1  0.000000  0.056522  0.629671  1
  Dy  Dy6  1  0.000000  0.442927  0.130935  1
  Dy  Dy7  1  0.000000  0.557004  0.870536  1
  Re  Re8  1  0.000000  0.361654  0.678863  1
  Re  Re9  1  0.000000  0.138955  0.180335  1
  Re  Re10  1  0.000000  0.860967  0.820187  1
  B  B11  1  0.500000  0.554807  0.431410  1
  B  B12  1  0.500000  0.446053  0.568202  1
  B  B13  1  0.500000  0.054197  0.068023  1
  B  B14  1  0.500000  0.946106  0.931556  1
  B  B15  1  0.500000  0.748490  0.417039  1
  B  B16  1  0.500000  0.250665  0.582513  1
  B  B17  1  0.500000  0.249504  0.082830  1
  B  B18  1  0.500000  0.751338  0.917374  1
  B  B19  1  0.500000  0.790175  0.266194  1
  B  B20  1  0.500000  0.208651  0.733507  1
  B  B21  1  0.500000  0.291018  0.234196  1
  B  B22  1  0.500000  0.708533  0.766509  1
  B  B23  1  0.500000  0.630969  0.186598  1
  B  B24  1  0.500000  0.369749  0.813354  1
  B  B25  1  0.500000  0.130522  0.314178  1
  B  B26  1  0.500000  0.869179  0.686217  1
  B  B27  1  0.500000  0.983891  0.212310  1
  B  B28  1  0.500000  0.016253  0.787079  1
  B  B29  1  0.500000  0.484952  0.287840  1
  B  B30  1  0.500000  0.516788  0.712564  1
  B  B31  1  0.500000  0.600128  0.028363  1
  B  B32  1  0.500000  0.400373  0.972864  1
  B  B33  1  0.500000  0.098847  0.471883  1
  B  B34  1  0.500000  0.899280  0.527534  1
  Ru  Ru35  1  0.000000  0.638977  0.320287  1
