# generated using pymatgen
data_K4Sr(GeSe3)2
_symmetry_space_group_name_H-M   'P 1'
_cell_length_a   7.58557579
_cell_length_b   7.58557533
_cell_length_c   8.80368429
_cell_angle_alpha   81.61640740
_cell_angle_beta   81.61640170
_cell_angle_gamma   119.83934881
_symmetry_Int_Tables_number   1
_chemical_formula_structural   K4Sr(GeSe3)2
_chemical_formula_sum   'K4 Sr1 Ge2 Se6'
_cell_volume   420.41081998
_cell_formula_units_Z   1
loop_
 _symmetry_equiv_pos_site_id
 _symmetry_equiv_pos_as_xyz
  1  'x, y, z'
loop_
 _atom_site_type_symbol
 _atom_site_label
 _atom_site_symmetry_multiplicity
 _atom_site_fract_x
 _atom_site_fract_y
 _atom_site_fract_z
 _atom_site_occupancy
  K  K0  1  0.508566  0.491434  0.000000  1
  K  K1  1  0.820954  0.179046  0.000000  1
  K  K2  1  0.172172  0.827828  0.000000  1
  K  K3  1  0.666008  0.333992  0.500000  1
  Sr  Sr4  1  0.334575  0.665425  0.500000  1
  Ge  Ge5  1  0.048118  0.049498  0.352985  1
  Ge  Ge6  1  0.950502  0.951882  0.647015  1
  Se  Se7  1  0.766105  0.790995  0.265313  1
  Se  Se8  1  0.209005  0.233895  0.734687  1
  Se  Se9  1  0.102435  0.392612  0.266979  1
  Se  Se10  1  0.368006  0.053837  0.269620  1
  Se  Se11  1  0.946163  0.631994  0.730380  1
  Se  Se12  1  0.607388  0.897565  0.733021  1
