# generated using pymatgen
data_Zr3SnIr2N
_symmetry_space_group_name_H-M   'P 1'
_cell_length_a   8.76112219
_cell_length_b   8.76117719
_cell_length_c   8.76104400
_cell_angle_alpha   60.00066722
_cell_angle_beta   60.00040696
_cell_angle_gamma   60.00097499
_symmetry_Int_Tables_number   1
_chemical_formula_structural   Zr3SnIr2N
_chemical_formula_sum   'Zr12 Sn4 Ir8 N4'
_cell_volume   475.52109809
_cell_formula_units_Z   4
loop_
 _symmetry_equiv_pos_site_id
 _symmetry_equiv_pos_as_xyz
  1  'x, y, z'
loop_
 _atom_site_type_symbol
 _atom_site_label
 _atom_site_symmetry_multiplicity
 _atom_site_fract_x
 _atom_site_fract_y
 _atom_site_fract_z
 _atom_site_occupancy
  Zr  Zr0  1  0.813359  0.813358  0.186640  1
  Zr  Zr1  1  0.186651  0.186641  0.813353  1
  Zr  Zr2  1  0.813356  0.186633  0.813356  1
  Zr  Zr3  1  0.186638  0.813355  0.186648  1
  Zr  Zr4  1  0.186636  0.813357  0.813358  1
  Zr  Zr5  1  0.813355  0.186635  0.186653  1
  Zr  Zr6  1  0.436641  0.436642  0.063360  1
  Zr  Zr7  1  0.063349  0.063359  0.436647  1
  Zr  Zr8  1  0.436644  0.063367  0.436644  1
  Zr  Zr9  1  0.063362  0.436645  0.063352  1
  Zr  Zr10  1  0.063364  0.436643  0.436642  1
  Zr  Zr11  1  0.436645  0.063365  0.063347  1
  Sn  Sn12  1  0.125000  0.625000  0.625000  1
  Sn  Sn13  1  0.625000  0.125000  0.625000  1
  Sn  Sn14  1  0.625000  0.625000  0.125000  1
  Sn  Sn15  1  0.625000  0.625000  0.625000  1
  Ir  Ir16  1  0.772783  0.409063  0.409077  1
  Ir  Ir17  1  0.409070  0.772774  0.409078  1
  Ir  Ir18  1  0.409069  0.409063  0.772791  1
  Ir  Ir19  1  0.409069  0.409061  0.409075  1
  Ir  Ir20  1  0.477217  0.840937  0.840923  1
  Ir  Ir21  1  0.840930  0.477226  0.840922  1
  Ir  Ir22  1  0.840931  0.840937  0.477209  1
  Ir  Ir23  1  0.840931  0.840939  0.840925  1
  N  N24  1  0.625000  0.125000  0.125000  1
  N  N25  1  0.125000  0.625000  0.125000  1
  N  N26  1  0.125000  0.125000  0.625000  1
  N  N27  1  0.125000  0.125000  0.125000  1
