# generated using pymatgen
data_Er16MgCd(InPd2)2
_symmetry_space_group_name_H-M   'P 1'
_cell_length_a   9.63170859
_cell_length_b   9.64677815
_cell_length_c   9.64677865
_cell_angle_alpha   59.97264467
_cell_angle_beta   59.96891270
_cell_angle_gamma   59.96890939
_symmetry_Int_Tables_number   1
_chemical_formula_structural   Er16MgCd(InPd2)2
_chemical_formula_sum   'Er16 Mg1 Cd1 In2 Pd4'
_cell_volume   633.37208912
_cell_formula_units_Z   1
loop_
 _symmetry_equiv_pos_site_id
 _symmetry_equiv_pos_as_xyz
  1  'x, y, z'
loop_
 _atom_site_type_symbol
 _atom_site_label
 _atom_site_symmetry_multiplicity
 _atom_site_fract_x
 _atom_site_fract_y
 _atom_site_fract_z
 _atom_site_occupancy
  Er  Er0  1  0.350264  0.352035  0.352035  1
  Er  Er1  1  0.354291  0.352992  0.939535  1
  Er  Er2  1  0.354291  0.939535  0.352992  1
  Er  Er3  1  0.937837  0.354697  0.354697  1
  Er  Er4  1  0.809129  0.191616  0.191616  1
  Er  Er5  1  0.190175  0.812320  0.812320  1
  Er  Er6  1  0.190674  0.810687  0.190082  1
  Er  Er7  1  0.811513  0.190432  0.811509  1
  Er  Er8  1  0.190674  0.190082  0.810687  1
  Er  Er9  1  0.811513  0.811509  0.190432  1
  Er  Er10  1  0.934992  0.566931  0.566931  1
  Er  Er11  1  0.564906  0.934992  0.934992  1
  Er  Er12  1  0.567054  0.933911  0.565616  1
  Er  Er13  1  0.939055  0.562831  0.934574  1
  Er  Er14  1  0.567054  0.565616  0.933911  1
  Er  Er15  1  0.939055  0.934574  0.562831  1
  Mg  Mg16  1  0.575276  0.578426  0.578426  1
  Cd  Cd17  1  0.251582  0.582059  0.582059  1
  In  In18  1  0.581069  0.584211  0.250832  1
  In  In19  1  0.581069  0.250832  0.584211  1
  Pd  Pd20  1  0.144942  0.145494  0.145494  1
  Pd  Pd21  1  0.142631  0.143204  0.567938  1
  Pd  Pd22  1  0.142631  0.567938  0.143204  1
  Pd  Pd23  1  0.568321  0.143075  0.143075  1
