# generated using pymatgen
data_AlCr2(Fe10B3)2
_symmetry_space_group_name_H-M   'P 1'
_cell_length_a   7.48805488
_cell_length_b   7.48805523
_cell_length_c   7.48805600
_cell_angle_alpha   60.00000546
_cell_angle_beta   60.00000387
_cell_angle_gamma   60.00000672
_symmetry_Int_Tables_number   1
_chemical_formula_structural   AlCr2(Fe10B3)2
_chemical_formula_sum   'Al1 Cr2 Fe20 B6'
_cell_volume   296.88769381
_cell_formula_units_Z   1
loop_
 _symmetry_equiv_pos_site_id
 _symmetry_equiv_pos_as_xyz
  1  'x, y, z'
loop_
 _atom_site_type_symbol
 _atom_site_label
 _atom_site_symmetry_multiplicity
 _atom_site_fract_x
 _atom_site_fract_y
 _atom_site_fract_z
 _atom_site_occupancy
  Al  Al0  1  0.000000  0.000000  0.000000  1
  Cr  Cr1  1  0.250000  0.250000  0.250000  1
  Cr  Cr2  1  0.750000  0.750000  0.750000  1
  Fe  Fe3  1  0.854882  0.381706  0.381706  1
  Fe  Fe4  1  0.381706  0.854882  0.381706  1
  Fe  Fe5  1  0.381706  0.381706  0.854882  1
  Fe  Fe6  1  0.381706  0.381706  0.381706  1
  Fe  Fe7  1  0.145118  0.618294  0.618294  1
  Fe  Fe8  1  0.618294  0.145118  0.618294  1
  Fe  Fe9  1  0.618294  0.618294  0.145118  1
  Fe  Fe10  1  0.618294  0.618294  0.618294  1
  Fe  Fe11  1  0.657109  0.000000  0.000000  1
  Fe  Fe12  1  0.657109  0.000000  0.342891  1
  Fe  Fe13  1  0.657109  0.342891  0.000000  1
  Fe  Fe14  1  0.000000  0.657109  0.342891  1
  Fe  Fe15  1  0.000000  0.657109  0.000000  1
  Fe  Fe16  1  0.342891  0.657109  0.000000  1
  Fe  Fe17  1  0.000000  0.342891  0.657109  1
  Fe  Fe18  1  0.342891  0.000000  0.657109  1
  Fe  Fe19  1  0.000000  0.000000  0.657109  1
  Fe  Fe20  1  0.342891  0.000000  0.000000  1
  Fe  Fe21  1  0.000000  0.342891  0.000000  1
  Fe  Fe22  1  0.000000  0.000000  0.342891  1
  B  B23  1  0.723069  0.276931  0.276931  1
  B  B24  1  0.723069  0.276931  0.723069  1
  B  B25  1  0.723069  0.723069  0.276931  1
  B  B26  1  0.276931  0.723069  0.723069  1
  B  B27  1  0.276931  0.723069  0.276931  1
  B  B28  1  0.276931  0.276931  0.723069  1
