# generated using pymatgen
data_Y11In2Hg7Rh4
_symmetry_space_group_name_H-M   'P 1'
_cell_length_a   13.05478006
_cell_length_b   13.04192879
_cell_length_c   3.79355800
_cell_angle_alpha   90.00000000
_cell_angle_beta   90.00000000
_cell_angle_gamma   115.33051203
_symmetry_Int_Tables_number   1
_chemical_formula_structural   Y11In2Hg7Rh4
_chemical_formula_sum   'Y11 In2 Hg7 Rh4'
_cell_volume   583.79019930
_cell_formula_units_Z   1
loop_
 _symmetry_equiv_pos_site_id
 _symmetry_equiv_pos_as_xyz
  1  'x, y, z'
loop_
 _atom_site_type_symbol
 _atom_site_label
 _atom_site_symmetry_multiplicity
 _atom_site_fract_x
 _atom_site_fract_y
 _atom_site_fract_z
 _atom_site_occupancy
  Y  Y0  1  0.084010  0.417051  0.000000  1
  Y  Y1  1  0.916857  0.585154  0.000000  1
  Y  Y2  1  0.415727  0.084024  0.000000  1
  Y  Y3  1  0.581377  0.917279  0.000000  1
  Y  Y4  1  0.628929  0.370099  0.000000  1
  Y  Y5  1  0.372077  0.629284  0.000000  1
  Y  Y6  1  0.833309  0.165417  0.000000  1
  Y  Y7  1  0.166021  0.835093  0.000000  1
  Y  Y8  1  0.004666  0.002334  0.000000  1
  Y  Y9  1  0.297253  0.297492  0.000000  1
  Y  Y10  1  0.698706  0.696270  0.000000  1
  In  In11  1  0.786401  0.934263  0.500000  1
  In  In12  1  0.499012  0.498235  0.500000  1
  Hg  Hg13  1  0.852010  0.372081  0.500000  1
  Hg  Hg14  1  0.148362  0.628243  0.500000  1
  Hg  Hg15  1  0.368922  0.850229  0.500000  1
  Hg  Hg16  1  0.629005  0.148676  0.500000  1
  Hg  Hg17  1  0.059671  0.212103  0.500000  1
  Hg  Hg18  1  0.937329  0.789855  0.500000  1
  Hg  Hg19  1  0.213756  0.062363  0.500000  1
  Rh  Rh20  1  0.257482  0.453553  0.500000  1
  Rh  Rh21  1  0.744217  0.547012  0.500000  1
  Rh  Rh22  1  0.450460  0.256579  0.500000  1
  Rh  Rh23  1  0.554443  0.747309  0.500000  1
