# generated using pymatgen
data_SmHo9Si16Ge
_symmetry_space_group_name_H-M   'P 1'
_cell_length_a   11.00738872
_cell_length_b   10.99694795
_cell_length_c   11.00842800
_cell_angle_alpha   144.76187579
_cell_angle_beta   135.88891388
_cell_angle_gamma   57.69367501
_symmetry_Int_Tables_number   1
_chemical_formula_structural   SmHo9Si16Ge
_chemical_formula_sum   'Sm1 Ho9 Si16 Ge1'
_cell_volume   530.65488198
_cell_formula_units_Z   1
loop_
 _symmetry_equiv_pos_site_id
 _symmetry_equiv_pos_as_xyz
  1  'x, y, z'
loop_
 _atom_site_type_symbol
 _atom_site_label
 _atom_site_symmetry_multiplicity
 _atom_site_fract_x
 _atom_site_fract_y
 _atom_site_fract_z
 _atom_site_occupancy
  Sm  Sm0  1  0.647606  0.166723  0.015255  1
  Ho  Ho1  1  0.755845  0.759581  0.515597  1
  Ho  Ho2  1  0.448473  0.963968  0.013553  1
  Ho  Ho3  1  0.848579  0.368047  0.016652  1
  Ho  Ho4  1  0.950531  0.963849  0.515669  1
  Ho  Ho5  1  0.151277  0.166690  0.519067  1
  Ho  Ho6  1  0.351390  0.367935  0.519161  1
  Ho  Ho7  1  0.243946  0.759606  0.003631  1
  Ho  Ho8  1  0.548692  0.561614  0.509010  1
  Ho  Ho9  1  0.052567  0.561287  0.012855  1
  Si  Si10  1  0.199243  0.575699  0.375950  1
  Si  Si11  1  0.001608  0.080951  0.081460  1
  Si  Si12  1  0.698623  0.290260  0.592052  1
  Si  Si13  1  0.801710  0.179622  0.382038  1
  Si  Si14  1  0.896790  0.504212  0.610005  1
  Si  Si15  1  0.416412  0.872252  0.451831  1
  Si  Si16  1  0.104829  0.713735  0.609278  1
  Si  Si17  1  0.299141  0.895076  0.593251  1
  Si  Si18  1  0.580188  0.038206  0.457707  1
  Si  Si19  1  0.001278  0.431456  0.432385  1
  Si  Si20  1  0.882579  0.841039  0.962671  1
  Si  Si21  1  0.398271  0.501219  0.099640  1
  Si  Si22  1  0.121129  0.086297  0.965602  1
  Si  Si23  1  0.284314  0.241321  0.955616  1
  Si  Si24  1  0.498298  0.388326  0.886031  1
  Si  Si25  1  0.598665  0.702615  0.103557  1
  Ge  Ge26  1  0.718016  0.679912  0.961975  1
