# generated using pymatgen
data_SrPr7(WO6)4
_symmetry_space_group_name_H-M   'P 1'
_cell_length_a   5.50163002
_cell_length_b   9.51021507
_cell_length_c   10.41491503
_cell_angle_alpha   89.76092695
_cell_angle_beta   90.04206808
_cell_angle_gamma   89.75275708
_symmetry_Int_Tables_number   1
_chemical_formula_structural   SrPr7(WO6)4
_chemical_formula_sum   'Sr1 Pr7 W4 O24'
_cell_volume   544.91593004
_cell_formula_units_Z   1
loop_
 _symmetry_equiv_pos_site_id
 _symmetry_equiv_pos_as_xyz
  1  'x, y, z'
loop_
 _atom_site_type_symbol
 _atom_site_label
 _atom_site_symmetry_multiplicity
 _atom_site_fract_x
 _atom_site_fract_y
 _atom_site_fract_z
 _atom_site_occupancy
  Sr  Sr0  1  0.526263  0.219224  0.361281  1
  Pr  Pr1  1  0.477358  0.603328  0.537770  1
  Pr  Pr2  1  0.978517  0.901759  0.462526  1
  Pr  Pr3  1  0.519559  0.100094  0.961972  1
  Pr  Pr4  1  0.025451  0.396707  0.038535  1
  Pr  Pr5  1  0.965039  0.780264  0.866252  1
  Pr  Pr6  1  0.464166  0.717255  0.130557  1
  Pr  Pr7  1  0.033696  0.281983  0.631184  1
  W  W8  1  0.462137  0.998502  0.647978  1
  W  W9  1  0.963087  0.502367  0.353992  1
  W  W10  1  0.540464  0.495585  0.852095  1
  W  W11  1  0.036276  0.000066  0.146184  1
  O  O12  1  0.248762  0.088386  0.515182  1
  O  O13  1  0.757714  0.418847  0.493197  1
  O  O14  1  0.748136  0.587510  0.989513  1
  O  O15  1  0.245145  0.906416  0.008026  1
  O  O16  1  0.727391  0.106971  0.574037  1
  O  O17  1  0.220343  0.397132  0.441026  1
  O  O18  1  0.277834  0.608821  0.934786  1
  O  O19  1  0.776706  0.887052  0.063630  1
  O  O20  1  0.571221  0.848868  0.529713  1
  O  O21  1  0.071581  0.658697  0.468313  1
  O  O22  1  0.428800  0.347408  0.971146  1
  O  O23  1  0.921604  0.150532  0.026760  1
  O  O24  1  0.190397  0.864877  0.258337  1
  O  O25  1  0.680357  0.635992  0.740953  1
  O  O26  1  0.826161  0.368160  0.240762  1
  O  O27  1  0.315885  0.135685  0.760856  1
  O  O28  1  0.834238  0.045752  0.284965  1
  O  O29  1  0.331467  0.449669  0.713608  1
  O  O30  1  0.175030  0.550548  0.214002  1
  O  O31  1  0.662307  0.945462  0.790454  1
  O  O32  1  0.298734  0.132299  0.167112  1
  O  O33  1  0.809545  0.366765  0.821878  1
  O  O34  1  0.694939  0.636686  0.322207  1
  O  O35  1  0.193688  0.864329  0.679210  1
