# generated using pymatgen
data_Ac2Ni12P5
_symmetry_space_group_name_H-M   'P 1'
_cell_length_a   3.71727200
_cell_length_b   11.10745878
_cell_length_c   13.25945914
_cell_angle_alpha   72.12240136
_cell_angle_beta   90.00000000
_cell_angle_gamma   90.00000000
_symmetry_Int_Tables_number   1
_chemical_formula_structural   Ac2Ni12P5
_chemical_formula_sum   'Ac4 Ni24 P10'
_cell_volume   521.04057756
_cell_formula_units_Z   2
loop_
 _symmetry_equiv_pos_site_id
 _symmetry_equiv_pos_as_xyz
  1  'x, y, z'
loop_
 _atom_site_type_symbol
 _atom_site_label
 _atom_site_symmetry_multiplicity
 _atom_site_fract_x
 _atom_site_fract_y
 _atom_site_fract_z
 _atom_site_occupancy
  Ac  Ac0  1  0.250000  0.750912  0.186401  1
  Ac  Ac1  1  0.750000  0.249088  0.813599  1
  Ac  Ac2  1  0.250000  0.780275  0.684067  1
  Ac  Ac3  1  0.750000  0.219725  0.315933  1
  Ni  Ni4  1  0.250000  0.573161  0.012774  1
  Ni  Ni5  1  0.250000  0.566307  0.449088  1
  Ni  Ni6  1  0.750000  0.509709  0.340439  1
  Ni  Ni7  1  0.250000  0.490291  0.659561  1
  Ni  Ni8  1  0.750000  0.514342  0.149209  1
  Ni  Ni9  1  0.250000  0.485658  0.850791  1
  Ni  Ni10  1  0.750000  0.433693  0.550912  1
  Ni  Ni11  1  0.250000  0.350647  0.133180  1
  Ni  Ni12  1  0.750000  0.651981  0.562885  1
  Ni  Ni13  1  0.250000  0.348019  0.437115  1
  Ni  Ni14  1  0.750000  0.903346  0.306378  1
  Ni  Ni15  1  0.250000  0.096654  0.693622  1
  Ni  Ni16  1  0.750000  0.919065  0.989868  1
  Ni  Ni17  1  0.250000  0.080935  0.010132  1
  Ni  Ni18  1  0.750000  0.922471  0.490302  1
  Ni  Ni19  1  0.250000  0.077529  0.509698  1
  Ni  Ni20  1  0.750000  0.945024  0.795356  1
  Ni  Ni21  1  0.250000  0.054976  0.204644  1
  Ni  Ni22  1  0.250000  0.784697  0.439440  1
  Ni  Ni23  1  0.750000  0.215303  0.560560  1
  Ni  Ni24  1  0.250000  0.798040  0.918311  1
  Ni  Ni25  1  0.750000  0.201960  0.081689  1
  Ni  Ni26  1  0.750000  0.649353  0.866820  1
  Ni  Ni27  1  0.750000  0.426839  0.987226  1
  P  P28  1  0.250000  0.004572  0.872250  1
  P  P29  1  0.750000  0.995428  0.127750  1
  P  P30  1  0.250000  0.299172  0.987926  1
  P  P31  1  0.750000  0.700828  0.012074  1
  P  P32  1  0.250000  0.454749  0.258681  1
  P  P33  1  0.750000  0.545251  0.741319  1
  P  P34  1  0.250000  0.987514  0.380202  1
  P  P35  1  0.750000  0.012486  0.619798  1
  P  P36  1  0.250000  0.312199  0.608124  1
  P  P37  1  0.750000  0.687801  0.391876  1
