# generated using pymatgen
data_YHo7Si8(Pd3Pt)2
_symmetry_space_group_name_H-M   'P 1'
_cell_length_a   4.31879800
_cell_length_b   7.47368453
_cell_length_c   13.94092798
_cell_angle_alpha   90.04298817
_cell_angle_beta   90.00000000
_cell_angle_gamma   90.00000000
_symmetry_Int_Tables_number   1
_chemical_formula_structural   YHo7Si8(Pd3Pt)2
_chemical_formula_sum   'Y1 Ho7 Si8 Pd6 Pt2'
_cell_volume   449.97585904
_cell_formula_units_Z   1
loop_
 _symmetry_equiv_pos_site_id
 _symmetry_equiv_pos_as_xyz
  1  'x, y, z'
loop_
 _atom_site_type_symbol
 _atom_site_label
 _atom_site_symmetry_multiplicity
 _atom_site_fract_x
 _atom_site_fract_y
 _atom_site_fract_z
 _atom_site_occupancy
  Y  Y0  1  0.000000  0.298276  0.999997  1
  Ho  Ho1  1  0.500000  0.791567  0.749412  1
  Ho  Ho2  1  0.000000  0.208228  0.750053  1
  Ho  Ho3  1  0.500000  0.789820  0.251117  1
  Ho  Ho4  1  0.000000  0.209999  0.249405  1
  Ho  Ho5  1  0.500000  0.710827  0.999744  1
  Ho  Ho6  1  0.000000  0.289563  0.500255  1
  Ho  Ho7  1  0.500000  0.702115  0.499975  1
  Si  Si8  1  0.500000  0.407323  0.642817  1
  Si  Si9  1  0.000000  0.592981  0.856615  1
  Si  Si10  1  0.500000  0.408825  0.356295  1
  Si  Si11  1  0.000000  0.591516  0.144318  1
  Si  Si12  1  0.500000  0.091203  0.094946  1
  Si  Si13  1  0.000000  0.908272  0.405595  1
  Si  Si14  1  0.500000  0.088702  0.907519  1
  Si  Si15  1  0.000000  0.910681  0.591960  1
  Pd  Pd16  1  0.500000  0.076514  0.391510  1
  Pd  Pd17  1  0.000000  0.923088  0.108712  1
  Pd  Pd18  1  0.500000  0.421336  0.156961  1
  Pd  Pd19  1  0.000000  0.579138  0.343972  1
  Pd  Pd20  1  0.500000  0.421306  0.843172  1
  Pd  Pd21  1  0.000000  0.579191  0.655908  1
  Pt  Pt22  1  0.500000  0.075479  0.610056  1
  Pt  Pt23  1  0.000000  0.924049  0.889685  1
