# generated using pymatgen
data_Zr6Ti16ReIr6
_symmetry_space_group_name_H-M   'P 1'
_cell_length_a   8.97324464
_cell_length_b   8.97324466
_cell_length_c   8.97324400
_cell_angle_alpha   60.00000243
_cell_angle_beta   60.00000237
_cell_angle_gamma   60.00000589
_symmetry_Int_Tables_number   1
_chemical_formula_structural   Zr6Ti16ReIr6
_chemical_formula_sum   'Zr6 Ti16 Re1 Ir6'
_cell_volume   510.89721098
_cell_formula_units_Z   1
loop_
 _symmetry_equiv_pos_site_id
 _symmetry_equiv_pos_as_xyz
  1  'x, y, z'
loop_
 _atom_site_type_symbol
 _atom_site_label
 _atom_site_symmetry_multiplicity
 _atom_site_fract_x
 _atom_site_fract_y
 _atom_site_fract_z
 _atom_site_occupancy
  Zr  Zr0  1  0.687188  0.687188  0.312812  1
  Zr  Zr1  1  0.312812  0.687188  0.312812  1
  Zr  Zr2  1  0.687188  0.312812  0.312812  1
  Zr  Zr3  1  0.312812  0.312812  0.687188  1
  Zr  Zr4  1  0.687188  0.312812  0.687188  1
  Zr  Zr5  1  0.312812  0.687188  0.687188  1
  Ti  Ti6  1  0.882441  0.882441  0.352678  1
  Ti  Ti7  1  0.882441  0.352678  0.882441  1
  Ti  Ti8  1  0.352678  0.882441  0.882441  1
  Ti  Ti9  1  0.882441  0.882441  0.882441  1
  Ti  Ti10  1  0.117559  0.117559  0.647322  1
  Ti  Ti11  1  0.117559  0.647322  0.117559  1
  Ti  Ti12  1  0.647322  0.117559  0.117559  1
  Ti  Ti13  1  0.117559  0.117559  0.117559  1
  Ti  Ti14  1  0.669414  0.669414  0.991756  1
  Ti  Ti15  1  0.669414  0.991756  0.669414  1
  Ti  Ti16  1  0.991756  0.669414  0.669414  1
  Ti  Ti17  1  0.669414  0.669414  0.669414  1
  Ti  Ti18  1  0.330586  0.330586  0.008244  1
  Ti  Ti19  1  0.330586  0.008244  0.330586  1
  Ti  Ti20  1  0.008244  0.330586  0.330586  1
  Ti  Ti21  1  0.330586  0.330586  0.330586  1
  Re  Re22  1  0.000000  0.000000  0.000000  1
  Ir  Ir23  1  0.000000  0.000000  0.500000  1
  Ir  Ir24  1  0.500000  0.000000  0.500000  1
  Ir  Ir25  1  0.000000  0.500000  0.500000  1
  Ir  Ir26  1  0.500000  0.500000  0.000000  1
  Ir  Ir27  1  0.000000  0.500000  0.000000  1
  Ir  Ir28  1  0.500000  0.000000  0.000000  1
