# generated using pymatgen
data_BaErF5
_symmetry_space_group_name_H-M   'P 1'
_cell_length_a   8.41126746
_cell_length_b   8.41126687
_cell_length_c   5.91939224
_cell_angle_alpha   89.27506778
_cell_angle_beta   89.27507771
_cell_angle_gamma   149.28849347
_symmetry_Int_Tables_number   1
_chemical_formula_structural   BaErF5
_chemical_formula_sum   'Ba2 Er2 F10'
_cell_volume   213.64013410
_cell_formula_units_Z   2
loop_
 _symmetry_equiv_pos_site_id
 _symmetry_equiv_pos_as_xyz
  1  'x, y, z'
loop_
 _atom_site_type_symbol
 _atom_site_label
 _atom_site_symmetry_multiplicity
 _atom_site_fract_x
 _atom_site_fract_y
 _atom_site_fract_z
 _atom_site_occupancy
  Ba  Ba0  1  0.327573  0.672427  0.750000  1
  Ba  Ba1  1  0.672427  0.327573  0.250000  1
  Er  Er2  1  0.073184  0.926816  0.750000  1
  Er  Er3  1  0.926816  0.073184  0.250000  1
  F  F4  1  0.742377  0.809718  0.591410  1
  F  F5  1  0.809718  0.742377  0.091410  1
  F  F6  1  0.805312  0.170392  0.013672  1
  F  F7  1  0.616965  0.383035  0.750000  1
  F  F8  1  0.829608  0.194688  0.486328  1
  F  F9  1  0.170392  0.805312  0.513672  1
  F  F10  1  0.383035  0.616965  0.250000  1
  F  F11  1  0.194688  0.829608  0.986328  1
  F  F12  1  0.190282  0.257623  0.908590  1
  F  F13  1  0.257623  0.190282  0.408590  1
