# generated using pymatgen
data_La16In4Ru3Rh
_symmetry_space_group_name_H-M   'P 1'
_cell_length_a   10.09389602
_cell_length_b   10.09389622
_cell_length_c   10.09389599
_cell_angle_alpha   60.07249087
_cell_angle_beta   60.07249577
_cell_angle_gamma   60.07249630
_symmetry_Int_Tables_number   1
_chemical_formula_structural   La16In4Ru3Rh
_chemical_formula_sum   'La16 In4 Ru3 Rh1'
_cell_volume   728.40747726
_cell_formula_units_Z   1
loop_
 _symmetry_equiv_pos_site_id
 _symmetry_equiv_pos_as_xyz
  1  'x, y, z'
loop_
 _atom_site_type_symbol
 _atom_site_label
 _atom_site_symmetry_multiplicity
 _atom_site_fract_x
 _atom_site_fract_y
 _atom_site_fract_z
 _atom_site_occupancy
  La  La0  1  0.191081  0.191081  0.809405  1
  La  La1  1  0.439212  0.059395  0.059395  1
  La  La2  1  0.440987  0.057922  0.440987  1
  La  La3  1  0.059395  0.439212  0.059395  1
  La  La4  1  0.651231  0.042195  0.651231  1
  La  La5  1  0.196059  0.807536  0.807536  1
  La  La6  1  0.059395  0.059395  0.439212  1
  La  La7  1  0.809405  0.191081  0.191081  1
  La  La8  1  0.807536  0.807536  0.196059  1
  La  La9  1  0.651231  0.651231  0.042195  1
  La  La10  1  0.653677  0.653677  0.653677  1
  La  La11  1  0.057922  0.440987  0.440987  1
  La  La12  1  0.042195  0.651231  0.651231  1
  La  La13  1  0.807536  0.196059  0.807536  1
  La  La14  1  0.440987  0.440987  0.057922  1
  La  La15  1  0.191081  0.809405  0.191081  1
  In  In16  1  0.420109  0.740769  0.420109  1
  In  In17  1  0.420109  0.420109  0.740769  1
  In  In18  1  0.740769  0.420109  0.420109  1
  In  In19  1  0.420229  0.420229  0.420229  1
  Ru  Ru20  1  0.862283  0.413477  0.862283  1
  Ru  Ru21  1  0.862283  0.862283  0.413477  1
  Ru  Ru22  1  0.413477  0.862283  0.862283  1
  Rh  Rh23  1  0.861810  0.861810  0.861810  1
