# generated using pymatgen
data_Ti3GaRe2Si2Ru
_symmetry_space_group_name_H-M   'P 1'
_cell_length_a   6.86038100
_cell_length_b   6.84675136
_cell_length_c   3.29326900
_cell_angle_alpha   90.00000000
_cell_angle_beta   90.00000000
_cell_angle_gamma   120.20889373
_symmetry_Int_Tables_number   1
_chemical_formula_structural   Ti3GaRe2Si2Ru
_chemical_formula_sum   'Ti3 Ga1 Re2 Si2 Ru1'
_cell_volume   133.68189922
_cell_formula_units_Z   1
loop_
 _symmetry_equiv_pos_site_id
 _symmetry_equiv_pos_as_xyz
  1  'x, y, z'
loop_
 _atom_site_type_symbol
 _atom_site_label
 _atom_site_symmetry_multiplicity
 _atom_site_fract_x
 _atom_site_fract_y
 _atom_site_fract_z
 _atom_site_occupancy
  Ti  Ti0  1  0.385685  0.396312  0.500000  1
  Ti  Ti1  1  0.591553  0.999312  0.500000  1
  Ti  Ti2  1  0.020980  0.601237  0.500000  1
  Ga  Ga3  1  0.669068  0.341649  0.000000  1
  Re  Re4  1  0.254718  0.991967  0.000000  1
  Re  Re5  1  0.009006  0.262507  0.000000  1
  Si  Si6  1  0.340687  0.669120  0.000000  1
  Si  Si7  1  0.992356  0.991309  0.500000  1
  Ru  Ru8  1  0.735945  0.746588  0.000000  1
