# generated using pymatgen
data_LuAl2Ga(Fe2Ge)3
_symmetry_space_group_name_H-M   'P 1'
_cell_length_a   4.98548800
_cell_length_b   4.98548864
_cell_length_c   8.26102700
_cell_angle_alpha   90.00000000
_cell_angle_beta   90.00000000
_cell_angle_gamma   119.99999574
_symmetry_Int_Tables_number   1
_chemical_formula_structural   LuAl2Ga(Fe2Ge)3
_chemical_formula_sum   'Lu1 Al2 Ga1 Fe6 Ge3'
_cell_volume   177.81979220
_cell_formula_units_Z   1
loop_
 _symmetry_equiv_pos_site_id
 _symmetry_equiv_pos_as_xyz
  1  'x, y, z'
loop_
 _atom_site_type_symbol
 _atom_site_label
 _atom_site_symmetry_multiplicity
 _atom_site_fract_x
 _atom_site_fract_y
 _atom_site_fract_z
 _atom_site_occupancy
  Lu  Lu0  1  0.000000  0.000000  0.999222  1
  Al  Al1  1  0.333333  0.666667  0.501943  1
  Al  Al2  1  0.666667  0.333333  0.501943  1
  Ga  Ga3  1  0.000000  0.000000  0.651893  1
  Fe  Fe4  1  0.500000  0.000000  0.243753  1
  Fe  Fe5  1  0.500000  0.500000  0.243753  1
  Fe  Fe6  1  0.000000  0.500000  0.243753  1
  Fe  Fe7  1  0.500000  0.000000  0.756562  1
  Fe  Fe8  1  0.500000  0.500000  0.756562  1
  Fe  Fe9  1  0.000000  0.500000  0.756562  1
  Ge  Ge10  1  0.333333  0.666667  0.999083  1
  Ge  Ge11  1  0.666667  0.333333  0.999083  1
  Ge  Ge12  1  0.000000  0.000000  0.345887  1
