# generated using pymatgen
data_Ca2Tb(NdPb2)2
_symmetry_space_group_name_H-M   'P 1'
_cell_length_a   8.09713800
_cell_length_b   8.62842300
_cell_length_c   16.19032000
_cell_angle_alpha   90.00000000
_cell_angle_beta   90.00000000
_cell_angle_gamma   90.00000000
_symmetry_Int_Tables_number   1
_chemical_formula_structural   Ca2Tb(NdPb2)2
_chemical_formula_sum   'Ca8 Tb4 Nd8 Pb16'
_cell_volume   1131.14531606
_cell_formula_units_Z   4
loop_
 _symmetry_equiv_pos_site_id
 _symmetry_equiv_pos_as_xyz
  1  'x, y, z'
loop_
 _atom_site_type_symbol
 _atom_site_label
 _atom_site_symmetry_multiplicity
 _atom_site_fract_x
 _atom_site_fract_y
 _atom_site_fract_z
 _atom_site_occupancy
  Ca  Ca0  1  0.328133  0.836907  0.377756  1
  Ca  Ca1  1  0.828133  0.663093  0.122244  1
  Ca  Ca2  1  0.671867  0.163093  0.877756  1
  Ca  Ca3  1  0.171867  0.336907  0.622244  1
  Ca  Ca4  1  0.840140  0.497919  0.749285  1
  Ca  Ca5  1  0.340140  0.002081  0.750715  1
  Ca  Ca6  1  0.159860  0.502081  0.249285  1
  Ca  Ca7  1  0.659860  0.997919  0.250715  1
  Tb  Tb8  1  0.668981  0.166342  0.623632  1
  Tb  Tb9  1  0.168981  0.333658  0.876368  1
  Tb  Tb10  1  0.331019  0.833658  0.123632  1
  Tb  Tb11  1  0.831019  0.666342  0.376368  1
  Nd  Nd12  1  0.503340  0.686265  0.593893  1
  Nd  Nd13  1  0.003340  0.813735  0.906107  1
  Nd  Nd14  1  0.496660  0.313735  0.093893  1
  Nd  Nd15  1  0.996660  0.186265  0.406107  1
  Nd  Nd16  1  0.493669  0.313914  0.406114  1
  Nd  Nd17  1  0.993669  0.186086  0.093886  1
  Nd  Nd18  1  0.506331  0.686086  0.906114  1
  Nd  Nd19  1  0.006331  0.813914  0.593886  1
  Pb  Pb20  1  0.684816  0.959715  0.460989  1
  Pb  Pb21  1  0.184816  0.540285  0.039011  1
  Pb  Pb22  1  0.315184  0.040285  0.960989  1
  Pb  Pb23  1  0.815184  0.459715  0.539011  1
  Pb  Pb24  1  0.324080  0.039228  0.542487  1
  Pb  Pb25  1  0.824080  0.460772  0.957513  1
  Pb  Pb26  1  0.675920  0.960772  0.042487  1
  Pb  Pb27  1  0.175920  0.539228  0.457513  1
  Pb  Pb28  1  0.473172  0.388080  0.751924  1
  Pb  Pb29  1  0.973172  0.111920  0.748076  1
  Pb  Pb30  1  0.526828  0.611920  0.251924  1
  Pb  Pb31  1  0.026828  0.888080  0.248076  1
  Pb  Pb32  1  0.708992  0.852506  0.748927  1
  Pb  Pb33  1  0.208992  0.647494  0.751073  1
  Pb  Pb34  1  0.291008  0.147494  0.248927  1
  Pb  Pb35  1  0.791008  0.352506  0.251073  1
