# generated using pymatgen
data_Sc4Mn8Fe11CoP12
_symmetry_space_group_name_H-M   'P 1'
_cell_length_a   3.58124900
_cell_length_b   10.12524934
_cell_length_c   12.00897949
_cell_angle_alpha   89.94200053
_cell_angle_beta   90.00000000
_cell_angle_gamma   90.00000000
_symmetry_Int_Tables_number   1
_chemical_formula_structural   Sc4Mn8Fe11CoP12
_chemical_formula_sum   'Sc4 Mn8 Fe11 Co1 P12'
_cell_volume   435.45785134
_cell_formula_units_Z   1
loop_
 _symmetry_equiv_pos_site_id
 _symmetry_equiv_pos_as_xyz
  1  'x, y, z'
loop_
 _atom_site_type_symbol
 _atom_site_label
 _atom_site_symmetry_multiplicity
 _atom_site_fract_x
 _atom_site_fract_y
 _atom_site_fract_z
 _atom_site_occupancy
  Sc  Sc0  1  0.250000  0.579106  0.711777  1
  Sc  Sc1  1  0.250000  0.919798  0.211402  1
  Sc  Sc2  1  0.750000  0.421067  0.288335  1
  Sc  Sc3  1  0.750000  0.079836  0.788834  1
  Mn  Mn4  1  0.250000  0.707170  0.991529  1
  Mn  Mn5  1  0.250000  0.790413  0.491793  1
  Mn  Mn6  1  0.750000  0.292710  0.008767  1
  Mn  Mn7  1  0.750000  0.209259  0.507482  1
  Mn  Mn8  1  0.250000  0.408853  0.489984  1
  Mn  Mn9  1  0.250000  0.091196  0.989866  1
  Mn  Mn10  1  0.750000  0.591728  0.510440  1
  Mn  Mn11  1  0.750000  0.908545  0.010226  1
  Fe  Fe12  1  0.250000  0.220280  0.172998  1
  Fe  Fe13  1  0.250000  0.278471  0.673253  1
  Fe  Fe14  1  0.750000  0.779442  0.827216  1
  Fe  Fe15  1  0.750000  0.721479  0.327023  1
  Fe  Fe16  1  0.250000  0.877226  0.696410  1
  Fe  Fe17  1  0.250000  0.622558  0.196702  1
  Fe  Fe18  1  0.750000  0.124172  0.302611  1
  Fe  Fe19  1  0.750000  0.377179  0.803431  1
  Fe  Fe20  1  0.250000  0.462051  0.935384  1
  Fe  Fe21  1  0.250000  0.037858  0.434542  1
  Fe  Fe22  1  0.750000  0.537739  0.064636  1
  Co  Co23  1  0.750000  0.961872  0.566126  1
  P  P24  1  0.250000  0.422832  0.115699  1
  P  P25  1  0.250000  0.076703  0.614376  1
  P  P26  1  0.750000  0.577055  0.884279  1
  P  P27  1  0.750000  0.924117  0.384695  1
  P  P28  1  0.250000  0.263292  0.860871  1
  P  P29  1  0.250000  0.236625  0.361299  1
  P  P30  1  0.750000  0.736459  0.139219  1
  P  P31  1  0.750000  0.763310  0.639573  1
  P  P32  1  0.250000  0.598437  0.379563  1
  P  P33  1  0.250000  0.901278  0.879655  1
  P  P34  1  0.750000  0.401246  0.620445  1
  P  P35  1  0.750000  0.098639  0.119559  1
