# generated using pymatgen
data_Dy2MgPa2Zn3Rh4
_symmetry_space_group_name_H-M   'P 1'
_cell_length_a   3.83360200
_cell_length_b   7.18801227
_cell_length_c   8.53554939
_cell_angle_alpha   92.41993339
_cell_angle_beta   90.00000000
_cell_angle_gamma   90.00000000
_symmetry_Int_Tables_number   1
_chemical_formula_structural   Dy2MgPa2Zn3Rh4
_chemical_formula_sum   'Dy2 Mg1 Pa2 Zn3 Rh4'
_cell_volume   234.99565711
_cell_formula_units_Z   1
loop_
 _symmetry_equiv_pos_site_id
 _symmetry_equiv_pos_as_xyz
  1  'x, y, z'
loop_
 _atom_site_type_symbol
 _atom_site_label
 _atom_site_symmetry_multiplicity
 _atom_site_fract_x
 _atom_site_fract_y
 _atom_site_fract_z
 _atom_site_occupancy
  Dy  Dy0  1  0.250000  0.056707  0.320211  1
  Dy  Dy1  1  0.750000  0.939856  0.675417  1
  Mg  Mg2  1  0.250000  0.116721  0.942242  1
  Pa  Pa3  1  0.250000  0.552375  0.190571  1
  Pa  Pa4  1  0.750000  0.455476  0.805828  1
  Zn  Zn5  1  0.750000  0.875230  0.064551  1
  Zn  Zn6  1  0.250000  0.629180  0.556706  1
  Zn  Zn7  1  0.750000  0.370420  0.442127  1
  Rh  Rh8  1  0.750000  0.745131  0.357372  1
  Rh  Rh9  1  0.250000  0.255233  0.643045  1
  Rh  Rh10  1  0.750000  0.289442  0.124683  1
  Rh  Rh11  1  0.250000  0.714229  0.877248  1
