# generated using pymatgen
data_La8Sc12Si15Au
_symmetry_space_group_name_H-M   'P 1'
_cell_length_a   7.29243661
_cell_length_b   7.65032238
_cell_length_c   14.33486900
_cell_angle_alpha   90.00000000
_cell_angle_beta   90.00000000
_cell_angle_gamma   90.41480892
_symmetry_Int_Tables_number   1
_chemical_formula_structural   La8Sc12Si15Au
_chemical_formula_sum   'La8 Sc12 Si15 Au1'
_cell_volume   799.71408629
_cell_formula_units_Z   1
loop_
 _symmetry_equiv_pos_site_id
 _symmetry_equiv_pos_as_xyz
  1  'x, y, z'
loop_
 _atom_site_type_symbol
 _atom_site_label
 _atom_site_symmetry_multiplicity
 _atom_site_fract_x
 _atom_site_fract_y
 _atom_site_fract_z
 _atom_site_occupancy
  La  La0  1  0.012445  0.173552  0.401192  1
  La  La1  1  0.512240  0.328044  0.401097  1
  La  La2  1  0.490387  0.665664  0.906523  1
  La  La3  1  0.490387  0.665664  0.593477  1
  La  La4  1  0.987934  0.827922  0.595288  1
  La  La5  1  0.987934  0.827922  0.904712  1
  La  La6  1  0.512240  0.328044  0.098903  1
  La  La7  1  0.012445  0.173552  0.098808  1
  Sc  Sc8  1  0.328418  0.183145  0.623579  1
  Sc  Sc9  1  0.670912  0.825296  0.373725  1
  Sc  Sc10  1  0.658367  0.999319  0.750000  1
  Sc  Sc11  1  0.171569  0.674690  0.374281  1
  Sc  Sc12  1  0.828740  0.323838  0.876812  1
  Sc  Sc13  1  0.828740  0.323838  0.623188  1
  Sc  Sc14  1  0.840459  0.503668  0.250000  1
  Sc  Sc15  1  0.341095  0.996881  0.250000  1
  Sc  Sc16  1  0.328418  0.183145  0.876421  1
  Sc  Sc17  1  0.171569  0.674690  0.125719  1
  Sc  Sc18  1  0.670912  0.825296  0.126275  1
  Sc  Sc19  1  0.161979  0.493430  0.750000  1
  Si  Si20  1  0.466504  0.628510  0.250000  1
  Si  Si21  1  0.026492  0.133028  0.750000  1
  Si  Si22  1  0.537547  0.374558  0.750000  1
  Si  Si23  1  0.149013  0.463856  0.539780  1
  Si  Si24  1  0.969527  0.872242  0.250000  1
  Si  Si25  1  0.710096  0.113713  0.250000  1
  Si  Si26  1  0.849559  0.537144  0.041525  1
  Si  Si27  1  0.350904  0.963095  0.038713  1
  Si  Si28  1  0.149013  0.463856  0.960220  1
  Si  Si29  1  0.648499  0.037365  0.539570  1
  Si  Si30  1  0.350904  0.963095  0.461287  1
  Si  Si31  1  0.849559  0.537144  0.458475  1
  Si  Si32  1  0.787856  0.608374  0.750000  1
  Si  Si33  1  0.211544  0.388553  0.250000  1
  Si  Si34  1  0.648499  0.037365  0.960430  1
  Au  Au35  1  0.287294  0.880504  0.750000  1
