# generated using pymatgen
data_LiDy4Tc3B16
_symmetry_space_group_name_H-M   'P 1'
_cell_length_a   3.59389900
_cell_length_b   5.95071325
_cell_length_c   11.50961408
_cell_angle_alpha   90.00823165
_cell_angle_beta   90.00000000
_cell_angle_gamma   90.00000000
_symmetry_Int_Tables_number   1
_chemical_formula_structural   LiDy4Tc3B16
_chemical_formula_sum   'Li1 Dy4 Tc3 B16'
_cell_volume   246.14762432
_cell_formula_units_Z   1
loop_
 _symmetry_equiv_pos_site_id
 _symmetry_equiv_pos_as_xyz
  1  'x, y, z'
loop_
 _atom_site_type_symbol
 _atom_site_label
 _atom_site_symmetry_multiplicity
 _atom_site_fract_x
 _atom_site_fract_y
 _atom_site_fract_z
 _atom_site_occupancy
  Li  Li0  1  0.500000  0.865592  0.088645  1
  Dy  Dy1  1  0.500000  0.370003  0.145707  1
  Dy  Dy2  1  0.500000  0.625653  0.852460  1
  Dy  Dy3  1  0.500000  0.128892  0.654540  1
  Dy  Dy4  1  0.500000  0.871857  0.347920  1
  Tc  Tc5  1  0.500000  0.367314  0.414468  1
  Tc  Tc6  1  0.500000  0.631698  0.585279  1
  Tc  Tc7  1  0.500000  0.127869  0.914706  1
  B  B8  1  0.000000  0.115158  0.046094  1
  B  B9  1  0.000000  0.888431  0.953082  1
  B  B10  1  0.000000  0.387096  0.546657  1
  B  B11  1  0.000000  0.613828  0.451593  1
  B  B12  1  0.000000  0.135793  0.467736  1
  B  B13  1  0.000000  0.864834  0.531096  1
  B  B14  1  0.000000  0.366597  0.969699  1
  B  B15  1  0.000000  0.636544  0.033647  1
  B  B16  1  0.000000  0.020557  0.192679  1
  B  B17  1  0.000000  0.976622  0.808628  1
  B  B18  1  0.000000  0.477023  0.692700  1
  B  B19  1  0.000000  0.525598  0.305557  1
  B  B20  1  0.000000  0.212535  0.312902  1
  B  B21  1  0.000000  0.785894  0.685813  1
  B  B22  1  0.000000  0.286975  0.815869  1
  B  B23  1  0.000000  0.717638  0.182522  1
