# generated using pymatgen
data_Th2Al20CuTc3
_symmetry_space_group_name_H-M   'P 1'
_cell_length_a   6.92827073
_cell_length_b   6.92456995
_cell_length_c   9.23001305
_cell_angle_alpha   90.44408492
_cell_angle_beta   90.55699200
_cell_angle_gamma   97.51178793
_symmetry_Int_Tables_number   1
_chemical_formula_structural   Th2Al20CuTc3
_chemical_formula_sum   'Th2 Al20 Cu1 Tc3'
_cell_volume   438.97345701
_cell_formula_units_Z   1
loop_
 _symmetry_equiv_pos_site_id
 _symmetry_equiv_pos_as_xyz
  1  'x, y, z'
loop_
 _atom_site_type_symbol
 _atom_site_label
 _atom_site_symmetry_multiplicity
 _atom_site_fract_x
 _atom_site_fract_y
 _atom_site_fract_z
 _atom_site_occupancy
  Th  Th0  1  0.877566  0.133252  0.750543  1
  Th  Th1  1  0.122434  0.866748  0.249457  1
  Al  Al2  1  0.518911  0.775566  0.743256  1
  Al  Al3  1  0.481089  0.224434  0.256744  1
  Al  Al4  1  0.591877  0.857412  0.250682  1
  Al  Al5  1  0.773031  0.772043  0.000895  1
  Al  Al6  1  0.159300  0.843048  0.601301  1
  Al  Al7  1  0.226969  0.227957  0.999105  1
  Al  Al8  1  0.138254  0.402683  0.251835  1
  Al  Al9  1  0.623372  0.383187  0.948682  1
  Al  Al10  1  0.840021  0.159277  0.104116  1
  Al  Al11  1  0.376509  0.621206  0.454695  1
  Al  Al12  1  0.159979  0.840723  0.895884  1
  Al  Al13  1  0.221337  0.485235  0.751205  1
  Al  Al14  1  0.376628  0.616813  0.051318  1
  Al  Al15  1  0.840700  0.156952  0.398699  1
  Al  Al16  1  0.623491  0.378794  0.545305  1
  Al  Al17  1  0.408123  0.142588  0.749318  1
  Al  Al18  1  0.778663  0.514765  0.248795  1
  Al  Al19  1  0.777424  0.776224  0.496945  1
  Al  Al20  1  0.222576  0.223776  0.503055  1
  Al  Al21  1  0.861746  0.597317  0.748165  1
  Cu  Cu22  1  0.500000  0.000000  0.000000  1
  Tc  Tc23  1  0.000000  0.500000  0.500000  1
  Tc  Tc24  1  0.000000  0.500000  0.000000  1
  Tc  Tc25  1  0.500000  0.000000  0.500000  1
