# generated using pymatgen
data_Eu6ReSbO14
_symmetry_space_group_name_H-M   'P 1'
_cell_length_a   6.66356646
_cell_length_b   6.66356655
_cell_length_c   7.69223756
_cell_angle_alpha   90.41917112
_cell_angle_beta   89.58082889
_cell_angle_gamma   69.31961519
_symmetry_Int_Tables_number   1
_chemical_formula_structural   Eu6ReSbO14
_chemical_formula_sum   'Eu6 Re1 Sb1 O14'
_cell_volume   319.52451464
_cell_formula_units_Z   1
loop_
 _symmetry_equiv_pos_site_id
 _symmetry_equiv_pos_as_xyz
  1  'x, y, z'
loop_
 _atom_site_type_symbol
 _atom_site_label
 _atom_site_symmetry_multiplicity
 _atom_site_fract_x
 _atom_site_fract_y
 _atom_site_fract_z
 _atom_site_occupancy
  Eu  Eu0  1  0.000000  0.000000  0.000000  1
  Eu  Eu1  1  0.479949  0.055390  0.245118  1
  Eu  Eu2  1  0.944610  0.520051  0.245118  1
  Eu  Eu3  1  0.000000  0.000000  0.500000  1
  Eu  Eu4  1  0.055390  0.479949  0.754882  1
  Eu  Eu5  1  0.520051  0.944610  0.754882  1
  Re  Re6  1  0.500000  0.500000  0.500000  1
  Sb  Sb7  1  0.500000  0.500000  0.000000  1
  O  O8  1  0.187865  0.560194  0.032032  1
  O  O9  1  0.439807  0.812136  0.032032  1
  O  O10  1  0.111497  0.157036  0.255459  1
  O  O11  1  0.571240  0.428759  0.257168  1
  O  O12  1  0.842963  0.888503  0.255459  1
  O  O13  1  0.204895  0.552134  0.463138  1
  O  O14  1  0.447867  0.795106  0.463138  1
  O  O15  1  0.552134  0.204895  0.536861  1
  O  O16  1  0.795106  0.447867  0.536861  1
  O  O17  1  0.157036  0.111497  0.744541  1
  O  O18  1  0.428759  0.571240  0.742832  1
  O  O19  1  0.888503  0.842963  0.744541  1
  O  O20  1  0.560194  0.187865  0.967969  1
  O  O21  1  0.812136  0.439807  0.967969  1
