# generated using pymatgen
data_Ho12Fe2RePb2
_symmetry_space_group_name_H-M   'P 1'
_cell_length_a   8.38453515
_cell_length_b   8.38453476
_cell_length_c   8.38453500
_cell_angle_alpha   108.80828786
_cell_angle_beta   108.80829350
_cell_angle_gamma   110.80537497
_symmetry_Int_Tables_number   1
_chemical_formula_structural   Ho12Fe2RePb2
_chemical_formula_sum   'Ho12 Fe2 Re1 Pb2'
_cell_volume   453.56333216
_cell_formula_units_Z   1
loop_
 _symmetry_equiv_pos_site_id
 _symmetry_equiv_pos_as_xyz
  1  'x, y, z'
loop_
 _atom_site_type_symbol
 _atom_site_label
 _atom_site_symmetry_multiplicity
 _atom_site_fract_x
 _atom_site_fract_y
 _atom_site_fract_z
 _atom_site_occupancy
  Ho  Ho0  1  0.429954  0.194001  0.235953  1
  Ho  Ho1  1  0.570046  0.805999  0.764047  1
  Ho  Ho2  1  0.958049  0.194001  0.764047  1
  Ho  Ho3  1  0.194001  0.958049  0.764047  1
  Ho  Ho4  1  0.041951  0.805999  0.235953  1
  Ho  Ho5  1  0.805999  0.041951  0.235953  1
  Ho  Ho6  1  0.194001  0.429954  0.235953  1
  Ho  Ho7  1  0.805999  0.570046  0.764047  1
  Ho  Ho8  1  0.307522  0.307522  0.615043  1
  Ho  Ho9  1  0.692478  0.692478  0.384957  1
  Ho  Ho10  1  0.307522  0.692478  0.000000  1
  Ho  Ho11  1  0.692478  0.307522  0.000000  1
  Fe  Fe12  1  0.387490  0.387490  0.000000  1
  Fe  Fe13  1  0.612510  0.612510  0.000000  1
  Re  Re14  1  0.000000  0.000000  0.000000  1
  Pb  Pb15  1  0.500000  0.000000  0.500000  1
  Pb  Pb16  1  0.000000  0.500000  0.500000  1
