# generated using pymatgen
data_LiZr6Tc2Ir3
_symmetry_space_group_name_H-M   'P 1'
_cell_length_a   4.67880200
_cell_length_b   6.58386100
_cell_length_c   14.01156500
_cell_angle_alpha   90.00000000
_cell_angle_beta   90.00029416
_cell_angle_gamma   90.00000000
_symmetry_Int_Tables_number   1
_chemical_formula_structural   LiZr6Tc2Ir3
_chemical_formula_sum   'Li2 Zr12 Tc4 Ir6'
_cell_volume   431.62040319
_cell_formula_units_Z   2
loop_
 _symmetry_equiv_pos_site_id
 _symmetry_equiv_pos_as_xyz
  1  'x, y, z'
loop_
 _atom_site_type_symbol
 _atom_site_label
 _atom_site_symmetry_multiplicity
 _atom_site_fract_x
 _atom_site_fract_y
 _atom_site_fract_z
 _atom_site_occupancy
  Li  Li0  1  0.000002  0.000000  0.000341  1
  Li  Li1  1  0.499968  0.500000  0.166297  1
  Zr  Zr2  1  0.500003  0.252147  0.998201  1
  Zr  Zr3  1  0.500003  0.747854  0.998201  1
  Zr  Zr4  1  0.999984  0.247822  0.168471  1
  Zr  Zr5  1  0.999984  0.752177  0.168471  1
  Zr  Zr6  1  0.499989  0.248985  0.335068  1
  Zr  Zr7  1  0.499989  0.751016  0.335068  1
  Zr  Zr8  1  0.999999  0.249052  0.500235  1
  Zr  Zr9  1  0.999999  0.750947  0.500235  1
  Zr  Zr10  1  0.500013  0.250952  0.666426  1
  Zr  Zr11  1  0.500013  0.749049  0.666426  1
  Zr  Zr12  1  0.000016  0.251015  0.831607  1
  Zr  Zr13  1  0.000016  0.748984  0.831607  1
  Tc  Tc14  1  0.999980  0.000000  0.333112  1
  Tc  Tc15  1  0.499999  0.500000  0.500079  1
  Tc  Tc16  1  0.000016  0.000000  0.666595  1
  Tc  Tc17  1  0.500019  0.500000  0.833553  1
  Ir  Ir18  1  0.000008  0.500000  0.002486  1
  Ir  Ir19  1  0.499986  0.000000  0.164189  1
  Ir  Ir20  1  0.999980  0.500000  0.330184  1
  Ir  Ir21  1  0.499998  0.000000  0.499410  1
  Ir  Ir22  1  0.000016  0.500000  0.667258  1
  Ir  Ir23  1  0.500021  0.000000  0.836481  1
