# generated using pymatgen
data_Dy7Sc(Ga3Pt)4
_symmetry_space_group_name_H-M   'P 1'
_cell_length_a   8.86664400
_cell_length_b   8.88861240
_cell_length_c   7.04840300
_cell_angle_alpha   90.00000000
_cell_angle_beta   90.00000000
_cell_angle_gamma   120.08373231
_symmetry_Int_Tables_number   1
_chemical_formula_structural   Dy7Sc(Ga3Pt)4
_chemical_formula_sum   'Dy7 Sc1 Ga12 Pt4'
_cell_volume   480.67058756
_cell_formula_units_Z   1
loop_
 _symmetry_equiv_pos_site_id
 _symmetry_equiv_pos_as_xyz
  1  'x, y, z'
loop_
 _atom_site_type_symbol
 _atom_site_label
 _atom_site_symmetry_multiplicity
 _atom_site_fract_x
 _atom_site_fract_y
 _atom_site_fract_z
 _atom_site_occupancy
  Dy  Dy0  1  0.000380  0.000111  0.250000  1
  Dy  Dy1  1  0.999706  0.999937  0.750000  1
  Dy  Dy2  1  0.519884  0.039914  0.250000  1
  Dy  Dy3  1  0.519829  0.480082  0.250000  1
  Dy  Dy4  1  0.961880  0.480968  0.250000  1
  Dy  Dy5  1  0.479035  0.959105  0.750000  1
  Dy  Dy6  1  0.479092  0.519819  0.750000  1
  Sc  Sc7  1  0.039471  0.519692  0.750000  1
  Ga  Ga8  1  0.166276  0.334661  0.044409  1
  Ga  Ga9  1  0.166396  0.831565  0.455607  1
  Ga  Ga10  1  0.664683  0.832379  0.453379  1
  Ga  Ga11  1  0.664683  0.832379  0.046621  1
  Ga  Ga12  1  0.166396  0.831565  0.044393  1
  Ga  Ga13  1  0.834713  0.664544  0.950757  1
  Ga  Ga14  1  0.834591  0.170221  0.950771  1
  Ga  Ga15  1  0.335099  0.167511  0.953568  1
  Ga  Ga16  1  0.166276  0.334661  0.455591  1
  Ga  Ga17  1  0.335099  0.167511  0.546432  1
  Ga  Ga18  1  0.834713  0.664544  0.549243  1
  Ga  Ga19  1  0.834591  0.170221  0.549229  1
  Pt  Pt20  1  0.330184  0.665019  0.026603  1
  Pt  Pt21  1  0.330184  0.665019  0.473397  1
  Pt  Pt22  1  0.668420  0.334286  0.967422  1
  Pt  Pt23  1  0.668420  0.334286  0.532578  1
