# generated using pymatgen
data_Li4CaLa3Si8
_symmetry_space_group_name_H-M   'P 1'
_cell_length_a   3.89451100
_cell_length_b   7.88440635
_cell_length_c   10.69310647
_cell_angle_alpha   90.03395578
_cell_angle_beta   90.00000000
_cell_angle_gamma   90.00000000
_symmetry_Int_Tables_number   1
_chemical_formula_structural   Li4CaLa3Si8
_chemical_formula_sum   'Li4 Ca1 La3 Si8'
_cell_volume   328.34147774
_cell_formula_units_Z   1
loop_
 _symmetry_equiv_pos_site_id
 _symmetry_equiv_pos_as_xyz
  1  'x, y, z'
loop_
 _atom_site_type_symbol
 _atom_site_label
 _atom_site_symmetry_multiplicity
 _atom_site_fract_x
 _atom_site_fract_y
 _atom_site_fract_z
 _atom_site_occupancy
  Li  Li0  1  0.250000  0.999091  0.390686  1
  Li  Li1  1  0.750000  0.003851  0.609178  1
  Li  Li2  1  0.250000  0.495890  0.112121  1
  Li  Li3  1  0.750000  0.502944  0.890207  1
  Ca  Ca4  1  0.750000  0.366666  0.366194  1
  La  La5  1  0.250000  0.134378  0.864113  1
  La  La6  1  0.750000  0.865514  0.135681  1
  La  La7  1  0.250000  0.632804  0.633345  1
  Si  Si8  1  0.750000  0.273107  0.072514  1
  Si  Si9  1  0.250000  0.726329  0.928623  1
  Si  Si10  1  0.750000  0.770676  0.429532  1
  Si  Si11  1  0.250000  0.231426  0.569197  1
  Si  Si12  1  0.750000  0.830767  0.822478  1
  Si  Si13  1  0.250000  0.165592  0.175299  1
  Si  Si14  1  0.750000  0.331559  0.677579  1
  Si  Si15  1  0.250000  0.669404  0.323253  1
