# generated using pymatgen
data_Mn5Nb12Fe7N4
_symmetry_space_group_name_H-M   'P 1'
_cell_length_a   8.02527852
_cell_length_b   8.01856303
_cell_length_c   8.01856400
_cell_angle_alpha   60.00000424
_cell_angle_beta   60.02768123
_cell_angle_gamma   60.02767705
_symmetry_Int_Tables_number   1
_chemical_formula_structural   Mn5Nb12Fe7N4
_chemical_formula_sum   'Mn5 Nb12 Fe7 N4'
_cell_volume   365.02267698
_cell_formula_units_Z   1
loop_
 _symmetry_equiv_pos_site_id
 _symmetry_equiv_pos_as_xyz
  1  'x, y, z'
loop_
 _atom_site_type_symbol
 _atom_site_label
 _atom_site_symmetry_multiplicity
 _atom_site_fract_x
 _atom_site_fract_y
 _atom_site_fract_z
 _atom_site_occupancy
  Mn  Mn0  1  0.123516  0.625495  0.625495  1
  Mn  Mn1  1  0.624971  0.124476  0.625276  1
  Mn  Mn2  1  0.624971  0.625276  0.124476  1
  Mn  Mn3  1  0.624971  0.625276  0.625276  1
  Mn  Mn4  1  0.721296  0.426235  0.426235  1
  Nb  Nb5  1  0.803077  0.802065  0.197429  1
  Nb  Nb6  1  0.198235  0.197031  0.802367  1
  Nb  Nb7  1  0.803077  0.197429  0.802065  1
  Nb  Nb8  1  0.198235  0.802367  0.197031  1
  Nb  Nb9  1  0.198235  0.802367  0.802367  1
  Nb  Nb10  1  0.803077  0.197429  0.197429  1
  Nb  Nb11  1  0.448380  0.447550  0.052036  1
  Nb  Nb12  1  0.052714  0.052261  0.447512  1
  Nb  Nb13  1  0.448380  0.052036  0.447550  1
  Nb  Nb14  1  0.052714  0.447512  0.052261  1
  Nb  Nb15  1  0.052714  0.447512  0.447512  1
  Nb  Nb16  1  0.448380  0.052036  0.052036  1
  Fe  Fe17  1  0.423600  0.726485  0.424958  1
  Fe  Fe18  1  0.423600  0.424958  0.726485  1
  Fe  Fe19  1  0.423600  0.424958  0.424958  1
  Fe  Fe20  1  0.525071  0.824976  0.824976  1
  Fe  Fe21  1  0.824866  0.525147  0.824993  1
  Fe  Fe22  1  0.824866  0.824993  0.525147  1
  Fe  Fe23  1  0.824866  0.824993  0.824993  1
  N  N24  1  0.625183  0.124939  0.124939  1
  N  N25  1  0.125802  0.624657  0.124771  1
  N  N26  1  0.125802  0.124771  0.624657  1
  N  N27  1  0.125802  0.124771  0.124771  1
