# generated using pymatgen
data_LuCo4CuP3
_symmetry_space_group_name_H-M   'P 1'
_cell_length_a   3.66992200
_cell_length_b   10.20989800
_cell_length_c   11.83570700
_cell_angle_alpha   90.00000000
_cell_angle_beta   90.00000000
_cell_angle_gamma   90.00000000
_symmetry_Int_Tables_number   1
_chemical_formula_structural   LuCo4CuP3
_chemical_formula_sum   'Lu4 Co16 Cu4 P12'
_cell_volume   443.47837008
_cell_formula_units_Z   4
loop_
 _symmetry_equiv_pos_site_id
 _symmetry_equiv_pos_as_xyz
  1  'x, y, z'
loop_
 _atom_site_type_symbol
 _atom_site_label
 _atom_site_symmetry_multiplicity
 _atom_site_fract_x
 _atom_site_fract_y
 _atom_site_fract_z
 _atom_site_occupancy
  Lu  Lu0  1  0.250000  0.576507  0.702436  1
  Lu  Lu1  1  0.250000  0.923493  0.202436  1
  Lu  Lu2  1  0.750000  0.423493  0.297564  1
  Lu  Lu3  1  0.750000  0.076507  0.797564  1
  Co  Co4  1  0.250000  0.405984  0.482536  1
  Co  Co5  1  0.250000  0.094016  0.982536  1
  Co  Co6  1  0.750000  0.594016  0.517464  1
  Co  Co7  1  0.750000  0.905984  0.017464  1
  Co  Co8  1  0.250000  0.226204  0.172733  1
  Co  Co9  1  0.250000  0.273796  0.672733  1
  Co  Co10  1  0.750000  0.773796  0.827267  1
  Co  Co11  1  0.750000  0.726204  0.327267  1
  Co  Co12  1  0.250000  0.877431  0.701171  1
  Co  Co13  1  0.250000  0.622569  0.201171  1
  Co  Co14  1  0.750000  0.122569  0.298829  1
  Co  Co15  1  0.750000  0.377431  0.798829  1
  Co  Co16  1  0.250000  0.462600  0.932968  1
  Co  Co17  1  0.250000  0.037400  0.432968  1
  Co  Co18  1  0.750000  0.537400  0.067032  1
  Co  Co19  1  0.750000  0.962600  0.567032  1
  Cu  Cu20  1  0.250000  0.710251  0.992076  1
  Cu  Cu21  1  0.250000  0.789749  0.492076  1
  Cu  Cu22  1  0.750000  0.289749  0.007924  1
  Cu  Cu23  1  0.750000  0.210251  0.507924  1
  P  P24  1  0.250000  0.427309  0.117265  1
  P  P25  1  0.250000  0.072691  0.617265  1
  P  P26  1  0.750000  0.572691  0.882735  1
  P  P27  1  0.750000  0.927309  0.382735  1
  P  P28  1  0.250000  0.265352  0.858982  1
  P  P29  1  0.250000  0.234648  0.358982  1
  P  P30  1  0.750000  0.734648  0.141018  1
  P  P31  1  0.750000  0.765352  0.641018  1
  P  P32  1  0.250000  0.600042  0.391727  1
  P  P33  1  0.250000  0.899958  0.891727  1
  P  P34  1  0.750000  0.399958  0.608273  1
  P  P35  1  0.750000  0.100042  0.108273  1
