# generated using pymatgen
data_Tb6Sn6PtRh5
_symmetry_space_group_name_H-M   'P 1'
_cell_length_a   7.56608400
_cell_length_b   7.56608281
_cell_length_c   7.83960500
_cell_angle_alpha   90.00000000
_cell_angle_beta   90.00000000
_cell_angle_gamma   120.00000637
_symmetry_Int_Tables_number   1
_chemical_formula_structural   Tb6Sn6PtRh5
_chemical_formula_sum   'Tb6 Sn6 Pt1 Rh5'
_cell_volume   388.65748313
_cell_formula_units_Z   1
loop_
 _symmetry_equiv_pos_site_id
 _symmetry_equiv_pos_as_xyz
  1  'x, y, z'
loop_
 _atom_site_type_symbol
 _atom_site_label
 _atom_site_symmetry_multiplicity
 _atom_site_fract_x
 _atom_site_fract_y
 _atom_site_fract_z
 _atom_site_occupancy
  Tb  Tb0  1  0.405747  0.998129  0.249110  1
  Tb  Tb1  1  0.592382  0.594253  0.249110  1
  Tb  Tb2  1  0.001871  0.407618  0.249110  1
  Tb  Tb3  1  0.405625  0.997925  0.751071  1
  Tb  Tb4  1  0.592300  0.594375  0.751071  1
  Tb  Tb5  1  0.002075  0.407700  0.751071  1
  Sn  Sn6  1  0.260173  0.259076  0.000008  1
  Sn  Sn7  1  0.998904  0.739827  0.000008  1
  Sn  Sn8  1  0.004865  0.745514  0.500068  1
  Sn  Sn9  1  0.740648  0.995135  0.500068  1
  Sn  Sn10  1  0.254486  0.259352  0.500068  1
  Sn  Sn11  1  0.740924  0.001096  0.000008  1
  Pt  Pt12  1  0.666667  0.333333  0.500433  1
  Rh  Rh13  1  0.000000  0.000000  0.750842  1
  Rh  Rh14  1  0.000000  0.000000  0.249410  1
  Rh  Rh15  1  0.666667  0.333333  0.999267  1
  Rh  Rh16  1  0.333333  0.666667  0.499418  1
  Rh  Rh17  1  0.333333  0.666667  0.999861  1
