# generated using pymatgen
data_YEr3Co18(P6Os)2
_symmetry_space_group_name_H-M   'P 1'
_cell_length_a   3.68410100
_cell_length_b   10.34359103
_cell_length_c   11.75061204
_cell_angle_alpha   90.00902056
_cell_angle_beta   90.00000000
_cell_angle_gamma   90.00000000
_symmetry_Int_Tables_number   1
_chemical_formula_structural   YEr3Co18(P6Os)2
_chemical_formula_sum   'Y1 Er3 Co18 P12 Os2'
_cell_volume   447.77861748
_cell_formula_units_Z   1
loop_
 _symmetry_equiv_pos_site_id
 _symmetry_equiv_pos_as_xyz
  1  'x, y, z'
loop_
 _atom_site_type_symbol
 _atom_site_label
 _atom_site_symmetry_multiplicity
 _atom_site_fract_x
 _atom_site_fract_y
 _atom_site_fract_z
 _atom_site_occupancy
  Y  Y0  1  0.250000  0.582550  0.701990  1
  Er  Er1  1  0.250000  0.917757  0.201760  1
  Er  Er2  1  0.750000  0.413257  0.295367  1
  Er  Er3  1  0.750000  0.086650  0.795324  1
  Co  Co4  1  0.750000  0.283328  0.008931  1
  Co  Co5  1  0.750000  0.216305  0.508262  1
  Co  Co6  1  0.250000  0.405509  0.487371  1
  Co  Co7  1  0.250000  0.094022  0.987668  1
  Co  Co8  1  0.750000  0.591214  0.508973  1
  Co  Co9  1  0.750000  0.908695  0.010349  1
  Co  Co10  1  0.250000  0.220177  0.177032  1
  Co  Co11  1  0.250000  0.279424  0.676994  1
  Co  Co12  1  0.750000  0.778144  0.823010  1
  Co  Co13  1  0.750000  0.722855  0.322531  1
  Co  Co14  1  0.250000  0.888287  0.701895  1
  Co  Co15  1  0.250000  0.612261  0.202246  1
  Co  Co16  1  0.750000  0.115402  0.300716  1
  Co  Co17  1  0.750000  0.383734  0.801546  1
  Co  Co18  1  0.250000  0.464872  0.933504  1
  Co  Co19  1  0.250000  0.034756  0.432495  1
  Co  Co20  1  0.750000  0.533382  0.069632  1
  Co  Co21  1  0.750000  0.967112  0.568724  1
  P  P22  1  0.250000  0.416128  0.113068  1
  P  P23  1  0.250000  0.083934  0.612462  1
  P  P24  1  0.750000  0.578723  0.887571  1
  P  P25  1  0.750000  0.921404  0.386273  1
  P  P26  1  0.250000  0.270348  0.869449  1
  P  P27  1  0.250000  0.229468  0.369174  1
  P  P28  1  0.750000  0.729764  0.132530  1
  P  P29  1  0.750000  0.771423  0.631998  1
  P  P30  1  0.250000  0.593109  0.390050  1
  P  P31  1  0.250000  0.906757  0.890021  1
  P  P32  1  0.750000  0.396582  0.608431  1
  P  P33  1  0.750000  0.102396  0.108741  1
  Os  Os34  1  0.250000  0.715913  0.992230  1
  Os  Os35  1  0.250000  0.784358  0.491679  1
