# generated using pymatgen
data_ErTm19Bi12
_symmetry_space_group_name_H-M   'P 1'
_cell_length_a   8.17014901
_cell_length_b   9.45504100
_cell_length_c   11.87613202
_cell_angle_alpha   90.00000000
_cell_angle_beta   90.00671696
_cell_angle_gamma   90.00000000
_symmetry_Int_Tables_number   1
_chemical_formula_structural   ErTm19Bi12
_chemical_formula_sum   'Er1 Tm19 Bi12'
_cell_volume   917.42043135
_cell_formula_units_Z   1
loop_
 _symmetry_equiv_pos_site_id
 _symmetry_equiv_pos_as_xyz
  1  'x, y, z'
loop_
 _atom_site_type_symbol
 _atom_site_label
 _atom_site_symmetry_multiplicity
 _atom_site_fract_x
 _atom_site_fract_y
 _atom_site_fract_z
 _atom_site_occupancy
  Er  Er0  1  0.186595  0.750000  0.717547  1
  Tm  Tm1  1  0.352918  0.750000  0.216738  1
  Tm  Tm2  1  0.852886  0.750000  0.283248  1
  Tm  Tm3  1  0.647090  0.250000  0.783250  1
  Tm  Tm4  1  0.147114  0.250000  0.716746  1
  Tm  Tm5  1  0.691785  0.565563  0.058590  1
  Tm  Tm6  1  0.191762  0.934451  0.441379  1
  Tm  Tm7  1  0.308225  0.065552  0.941428  1
  Tm  Tm8  1  0.808252  0.434453  0.558590  1
  Tm  Tm9  1  0.308225  0.434448  0.941428  1
  Tm  Tm10  1  0.808252  0.065547  0.558590  1
  Tm  Tm11  1  0.691785  0.934437  0.058590  1
  Tm  Tm12  1  0.191762  0.565549  0.441379  1
  Tm  Tm13  1  0.477653  0.250000  0.488880  1
  Tm  Tm14  1  0.977629  0.250000  0.011113  1
  Tm  Tm15  1  0.522424  0.750000  0.511061  1
  Tm  Tm16  1  0.022309  0.750000  0.988956  1
  Tm  Tm17  1  0.313363  0.250000  0.217456  1
  Tm  Tm18  1  0.813376  0.250000  0.282556  1
  Tm  Tm19  1  0.686587  0.750000  0.782534  1
  Bi  Bi20  1  0.403918  0.750000  0.956963  1
  Bi  Bi21  1  0.903654  0.750000  0.542945  1
  Bi  Bi22  1  0.596169  0.250000  0.043095  1
  Bi  Bi23  1  0.096189  0.250000  0.456904  1
  Bi  Bi24  1  0.565144  0.996052  0.325176  1
  Bi  Bi25  1  0.065167  0.503952  0.174800  1
  Bi  Bi26  1  0.434983  0.495922  0.674796  1
  Bi  Bi27  1  0.934745  0.004036  0.825245  1
  Bi  Bi28  1  0.434983  0.004078  0.674796  1
  Bi  Bi29  1  0.934745  0.495964  0.825245  1
  Bi  Bi30  1  0.565144  0.503948  0.325176  1
  Bi  Bi31  1  0.065167  0.996048  0.174800  1
