# generated using pymatgen
data_Yb8CdIn4Hg3
_symmetry_space_group_name_H-M   'P 1'
_cell_length_a   7.58748403
_cell_length_b   7.58074000
_cell_length_c   7.34047400
_cell_angle_alpha   90.00012093
_cell_angle_beta   90.00513492
_cell_angle_gamma   90.00007557
_symmetry_Int_Tables_number   1
_chemical_formula_structural   Yb8CdIn4Hg3
_chemical_formula_sum   'Yb8 Cd1 In4 Hg3'
_cell_volume   422.21484087
_cell_formula_units_Z   1
loop_
 _symmetry_equiv_pos_site_id
 _symmetry_equiv_pos_as_xyz
  1  'x, y, z'
loop_
 _atom_site_type_symbol
 _atom_site_label
 _atom_site_symmetry_multiplicity
 _atom_site_fract_x
 _atom_site_fract_y
 _atom_site_fract_z
 _atom_site_occupancy
  Yb  Yb0  1  0.500854  0.499044  0.245972  1
  Yb  Yb1  1  0.500850  0.000946  0.245972  1
  Yb  Yb2  1  0.999186  0.499153  0.251696  1
  Yb  Yb3  1  0.999189  0.000816  0.251701  1
  Yb  Yb4  1  0.999124  0.000764  0.748318  1
  Yb  Yb5  1  0.999130  0.499261  0.748312  1
  Yb  Yb6  1  0.500929  0.499123  0.754039  1
  Yb  Yb7  1  0.500928  0.000892  0.754037  1
  Cd  Cd8  1  0.256219  0.750001  0.500017  1
  In  In9  1  0.754182  0.750000  0.000139  1
  In  In10  1  0.745589  0.750000  0.499775  1
  In  In11  1  0.254215  0.250000  0.500159  1
  In  In12  1  0.245808  0.250000  0.999861  1
  Hg  Hg13  1  0.756252  0.250002  0.000004  1
  Hg  Hg14  1  0.243816  0.750001  0.000011  1
  Hg  Hg15  1  0.743729  0.250002  0.499986  1
