# generated using pymatgen
data_La5Pr11(HoIr3)4
_symmetry_space_group_name_H-M   'P 1'
_cell_length_a   11.29129595
_cell_length_b   11.32281737
_cell_length_c   6.57031436
_cell_angle_alpha   89.86832590
_cell_angle_beta   89.99445997
_cell_angle_gamma   89.89298124
_symmetry_Int_Tables_number   1
_chemical_formula_structural   La5Pr11(HoIr3)4
_chemical_formula_sum   'La5 Pr11 Ho4 Ir12'
_cell_volume   840.00628597
_cell_formula_units_Z   1
loop_
 _symmetry_equiv_pos_site_id
 _symmetry_equiv_pos_as_xyz
  1  'x, y, z'
loop_
 _atom_site_type_symbol
 _atom_site_label
 _atom_site_symmetry_multiplicity
 _atom_site_fract_x
 _atom_site_fract_y
 _atom_site_fract_z
 _atom_site_occupancy
  La  La0  1  0.289120  0.088562  0.384310  1
  La  La1  1  0.288207  0.911408  0.884098  1
  La  La2  1  0.711362  0.089688  0.884214  1
  La  La3  1  0.711384  0.911835  0.384451  1
  La  La4  1  0.588014  0.787343  0.883680  1
  Pr  Pr5  1  0.587991  0.212751  0.382293  1
  Pr  Pr6  1  0.411286  0.787038  0.382182  1
  Pr  Pr7  1  0.412054  0.212970  0.882212  1
  Pr  Pr8  1  0.211162  0.413127  0.617636  1
  Pr  Pr9  1  0.211175  0.586817  0.117668  1
  Pr  Pr10  1  0.788863  0.412920  0.117015  1
  Pr  Pr11  1  0.789213  0.586479  0.616719  1
  Pr  Pr12  1  0.912929  0.710680  0.116829  1
  Pr  Pr13  1  0.912572  0.289160  0.616346  1
  Pr  Pr14  1  0.087493  0.710833  0.616345  1
  Pr  Pr15  1  0.087469  0.289202  0.116342  1
  Ho  Ho16  1  0.999962  0.000033  0.500056  1
  Ho  Ho17  1  0.999971  0.000242  0.000036  1
  Ho  Ho18  1  0.499597  0.499263  0.001023  1
  Ho  Ho19  1  0.500110  0.499821  0.500432  1
  Ir  Ir20  1  0.851660  0.147138  0.248420  1
  Ir  Ir21  1  0.851508  0.852924  0.748659  1
  Ir  Ir22  1  0.148632  0.146933  0.748195  1
  Ir  Ir23  1  0.148433  0.852976  0.248402  1
  Ir  Ir24  1  0.647314  0.352374  0.750170  1
  Ir  Ir25  1  0.647050  0.648386  0.248731  1
  Ir  Ir26  1  0.352728  0.352364  0.250504  1
  Ir  Ir27  1  0.352594  0.647494  0.750180  1
  Ir  Ir28  1  0.499930  0.999925  0.117752  1
  Ir  Ir29  1  0.500237  0.999312  0.618717  1
  Ir  Ir30  1  0.000114  0.499905  0.883123  1
  Ir  Ir31  1  0.999868  0.500098  0.383257  1
