# generated using pymatgen
data_Ca6TbNd(Si3Pt)4
_symmetry_space_group_name_H-M   'P 1'
_cell_length_a   8.22699500
_cell_length_b   8.22699504
_cell_length_c   8.40132300
_cell_angle_alpha   90.00000000
_cell_angle_beta   90.00000000
_cell_angle_gamma   119.99999582
_symmetry_Int_Tables_number   1
_chemical_formula_structural   Ca6TbNd(Si3Pt)4
_chemical_formula_sum   'Ca6 Tb1 Nd1 Si12 Pt4'
_cell_volume   492.44847943
_cell_formula_units_Z   1
loop_
 _symmetry_equiv_pos_site_id
 _symmetry_equiv_pos_as_xyz
  1  'x, y, z'
loop_
 _atom_site_type_symbol
 _atom_site_label
 _atom_site_symmetry_multiplicity
 _atom_site_fract_x
 _atom_site_fract_y
 _atom_site_fract_z
 _atom_site_occupancy
  Ca  Ca0  1  0.499376  0.500624  0.750000  1
  Ca  Ca1  1  0.500376  0.499624  0.250000  1
  Ca  Ca2  1  0.001248  0.500624  0.750000  1
  Ca  Ca3  1  0.999247  0.499624  0.250000  1
  Ca  Ca4  1  0.499376  0.998752  0.750000  1
  Ca  Ca5  1  0.500376  0.000753  0.250000  1
  Tb  Tb6  1  0.000000  0.000000  0.750000  1
  Nd  Nd7  1  0.000000  0.000000  0.250000  1
  Si  Si8  1  0.834340  0.165660  0.996835  1
  Si  Si9  1  0.165656  0.834344  0.997653  1
  Si  Si10  1  0.331323  0.165660  0.996835  1
  Si  Si11  1  0.165656  0.834344  0.502347  1
  Si  Si12  1  0.668688  0.834344  0.997653  1
  Si  Si13  1  0.834340  0.165660  0.503165  1
  Si  Si14  1  0.834340  0.668677  0.996835  1
  Si  Si15  1  0.668688  0.834344  0.502347  1
  Si  Si16  1  0.165656  0.331312  0.997653  1
  Si  Si17  1  0.331323  0.165660  0.503165  1
  Si  Si18  1  0.165656  0.331312  0.502347  1
  Si  Si19  1  0.834340  0.668677  0.503165  1
  Pt  Pt20  1  0.666667  0.333333  0.999005  1
  Pt  Pt21  1  0.333333  0.666667  0.000556  1
  Pt  Pt22  1  0.333333  0.666667  0.499444  1
  Pt  Pt23  1  0.666667  0.333333  0.500995  1
