# generated using pymatgen
data_Ce8Al(Si4Ir)3
_symmetry_space_group_name_H-M   'P 1'
_cell_length_a   8.22438500
_cell_length_b   8.22438409
_cell_length_c   8.31725300
_cell_angle_alpha   90.00000000
_cell_angle_beta   90.00000000
_cell_angle_gamma   120.00000769
_symmetry_Int_Tables_number   1
_chemical_formula_structural   Ce8Al(Si4Ir)3
_chemical_formula_sum   'Ce8 Al1 Si12 Ir3'
_cell_volume   487.21127143
_cell_formula_units_Z   1
loop_
 _symmetry_equiv_pos_site_id
 _symmetry_equiv_pos_as_xyz
  1  'x, y, z'
loop_
 _atom_site_type_symbol
 _atom_site_label
 _atom_site_symmetry_multiplicity
 _atom_site_fract_x
 _atom_site_fract_y
 _atom_site_fract_z
 _atom_site_occupancy
  Ce  Ce0  1  0.503334  0.006665  0.247710  1
  Ce  Ce1  1  0.502208  0.004416  0.751881  1
  Ce  Ce2  1  0.993335  0.496666  0.247710  1
  Ce  Ce3  1  0.995584  0.497792  0.751881  1
  Ce  Ce4  1  0.503334  0.496666  0.247710  1
  Ce  Ce5  1  0.502208  0.497792  0.751881  1
  Ce  Ce6  1  0.000000  0.000000  0.251328  1
  Ce  Ce7  1  0.000000  0.000000  0.749242  1
  Al  Al8  1  0.333333  0.666667  0.495336  1
  Si  Si9  1  0.166262  0.332524  0.001912  1
  Si  Si10  1  0.835267  0.670535  0.998810  1
  Si  Si11  1  0.667476  0.833738  0.001912  1
  Si  Si12  1  0.833637  0.667276  0.498568  1
  Si  Si13  1  0.329465  0.164733  0.998810  1
  Si  Si14  1  0.164032  0.328064  0.501466  1
  Si  Si15  1  0.166262  0.833738  0.001912  1
  Si  Si16  1  0.332724  0.166363  0.498568  1
  Si  Si17  1  0.835267  0.164733  0.998810  1
  Si  Si18  1  0.671936  0.835968  0.501466  1
  Si  Si19  1  0.833637  0.166363  0.498568  1
  Si  Si20  1  0.164032  0.835968  0.501466  1
  Ir  Ir21  1  0.333333  0.666667  0.999145  1
  Ir  Ir22  1  0.666667  0.333333  0.000348  1
  Ir  Ir23  1  0.666667  0.333333  0.503562  1
