# generated using pymatgen
data_Ac4Dy6Ga7Si
_symmetry_space_group_name_H-M   'P 1'
_cell_length_a   7.77956300
_cell_length_b   8.19400500
_cell_length_c   15.71742000
_cell_angle_alpha   90.00000000
_cell_angle_beta   90.00000000
_cell_angle_gamma   90.00000000
_symmetry_Int_Tables_number   1
_chemical_formula_structural   Ac4Dy6Ga7Si
_chemical_formula_sum   'Ac8 Dy12 Ga14 Si2'
_cell_volume   1001.91916794
_cell_formula_units_Z   2
loop_
 _symmetry_equiv_pos_site_id
 _symmetry_equiv_pos_as_xyz
  1  'x, y, z'
loop_
 _atom_site_type_symbol
 _atom_site_label
 _atom_site_symmetry_multiplicity
 _atom_site_fract_x
 _atom_site_fract_y
 _atom_site_fract_z
 _atom_site_occupancy
  Ac  Ac0  1  0.981358  0.824480  0.094629  1
  Ac  Ac1  1  0.481358  0.675520  0.405371  1
  Ac  Ac2  1  0.518284  0.327108  0.903965  1
  Ac  Ac3  1  0.018284  0.172892  0.596035  1
  Ac  Ac4  1  0.018284  0.172892  0.903965  1
  Ac  Ac5  1  0.518284  0.327108  0.596035  1
  Ac  Ac6  1  0.481358  0.675520  0.094629  1
  Ac  Ac7  1  0.981358  0.824480  0.405371  1
  Dy  Dy8  1  0.656100  0.994969  0.250000  1
  Dy  Dy9  1  0.156100  0.505031  0.250000  1
  Dy  Dy10  1  0.841130  0.496600  0.750000  1
  Dy  Dy11  1  0.341130  0.003400  0.750000  1
  Dy  Dy12  1  0.678481  0.822227  0.874141  1
  Dy  Dy13  1  0.178481  0.677773  0.625859  1
  Dy  Dy14  1  0.821142  0.324806  0.122436  1
  Dy  Dy15  1  0.321142  0.175194  0.377564  1
  Dy  Dy16  1  0.321142  0.175194  0.122436  1
  Dy  Dy17  1  0.821142  0.324806  0.377564  1
  Dy  Dy18  1  0.178481  0.677773  0.874141  1
  Dy  Dy19  1  0.678481  0.822227  0.625859  1
  Ga  Ga20  1  0.770311  0.614196  0.250000  1
  Ga  Ga21  1  0.270311  0.885804  0.250000  1
  Ga  Ga22  1  0.731854  0.111827  0.750000  1
  Ga  Ga23  1  0.231854  0.388173  0.750000  1
  Ga  Ga24  1  0.026680  0.121177  0.250000  1
  Ga  Ga25  1  0.526680  0.378823  0.250000  1
  Ga  Ga26  1  0.854608  0.539179  0.957542  1
  Ga  Ga27  1  0.354608  0.960821  0.542458  1
  Ga  Ga28  1  0.647169  0.037272  0.038700  1
  Ga  Ga29  1  0.147169  0.462728  0.461300  1
  Ga  Ga30  1  0.147169  0.462728  0.038700  1
  Ga  Ga31  1  0.647169  0.037272  0.461300  1
  Ga  Ga32  1  0.354608  0.960821  0.957542  1
  Ga  Ga33  1  0.854608  0.539179  0.542458  1
  Si  Si34  1  0.471842  0.623183  0.750000  1
  Si  Si35  1  0.971842  0.876817  0.750000  1
