# generated using pymatgen
data_Hf6Be17Ni6
_symmetry_space_group_name_H-M   'P 1'
_cell_length_a   7.72307033
_cell_length_b   7.72307113
_cell_length_c   7.72307100
_cell_angle_alpha   60.06228068
_cell_angle_beta   60.06228585
_cell_angle_gamma   60.06228033
_symmetry_Int_Tables_number   1
_chemical_formula_structural   Hf6Be17Ni6
_chemical_formula_sum   'Hf6 Be17 Ni6'
_cell_volume   326.18774906
_cell_formula_units_Z   1
loop_
 _symmetry_equiv_pos_site_id
 _symmetry_equiv_pos_as_xyz
  1  'x, y, z'
loop_
 _atom_site_type_symbol
 _atom_site_label
 _atom_site_symmetry_multiplicity
 _atom_site_fract_x
 _atom_site_fract_y
 _atom_site_fract_z
 _atom_site_occupancy
  Hf  Hf0  1  0.701521  0.292604  0.292604  1
  Hf  Hf1  1  0.298479  0.707396  0.707396  1
  Hf  Hf2  1  0.292604  0.701521  0.292604  1
  Hf  Hf3  1  0.707396  0.298479  0.707396  1
  Hf  Hf4  1  0.292604  0.292604  0.701521  1
  Hf  Hf5  1  0.707396  0.707396  0.298479  1
  Be  Be6  1  0.322991  0.322991  0.322991  1
  Be  Be7  1  0.677009  0.677009  0.677009  1
  Be  Be8  1  0.324047  0.324047  0.031093  1
  Be  Be9  1  0.324047  0.031093  0.324047  1
  Be  Be10  1  0.675953  0.675953  0.968907  1
  Be  Be11  1  0.675953  0.968907  0.675953  1
  Be  Be12  1  0.031093  0.324047  0.324047  1
  Be  Be13  1  0.968907  0.675953  0.675953  1
  Be  Be14  1  0.500000  0.000000  0.000000  1
  Be  Be15  1  0.000000  0.500000  0.500000  1
  Be  Be16  1  0.000000  0.500000  0.000000  1
  Be  Be17  1  0.500000  0.000000  0.500000  1
  Be  Be18  1  0.000000  0.000000  0.500000  1
  Be  Be19  1  0.500000  0.500000  0.000000  1
  Be  Be20  1  0.000000  0.000000  0.000000  1
  Be  Be21  1  0.123258  0.123258  0.123258  1
  Be  Be22  1  0.876742  0.876742  0.876742  1
  Ni  Ni23  1  0.119031  0.119031  0.632521  1
  Ni  Ni24  1  0.119031  0.632521  0.119031  1
  Ni  Ni25  1  0.880969  0.880969  0.367479  1
  Ni  Ni26  1  0.880969  0.367479  0.880969  1
  Ni  Ni27  1  0.632521  0.119031  0.119031  1
  Ni  Ni28  1  0.367479  0.880969  0.880969  1
