# generated using pymatgen
data_CaDy3(Si5Os3)2
_symmetry_space_group_name_H-M   'P 1'
_cell_length_a   8.16769155
_cell_length_b   8.14798914
_cell_length_c   5.79035894
_cell_angle_alpha   70.53885476
_cell_angle_beta   70.40317549
_cell_angle_gamma   93.99623320
_symmetry_Int_Tables_number   1
_chemical_formula_structural   CaDy3(Si5Os3)2
_chemical_formula_sum   'Ca1 Dy3 Si10 Os6'
_cell_volume   335.07160083
_cell_formula_units_Z   1
loop_
 _symmetry_equiv_pos_site_id
 _symmetry_equiv_pos_as_xyz
  1  'x, y, z'
loop_
 _atom_site_type_symbol
 _atom_site_label
 _atom_site_symmetry_multiplicity
 _atom_site_fract_x
 _atom_site_fract_y
 _atom_site_fract_z
 _atom_site_occupancy
  Ca  Ca0  1  0.867799  0.602796  0.754204  1
  Dy  Dy1  1  0.398662  0.130212  0.746267  1
  Dy  Dy2  1  0.130525  0.399718  0.247076  1
  Dy  Dy3  1  0.602639  0.866616  0.255108  1
  Si  Si4  1  0.069593  0.261771  0.834951  1
  Si  Si5  1  0.737909  0.933126  0.666459  1
  Si  Si6  1  0.932969  0.738622  0.167196  1
  Si  Si7  1  0.262335  0.067420  0.333573  1
  Si  Si8  1  0.205515  0.792212  0.749648  1
  Si  Si9  1  0.791288  0.205144  0.254986  1
  Si  Si10  1  0.512990  0.488724  0.749676  1
  Si  Si11  1  0.488038  0.511533  0.246254  1
  Si  Si12  1  0.773532  0.224200  0.747150  1
  Si  Si13  1  0.224446  0.774878  0.251766  1
  Os  Os14  1  0.257832  0.542289  0.629799  1
  Os  Os15  1  0.454823  0.744981  0.869957  1
  Os  Os16  1  0.741971  0.456820  0.369442  1
  Os  Os17  1  0.544351  0.253934  0.129280  1
  Os  Os18  1  0.003671  0.000985  0.748198  1
  Os  Os19  1  0.999112  0.004022  0.249011  1
