# generated using pymatgen
data_YTm15Cd4(RuPt)2
_symmetry_space_group_name_H-M   'P 1'
_cell_length_a   9.53789300
_cell_length_b   9.53789261
_cell_length_c   9.59833700
_cell_angle_alpha   59.79013830
_cell_angle_beta   59.79013966
_cell_angle_gamma   59.44494740
_symmetry_Int_Tables_number   1
_chemical_formula_structural   YTm15Cd4(RuPt)2
_chemical_formula_sum   'Y1 Tm15 Cd4 Ru2 Pt2'
_cell_volume   612.85471288
_cell_formula_units_Z   1
loop_
 _symmetry_equiv_pos_site_id
 _symmetry_equiv_pos_as_xyz
  1  'x, y, z'
loop_
 _atom_site_type_symbol
 _atom_site_label
 _atom_site_symmetry_multiplicity
 _atom_site_fract_x
 _atom_site_fract_y
 _atom_site_fract_z
 _atom_site_occupancy
  Y  Y0  1  0.937574  0.937574  0.562426  1
  Tm  Tm1  1  0.349766  0.349766  0.351991  1
  Tm  Tm2  1  0.349766  0.349766  0.948476  1
  Tm  Tm3  1  0.347404  0.954192  0.349202  1
  Tm  Tm4  1  0.954192  0.347404  0.349202  1
  Tm  Tm5  1  0.814816  0.188419  0.189177  1
  Tm  Tm6  1  0.188419  0.814816  0.807589  1
  Tm  Tm7  1  0.188419  0.814816  0.189177  1
  Tm  Tm8  1  0.814816  0.188419  0.807589  1
  Tm  Tm9  1  0.187724  0.187724  0.812276  1
  Tm  Tm10  1  0.808809  0.808809  0.191191  1
  Tm  Tm11  1  0.936927  0.558431  0.566958  1
  Tm  Tm12  1  0.558431  0.936927  0.937684  1
  Tm  Tm13  1  0.558431  0.936927  0.566958  1
  Tm  Tm14  1  0.936927  0.558431  0.937684  1
  Tm  Tm15  1  0.564028  0.564028  0.935972  1
  Cd  Cd16  1  0.579976  0.579976  0.581781  1
  Cd  Cd17  1  0.579976  0.579976  0.258268  1
  Cd  Cd18  1  0.580313  0.255350  0.582169  1
  Cd  Cd19  1  0.255350  0.580313  0.582169  1
  Ru  Ru20  1  0.144686  0.144686  0.137727  1
  Ru  Ru21  1  0.144686  0.144686  0.572903  1
  Pt  Pt22  1  0.144637  0.573933  0.140716  1
  Pt  Pt23  1  0.573933  0.144637  0.140716  1
