# generated using pymatgen
data_CaSmLu2(B6Ru)2
_symmetry_space_group_name_H-M   'P 1'
_cell_length_a   3.63530000
_cell_length_b   9.11550459
_cell_length_c   11.53574303
_cell_angle_alpha   89.84769922
_cell_angle_beta   90.00000000
_cell_angle_gamma   90.00000000
_symmetry_Int_Tables_number   1
_chemical_formula_structural   CaSmLu2(B6Ru)2
_chemical_formula_sum   'Ca2 Sm2 Lu4 B24 Ru4'
_cell_volume   382.26541635
_cell_formula_units_Z   2
loop_
 _symmetry_equiv_pos_site_id
 _symmetry_equiv_pos_as_xyz
  1  'x, y, z'
loop_
 _atom_site_type_symbol
 _atom_site_label
 _atom_site_symmetry_multiplicity
 _atom_site_fract_x
 _atom_site_fract_y
 _atom_site_fract_z
 _atom_site_occupancy
  Ca  Ca0  1  0.000000  0.323749  0.415463  1
  Ca  Ca1  1  0.000000  0.676251  0.584537  1
  Sm  Sm2  1  0.000000  0.821939  0.086100  1
  Sm  Sm3  1  0.000000  0.178061  0.913900  1
  Lu  Lu4  1  0.000000  0.942208  0.370586  1
  Lu  Lu5  1  0.000000  0.057792  0.629414  1
  Lu  Lu6  1  0.000000  0.443027  0.131288  1
  Lu  Lu7  1  0.000000  0.556973  0.868712  1
  B  B8  1  0.500000  0.554638  0.431978  1
  B  B9  1  0.500000  0.445362  0.568022  1
  B  B10  1  0.500000  0.055448  0.068764  1
  B  B11  1  0.500000  0.944552  0.931236  1
  B  B12  1  0.500000  0.749338  0.417403  1
  B  B13  1  0.500000  0.250662  0.582597  1
  B  B14  1  0.500000  0.250594  0.083326  1
  B  B15  1  0.500000  0.749406  0.916674  1
  B  B16  1  0.500000  0.791332  0.265639  1
  B  B17  1  0.500000  0.208668  0.734361  1
  B  B18  1  0.500000  0.291283  0.235298  1
  B  B19  1  0.500000  0.708717  0.764702  1
  B  B20  1  0.500000  0.629690  0.185359  1
  B  B21  1  0.500000  0.370310  0.814641  1
  B  B22  1  0.500000  0.130298  0.315302  1
  B  B23  1  0.500000  0.869702  0.684698  1
  B  B24  1  0.500000  0.984182  0.213545  1
  B  B25  1  0.500000  0.015818  0.786455  1
  B  B26  1  0.500000  0.483475  0.287802  1
  B  B27  1  0.500000  0.516525  0.712198  1
  B  B28  1  0.500000  0.598670  0.026878  1
  B  B29  1  0.500000  0.401330  0.973122  1
  B  B30  1  0.500000  0.097977  0.473319  1
  B  B31  1  0.500000  0.902023  0.526681  1
  Ru  Ru32  1  0.000000  0.640529  0.317953  1
  Ru  Ru33  1  0.000000  0.359471  0.682047  1
  Ru  Ru34  1  0.000000  0.138927  0.180434  1
  Ru  Ru35  1  0.000000  0.861073  0.819566  1
