# generated using pymatgen
data_Zn3NiP4(PbO8)2
_symmetry_space_group_name_H-M   'P 1'
_cell_length_a   5.11585753
_cell_length_b   8.72418033
_cell_length_c   9.39642581
_cell_angle_alpha   113.20152582
_cell_angle_beta   102.46245112
_cell_angle_gamma   93.23115959
_symmetry_Int_Tables_number   1
_chemical_formula_structural   Zn3NiP4(PbO8)2
_chemical_formula_sum   'Zn3 Ni1 P4 Pb2 O16'
_cell_volume   371.67881553
_cell_formula_units_Z   1
loop_
 _symmetry_equiv_pos_site_id
 _symmetry_equiv_pos_as_xyz
  1  'x, y, z'
loop_
 _atom_site_type_symbol
 _atom_site_label
 _atom_site_symmetry_multiplicity
 _atom_site_fract_x
 _atom_site_fract_y
 _atom_site_fract_z
 _atom_site_occupancy
  Zn  Zn0  1  0.384675  0.604092  0.412936  1
  Zn  Zn1  1  0.836934  0.073655  0.289344  1
  Zn  Zn2  1  0.158093  0.917295  0.700085  1
  Ni  Ni3  1  0.646414  0.400248  0.596408  1
  P  P4  1  0.896605  0.718198  0.313197  1
  P  P5  1  0.102387  0.276623  0.679543  1
  P  P6  1  0.318345  0.214847  0.198438  1
  P  P7  1  0.682250  0.789938  0.807987  1
  Pb  Pb8  1  0.769246  0.267930  0.959230  1
  Pb  Pb9  1  0.221994  0.733076  0.040147  1
  O  O10  1  0.000297  0.434069  0.792478  1
  O  O11  1  0.971732  0.561549  0.187544  1
  O  O12  1  0.446083  0.058196  0.202489  1
  O  O13  1  0.548677  0.942324  0.797285  1
  O  O14  1  0.078876  0.732387  0.479268  1
  O  O15  1  0.917882  0.249476  0.510736  1
  O  O16  1  0.025516  0.124908  0.717170  1
  O  O17  1  0.988471  0.875484  0.287408  1
  O  O18  1  0.428316  0.365164  0.369748  1
  O  O19  1  0.564625  0.634058  0.642452  1
  O  O20  1  0.641009  0.745955  0.944834  1
  O  O21  1  0.372332  0.269035  0.069987  1
  O  O22  1  0.406348  0.300761  0.689795  1
  O  O23  1  0.593639  0.707715  0.312440  1
  O  O24  1  0.995247  0.833117  0.834125  1
  O  O25  1  0.004008  0.169900  0.164927  1
