# generated using pymatgen
data_Li22HgRh3
_symmetry_space_group_name_H-M   'P 1'
_cell_length_a   8.28951645
_cell_length_b   8.19086592
_cell_length_c   8.28951627
_cell_angle_alpha   109.23032959
_cell_angle_beta   109.71104115
_cell_angle_gamma   109.23032123
_symmetry_Int_Tables_number   1
_chemical_formula_structural   Li22HgRh3
_chemical_formula_sum   'Li22 Hg1 Rh3'
_cell_volume   434.55906176
_cell_formula_units_Z   1
loop_
 _symmetry_equiv_pos_site_id
 _symmetry_equiv_pos_as_xyz
  1  'x, y, z'
loop_
 _atom_site_type_symbol
 _atom_site_label
 _atom_site_symmetry_multiplicity
 _atom_site_fract_x
 _atom_site_fract_y
 _atom_site_fract_z
 _atom_site_occupancy
  Li  Li0  1  0.000000  0.798915  0.000000  1
  Li  Li1  1  0.795934  0.989348  0.000000  1
  Li  Li2  1  0.000000  0.989348  0.795934  1
  Li  Li3  1  0.204066  0.193415  0.204066  1
  Li  Li4  1  0.363578  0.604429  0.363578  1
  Li  Li5  1  0.249182  0.003361  0.647177  1
  Li  Li6  1  0.647177  0.003361  0.249182  1
  Li  Li7  1  0.265797  0.662195  0.000000  1
  Li  Li8  1  0.750818  0.754179  0.397996  1
  Li  Li9  1  0.397996  0.754179  0.750818  1
  Li  Li10  1  0.000000  0.662195  0.265797  1
  Li  Li11  1  0.000000  0.240851  0.636422  1
  Li  Li12  1  0.636422  0.240851  0.000000  1
  Li  Li13  1  0.352823  0.356184  0.602004  1
  Li  Li14  1  0.602004  0.356184  0.352823  1
  Li  Li15  1  0.734203  0.396398  0.734203  1
  Li  Li16  1  0.351133  0.340349  0.000000  1
  Li  Li17  1  0.000000  0.656227  0.658759  1
  Li  Li18  1  0.000000  0.340349  0.351133  1
  Li  Li19  1  0.341241  0.997468  0.341241  1
  Li  Li20  1  0.648867  0.989216  0.648867  1
  Li  Li21  1  0.658759  0.656227  0.000000  1
  Hg  Hg22  1  0.000000  0.345772  0.000000  1
  Rh  Rh23  1  0.336600  0.001866  0.000000  1
  Rh  Rh24  1  0.000000  0.001866  0.336600  1
  Rh  Rh25  1  0.663400  0.665266  0.663400  1
