# generated using pymatgen
data_LaSmZn2(Co3B)2
_symmetry_space_group_name_H-M   'P 1'
_cell_length_a   5.19794313
_cell_length_b   5.19703519
_cell_length_c   6.82351300
_cell_angle_alpha   90.00000000
_cell_angle_beta   90.00000000
_cell_angle_gamma   120.00541035
_symmetry_Int_Tables_number   1
_chemical_formula_structural   LaSmZn2(Co3B)2
_chemical_formula_sum   'La1 Sm1 Zn2 Co6 B2'
_cell_volume   159.62545827
_cell_formula_units_Z   1
loop_
 _symmetry_equiv_pos_site_id
 _symmetry_equiv_pos_as_xyz
  1  'x, y, z'
loop_
 _atom_site_type_symbol
 _atom_site_label
 _atom_site_symmetry_multiplicity
 _atom_site_fract_x
 _atom_site_fract_y
 _atom_site_fract_z
 _atom_site_occupancy
  La  La0  1  0.999978  0.000005  0.000000  1
  Sm  Sm1  1  0.999987  0.999998  0.500000  1
  Zn  Zn2  1  0.333397  0.666772  0.000000  1
  Zn  Zn3  1  0.666573  0.333231  0.000000  1
  Co  Co4  1  0.499984  0.999999  0.299755  1
  Co  Co5  1  0.499983  0.500002  0.299741  1
  Co  Co6  1  0.999985  0.499996  0.299762  1
  Co  Co7  1  0.499984  0.999999  0.700245  1
  Co  Co8  1  0.499983  0.500002  0.700258  1
  Co  Co9  1  0.999985  0.499996  0.700237  1
  B  B10  1  0.333355  0.666655  0.500000  1
  B  B11  1  0.666606  0.333345  0.500000  1
