# generated using pymatgen
data_Pr8Si12Rh3Au
_symmetry_space_group_name_H-M   'P 1'
_cell_length_a   8.30158000
_cell_length_b   8.30157849
_cell_length_c   8.54304000
_cell_angle_alpha   90.00000000
_cell_angle_beta   90.00000000
_cell_angle_gamma   119.99999807
_symmetry_Int_Tables_number   1
_chemical_formula_structural   Pr8Si12Rh3Au
_chemical_formula_sum   'Pr8 Si12 Rh3 Au1'
_cell_volume   509.87593603
_cell_formula_units_Z   1
loop_
 _symmetry_equiv_pos_site_id
 _symmetry_equiv_pos_as_xyz
  1  'x, y, z'
loop_
 _atom_site_type_symbol
 _atom_site_label
 _atom_site_symmetry_multiplicity
 _atom_site_fract_x
 _atom_site_fract_y
 _atom_site_fract_z
 _atom_site_occupancy
  Pr  Pr0  1  0.000000  0.000000  0.748871  1
  Pr  Pr1  1  0.000000  0.000000  0.251831  1
  Pr  Pr2  1  0.496080  0.503920  0.745061  1
  Pr  Pr3  1  0.496080  0.992160  0.745061  1
  Pr  Pr4  1  0.007840  0.503920  0.745061  1
  Pr  Pr5  1  0.499207  0.500793  0.254863  1
  Pr  Pr6  1  0.001586  0.500793  0.254863  1
  Pr  Pr7  1  0.499207  0.998414  0.254863  1
  Si  Si8  1  0.838929  0.161071  0.000927  1
  Si  Si9  1  0.838929  0.677857  0.000927  1
  Si  Si10  1  0.322143  0.161071  0.000927  1
  Si  Si11  1  0.832805  0.167195  0.499295  1
  Si  Si12  1  0.832805  0.665610  0.499295  1
  Si  Si13  1  0.334390  0.167195  0.499295  1
  Si  Si14  1  0.166123  0.833877  0.500814  1
  Si  Si15  1  0.667754  0.833877  0.500814  1
  Si  Si16  1  0.166123  0.332246  0.500814  1
  Si  Si17  1  0.168421  0.831579  0.999323  1
  Si  Si18  1  0.663158  0.831579  0.999323  1
  Si  Si19  1  0.168421  0.336842  0.999323  1
  Rh  Rh20  1  0.666667  0.333333  0.506132  1
  Rh  Rh21  1  0.333333  0.666667  0.493178  1
  Rh  Rh22  1  0.333333  0.666667  0.005535  1
  Au  Au23  1  0.666667  0.333333  0.993606  1
