# generated using pymatgen
data_V4CoTe4
_symmetry_space_group_name_H-M   'P 1'
_cell_length_a   4.56996500
_cell_length_b   10.42040400
_cell_length_c   18.05812700
_cell_angle_alpha   90.00000000
_cell_angle_beta   90.00000000
_cell_angle_gamma   90.00000000
_symmetry_Int_Tables_number   1
_chemical_formula_structural   V4CoTe4
_chemical_formula_sum   'V16 Co4 Te16'
_cell_volume   859.94392717
_cell_formula_units_Z   4
loop_
 _symmetry_equiv_pos_site_id
 _symmetry_equiv_pos_as_xyz
  1  'x, y, z'
loop_
 _atom_site_type_symbol
 _atom_site_label
 _atom_site_symmetry_multiplicity
 _atom_site_fract_x
 _atom_site_fract_y
 _atom_site_fract_z
 _atom_site_occupancy
  V  V0  1  0.500000  0.563788  0.385476  1
  V  V1  1  0.500000  0.436212  0.614524  1
  V  V2  1  0.500000  0.063788  0.114524  1
  V  V3  1  0.500000  0.936212  0.885476  1
  V  V4  1  0.500000  0.700970  0.535344  1
  V  V5  1  0.500000  0.299030  0.464656  1
  V  V6  1  0.500000  0.200970  0.964656  1
  V  V7  1  0.500000  0.799030  0.035344  1
  V  V8  1  0.000000  0.686296  0.443352  1
  V  V9  1  0.000000  0.313704  0.556648  1
  V  V10  1  0.000000  0.186296  0.056648  1
  V  V11  1  0.000000  0.813704  0.943352  1
  V  V12  1  0.000000  0.402813  0.393872  1
  V  V13  1  0.000000  0.597187  0.606128  1
  V  V14  1  0.000000  0.902813  0.106128  1
  V  V15  1  0.000000  0.097187  0.893872  1
  Co  Co16  1  0.249838  0.500000  0.500000  1
  Co  Co17  1  0.750162  0.000000  0.000000  1
  Co  Co18  1  0.750162  0.500000  0.500000  1
  Co  Co19  1  0.249838  0.000000  0.000000  1
  Te  Te20  1  0.000000  0.846264  0.562712  1
  Te  Te21  1  0.000000  0.153736  0.437288  1
  Te  Te22  1  0.000000  0.346264  0.937288  1
  Te  Te23  1  0.000000  0.653736  0.062712  1
  Te  Te24  1  0.500000  0.333378  0.316106  1
  Te  Te25  1  0.500000  0.666622  0.683894  1
  Te  Te26  1  0.500000  0.833378  0.183894  1
  Te  Te27  1  0.500000  0.166622  0.816106  1
  Te  Te28  1  0.500000  0.822944  0.402408  1
  Te  Te29  1  0.500000  0.177056  0.597592  1
  Te  Te30  1  0.500000  0.322944  0.097592  1
  Te  Te31  1  0.500000  0.677056  0.902408  1
  Te  Te32  1  0.000000  0.606512  0.300523  1
  Te  Te33  1  0.000000  0.393488  0.699477  1
  Te  Te34  1  0.000000  0.106512  0.199477  1
  Te  Te35  1  0.000000  0.893488  0.800523  1
