# generated using pymatgen
data_Dy17Lu3Si15Ag
_symmetry_space_group_name_H-M   'P 1'
_cell_length_a   7.41677348
_cell_length_b   7.66539382
_cell_length_c   14.63297037
_cell_angle_alpha   89.80285859
_cell_angle_beta   89.41340597
_cell_angle_gamma   90.13782205
_symmetry_Int_Tables_number   1
_chemical_formula_structural   Dy17Lu3Si15Ag
_chemical_formula_sum   'Dy17 Lu3 Si15 Ag1'
_cell_volume   831.86979367
_cell_formula_units_Z   1
loop_
 _symmetry_equiv_pos_site_id
 _symmetry_equiv_pos_as_xyz
  1  'x, y, z'
loop_
 _atom_site_type_symbol
 _atom_site_label
 _atom_site_symmetry_multiplicity
 _atom_site_fract_x
 _atom_site_fract_y
 _atom_site_fract_z
 _atom_site_occupancy
  Dy  Dy0  1  0.350392  0.010827  0.749820  1
  Dy  Dy1  1  0.976066  0.822687  0.101766  1
  Dy  Dy2  1  0.471597  0.683229  0.400893  1
  Dy  Dy3  1  0.521384  0.316150  0.898868  1
  Dy  Dy4  1  0.029107  0.182340  0.598296  1
  Dy  Dy5  1  0.028304  0.177223  0.899812  1
  Dy  Dy6  1  0.530030  0.316949  0.598157  1
  Dy  Dy7  1  0.474483  0.682319  0.101144  1
  Dy  Dy8  1  0.969780  0.817122  0.399715  1
  Dy  Dy9  1  0.676013  0.824179  0.876293  1
  Dy  Dy10  1  0.180954  0.679792  0.621431  1
  Dy  Dy11  1  0.820605  0.325160  0.124541  1
  Dy  Dy12  1  0.317164  0.177758  0.376826  1
  Dy  Dy13  1  0.322976  0.178702  0.124163  1
  Dy  Dy14  1  0.819433  0.321146  0.377173  1
  Dy  Dy15  1  0.180559  0.674611  0.877901  1
  Dy  Dy16  1  0.682403  0.821017  0.622042  1
  Lu  Lu17  1  0.649133  0.990922  0.250061  1
  Lu  Lu18  1  0.150869  0.511247  0.248500  1
  Lu  Lu19  1  0.848337  0.488239  0.749142  1
  Si  Si20  1  0.768168  0.631278  0.251741  1
  Si  Si21  1  0.268705  0.870225  0.251307  1
  Si  Si22  1  0.734999  0.128044  0.748560  1
  Si  Si23  1  0.229197  0.374031  0.747423  1
  Si  Si24  1  0.019161  0.103911  0.250522  1
  Si  Si25  1  0.521099  0.396890  0.252098  1
  Si  Si26  1  0.477253  0.603080  0.748049  1
  Si  Si27  1  0.977125  0.892814  0.748491  1
  Si  Si28  1  0.354695  0.971783  0.540008  1
  Si  Si29  1  0.651087  0.028839  0.042150  1
  Si  Si30  1  0.147017  0.471020  0.459438  1
  Si  Si31  1  0.157863  0.472035  0.043809  1
  Si  Si32  1  0.645568  0.027983  0.458408  1
  Si  Si33  1  0.350738  0.969007  0.961756  1
  Si  Si34  1  0.854665  0.528954  0.539865  1
  Ag  Ag35  1  0.843066  0.528484  0.959829  1
