# generated using pymatgen
data_CaYb5DyErP6
_symmetry_space_group_name_H-M   'P 1'
_cell_length_a   7.49142945
_cell_length_b   7.36640886
_cell_length_c   7.48806257
_cell_angle_alpha   70.86298195
_cell_angle_beta   70.19600808
_cell_angle_gamma   109.15272742
_symmetry_Int_Tables_number   1
_chemical_formula_structural   CaYb5DyErP6
_chemical_formula_sum   'Ca1 Yb5 Dy1 Er1 P6'
_cell_volume   319.34242490
_cell_formula_units_Z   1
loop_
 _symmetry_equiv_pos_site_id
 _symmetry_equiv_pos_as_xyz
  1  'x, y, z'
loop_
 _atom_site_type_symbol
 _atom_site_label
 _atom_site_symmetry_multiplicity
 _atom_site_fract_x
 _atom_site_fract_y
 _atom_site_fract_z
 _atom_site_occupancy
  Ca  Ca0  1  0.860546  0.996112  0.004978  1
  Yb  Yb1  1  0.505029  0.499801  0.134749  1
  Yb  Yb2  1  0.633741  0.135570  0.361259  1
  Yb  Yb3  1  0.366454  0.001568  0.994194  1
  Yb  Yb4  1  0.493964  0.495566  0.639878  1
  Yb  Yb5  1  0.139694  0.635440  0.866302  1
  Dy  Dy6  1  0.999901  0.869046  0.500032  1
  Er  Er7  1  0.000547  0.370263  0.498883  1
  P  P8  1  0.635834  0.881378  0.740628  1
  P  P9  1  0.877210  0.620377  0.260179  1
  P  P10  1  0.241744  0.123489  0.621531  1
  P  P11  1  0.759908  0.381578  0.862176  1
  P  P12  1  0.362144  0.743651  0.378102  1
  P  P13  1  0.123285  0.246162  0.137108  1
