# generated using pymatgen
data_LaPr3B4Br5
_symmetry_space_group_name_H-M   'P 1'
_cell_length_a   9.43913565
_cell_length_b   9.43913561
_cell_length_c   9.85669634
_cell_angle_alpha   74.27196324
_cell_angle_beta   74.27196247
_cell_angle_gamma   26.41856778
_symmetry_Int_Tables_number   1
_chemical_formula_structural   LaPr3B4Br5
_chemical_formula_sum   'La1 Pr3 B4 Br5'
_cell_volume   375.28366409
_cell_formula_units_Z   1
loop_
 _symmetry_equiv_pos_site_id
 _symmetry_equiv_pos_as_xyz
  1  'x, y, z'
loop_
 _atom_site_type_symbol
 _atom_site_label
 _atom_site_symmetry_multiplicity
 _atom_site_fract_x
 _atom_site_fract_y
 _atom_site_fract_z
 _atom_site_occupancy
  La  La0  1  0.859684  0.859684  0.071266  1
  Pr  Pr1  1  0.506531  0.506531  0.742410  1
  Pr  Pr2  1  0.496795  0.496795  0.255925  1
  Pr  Pr3  1  0.140170  0.140170  0.927788  1
  B  B4  1  0.315412  0.685521  0.999751  1
  B  B5  1  0.685521  0.315412  0.999751  1
  B  B6  1  0.999602  0.999602  0.096732  1
  B  B7  1  0.000579  0.000579  0.903060  1
  Br  Br8  1  0.676356  0.676356  0.691414  1
  Br  Br9  1  0.325924  0.325924  0.311634  1
  Br  Br10  1  0.328182  0.328182  0.856542  1
  Br  Br11  1  0.673538  0.673538  0.137461  1
  Br  Br12  1  0.006006  0.006006  0.496466  1
