# generated using pymatgen
data_Sm8Ho8Sc4Si15Pt
_symmetry_space_group_name_H-M   'P 1'
_cell_length_a   7.29888093
_cell_length_b   7.75033946
_cell_length_c   14.49000100
_cell_angle_alpha   90.00000000
_cell_angle_beta   90.00000000
_cell_angle_gamma   89.99072271
_symmetry_Int_Tables_number   1
_chemical_formula_structural   Sm8Ho8Sc4Si15Pt
_chemical_formula_sum   'Sm8 Ho8 Sc4 Si15 Pt1'
_cell_volume   819.68202820
_cell_formula_units_Z   1
loop_
 _symmetry_equiv_pos_site_id
 _symmetry_equiv_pos_as_xyz
  1  'x, y, z'
loop_
 _atom_site_type_symbol
 _atom_site_label
 _atom_site_symmetry_multiplicity
 _atom_site_fract_x
 _atom_site_fract_y
 _atom_site_fract_z
 _atom_site_occupancy
  Sm  Sm0  1  0.019909  0.182931  0.096941  1
  Sm  Sm1  1  0.982412  0.819254  0.903589  1
  Sm  Sm2  1  0.481887  0.680216  0.904789  1
  Sm  Sm3  1  0.982412  0.819254  0.596411  1
  Sm  Sm4  1  0.519792  0.319368  0.097007  1
  Sm  Sm5  1  0.019909  0.182931  0.403059  1
  Sm  Sm6  1  0.519792  0.319368  0.402993  1
  Sm  Sm7  1  0.481887  0.680216  0.595211  1
  Ho  Ho8  1  0.312196  0.173140  0.627332  1
  Ho  Ho9  1  0.680996  0.825653  0.373748  1
  Ho  Ho10  1  0.179894  0.678969  0.374271  1
  Ho  Ho11  1  0.680996  0.825653  0.126252  1
  Ho  Ho12  1  0.823479  0.320318  0.627201  1
  Ho  Ho13  1  0.312196  0.173140  0.872668  1
  Ho  Ho14  1  0.823479  0.320318  0.872799  1
  Ho  Ho15  1  0.179894  0.678969  0.125729  1
  Sc  Sc16  1  0.153244  0.519694  0.750000  1
  Sc  Sc17  1  0.846098  0.486657  0.250000  1
  Sc  Sc18  1  0.347042  0.015439  0.250000  1
  Sc  Sc19  1  0.657022  0.984925  0.750000  1
  Si  Si20  1  0.983795  0.901740  0.250000  1
  Si  Si21  1  0.482589  0.600984  0.250000  1
  Si  Si22  1  0.516335  0.400957  0.750000  1
  Si  Si23  1  0.282372  0.863746  0.750000  1
  Si  Si24  1  0.722133  0.133025  0.250000  1
  Si  Si25  1  0.222042  0.368896  0.250000  1
  Si  Si26  1  0.771918  0.627032  0.750000  1
  Si  Si27  1  0.151110  0.471278  0.539754  1
  Si  Si28  1  0.849929  0.531430  0.460290  1
  Si  Si29  1  0.351737  0.970165  0.459808  1
  Si  Si30  1  0.849929  0.531430  0.039710  1
  Si  Si31  1  0.649132  0.030423  0.540518  1
  Si  Si32  1  0.151110  0.471278  0.960246  1
  Si  Si33  1  0.649132  0.030423  0.959482  1
  Si  Si34  1  0.351737  0.970165  0.040192  1
  Pt  Pt35  1  0.010462  0.090617  0.750000  1
