# generated using pymatgen
data_PrNdPa(GaCo4)3
_symmetry_space_group_name_H-M   'P 1'
_cell_length_a   8.62946300
_cell_length_b   8.62946173
_cell_length_c   4.06575600
_cell_angle_alpha   90.00000000
_cell_angle_beta   90.00000000
_cell_angle_gamma   120.00000104
_symmetry_Int_Tables_number   1
_chemical_formula_structural   PrNdPa(GaCo4)3
_chemical_formula_sum   'Pr1 Nd1 Pa1 Ga3 Co12'
_cell_volume   262.20406281
_cell_formula_units_Z   1
loop_
 _symmetry_equiv_pos_site_id
 _symmetry_equiv_pos_as_xyz
  1  'x, y, z'
loop_
 _atom_site_type_symbol
 _atom_site_label
 _atom_site_symmetry_multiplicity
 _atom_site_fract_x
 _atom_site_fract_y
 _atom_site_fract_z
 _atom_site_occupancy
  Pr  Pr0  1  0.333333  0.666667  0.000000  1
  Nd  Nd1  1  0.666667  0.333333  0.000000  1
  Pa  Pa2  1  0.000000  0.000000  0.000000  1
  Ga  Ga3  1  0.500141  0.000282  0.500000  1
  Ga  Ga4  1  0.999718  0.499859  0.500000  1
  Ga  Ga5  1  0.500141  0.499859  0.500000  1
  Co  Co6  1  0.161057  0.322114  0.500000  1
  Co  Co7  1  0.838822  0.677645  0.500000  1
  Co  Co8  1  0.677886  0.838943  0.500000  1
  Co  Co9  1  0.322355  0.161178  0.500000  1
  Co  Co10  1  0.161057  0.838943  0.500000  1
  Co  Co11  1  0.838822  0.161178  0.500000  1
  Co  Co12  1  0.308003  0.000127  0.000000  1
  Co  Co13  1  0.692124  0.000127  0.000000  1
  Co  Co14  1  0.999873  0.307876  0.000000  1
  Co  Co15  1  0.999873  0.691997  0.000000  1
  Co  Co16  1  0.692124  0.691997  0.000000  1
  Co  Co17  1  0.308003  0.307876  0.000000  1
