# generated using pymatgen
data_Ba2CaCrGa2F14
_symmetry_space_group_name_H-M   'P 1'
_cell_length_a   7.55133768
_cell_length_b   7.55133683
_cell_length_c   15.10816272
_cell_angle_alpha   88.12344228
_cell_angle_beta   88.12344106
_cell_angle_gamma   42.19594404
_symmetry_Int_Tables_number   1
_chemical_formula_structural   Ba2CaCrGa2F14
_chemical_formula_sum   'Ba4 Ca2 Cr2 Ga4 F28'
_cell_volume   578.29103741
_cell_formula_units_Z   2
loop_
 _symmetry_equiv_pos_site_id
 _symmetry_equiv_pos_as_xyz
  1  'x, y, z'
loop_
 _atom_site_type_symbol
 _atom_site_label
 _atom_site_symmetry_multiplicity
 _atom_site_fract_x
 _atom_site_fract_y
 _atom_site_fract_z
 _atom_site_occupancy
  Ba  Ba0  1  0.628805  0.749246  0.878481  1
  Ba  Ba1  1  0.371195  0.250754  0.121519  1
  Ba  Ba2  1  0.250754  0.371195  0.621519  1
  Ba  Ba3  1  0.749246  0.628805  0.378481  1
  Ca  Ca4  1  0.928761  0.071239  0.750000  1
  Ca  Ca5  1  0.071239  0.928761  0.250000  1
  Cr  Cr6  1  0.000000  0.000000  0.500000  1
  Cr  Cr7  1  0.000000  0.000000  0.000000  1
  Ga  Ga8  1  0.605556  0.637966  0.624748  1
  Ga  Ga9  1  0.394444  0.362034  0.375252  1
  Ga  Ga10  1  0.362034  0.394444  0.875252  1
  Ga  Ga11  1  0.637966  0.605556  0.124748  1
  F  F12  1  0.873601  0.009132  0.120410  1
  F  F13  1  0.126399  0.990868  0.879590  1
  F  F14  1  0.990868  0.126399  0.379590  1
  F  F15  1  0.009132  0.873601  0.620410  1
  F  F16  1  0.632988  0.091915  0.952623  1
  F  F17  1  0.367012  0.908085  0.047377  1
  F  F18  1  0.908085  0.367012  0.547377  1
  F  F19  1  0.091915  0.632988  0.452623  1
  F  F20  1  0.390155  0.780491  0.519962  1
  F  F21  1  0.609845  0.219509  0.480038  1
  F  F22  1  0.219509  0.609845  0.980038  1
  F  F23  1  0.780491  0.390155  0.019962  1
  F  F24  1  0.330898  0.910184  0.704017  1
  F  F25  1  0.669102  0.089816  0.295983  1
  F  F26  1  0.089816  0.669102  0.795983  1
  F  F27  1  0.910184  0.330898  0.204017  1
  F  F28  1  0.574710  0.415282  0.654258  1
  F  F29  1  0.425290  0.584718  0.345742  1
  F  F30  1  0.584718  0.425290  0.845742  1
  F  F31  1  0.415282  0.574710  0.154258  1
  F  F32  1  0.539746  0.140417  0.778102  1
  F  F33  1  0.460254  0.859583  0.221898  1
  F  F34  1  0.859583  0.460254  0.721898  1
  F  F35  1  0.140417  0.539746  0.278102  1
  F  F36  1  0.667501  0.833838  0.594235  1
  F  F37  1  0.332499  0.166162  0.405765  1
  F  F38  1  0.166162  0.332499  0.905765  1
  F  F39  1  0.833838  0.667501  0.094235  1
