# generated using pymatgen
data_Tm17Lu3(SiSb3)3
_symmetry_space_group_name_H-M   'P 1'
_cell_length_a   7.89784414
_cell_length_b   9.00927200
_cell_length_c   11.70286039
_cell_angle_alpha   90.00000000
_cell_angle_beta   89.88895498
_cell_angle_gamma   90.00000000
_symmetry_Int_Tables_number   1
_chemical_formula_structural   Tm17Lu3(SiSb3)3
_chemical_formula_sum   'Tm17 Lu3 Si3 Sb9'
_cell_volume   832.70172871
_cell_formula_units_Z   1
loop_
 _symmetry_equiv_pos_site_id
 _symmetry_equiv_pos_as_xyz
  1  'x, y, z'
loop_
 _atom_site_type_symbol
 _atom_site_label
 _atom_site_symmetry_multiplicity
 _atom_site_fract_x
 _atom_site_fract_y
 _atom_site_fract_z
 _atom_site_occupancy
  Tm  Tm0  1  0.815332  0.946479  0.063734  1
  Tm  Tm1  1  0.310641  0.043782  0.431394  1
  Tm  Tm2  1  0.181008  0.447324  0.938692  1
  Tm  Tm3  1  0.687145  0.564898  0.565695  1
  Tm  Tm4  1  0.181008  0.052676  0.938692  1
  Tm  Tm5  1  0.687145  0.935102  0.565695  1
  Tm  Tm6  1  0.815332  0.553521  0.063734  1
  Tm  Tm7  1  0.310641  0.456218  0.431394  1
  Tm  Tm8  1  0.974626  0.250000  0.497481  1
  Tm  Tm9  1  0.165916  0.750000  0.213582  1
  Tm  Tm10  1  0.677294  0.250000  0.272007  1
  Tm  Tm11  1  0.835537  0.250000  0.786281  1
  Tm  Tm12  1  0.334624  0.750000  0.716228  1
  Tm  Tm13  1  0.640587  0.750000  0.293417  1
  Tm  Tm14  1  0.141561  0.250000  0.207174  1
  Tm  Tm15  1  0.343972  0.250000  0.714021  1
  Tm  Tm16  1  0.858398  0.750000  0.794965  1
  Lu  Lu17  1  0.535903  0.250000  0.996148  1
  Lu  Lu18  1  0.041039  0.750000  0.502065  1
  Lu  Lu19  1  0.461036  0.750000  0.001581  1
  Si  Si20  1  0.908864  0.250000  0.024718  1
  Si  Si21  1  0.416261  0.750000  0.480565  1
  Si  Si22  1  0.087904  0.750000  0.978007  1
  Sb  Sb23  1  0.932716  0.988074  0.326529  1
  Sb  Sb24  1  0.432994  0.010788  0.172604  1
  Sb  Sb25  1  0.066646  0.491743  0.674189  1
  Sb  Sb26  1  0.566824  0.509855  0.826234  1
  Sb  Sb27  1  0.066646  0.008257  0.674189  1
  Sb  Sb28  1  0.566824  0.990145  0.826234  1
  Sb  Sb29  1  0.932716  0.511926  0.326529  1
  Sb  Sb30  1  0.432994  0.489212  0.172604  1
  Sb  Sb31  1  0.589864  0.250000  0.523614  1
