# generated using pymatgen
data_Ce2YLu(SnRu)4
_symmetry_space_group_name_H-M   'P 1'
_cell_length_a   6.21850855
_cell_length_b   6.21850887
_cell_length_c   10.06760807
_cell_angle_alpha   78.63495265
_cell_angle_beta   78.63496161
_cell_angle_gamma   45.33855555
_symmetry_Int_Tables_number   1
_chemical_formula_structural   Ce2YLu(SnRu)4
_chemical_formula_sum   'Ce2 Y1 Lu1 Sn4 Ru4'
_cell_volume   270.51948476
_cell_formula_units_Z   1
loop_
 _symmetry_equiv_pos_site_id
 _symmetry_equiv_pos_as_xyz
  1  'x, y, z'
loop_
 _atom_site_type_symbol
 _atom_site_label
 _atom_site_symmetry_multiplicity
 _atom_site_fract_x
 _atom_site_fract_y
 _atom_site_fract_z
 _atom_site_occupancy
  Ce  Ce0  1  0.859653  0.859653  0.912483  1
  Ce  Ce1  1  0.139636  0.139636  0.088657  1
  Y  Y2  1  0.119729  0.119729  0.593262  1
  Lu  Lu3  1  0.878393  0.878393  0.406016  1
  Sn  Sn4  1  0.428175  0.428175  0.161291  1
  Sn  Sn5  1  0.402133  0.402133  0.638766  1
  Sn  Sn6  1  0.572471  0.572471  0.839743  1
  Sn  Sn7  1  0.597528  0.597528  0.359486  1
  Ru  Ru8  1  0.819307  0.819307  0.151672  1
  Ru  Ru9  1  0.198781  0.198781  0.308262  1
  Ru  Ru10  1  0.182093  0.182093  0.850647  1
  Ru  Ru11  1  0.802101  0.802101  0.689716  1
