# generated using pymatgen
data_Ho4Al17Ga7Pt9
_symmetry_space_group_name_H-M   'P 1'
_cell_length_a   7.51628637
_cell_length_b   7.51855054
_cell_length_c   13.20974905
_cell_angle_alpha   84.64289374
_cell_angle_beta   100.80899943
_cell_angle_gamma   119.91662430
_symmetry_Int_Tables_number   1
_chemical_formula_structural   Ho4Al17Ga7Pt9
_chemical_formula_sum   'Ho4 Al17 Ga7 Pt9'
_cell_volume   635.55388922
_cell_formula_units_Z   1
loop_
 _symmetry_equiv_pos_site_id
 _symmetry_equiv_pos_as_xyz
  1  'x, y, z'
loop_
 _atom_site_type_symbol
 _atom_site_label
 _atom_site_symmetry_multiplicity
 _atom_site_fract_x
 _atom_site_fract_y
 _atom_site_fract_z
 _atom_site_occupancy
  Ho  Ho0  1  0.736064  0.002515  0.191513  1
  Ho  Ho1  1  0.262402  0.996162  0.807892  1
  Ho  Ho2  1  0.059256  0.665801  0.190472  1
  Ho  Ho3  1  0.940652  0.335346  0.809136  1
  Al  Al4  1  0.118645  0.334880  0.331385  1
  Al  Al5  1  0.601413  0.456487  0.815555  1
  Al  Al6  1  0.397947  0.543116  0.184428  1
  Al  Al7  1  0.230366  0.339590  0.669343  1
  Al  Al8  1  0.769767  0.660522  0.330846  1
  Al  Al9  1  0.853380  0.332375  0.558279  1
  Al  Al10  1  0.186135  0.999822  0.558317  1
  Al  Al11  1  0.813932  0.000758  0.440942  1
  Al  Al12  1  0.352418  0.000219  0.055661  1
  Al  Al13  1  0.647452  0.000176  0.944369  1
  Al  Al14  1  0.556181  0.994496  0.669894  1
  Al  Al15  1  0.443890  0.005268  0.330344  1
  Al  Al16  1  0.520679  0.668068  0.560352  1
  Al  Al17  1  0.479897  0.331900  0.439406  1
  Al  Al18  1  0.684438  0.667265  0.048794  1
  Al  Al19  1  0.315041  0.332500  0.951294  1
  Al  Al20  1  0.146288  0.667006  0.440694  1
  Ga  Ga21  1  0.803089  0.871038  0.815101  1
  Ga  Ga22  1  0.196842  0.130407  0.185183  1
  Ga  Ga23  1  0.981912  0.666080  0.940053  1
  Ga  Ga24  1  0.017775  0.333905  0.060652  1
  Ga  Ga25  1  0.400896  0.663232  0.816376  1
  Ga  Ga26  1  0.599451  0.336687  0.183645  1
  Ga  Ga27  1  0.883594  0.664729  0.671572  1
  Pt  Pt28  1  0.336221  0.674191  0.003135  1
  Pt  Pt29  1  0.543390  0.322237  0.637612  1
  Pt  Pt30  1  0.453526  0.674327  0.362228  1
  Pt  Pt31  1  0.887971  0.011617  0.636741  1
  Pt  Pt32  1  0.111955  0.991424  0.363030  1
  Pt  Pt33  1  0.663466  0.325810  0.996727  1
  Pt  Pt34  1  0.206983  0.666873  0.636217  1
  Pt  Pt35  1  0.796650  0.333115  0.362671  1
  Pt  Pt36  1  0.000037  0.000053  0.000141  1
