# generated using pymatgen
data_NaLaH6Ir
_symmetry_space_group_name_H-M   'P 1'
_cell_length_a   5.21769799
_cell_length_b   5.21769733
_cell_length_c   5.21769800
_cell_angle_alpha   59.99999578
_cell_angle_beta   59.99999991
_cell_angle_gamma   60.00000313
_symmetry_Int_Tables_number   1
_chemical_formula_structural   NaLaH6Ir
_chemical_formula_sum   'Na1 La1 H6 Ir1'
_cell_volume   100.44348146
_cell_formula_units_Z   1
loop_
 _symmetry_equiv_pos_site_id
 _symmetry_equiv_pos_as_xyz
  1  'x, y, z'
loop_
 _atom_site_type_symbol
 _atom_site_label
 _atom_site_symmetry_multiplicity
 _atom_site_fract_x
 _atom_site_fract_y
 _atom_site_fract_z
 _atom_site_occupancy
  Na  Na0  1  0.250000  0.250000  0.250000  1
  La  La1  1  0.750000  0.750000  0.750000  1
  H  H2  1  0.767315  0.767315  0.232685  1
  H  H3  1  0.232685  0.767315  0.232685  1
  H  H4  1  0.767315  0.232685  0.232685  1
  H  H5  1  0.232685  0.232685  0.767315  1
  H  H6  1  0.767315  0.232685  0.767315  1
  H  H7  1  0.232685  0.767315  0.767315  1
  Ir  Ir8  1  0.000000  0.000000  0.000000  1
