# generated using pymatgen
data_TbY3(Sc4Bi3)4
_symmetry_space_group_name_H-M   'P 1'
_cell_length_a   7.90603102
_cell_length_b   9.08425200
_cell_length_c   11.60384203
_cell_angle_alpha   90.00000000
_cell_angle_beta   89.99188781
_cell_angle_gamma   90.00000000
_symmetry_Int_Tables_number   1
_chemical_formula_structural   TbY3(Sc4Bi3)4
_chemical_formula_sum   'Tb1 Y3 Sc16 Bi12'
_cell_volume   833.39231363
_cell_formula_units_Z   1
loop_
 _symmetry_equiv_pos_site_id
 _symmetry_equiv_pos_as_xyz
  1  'x, y, z'
loop_
 _atom_site_type_symbol
 _atom_site_label
 _atom_site_symmetry_multiplicity
 _atom_site_fract_x
 _atom_site_fract_y
 _atom_site_fract_z
 _atom_site_occupancy
  Tb  Tb0  1  0.183608  0.750000  0.718820  1
  Y  Y1  1  0.316267  0.250000  0.218721  1
  Y  Y2  1  0.816347  0.250000  0.281303  1
  Y  Y3  1  0.683695  0.750000  0.781254  1
  Sc  Sc4  1  0.348314  0.750000  0.220916  1
  Sc  Sc5  1  0.848131  0.750000  0.279135  1
  Sc  Sc6  1  0.651704  0.250000  0.779203  1
  Sc  Sc7  1  0.151870  0.250000  0.720934  1
  Sc  Sc8  1  0.692744  0.567261  0.062784  1
  Sc  Sc9  1  0.192839  0.932673  0.437317  1
  Sc  Sc10  1  0.307194  0.067177  0.937218  1
  Sc  Sc11  1  0.807364  0.432868  0.562766  1
  Sc  Sc12  1  0.307194  0.432823  0.937218  1
  Sc  Sc13  1  0.807364  0.067132  0.562766  1
  Sc  Sc14  1  0.692744  0.932739  0.062784  1
  Sc  Sc15  1  0.192839  0.567327  0.437317  1
  Sc  Sc16  1  0.482344  0.250000  0.489013  1
  Sc  Sc17  1  0.982360  0.250000  0.010956  1
  Sc  Sc18  1  0.517426  0.750000  0.510937  1
  Sc  Sc19  1  0.017680  0.750000  0.988816  1
  Bi  Bi20  1  0.402045  0.750000  0.967499  1
  Bi  Bi21  1  0.901519  0.750000  0.532358  1
  Bi  Bi22  1  0.598030  0.250000  0.032639  1
  Bi  Bi23  1  0.098146  0.250000  0.467379  1
  Bi  Bi24  1  0.564144  0.989846  0.328780  1
  Bi  Bi25  1  0.064242  0.510243  0.171179  1
  Bi  Bi26  1  0.436097  0.489465  0.671193  1
  Bi  Bi27  1  0.935632  0.010446  0.828824  1
  Bi  Bi28  1  0.436097  0.010535  0.671193  1
  Bi  Bi29  1  0.935632  0.489554  0.828824  1
  Bi  Bi30  1  0.564144  0.510154  0.328780  1
  Bi  Bi31  1  0.064242  0.989757  0.171179  1
