# generated using pymatgen
data_Tb9YFeHg3
_symmetry_space_group_name_H-M   'P 1'
_cell_length_a   9.62323400
_cell_length_b   9.62323514
_cell_length_c   9.67863200
_cell_angle_alpha   90.00000000
_cell_angle_beta   90.00000000
_cell_angle_gamma   119.99998922
_symmetry_Int_Tables_number   1
_chemical_formula_structural   Tb9YFeHg3
_chemical_formula_sum   'Tb18 Y2 Fe2 Hg6'
_cell_volume   776.22352401
_cell_formula_units_Z   2
loop_
 _symmetry_equiv_pos_site_id
 _symmetry_equiv_pos_as_xyz
  1  'x, y, z'
loop_
 _atom_site_type_symbol
 _atom_site_label
 _atom_site_symmetry_multiplicity
 _atom_site_fract_x
 _atom_site_fract_y
 _atom_site_fract_z
 _atom_site_occupancy
  Tb  Tb0  1  0.541829  0.458171  0.250000  1
  Tb  Tb1  1  0.541829  0.083657  0.250000  1
  Tb  Tb2  1  0.916343  0.458171  0.250000  1
  Tb  Tb3  1  0.458171  0.541829  0.750000  1
  Tb  Tb4  1  0.458171  0.916343  0.750000  1
  Tb  Tb5  1  0.083657  0.541829  0.750000  1
  Tb  Tb6  1  0.212015  0.787985  0.435734  1
  Tb  Tb7  1  0.212015  0.424031  0.435734  1
  Tb  Tb8  1  0.575969  0.787985  0.435734  1
  Tb  Tb9  1  0.787985  0.212015  0.564266  1
  Tb  Tb10  1  0.787985  0.575969  0.564266  1
  Tb  Tb11  1  0.424031  0.212015  0.564266  1
  Tb  Tb12  1  0.787985  0.212015  0.935734  1
  Tb  Tb13  1  0.787985  0.575969  0.935734  1
  Tb  Tb14  1  0.424031  0.212015  0.935734  1
  Tb  Tb15  1  0.212015  0.787985  0.064266  1
  Tb  Tb16  1  0.212015  0.424031  0.064266  1
  Tb  Tb17  1  0.575969  0.787985  0.064266  1
  Y  Y18  1  0.000000  0.000000  0.500000  1
  Y  Y19  1  0.000000  0.000000  0.000000  1
  Fe  Fe20  1  0.333333  0.666667  0.250000  1
  Fe  Fe21  1  0.666667  0.333333  0.750000  1
  Hg  Hg22  1  0.881987  0.118013  0.250000  1
  Hg  Hg23  1  0.881987  0.763975  0.250000  1
  Hg  Hg24  1  0.236025  0.118013  0.250000  1
  Hg  Hg25  1  0.118013  0.881987  0.750000  1
  Hg  Hg26  1  0.118013  0.236025  0.750000  1
  Hg  Hg27  1  0.763975  0.881987  0.750000  1
