# generated using pymatgen
data_Ac3Sn2Rh
_symmetry_space_group_name_H-M   'P 1'
_cell_length_a   4.74548600
_cell_length_b   12.69608300
_cell_length_c   13.50759600
_cell_angle_alpha   90.00000000
_cell_angle_beta   90.00000000
_cell_angle_gamma   90.00000000
_symmetry_Int_Tables_number   1
_chemical_formula_structural   Ac3Sn2Rh
_chemical_formula_sum   'Ac12 Sn8 Rh4'
_cell_volume   813.82028782
_cell_formula_units_Z   4
loop_
 _symmetry_equiv_pos_site_id
 _symmetry_equiv_pos_as_xyz
  1  'x, y, z'
loop_
 _atom_site_type_symbol
 _atom_site_label
 _atom_site_symmetry_multiplicity
 _atom_site_fract_x
 _atom_site_fract_y
 _atom_site_fract_z
 _atom_site_occupancy
  Ac  Ac0  1  0.250000  0.048172  0.882446  1
  Ac  Ac1  1  0.250000  0.451828  0.382446  1
  Ac  Ac2  1  0.750000  0.951828  0.117554  1
  Ac  Ac3  1  0.750000  0.548172  0.617554  1
  Ac  Ac4  1  0.250000  0.128443  0.553846  1
  Ac  Ac5  1  0.250000  0.371557  0.053846  1
  Ac  Ac6  1  0.750000  0.871557  0.446154  1
  Ac  Ac7  1  0.750000  0.628443  0.946154  1
  Ac  Ac8  1  0.250000  0.795034  0.738309  1
  Ac  Ac9  1  0.250000  0.704966  0.238309  1
  Ac  Ac10  1  0.750000  0.204966  0.261691  1
  Ac  Ac11  1  0.750000  0.295034  0.761691  1
  Sn  Sn12  1  0.250000  0.810891  0.991161  1
  Sn  Sn13  1  0.250000  0.689109  0.491161  1
  Sn  Sn14  1  0.750000  0.189109  0.008839  1
  Sn  Sn15  1  0.750000  0.310891  0.508839  1
  Sn  Sn16  1  0.250000  0.497229  0.806213  1
  Sn  Sn17  1  0.250000  0.002771  0.306213  1
  Sn  Sn18  1  0.750000  0.502771  0.193787  1
  Sn  Sn19  1  0.750000  0.997229  0.693787  1
  Rh  Rh20  1  0.250000  0.366586  0.628951  1
  Rh  Rh21  1  0.250000  0.133414  0.128951  1
  Rh  Rh22  1  0.750000  0.633414  0.371049  1
  Rh  Rh23  1  0.750000  0.866586  0.871049  1
