# generated using pymatgen
data_Hf4Si4IrPtRh2
_symmetry_space_group_name_H-M   'P 1'
_cell_length_a   3.93220700
_cell_length_b   6.54153236
_cell_length_c   7.48972968
_cell_angle_alpha   89.66291167
_cell_angle_beta   90.00000000
_cell_angle_gamma   90.00000000
_symmetry_Int_Tables_number   1
_chemical_formula_structural   Hf4Si4IrPtRh2
_chemical_formula_sum   'Hf4 Si4 Ir1 Pt1 Rh2'
_cell_volume   192.65243087
_cell_formula_units_Z   1
loop_
 _symmetry_equiv_pos_site_id
 _symmetry_equiv_pos_as_xyz
  1  'x, y, z'
loop_
 _atom_site_type_symbol
 _atom_site_label
 _atom_site_symmetry_multiplicity
 _atom_site_fract_x
 _atom_site_fract_y
 _atom_site_fract_z
 _atom_site_occupancy
  Hf  Hf0  1  0.250000  0.519603  0.181346  1
  Hf  Hf1  1  0.750000  0.477708  0.817686  1
  Hf  Hf2  1  0.250000  0.024400  0.320755  1
  Hf  Hf3  1  0.750000  0.981233  0.680051  1
  Si  Si4  1  0.250000  0.769763  0.875501  1
  Si  Si5  1  0.750000  0.231565  0.118189  1
  Si  Si6  1  0.250000  0.274151  0.619445  1
  Si  Si7  1  0.750000  0.726659  0.386093  1
  Ir  Ir8  1  0.750000  0.348156  0.435162  1
  Pt  Pt9  1  0.750000  0.848274  0.067217  1
  Rh  Rh10  1  0.250000  0.147891  0.935247  1
  Rh  Rh11  1  0.250000  0.650599  0.563307  1
