# generated using pymatgen
data_Er2UGa3FeRu2
_symmetry_space_group_name_H-M   'P 1'
_cell_length_a   6.80949812
_cell_length_b   6.80949851
_cell_length_c   3.95684900
_cell_angle_alpha   90.00000000
_cell_angle_beta   90.00000000
_cell_angle_gamma   117.03892036
_symmetry_Int_Tables_number   1
_chemical_formula_structural   Er2UGa3FeRu2
_chemical_formula_sum   'Er2 U1 Ga3 Fe1 Ru2'
_cell_volume   163.42186147
_cell_formula_units_Z   1
loop_
 _symmetry_equiv_pos_site_id
 _symmetry_equiv_pos_as_xyz
  1  'x, y, z'
loop_
 _atom_site_type_symbol
 _atom_site_label
 _atom_site_symmetry_multiplicity
 _atom_site_fract_x
 _atom_site_fract_y
 _atom_site_fract_z
 _atom_site_occupancy
  Er  Er0  1  0.410888  0.010676  0.500000  1
  Er  Er1  1  0.010676  0.410888  0.500000  1
  U  U2  1  0.642262  0.642262  0.500000  1
  Ga  Ga3  1  0.748123  0.038118  0.000000  1
  Ga  Ga4  1  0.038118  0.748123  0.000000  1
  Ga  Ga5  1  0.195351  0.195351  0.000000  1
  Fe  Fe6  1  0.944175  0.944175  0.500000  1
  Ru  Ru7  1  0.378955  0.631454  0.000000  1
  Ru  Ru8  1  0.631454  0.378955  0.000000  1
