# generated using pymatgen
data_Tb3Dy5(OsI4)2
_symmetry_space_group_name_H-M   'P 1'
_cell_length_a   11.67807271
_cell_length_b   11.67638986
_cell_length_c   6.19666913
_cell_angle_alpha   90.04332055
_cell_angle_beta   90.05439151
_cell_angle_gamma   89.96287710
_symmetry_Int_Tables_number   1
_chemical_formula_structural   Tb3Dy5(OsI4)2
_chemical_formula_sum   'Tb3 Dy5 Os2 I8'
_cell_volume   844.96293538
_cell_formula_units_Z   1
loop_
 _symmetry_equiv_pos_site_id
 _symmetry_equiv_pos_as_xyz
  1  'x, y, z'
loop_
 _atom_site_type_symbol
 _atom_site_label
 _atom_site_symmetry_multiplicity
 _atom_site_fract_x
 _atom_site_fract_y
 _atom_site_fract_z
 _atom_site_occupancy
  Tb  Tb0  1  0.806807  0.079642  0.000920  1
  Tb  Tb1  1  0.079750  0.806832  0.500946  1
  Tb  Tb2  1  0.079326  0.193045  0.000954  1
  Dy  Dy3  1  0.191495  0.078528  0.501070  1
  Dy  Dy4  1  0.921424  0.808509  0.998907  1
  Dy  Dy5  1  0.920969  0.191404  0.498905  1
  Dy  Dy6  1  0.191525  0.920899  0.998881  1
  Dy  Dy7  1  0.808552  0.921356  0.498923  1
  Os  Os8  1  0.000232  0.999755  0.249965  1
  Os  Os9  1  0.999835  0.000136  0.749923  1
  I  I10  1  0.654247  0.143392  0.488107  1
  I  I11  1  0.855031  0.655710  0.507125  1
  I  I12  1  0.344675  0.144221  0.992892  1
  I  I13  1  0.144499  0.344173  0.493022  1
  I  I14  1  0.655704  0.855022  0.007108  1
  I  I15  1  0.346182  0.856854  0.512101  1
  I  I16  1  0.143425  0.654197  0.988101  1
  I  I17  1  0.856321  0.346325  0.012152  1
