# generated using pymatgen
data_Hf4TiInRh10
_symmetry_space_group_name_H-M   'P 1'
_cell_length_a   4.16699900
_cell_length_b   5.59588995
_cell_length_c   11.00692802
_cell_angle_alpha   89.32088437
_cell_angle_beta   90.00000000
_cell_angle_gamma   90.00000000
_symmetry_Int_Tables_number   1
_chemical_formula_structural   Hf4TiInRh10
_chemical_formula_sum   'Hf4 Ti1 In1 Rh10'
_cell_volume   256.64226528
_cell_formula_units_Z   1
loop_
 _symmetry_equiv_pos_site_id
 _symmetry_equiv_pos_as_xyz
  1  'x, y, z'
loop_
 _atom_site_type_symbol
 _atom_site_label
 _atom_site_symmetry_multiplicity
 _atom_site_fract_x
 _atom_site_fract_y
 _atom_site_fract_z
 _atom_site_occupancy
  Hf  Hf0  1  0.500000  0.180772  0.642609  1
  Hf  Hf1  1  0.500000  0.819228  0.357391  1
  Hf  Hf2  1  0.500000  0.669505  0.858638  1
  Hf  Hf3  1  0.500000  0.330495  0.141362  1
  Ti  Ti4  1  0.000000  0.000000  0.000000  1
  In  In5  1  0.000000  0.500000  0.500000  1
  Rh  Rh6  1  0.500000  0.182546  0.896549  1
  Rh  Rh7  1  0.500000  0.817454  0.103451  1
  Rh  Rh8  1  0.500000  0.705499  0.617400  1
  Rh  Rh9  1  0.500000  0.294501  0.382600  1
  Rh  Rh10  1  0.000000  0.428005  0.750445  1
  Rh  Rh11  1  0.000000  0.571995  0.249555  1
  Rh  Rh12  1  0.000000  0.000000  0.500000  1
  Rh  Rh13  1  0.000000  0.500000  0.000000  1
  Rh  Rh14  1  0.000000  0.071779  0.240147  1
  Rh  Rh15  1  0.000000  0.928221  0.759853  1
