# generated using pymatgen
data_La3Pr(Zn5Ge)2
_symmetry_space_group_name_H-M   'P 1'
_cell_length_a   8.49984247
_cell_length_b   8.49984285
_cell_length_c   8.96251900
_cell_angle_alpha   90.00000000
_cell_angle_beta   90.00000000
_cell_angle_gamma   149.21309181
_symmetry_Int_Tables_number   1
_chemical_formula_structural   La3Pr(Zn5Ge)2
_chemical_formula_sum   'La3 Pr1 Zn10 Ge2'
_cell_volume   331.42988867
_cell_formula_units_Z   1
loop_
 _symmetry_equiv_pos_site_id
 _symmetry_equiv_pos_as_xyz
  1  'x, y, z'
loop_
 _atom_site_type_symbol
 _atom_site_label
 _atom_site_symmetry_multiplicity
 _atom_site_fract_x
 _atom_site_fract_y
 _atom_site_fract_z
 _atom_site_occupancy
  La  La0  1  0.794972  0.205028  0.750000  1
  La  La1  1  0.000086  0.999914  0.499960  1
  La  La2  1  0.000086  0.999914  0.000040  1
  Pr  Pr3  1  0.205008  0.794992  0.250000  1
  Zn  Zn4  1  0.814691  0.185309  0.391556  1
  Zn  Zn5  1  0.185288  0.814712  0.607653  1
  Zn  Zn6  1  0.814691  0.185309  0.108444  1
  Zn  Zn7  1  0.185288  0.814712  0.892347  1
  Zn  Zn8  1  0.652517  0.347483  0.479101  1
  Zn  Zn9  1  0.347353  0.652647  0.519928  1
  Zn  Zn10  1  0.652517  0.347483  0.020899  1
  Zn  Zn11  1  0.347353  0.652647  0.980072  1
  Zn  Zn12  1  0.404144  0.595856  0.250000  1
  Zn  Zn13  1  0.595737  0.404263  0.750000  1
  Ge  Ge14  1  0.558832  0.441168  0.250000  1
  Ge  Ge15  1  0.441436  0.558564  0.750000  1
