# generated using pymatgen
data_Li2NdThBi4
_symmetry_space_group_name_H-M   'P 1'
_cell_length_a   4.52857600
_cell_length_b   4.52857600
_cell_length_c   10.92720700
_cell_angle_alpha   90.00000000
_cell_angle_beta   90.00000000
_cell_angle_gamma   90.00000000
_symmetry_Int_Tables_number   1
_chemical_formula_structural   Li2NdThBi4
_chemical_formula_sum   'Li2 Nd1 Th1 Bi4'
_cell_volume   224.09516758
_cell_formula_units_Z   1
loop_
 _symmetry_equiv_pos_site_id
 _symmetry_equiv_pos_as_xyz
  1  'x, y, z'
loop_
 _atom_site_type_symbol
 _atom_site_label
 _atom_site_symmetry_multiplicity
 _atom_site_fract_x
 _atom_site_fract_y
 _atom_site_fract_z
 _atom_site_occupancy
  Li  Li0  1  0.000000  0.000000  0.002024  1
  Li  Li1  1  0.500000  0.500000  0.002024  1
  Nd  Nd2  1  0.000000  0.500000  0.266148  1
  Th  Th3  1  0.500000  0.000000  0.734634  1
  Bi  Bi4  1  0.000000  0.500000  0.829578  1
  Bi  Bi5  1  0.500000  0.000000  0.163267  1
  Bi  Bi6  1  0.000000  0.000000  0.501163  1
  Bi  Bi7  1  0.500000  0.500000  0.501163  1
