# generated using pymatgen
data_MgCo3(BrO3)8
_symmetry_space_group_name_H-M   'P 1'
_cell_length_a   5.63819069
_cell_length_b   10.52073611
_cell_length_c   10.57366130
_cell_angle_alpha   118.95331135
_cell_angle_beta   90.01793958
_cell_angle_gamma   89.92760305
_symmetry_Int_Tables_number   1
_chemical_formula_structural   MgCo3(BrO3)8
_chemical_formula_sum   'Mg1 Co3 Br8 O24'
_cell_volume   548.81522065
_cell_formula_units_Z   1
loop_
 _symmetry_equiv_pos_site_id
 _symmetry_equiv_pos_as_xyz
  1  'x, y, z'
loop_
 _atom_site_type_symbol
 _atom_site_label
 _atom_site_symmetry_multiplicity
 _atom_site_fract_x
 _atom_site_fract_y
 _atom_site_fract_z
 _atom_site_occupancy
  Mg  Mg0  1  0.139718  0.761970  0.506085  1
  Co  Co1  1  0.642546  0.238309  0.493479  1
  Co  Co2  1  0.141849  0.261521  0.006464  1
  Co  Co3  1  0.641746  0.738156  0.993241  1
  Br  Br4  1  0.260637  0.414801  0.349059  1
  Br  Br5  1  0.758772  0.584629  0.651184  1
  Br  Br6  1  0.259222  0.915092  0.849330  1
  Br  Br7  1  0.759395  0.084806  0.151232  1
  Br  Br8  1  0.784426  0.086411  0.689071  1
  Br  Br9  1  0.287073  0.914625  0.310667  1
  Br  Br10  1  0.285565  0.413710  0.811267  1
  Br  Br11  1  0.784600  0.586116  0.188500  1
  O  O12  1  0.429803  0.885774  0.964786  1
  O  O13  1  0.929427  0.113877  0.035360  1
  O  O14  1  0.367121  0.801181  0.682554  1
  O  O15  1  0.868385  0.200506  0.318098  1
  O  O16  1  0.368298  0.299798  0.181674  1
  O  O17  1  0.865865  0.700190  0.818587  1
  O  O18  1  0.931138  0.226756  0.825202  1
  O  O19  1  0.432746  0.773278  0.174153  1
  O  O20  1  0.929754  0.934071  0.659309  1
  O  O21  1  0.431396  0.067654  0.339346  1
  O  O22  1  0.355510  0.080189  0.878182  1
  O  O23  1  0.856496  0.919740  0.122055  1
  O  O24  1  0.431068  0.272473  0.674337  1
  O  O25  1  0.931063  0.725125  0.324673  1
  O  O26  1  0.350500  0.396719  0.959683  1
  O  O27  1  0.849722  0.603518  0.040577  1
  O  O28  1  0.429656  0.566513  0.838984  1
  O  O29  1  0.929664  0.433090  0.159921  1
  O  O30  1  0.355917  0.580064  0.380188  1
  O  O31  1  0.856374  0.419671  0.621892  1
  O  O32  1  0.432614  0.385747  0.464178  1
  O  O33  1  0.932369  0.615575  0.539449  1
  O  O34  1  0.848423  0.102843  0.540332  1
  O  O35  1  0.350746  0.895501  0.456899  1
