# generated using pymatgen
data_Sm6Zn3GaPt13
_symmetry_space_group_name_H-M   'P 1'
_cell_length_a   8.38148533
_cell_length_b   8.38148467
_cell_length_c   8.38148500
_cell_angle_alpha   109.35858997
_cell_angle_beta   109.35858838
_cell_angle_gamma   109.35859683
_symmetry_Int_Tables_number   1
_chemical_formula_structural   Sm6Zn3GaPt13
_chemical_formula_sum   'Sm6 Zn3 Ga1 Pt13'
_cell_volume   455.13359669
_cell_formula_units_Z   1
loop_
 _symmetry_equiv_pos_site_id
 _symmetry_equiv_pos_as_xyz
  1  'x, y, z'
loop_
 _atom_site_type_symbol
 _atom_site_label
 _atom_site_symmetry_multiplicity
 _atom_site_fract_x
 _atom_site_fract_y
 _atom_site_fract_z
 _atom_site_occupancy
  Sm  Sm0  1  0.699036  0.699036  0.001827  1
  Sm  Sm1  1  0.300964  0.998173  0.300964  1
  Sm  Sm2  1  0.998173  0.300964  0.300964  1
  Sm  Sm3  1  0.300964  0.300964  0.998173  1
  Sm  Sm4  1  0.699036  0.001827  0.699036  1
  Sm  Sm5  1  0.001827  0.699036  0.699036  1
  Zn  Zn6  1  0.000000  0.000000  0.500000  1
  Zn  Zn7  1  0.000000  0.500000  0.000000  1
  Zn  Zn8  1  0.500000  0.000000  0.000000  1
  Ga  Ga9  1  0.500000  0.500000  0.500000  1
  Pt  Pt10  1  0.325814  0.325814  0.650901  1
  Pt  Pt11  1  0.670516  0.000000  0.329484  1
  Pt  Pt12  1  0.000000  0.670516  0.329484  1
  Pt  Pt13  1  0.670516  0.329484  0.000000  1
  Pt  Pt14  1  0.325814  0.650901  0.325814  1
  Pt  Pt15  1  0.000000  0.329484  0.670516  1
  Pt  Pt16  1  0.329484  0.670516  0.000000  1
  Pt  Pt17  1  0.329484  0.000000  0.670516  1
  Pt  Pt18  1  0.650901  0.325814  0.325814  1
  Pt  Pt19  1  0.674186  0.674186  0.349099  1
  Pt  Pt20  1  0.674186  0.349099  0.674186  1
  Pt  Pt21  1  0.349099  0.674186  0.674186  1
  Pt  Pt22  1  0.000000  0.000000  0.000000  1
