# generated using pymatgen
data_TbLu3ScBi3
_symmetry_space_group_name_H-M   'P 1'
_cell_length_a   8.04359200
_cell_length_b   9.32384200
_cell_length_c   11.80606700
_cell_angle_alpha   90.00000000
_cell_angle_beta   90.00000000
_cell_angle_gamma   90.00000000
_symmetry_Int_Tables_number   1
_chemical_formula_structural   TbLu3ScBi3
_chemical_formula_sum   'Tb4 Lu12 Sc4 Bi12'
_cell_volume   885.42174276
_cell_formula_units_Z   4
loop_
 _symmetry_equiv_pos_site_id
 _symmetry_equiv_pos_as_xyz
  1  'x, y, z'
loop_
 _atom_site_type_symbol
 _atom_site_label
 _atom_site_symmetry_multiplicity
 _atom_site_fract_x
 _atom_site_fract_y
 _atom_site_fract_z
 _atom_site_occupancy
  Tb  Tb0  1  0.316134  0.250000  0.218733  1
  Tb  Tb1  1  0.816134  0.250000  0.281267  1
  Tb  Tb2  1  0.683866  0.750000  0.781267  1
  Tb  Tb3  1  0.183866  0.750000  0.718733  1
  Lu  Lu4  1  0.352586  0.750000  0.218519  1
  Lu  Lu5  1  0.852586  0.750000  0.281481  1
  Lu  Lu6  1  0.647414  0.250000  0.781481  1
  Lu  Lu7  1  0.147414  0.250000  0.718519  1
  Lu  Lu8  1  0.693397  0.567454  0.060448  1
  Lu  Lu9  1  0.193397  0.932546  0.439552  1
  Lu  Lu10  1  0.306603  0.067454  0.939552  1
  Lu  Lu11  1  0.806603  0.432546  0.560448  1
  Lu  Lu12  1  0.306603  0.432546  0.939552  1
  Lu  Lu13  1  0.806603  0.067454  0.560448  1
  Lu  Lu14  1  0.693397  0.932546  0.060448  1
  Lu  Lu15  1  0.193397  0.567454  0.439552  1
  Sc  Sc16  1  0.479440  0.250000  0.488548  1
  Sc  Sc17  1  0.979440  0.250000  0.011452  1
  Sc  Sc18  1  0.520560  0.750000  0.511452  1
  Sc  Sc19  1  0.020560  0.750000  0.988548  1
  Bi  Bi20  1  0.397964  0.750000  0.959704  1
  Bi  Bi21  1  0.897964  0.750000  0.540296  1
  Bi  Bi22  1  0.602036  0.250000  0.040296  1
  Bi  Bi23  1  0.102036  0.250000  0.459704  1
  Bi  Bi24  1  0.565872  0.994550  0.330986  1
  Bi  Bi25  1  0.065872  0.505450  0.169014  1
  Bi  Bi26  1  0.434128  0.494550  0.669014  1
  Bi  Bi27  1  0.934128  0.005450  0.830986  1
  Bi  Bi28  1  0.434128  0.005450  0.669014  1
  Bi  Bi29  1  0.934128  0.494550  0.830986  1
  Bi  Bi30  1  0.565872  0.505450  0.330986  1
  Bi  Bi31  1  0.065872  0.994550  0.169014  1
