# generated using pymatgen
data_SrNd2Ga2GeRh6
_symmetry_space_group_name_H-M   'P 1'
_cell_length_a   5.70081200
_cell_length_b   5.70081249
_cell_length_c   15.71261100
_cell_angle_alpha   90.00000000
_cell_angle_beta   90.00000000
_cell_angle_gamma   120.00000878
_symmetry_Int_Tables_number   1
_chemical_formula_structural   SrNd2Ga2GeRh6
_chemical_formula_sum   'Sr2 Nd4 Ga4 Ge2 Rh12'
_cell_volume   442.23430388
_cell_formula_units_Z   2
loop_
 _symmetry_equiv_pos_site_id
 _symmetry_equiv_pos_as_xyz
  1  'x, y, z'
loop_
 _atom_site_type_symbol
 _atom_site_label
 _atom_site_symmetry_multiplicity
 _atom_site_fract_x
 _atom_site_fract_y
 _atom_site_fract_z
 _atom_site_occupancy
  Sr  Sr0  1  0.333333  0.666667  0.750000  1
  Sr  Sr1  1  0.666667  0.333333  0.250000  1
  Nd  Nd2  1  0.333333  0.666667  0.541484  1
  Nd  Nd3  1  0.666667  0.333333  0.458516  1
  Nd  Nd4  1  0.666667  0.333333  0.041484  1
  Nd  Nd5  1  0.333333  0.666667  0.958516  1
  Ga  Ga6  1  0.000000  0.000000  0.250000  1
  Ga  Ga7  1  0.000000  0.000000  0.750000  1
  Ga  Ga8  1  0.000000  0.000000  0.000000  1
  Ga  Ga9  1  0.000000  0.000000  0.500000  1
  Ge  Ge10  1  0.333333  0.666667  0.250000  1
  Ge  Ge11  1  0.666667  0.333333  0.750000  1
  Rh  Rh12  1  0.168482  0.336962  0.127286  1
  Rh  Rh13  1  0.831518  0.663038  0.872714  1
  Rh  Rh14  1  0.663038  0.831518  0.127286  1
  Rh  Rh15  1  0.831518  0.663038  0.627286  1
  Rh  Rh16  1  0.336962  0.168482  0.872714  1
  Rh  Rh17  1  0.168482  0.336962  0.372714  1
  Rh  Rh18  1  0.168482  0.831518  0.127286  1
  Rh  Rh19  1  0.336962  0.168482  0.627286  1
  Rh  Rh20  1  0.831518  0.168482  0.872714  1
  Rh  Rh21  1  0.663038  0.831518  0.372714  1
  Rh  Rh22  1  0.831518  0.168482  0.627286  1
  Rh  Rh23  1  0.168482  0.831518  0.372714  1
