# generated using pymatgen
data_Sr5Nd5Pb8
_symmetry_space_group_name_H-M   'P 1'
_cell_length_a   8.33003100
_cell_length_b   16.85680400
_cell_length_c   8.99337600
_cell_angle_alpha   90.00000000
_cell_angle_beta   90.00000000
_cell_angle_gamma   90.00000000
_symmetry_Int_Tables_number   1
_chemical_formula_structural   Sr5Nd5Pb8
_chemical_formula_sum   'Sr10 Nd10 Pb16'
_cell_volume   1262.82917208
_cell_formula_units_Z   2
loop_
 _symmetry_equiv_pos_site_id
 _symmetry_equiv_pos_as_xyz
  1  'x, y, z'
loop_
 _atom_site_type_symbol
 _atom_site_label
 _atom_site_symmetry_multiplicity
 _atom_site_fract_x
 _atom_site_fract_y
 _atom_site_fract_z
 _atom_site_occupancy
  Sr  Sr0  1  0.497629  0.592673  0.683735  1
  Sr  Sr1  1  0.997629  0.907327  0.816265  1
  Sr  Sr2  1  0.500146  0.089179  0.313167  1
  Sr  Sr3  1  0.000146  0.410821  0.186833  1
  Sr  Sr4  1  0.500146  0.410821  0.313167  1
  Sr  Sr5  1  0.000146  0.089179  0.186833  1
  Sr  Sr6  1  0.497629  0.907327  0.683735  1
  Sr  Sr7  1  0.997629  0.592673  0.816265  1
  Sr  Sr8  1  0.173597  0.250000  0.486700  1
  Sr  Sr9  1  0.673597  0.250000  0.013300  1
  Nd  Nd10  1  0.672771  0.623770  0.158602  1
  Nd  Nd11  1  0.172771  0.876230  0.341398  1
  Nd  Nd12  1  0.329533  0.120392  0.837061  1
  Nd  Nd13  1  0.829533  0.379608  0.662939  1
  Nd  Nd14  1  0.329533  0.379608  0.837061  1
  Nd  Nd15  1  0.829533  0.120392  0.662939  1
  Nd  Nd16  1  0.672771  0.876230  0.158602  1
  Nd  Nd17  1  0.172771  0.623770  0.341398  1
  Nd  Nd18  1  0.828602  0.750000  0.510570  1
  Nd  Nd19  1  0.328602  0.750000  0.989430  1
  Pb  Pb20  1  0.673473  0.460434  0.957806  1
  Pb  Pb21  1  0.173473  0.039566  0.542194  1
  Pb  Pb22  1  0.326649  0.954399  0.039923  1
  Pb  Pb23  1  0.826649  0.545601  0.460077  1
  Pb  Pb24  1  0.326649  0.545601  0.039923  1
  Pb  Pb25  1  0.826649  0.954399  0.460077  1
  Pb  Pb26  1  0.673473  0.039566  0.957806  1
  Pb  Pb27  1  0.173473  0.460434  0.542194  1
  Pb  Pb28  1  0.471087  0.750000  0.362101  1
  Pb  Pb29  1  0.971087  0.750000  0.137899  1
  Pb  Pb30  1  0.534840  0.250000  0.635895  1
  Pb  Pb31  1  0.034840  0.250000  0.864105  1
  Pb  Pb32  1  0.706109  0.750000  0.861453  1
  Pb  Pb33  1  0.206109  0.750000  0.638547  1
  Pb  Pb34  1  0.285360  0.250000  0.121881  1
  Pb  Pb35  1  0.785360  0.250000  0.378119  1
