# generated using pymatgen
data_Co4GeMo6AsC2
_symmetry_space_group_name_H-M   'P 1'
_cell_length_a   7.89219305
_cell_length_b   7.89219201
_cell_length_c   7.90375400
_cell_angle_alpha   59.95153502
_cell_angle_beta   59.95153939
_cell_angle_gamma   59.92755406
_symmetry_Int_Tables_number   1
_chemical_formula_structural   Co4GeMo6AsC2
_chemical_formula_sum   'Co8 Ge2 Mo12 As2 C4'
_cell_volume   347.66201818
_cell_formula_units_Z   2
loop_
 _symmetry_equiv_pos_site_id
 _symmetry_equiv_pos_as_xyz
  1  'x, y, z'
loop_
 _atom_site_type_symbol
 _atom_site_label
 _atom_site_symmetry_multiplicity
 _atom_site_fract_x
 _atom_site_fract_y
 _atom_site_fract_z
 _atom_site_occupancy
  Co  Co0  1  0.914369  0.248878  0.918377  1
  Co  Co1  1  0.334862  0.334862  0.999260  1
  Co  Co2  1  0.001122  0.335631  0.331623  1
  Co  Co3  1  0.334862  0.334862  0.331016  1
  Co  Co4  1  0.248878  0.914369  0.918377  1
  Co  Co5  1  0.915138  0.915138  0.918984  1
  Co  Co6  1  0.915138  0.915138  0.250740  1
  Co  Co7  1  0.335631  0.001122  0.331623  1
  Ge  Ge8  1  0.125000  0.125000  0.625000  1
  Ge  Ge9  1  0.125000  0.125000  0.125000  1
  Mo  Mo10  1  0.942661  0.942661  0.557339  1
  Mo  Mo11  1  0.692724  0.308222  0.308368  1
  Mo  Mo12  1  0.308222  0.692724  0.690686  1
  Mo  Mo13  1  0.690818  0.690818  0.309182  1
  Mo  Mo14  1  0.692724  0.308222  0.690686  1
  Mo  Mo15  1  0.308222  0.692724  0.308368  1
  Mo  Mo16  1  0.557276  0.941778  0.559314  1
  Mo  Mo17  1  0.557276  0.941778  0.941632  1
  Mo  Mo18  1  0.941778  0.557276  0.559314  1
  Mo  Mo19  1  0.941778  0.557276  0.941632  1
  Mo  Mo20  1  0.307339  0.307339  0.692661  1
  Mo  Mo21  1  0.559182  0.559182  0.940818  1
  As  As22  1  0.125000  0.625000  0.125000  1
  As  As23  1  0.625000  0.125000  0.125000  1
  C  C24  1  0.625000  0.125000  0.625000  1
  C  C25  1  0.625000  0.625000  0.125000  1
  C  C26  1  0.125000  0.625000  0.625000  1
  C  C27  1  0.625000  0.625000  0.625000  1
