# generated using pymatgen
data_Ho17Lu3(Sn3Pb5)2
_symmetry_space_group_name_H-M   'P 1'
_cell_length_a   8.09986226
_cell_length_b   15.51278400
_cell_length_c   8.17747426
_cell_angle_alpha   90.00000000
_cell_angle_beta   89.97119249
_cell_angle_gamma   90.00000000
_symmetry_Int_Tables_number   1
_chemical_formula_structural   Ho17Lu3(Sn3Pb5)2
_chemical_formula_sum   'Ho17 Lu3 Sn6 Pb10'
_cell_volume   1027.51107042
_cell_formula_units_Z   1
loop_
 _symmetry_equiv_pos_site_id
 _symmetry_equiv_pos_as_xyz
  1  'x, y, z'
loop_
 _atom_site_type_symbol
 _atom_site_label
 _atom_site_symmetry_multiplicity
 _atom_site_fract_x
 _atom_site_fract_y
 _atom_site_fract_z
 _atom_site_occupancy
  Ho  Ho0  1  0.622380  0.623163  0.160126  1
  Ho  Ho1  1  0.121925  0.876821  0.340200  1
  Ho  Ho2  1  0.377689  0.122233  0.838672  1
  Ho  Ho3  1  0.877669  0.377815  0.661360  1
  Ho  Ho4  1  0.377689  0.377767  0.838672  1
  Ho  Ho5  1  0.877669  0.122185  0.661360  1
  Ho  Ho6  1  0.622380  0.876837  0.160126  1
  Ho  Ho7  1  0.121925  0.623179  0.340200  1
  Ho  Ho8  1  0.465521  0.603269  0.676324  1
  Ho  Ho9  1  0.965283  0.896745  0.823444  1
  Ho  Ho10  1  0.534260  0.100362  0.325193  1
  Ho  Ho11  1  0.034302  0.399597  0.174798  1
  Ho  Ho12  1  0.534260  0.399638  0.325193  1
  Ho  Ho13  1  0.034302  0.100403  0.174798  1
  Ho  Ho14  1  0.465521  0.896731  0.676324  1
  Ho  Ho15  1  0.965283  0.603255  0.823444  1
  Ho  Ho16  1  0.290603  0.750000  0.003299  1
  Lu  Lu17  1  0.790352  0.750000  0.496558  1
  Lu  Lu18  1  0.210183  0.250000  0.507170  1
  Lu  Lu19  1  0.710152  0.250000  0.992760  1
  Sn  Sn20  1  0.426222  0.750000  0.376492  1
  Sn  Sn21  1  0.925484  0.750000  0.124061  1
  Sn  Sn22  1  0.573173  0.250000  0.625093  1
  Sn  Sn23  1  0.073144  0.250000  0.874850  1
  Sn  Sn24  1  0.657481  0.750000  0.850657  1
  Sn  Sn25  1  0.157152  0.750000  0.648567  1
  Pb  Pb26  1  0.717746  0.457937  0.966758  1
  Pb  Pb27  1  0.217768  0.042062  0.533263  1
  Pb  Pb28  1  0.282017  0.957924  0.033546  1
  Pb  Pb29  1  0.782024  0.542322  0.466469  1
  Pb  Pb30  1  0.282017  0.542076  0.033546  1
  Pb  Pb31  1  0.782024  0.957678  0.466469  1
  Pb  Pb32  1  0.717746  0.042063  0.966758  1
  Pb  Pb33  1  0.217768  0.457938  0.533263  1
  Pb  Pb34  1  0.344478  0.250000  0.152051  1
  Pb  Pb35  1  0.844410  0.250000  0.348137  1
