# generated using pymatgen
data_LiY2AlNi4(BIr)2
_symmetry_space_group_name_H-M   'P 1'
_cell_length_a   5.32058500
_cell_length_b   5.32058480
_cell_length_c   6.93567200
_cell_angle_alpha   90.00000000
_cell_angle_beta   90.00000000
_cell_angle_gamma   122.04441155
_symmetry_Int_Tables_number   1
_chemical_formula_structural   LiY2AlNi4(BIr)2
_chemical_formula_sum   'Li1 Y2 Al1 Ni4 B2 Ir2'
_cell_volume   166.42449652
_cell_formula_units_Z   1
loop_
 _symmetry_equiv_pos_site_id
 _symmetry_equiv_pos_as_xyz
  1  'x, y, z'
loop_
 _atom_site_type_symbol
 _atom_site_label
 _atom_site_symmetry_multiplicity
 _atom_site_fract_x
 _atom_site_fract_y
 _atom_site_fract_z
 _atom_site_occupancy
  Li  Li0  1  0.324062  0.675938  0.000000  1
  Y  Y1  1  0.000857  0.999143  0.500000  1
  Y  Y2  1  0.997754  0.002246  0.000000  1
  Al  Al3  1  0.672900  0.327100  0.000000  1
  Ni  Ni4  1  0.503949  0.000904  0.298847  1
  Ni  Ni5  1  0.999096  0.496051  0.298847  1
  Ni  Ni6  1  0.503949  0.000904  0.701153  1
  Ni  Ni7  1  0.999096  0.496051  0.701153  1
  B  B8  1  0.664172  0.335828  0.500000  1
  B  B9  1  0.331509  0.668491  0.500000  1
  Ir  Ir10  1  0.501328  0.498672  0.285066  1
  Ir  Ir11  1  0.501328  0.498672  0.714934  1
