# generated using pymatgen
data_Ho2Tc(BRu)4
_symmetry_space_group_name_H-M   'P 1'
_cell_length_a   3.08011400
_cell_length_b   8.76038524
_cell_length_c   10.19085271
_cell_angle_alpha   90.25143105
_cell_angle_beta   90.00000000
_cell_angle_gamma   90.00000000
_symmetry_Int_Tables_number   1
_chemical_formula_structural   Ho2Tc(BRu)4
_chemical_formula_sum   'Ho4 Tc2 B8 Ru8'
_cell_volume   274.97698056
_cell_formula_units_Z   2
loop_
 _symmetry_equiv_pos_site_id
 _symmetry_equiv_pos_as_xyz
  1  'x, y, z'
loop_
 _atom_site_type_symbol
 _atom_site_label
 _atom_site_symmetry_multiplicity
 _atom_site_fract_x
 _atom_site_fract_y
 _atom_site_fract_z
 _atom_site_occupancy
  Ho  Ho0  1  0.500000  0.839503  0.179708  1
  Ho  Ho1  1  0.500000  0.160497  0.820292  1
  Ho  Ho2  1  0.500000  0.659560  0.684608  1
  Ho  Ho3  1  0.500000  0.340440  0.315392  1
  Tc  Tc4  1  0.000000  0.658495  0.953622  1
  Tc  Tc5  1  0.000000  0.341505  0.046378  1
  B  B6  1  0.500000  0.966451  0.588999  1
  B  B7  1  0.500000  0.033549  0.411001  1
  B  B8  1  0.500000  0.847968  0.903119  1
  B  B9  1  0.500000  0.152032  0.096881  1
  B  B10  1  0.500000  0.646402  0.398840  1
  B  B11  1  0.500000  0.353598  0.601160  1
  B  B12  1  0.500000  0.465586  0.914671  1
  B  B13  1  0.500000  0.534414  0.085329  1
  Ru  Ru14  1  0.000000  0.842609  0.454642  1
  Ru  Ru15  1  0.000000  0.157391  0.545358  1
  Ru  Ru16  1  0.000000  0.000000  0.000000  1
  Ru  Ru17  1  0.000000  0.405786  0.759141  1
  Ru  Ru18  1  0.000000  0.594214  0.240859  1
  Ru  Ru19  1  0.000000  0.500000  0.500000  1
  Ru  Ru20  1  0.000000  0.908184  0.738565  1
  Ru  Ru21  1  0.000000  0.091816  0.261435  1
