# generated using pymatgen
data_Zr5Al16AsIr7
_symmetry_space_group_name_H-M   'P 1'
_cell_length_a   8.70459681
_cell_length_b   8.76333307
_cell_length_c   8.76333500
_cell_angle_alpha   59.55705881
_cell_angle_beta   60.22147130
_cell_angle_gamma   60.22147286
_symmetry_Int_Tables_number   1
_chemical_formula_structural   Zr5Al16AsIr7
_chemical_formula_sum   'Zr5 Al16 As1 Ir7'
_cell_volume   472.64344738
_cell_formula_units_Z   1
loop_
 _symmetry_equiv_pos_site_id
 _symmetry_equiv_pos_as_xyz
  1  'x, y, z'
loop_
 _atom_site_type_symbol
 _atom_site_label
 _atom_site_symmetry_multiplicity
 _atom_site_fract_x
 _atom_site_fract_y
 _atom_site_fract_z
 _atom_site_occupancy
  Zr  Zr0  1  0.810229  0.189771  0.189767  1
  Zr  Zr1  1  0.790469  0.209531  0.789075  1
  Zr  Zr2  1  0.790460  0.789070  0.209539  1
  Zr  Zr3  1  0.210936  0.789064  0.209547  1
  Zr  Zr4  1  0.210930  0.209540  0.789069  1
  Al  Al5  1  0.867372  0.832244  0.832249  1
  Al  Al6  1  0.844551  0.822427  0.488470  1
  Al  Al7  1  0.468136  0.832247  0.832242  1
  Al  Al8  1  0.844552  0.488472  0.822428  1
  Al  Al9  1  0.177573  0.155449  0.155446  1
  Al  Al10  1  0.167756  0.132628  0.531865  1
  Al  Al11  1  0.167753  0.531864  0.132625  1
  Al  Al12  1  0.511528  0.155448  0.155450  1
  Al  Al13  1  0.611568  0.618841  0.618838  1
  Al  Al14  1  0.628533  0.616261  0.126674  1
  Al  Al15  1  0.150755  0.618840  0.618838  1
  Al  Al16  1  0.628531  0.126675  0.616260  1
  Al  Al17  1  0.383739  0.371467  0.371468  1
  Al  Al18  1  0.381159  0.388432  0.849247  1
  Al  Al19  1  0.381160  0.849245  0.388435  1
  Al  Al20  1  0.873325  0.371469  0.371467  1
  As  As21  1  0.034499  0.965501  0.965479  1
  Ir  Ir22  1  0.511933  0.488067  0.488068  1
  Ir  Ir23  1  0.011299  0.488701  0.488698  1
  Ir  Ir24  1  0.511299  0.988701  0.988698  1
  Ir  Ir25  1  0.510805  0.995830  0.489198  1
  Ir  Ir26  1  0.510808  0.489192  0.995833  1
  Ir  Ir27  1  0.004170  0.489195  0.995833  1
  Ir  Ir28  1  0.004167  0.995833  0.489194  1
