# generated using pymatgen
data_CdRu2F12
_symmetry_space_group_name_H-M   'P 1'
_cell_length_a   7.24114337
_cell_length_b   7.24114358
_cell_length_c   10.46672594
_cell_angle_alpha   68.17108258
_cell_angle_beta   68.17107989
_cell_angle_gamma   77.31616375
_symmetry_Int_Tables_number   1
_chemical_formula_structural   CdRu2F12
_chemical_formula_sum   'Cd2 Ru4 F24'
_cell_volume   470.82376686
_cell_formula_units_Z   2
loop_
 _symmetry_equiv_pos_site_id
 _symmetry_equiv_pos_as_xyz
  1  'x, y, z'
loop_
 _atom_site_type_symbol
 _atom_site_label
 _atom_site_symmetry_multiplicity
 _atom_site_fract_x
 _atom_site_fract_y
 _atom_site_fract_z
 _atom_site_occupancy
  Cd  Cd0  1  0.169216  0.830784  0.750000  1
  Cd  Cd1  1  0.830784  0.169216  0.250000  1
  Ru  Ru2  1  0.245757  0.258414  0.374454  1
  Ru  Ru3  1  0.258414  0.245757  0.874454  1
  Ru  Ru4  1  0.754243  0.741586  0.625546  1
  Ru  Ru5  1  0.741586  0.754243  0.125546  1
  F  F6  1  0.857251  0.867913  0.217792  1
  F  F7  1  0.142749  0.132087  0.782208  1
  F  F8  1  0.282890  0.989562  0.507613  1
  F  F9  1  0.991050  0.288952  0.503742  1
  F  F10  1  0.288952  0.991050  0.003742  1
  F  F11  1  0.363848  0.358097  0.462709  1
  F  F12  1  0.358097  0.363848  0.962709  1
  F  F13  1  0.867913  0.857251  0.717792  1
  F  F14  1  0.791699  0.487830  0.255352  1
  F  F15  1  0.010438  0.717110  0.992387  1
  F  F16  1  0.717110  0.010438  0.492387  1
  F  F17  1  0.989562  0.282890  0.007613  1
  F  F18  1  0.508096  0.215034  0.741292  1
  F  F19  1  0.636152  0.641903  0.537291  1
  F  F20  1  0.208301  0.512170  0.744648  1
  F  F21  1  0.641903  0.636152  0.037291  1
  F  F22  1  0.487830  0.791699  0.755352  1
  F  F23  1  0.784966  0.491904  0.758708  1
  F  F24  1  0.512170  0.208301  0.244648  1
  F  F25  1  0.491904  0.784966  0.258708  1
  F  F26  1  0.215034  0.508096  0.241292  1
  F  F27  1  0.711048  0.008950  0.996258  1
  F  F28  1  0.132087  0.142749  0.282208  1
  F  F29  1  0.008950  0.711048  0.496258  1
