# generated using pymatgen
data_EuTm5TaO12
_symmetry_space_group_name_H-M   'P 1'
_cell_length_a   6.42912277
_cell_length_b   6.38271119
_cell_length_c   6.41771432
_cell_angle_alpha   98.91447668
_cell_angle_beta   99.10640195
_cell_angle_gamma   98.61455784
_symmetry_Int_Tables_number   1
_chemical_formula_structural   EuTm5TaO12
_chemical_formula_sum   'Eu1 Tm5 Ta1 O12'
_cell_volume   252.75731980
_cell_formula_units_Z   1
loop_
 _symmetry_equiv_pos_site_id
 _symmetry_equiv_pos_as_xyz
  1  'x, y, z'
loop_
 _atom_site_type_symbol
 _atom_site_label
 _atom_site_symmetry_multiplicity
 _atom_site_fract_x
 _atom_site_fract_y
 _atom_site_fract_z
 _atom_site_occupancy
  Eu  Eu0  1  0.692712  0.859322  0.400310  1
  Tm  Tm1  1  0.387905  0.691465  0.859124  1
  Tm  Tm2  1  0.862316  0.390455  0.698939  1
  Tm  Tm3  1  0.304287  0.143253  0.615859  1
  Tm  Tm4  1  0.609493  0.303737  0.133545  1
  Tm  Tm5  1  0.140755  0.608217  0.310012  1
  Ta  Ta6  1  0.002551  0.998815  0.005650  1
  O  O7  1  0.428942  0.582039  0.175834  1
  O  O8  1  0.175106  0.434601  0.584896  1
  O  O9  1  0.585737  0.178062  0.432524  1
  O  O10  1  0.566139  0.412361  0.819972  1
  O  O11  1  0.819055  0.562110  0.411506  1
  O  O12  1  0.403993  0.822234  0.568167  1
  O  O13  1  0.938173  0.053627  0.694729  1
  O  O14  1  0.956586  0.307069  0.075378  1
  O  O15  1  0.307681  0.075603  0.959328  1
  O  O16  1  0.080655  0.958384  0.304278  1
  O  O17  1  0.042170  0.694725  0.921081  1
  O  O18  1  0.695745  0.923920  0.028869  1
