# generated using pymatgen
data_U2SiPt3
_symmetry_space_group_name_H-M   'P 1'
_cell_length_a   4.59145343
_cell_length_b   5.59404954
_cell_length_c   5.42598600
_cell_angle_alpha   88.43715665
_cell_angle_beta   115.03037834
_cell_angle_gamma   65.77083554
_symmetry_Int_Tables_number   1
_chemical_formula_structural   U2SiPt3
_chemical_formula_sum   'U2 Si1 Pt3'
_cell_volume   111.69728687
_cell_formula_units_Z   1
loop_
 _symmetry_equiv_pos_site_id
 _symmetry_equiv_pos_as_xyz
  1  'x, y, z'
loop_
 _atom_site_type_symbol
 _atom_site_label
 _atom_site_symmetry_multiplicity
 _atom_site_fract_x
 _atom_site_fract_y
 _atom_site_fract_z
 _atom_site_occupancy
  U  U0  1  0.790475  0.679315  0.260265  1
  U  U1  1  0.225127  0.307361  0.757616  1
  Si  Si2  1  0.945345  0.888333  0.779022  1
  Pt  Pt3  1  0.020660  0.111365  0.152687  1
  Pt  Pt4  1  0.534316  0.299073  0.367705  1
  Pt  Pt5  1  0.484076  0.714554  0.682705  1
