# generated using pymatgen
data_Lu8Nb9Si16Mo3
_symmetry_space_group_name_H-M   'P 1'
_cell_length_a   6.74658957
_cell_length_b   6.99114558
_cell_length_c   13.25047400
_cell_angle_alpha   90.00000000
_cell_angle_beta   90.00000000
_cell_angle_gamma   89.95304445
_symmetry_Int_Tables_number   1
_chemical_formula_structural   Lu8Nb9Si16Mo3
_chemical_formula_sum   'Lu8 Nb9 Si16 Mo3'
_cell_volume   624.97681282
_cell_formula_units_Z   1
loop_
 _symmetry_equiv_pos_site_id
 _symmetry_equiv_pos_as_xyz
  1  'x, y, z'
loop_
 _atom_site_type_symbol
 _atom_site_label
 _atom_site_symmetry_multiplicity
 _atom_site_fract_x
 _atom_site_fract_y
 _atom_site_fract_z
 _atom_site_occupancy
  Lu  Lu0  1  0.500786  0.327759  0.094640  1
  Lu  Lu1  1  0.000665  0.172311  0.405175  1
  Lu  Lu2  1  0.498810  0.672491  0.594927  1
  Lu  Lu3  1  0.998664  0.827603  0.905457  1
  Lu  Lu4  1  0.498810  0.672491  0.905073  1
  Lu  Lu5  1  0.998664  0.827603  0.594543  1
  Lu  Lu6  1  0.500786  0.327759  0.405360  1
  Lu  Lu7  1  0.000665  0.172311  0.094825  1
  Nb  Nb8  1  0.834103  0.329464  0.625389  1
  Nb  Nb9  1  0.333697  0.171008  0.874758  1
  Nb  Nb10  1  0.166383  0.670084  0.126104  1
  Nb  Nb11  1  0.666818  0.829921  0.373207  1
  Nb  Nb12  1  0.166383  0.670084  0.373896  1
  Nb  Nb13  1  0.666818  0.829921  0.126793  1
  Nb  Nb14  1  0.834103  0.329464  0.874611  1
  Nb  Nb15  1  0.333697  0.171008  0.625242  1
  Nb  Nb16  1  0.660984  0.006409  0.750000  1
  Si  Si17  1  0.665165  0.036322  0.541178  1
  Si  Si18  1  0.165058  0.463284  0.957567  1
  Si  Si19  1  0.335370  0.963139  0.043140  1
  Si  Si20  1  0.835154  0.536850  0.457187  1
  Si  Si21  1  0.335370  0.963139  0.456860  1
  Si  Si22  1  0.835154  0.536850  0.042813  1
  Si  Si23  1  0.665165  0.036322  0.958822  1
  Si  Si24  1  0.165058  0.463284  0.542433  1
  Si  Si25  1  0.532592  0.382857  0.750000  1
  Si  Si26  1  0.037600  0.120433  0.750000  1
  Si  Si27  1  0.465991  0.619119  0.250000  1
  Si  Si28  1  0.967035  0.881102  0.250000  1
  Si  Si29  1  0.798594  0.632238  0.750000  1
  Si  Si30  1  0.293600  0.863087  0.750000  1
  Si  Si31  1  0.201614  0.364435  0.250000  1
  Si  Si32  1  0.701594  0.135815  0.250000  1
  Mo  Mo33  1  0.161409  0.493936  0.750000  1
  Mo  Mo34  1  0.339287  0.994804  0.250000  1
  Mo  Mo35  1  0.838357  0.505294  0.250000  1
