# generated using pymatgen
data_SrTbY2(Ir2O7)2
_symmetry_space_group_name_H-M   'P 1'
_cell_length_a   7.29220854
_cell_length_b   7.31276862
_cell_length_c   7.29754121
_cell_angle_alpha   60.12748282
_cell_angle_beta   60.02417156
_cell_angle_gamma   60.09295864
_symmetry_Int_Tables_number   1
_chemical_formula_structural   SrTbY2(Ir2O7)2
_chemical_formula_sum   'Sr1 Tb1 Y2 Ir4 O14'
_cell_volume   275.67885153
_cell_formula_units_Z   1
loop_
 _symmetry_equiv_pos_site_id
 _symmetry_equiv_pos_as_xyz
  1  'x, y, z'
loop_
 _atom_site_type_symbol
 _atom_site_label
 _atom_site_symmetry_multiplicity
 _atom_site_fract_x
 _atom_site_fract_y
 _atom_site_fract_z
 _atom_site_occupancy
  Sr  Sr0  1  0.125000  0.625000  0.125000  1
  Tb  Tb1  1  0.125000  0.125000  0.625000  1
  Y  Y2  1  0.625000  0.125000  0.125000  1
  Y  Y3  1  0.125000  0.125000  0.125000  1
  Ir  Ir4  1  0.125000  0.625000  0.625000  1
  Ir  Ir5  1  0.625000  0.125000  0.625000  1
  Ir  Ir6  1  0.625000  0.625000  0.125000  1
  Ir  Ir7  1  0.625000  0.625000  0.625000  1
  O  O8  1  0.692094  0.718790  0.294658  1
  O  O9  1  0.293217  0.290886  0.707943  1
  O  O10  1  0.707953  0.290886  0.707943  1
  O  O11  1  0.294459  0.718790  0.294658  1
  O  O12  1  0.294525  0.718618  0.692331  1
  O  O13  1  0.707582  0.291087  0.293749  1
  O  O14  1  0.557906  0.531210  0.955342  1
  O  O15  1  0.956783  0.959114  0.542057  1
  O  O16  1  0.542047  0.959114  0.542057  1
  O  O17  1  0.955541  0.531210  0.955342  1
  O  O18  1  0.955475  0.531382  0.557669  1
  O  O19  1  0.542418  0.958913  0.956251  1
  O  O20  1  0.257842  0.228077  0.256239  1
  O  O21  1  0.992158  0.021923  0.993761  1
