# generated using pymatgen
data_YbPr4Si2Ge
_symmetry_space_group_name_H-M   'P 1'
_cell_length_a   7.82012100
_cell_length_b   8.97751309
_cell_length_c   7.82012100
_cell_angle_alpha   115.81962409
_cell_angle_beta   90.00000000
_cell_angle_gamma   115.81962409
_symmetry_Int_Tables_number   1
_chemical_formula_structural   YbPr4Si2Ge
_chemical_formula_sum   'Yb2 Pr8 Si4 Ge2'
_cell_volume   432.50651718
_cell_formula_units_Z   2
loop_
 _symmetry_equiv_pos_site_id
 _symmetry_equiv_pos_as_xyz
  1  'x, y, z'
loop_
 _atom_site_type_symbol
 _atom_site_label
 _atom_site_symmetry_multiplicity
 _atom_site_fract_x
 _atom_site_fract_y
 _atom_site_fract_z
 _atom_site_occupancy
  Yb  Yb0  1  0.000000  0.000000  0.000000  1
  Yb  Yb1  1  0.500000  0.000000  0.500000  1
  Pr  Pr2  1  0.533197  0.710907  0.677711  1
  Pr  Pr3  1  0.177711  0.710907  0.033197  1
  Pr  Pr4  1  0.677711  0.710907  0.177711  1
  Pr  Pr5  1  0.033197  0.710907  0.533197  1
  Pr  Pr6  1  0.466803  0.289093  0.322289  1
  Pr  Pr7  1  0.822289  0.289093  0.966803  1
  Pr  Pr8  1  0.322289  0.289093  0.822289  1
  Pr  Pr9  1  0.966803  0.289093  0.466803  1
  Si  Si10  1  0.885818  0.000000  0.614182  1
  Si  Si11  1  0.114182  0.000000  0.385818  1
  Si  Si12  1  0.614182  0.000000  0.114182  1
  Si  Si13  1  0.385818  0.000000  0.885818  1
  Ge  Ge14  1  0.750000  0.500000  0.750000  1
  Ge  Ge15  1  0.250000  0.500000  0.250000  1
