# generated using pymatgen
data_CsNaZnH4
_symmetry_space_group_name_H-M   'P 1'
_cell_length_a   7.90623900
_cell_length_b   7.90623900
_cell_length_c   7.90623900
_cell_angle_alpha   90.00000000
_cell_angle_beta   90.00000000
_cell_angle_gamma   90.00000000
_symmetry_Int_Tables_number   1
_chemical_formula_structural   CsNaZnH4
_chemical_formula_sum   'Cs4 Na4 Zn4 H16'
_cell_volume   494.20805074
_cell_formula_units_Z   4
loop_
 _symmetry_equiv_pos_site_id
 _symmetry_equiv_pos_as_xyz
  1  'x, y, z'
loop_
 _atom_site_type_symbol
 _atom_site_label
 _atom_site_symmetry_multiplicity
 _atom_site_fract_x
 _atom_site_fract_y
 _atom_site_fract_z
 _atom_site_occupancy
  Cs  Cs0  1  0.153770  0.653770  0.846230  1
  Cs  Cs1  1  0.653770  0.846230  0.153770  1
  Cs  Cs2  1  0.846230  0.153770  0.653770  1
  Cs  Cs3  1  0.346230  0.346230  0.346230  1
  Na  Na4  1  0.851910  0.351910  0.148090  1
  Na  Na5  1  0.351910  0.148090  0.851910  1
  Na  Na6  1  0.148090  0.851910  0.351910  1
  Na  Na7  1  0.648090  0.648090  0.648090  1
  Zn  Zn8  1  0.430516  0.930516  0.569484  1
  Zn  Zn9  1  0.930516  0.569484  0.430516  1
  Zn  Zn10  1  0.569484  0.430516  0.930516  1
  Zn  Zn11  1  0.069484  0.069484  0.069484  1
  H  H12  1  0.549287  0.049287  0.450713  1
  H  H13  1  0.049287  0.450713  0.549287  1
  H  H14  1  0.450713  0.549287  0.049287  1
  H  H15  1  0.950713  0.950713  0.950713  1
  H  H16  1  0.259499  0.983322  0.095675  1
  H  H17  1  0.904325  0.759499  0.516678  1
  H  H18  1  0.483322  0.404325  0.740501  1
  H  H19  1  0.759499  0.516678  0.904325  1
  H  H20  1  0.404325  0.740501  0.483322  1
  H  H21  1  0.983322  0.095675  0.259499  1
  H  H22  1  0.740501  0.483322  0.404325  1
  H  H23  1  0.095675  0.259499  0.983322  1
  H  H24  1  0.516678  0.904325  0.759499  1
  H  H25  1  0.240501  0.016678  0.595675  1
  H  H26  1  0.595675  0.240501  0.016678  1
  H  H27  1  0.016678  0.595675  0.240501  1
