# generated using pymatgen
data_Pr7Th(Si3Pd)4
_symmetry_space_group_name_H-M   'P 1'
_cell_length_a   8.28736784
_cell_length_b   8.28736893
_cell_length_c   8.60527900
_cell_angle_alpha   90.00000000
_cell_angle_beta   90.00000000
_cell_angle_gamma   119.86401540
_symmetry_Int_Tables_number   1
_chemical_formula_structural   Pr7Th(Si3Pd)4
_chemical_formula_sum   'Pr7 Th1 Si12 Pd4'
_cell_volume   512.53360665
_cell_formula_units_Z   1
loop_
 _symmetry_equiv_pos_site_id
 _symmetry_equiv_pos_as_xyz
  1  'x, y, z'
loop_
 _atom_site_type_symbol
 _atom_site_label
 _atom_site_symmetry_multiplicity
 _atom_site_fract_x
 _atom_site_fract_y
 _atom_site_fract_z
 _atom_site_occupancy
  Pr  Pr0  1  0.500400  0.499600  0.250000  1
  Pr  Pr1  1  0.000847  0.500463  0.750000  1
  Pr  Pr2  1  0.999081  0.499473  0.250000  1
  Pr  Pr3  1  0.499537  0.999153  0.750000  1
  Pr  Pr4  1  0.500527  0.000919  0.250000  1
  Pr  Pr5  1  0.000011  0.999989  0.750000  1
  Pr  Pr6  1  0.999972  0.000028  0.250000  1
  Th  Th7  1  0.499824  0.500176  0.750000  1
  Si  Si8  1  0.833737  0.166263  0.999946  1
  Si  Si9  1  0.166258  0.833742  0.999829  1
  Si  Si10  1  0.330813  0.165072  0.998781  1
  Si  Si11  1  0.166258  0.833742  0.500171  1
  Si  Si12  1  0.669089  0.834880  0.998414  1
  Si  Si13  1  0.833737  0.166263  0.500054  1
  Si  Si14  1  0.834928  0.669187  0.998781  1
  Si  Si15  1  0.669089  0.834880  0.501586  1
  Si  Si16  1  0.165120  0.330911  0.998414  1
  Si  Si17  1  0.330813  0.165072  0.501219  1
  Si  Si18  1  0.165120  0.330911  0.501586  1
  Si  Si19  1  0.834928  0.669187  0.501219  1
  Pd  Pd20  1  0.665338  0.334662  0.996380  1
  Pd  Pd21  1  0.334617  0.665383  0.998938  1
  Pd  Pd22  1  0.334617  0.665383  0.501062  1
  Pd  Pd23  1  0.665338  0.334662  0.503620  1
