# generated using pymatgen
data_Y3Hg3Pd2Rh
_symmetry_space_group_name_H-M   'P 1'
_cell_length_a   7.66911700
_cell_length_b   7.66911612
_cell_length_c   3.85707600
_cell_angle_alpha   90.00000000
_cell_angle_beta   90.00000000
_cell_angle_gamma   119.99999084
_symmetry_Int_Tables_number   1
_chemical_formula_structural   Y3Hg3Pd2Rh
_chemical_formula_sum   'Y3 Hg3 Pd2 Rh1'
_cell_volume   196.46244530
_cell_formula_units_Z   1
loop_
 _symmetry_equiv_pos_site_id
 _symmetry_equiv_pos_as_xyz
  1  'x, y, z'
loop_
 _atom_site_type_symbol
 _atom_site_label
 _atom_site_symmetry_multiplicity
 _atom_site_fract_x
 _atom_site_fract_y
 _atom_site_fract_z
 _atom_site_occupancy
  Y  Y0  1  0.409217  0.394421  0.500000  1
  Y  Y1  1  0.605579  0.014796  0.500000  1
  Y  Y2  1  0.985204  0.590783  0.500000  1
  Hg  Hg3  1  0.732023  0.734762  0.000000  1
  Hg  Hg4  1  0.265238  0.997262  0.000000  1
  Hg  Hg5  1  0.002738  0.267977  0.000000  1
  Pd  Pd6  1  0.333333  0.666667  0.000000  1
  Pd  Pd7  1  0.000000  0.000000  0.500000  1
  Rh  Rh8  1  0.666667  0.333333  0.000000  1
