# generated using pymatgen
data_Sr3Li7ZnSn4
_symmetry_space_group_name_H-M   'P 1'
_cell_length_a   9.88914800
_cell_length_b   9.88914903
_cell_length_c   8.27514600
_cell_angle_alpha   90.00000000
_cell_angle_beta   90.00000000
_cell_angle_gamma   120.00000325
_symmetry_Int_Tables_number   1
_chemical_formula_structural   Sr3Li7ZnSn4
_chemical_formula_sum   'Sr6 Li14 Zn2 Sn8'
_cell_volume   700.84839094
_cell_formula_units_Z   2
loop_
 _symmetry_equiv_pos_site_id
 _symmetry_equiv_pos_as_xyz
  1  'x, y, z'
loop_
 _atom_site_type_symbol
 _atom_site_label
 _atom_site_symmetry_multiplicity
 _atom_site_fract_x
 _atom_site_fract_y
 _atom_site_fract_z
 _atom_site_occupancy
  Sr  Sr0  1  0.478661  0.957320  0.507340  1
  Sr  Sr1  1  0.042680  0.521339  0.507340  1
  Sr  Sr2  1  0.478661  0.521339  0.507340  1
  Sr  Sr3  1  0.521339  0.042680  0.007340  1
  Sr  Sr4  1  0.957320  0.478661  0.007340  1
  Sr  Sr5  1  0.521339  0.478661  0.007340  1
  Li  Li6  1  0.834941  0.669884  0.656298  1
  Li  Li7  1  0.330116  0.165059  0.656298  1
  Li  Li8  1  0.834941  0.165059  0.656298  1
  Li  Li9  1  0.165059  0.330116  0.156298  1
  Li  Li10  1  0.669884  0.834941  0.156298  1
  Li  Li11  1  0.165059  0.834941  0.156298  1
  Li  Li12  1  0.893971  0.787941  0.968112  1
  Li  Li13  1  0.212059  0.106029  0.968112  1
  Li  Li14  1  0.893971  0.106029  0.968112  1
  Li  Li15  1  0.106029  0.212059  0.468112  1
  Li  Li16  1  0.787941  0.893971  0.468112  1
  Li  Li17  1  0.106029  0.893971  0.468112  1
  Li  Li18  1  0.666667  0.333333  0.370108  1
  Li  Li19  1  0.333333  0.666667  0.870108  1
  Zn  Zn20  1  0.000000  0.000000  0.229702  1
  Zn  Zn21  1  0.000000  0.000000  0.729702  1
  Sn  Sn22  1  0.836633  0.673265  0.288592  1
  Sn  Sn23  1  0.326735  0.163367  0.288592  1
  Sn  Sn24  1  0.836633  0.163367  0.288592  1
  Sn  Sn25  1  0.163367  0.326735  0.788592  1
  Sn  Sn26  1  0.673265  0.836633  0.788592  1
  Sn  Sn27  1  0.163367  0.836633  0.788592  1
  Sn  Sn28  1  0.666667  0.333333  0.721885  1
  Sn  Sn29  1  0.333333  0.666667  0.221885  1
