# generated using pymatgen
data_Ca11Ga3C8
_symmetry_space_group_name_H-M   'P 1'
_cell_length_a   10.77573300
_cell_length_b   13.31538991
_cell_length_c   14.34877900
_cell_angle_alpha   74.31482757
_cell_angle_beta   90.00000000
_cell_angle_gamma   90.00000000
_symmetry_Int_Tables_number   1
_chemical_formula_structural   Ca11Ga3C8
_chemical_formula_sum   'Ca44 Ga12 C32'
_cell_volume   1982.14071028
_cell_formula_units_Z   4
loop_
 _symmetry_equiv_pos_site_id
 _symmetry_equiv_pos_as_xyz
  1  'x, y, z'
loop_
 _atom_site_type_symbol
 _atom_site_label
 _atom_site_symmetry_multiplicity
 _atom_site_fract_x
 _atom_site_fract_y
 _atom_site_fract_z
 _atom_site_occupancy
  Ca  Ca0  1  0.755137  0.979189  0.277245  1
  Ca  Ca1  1  0.255137  0.020811  0.222755  1
  Ca  Ca2  1  0.244863  0.020811  0.722755  1
  Ca  Ca3  1  0.744863  0.979189  0.777245  1
  Ca  Ca4  1  0.268335  0.971925  0.484177  1
  Ca  Ca5  1  0.768335  0.028075  0.015823  1
  Ca  Ca6  1  0.731665  0.028075  0.515823  1
  Ca  Ca7  1  0.231665  0.971925  0.984177  1
  Ca  Ca8  1  0.503829  0.893233  0.145178  1
  Ca  Ca9  1  0.003829  0.106767  0.354822  1
  Ca  Ca10  1  0.496171  0.106767  0.854822  1
  Ca  Ca11  1  0.996171  0.893233  0.645178  1
  Ca  Ca12  1  0.003830  0.852815  0.168273  1
  Ca  Ca13  1  0.503830  0.147185  0.331727  1
  Ca  Ca14  1  0.996170  0.147185  0.831727  1
  Ca  Ca15  1  0.496170  0.852815  0.668273  1
  Ca  Ca16  1  0.693546  0.738711  0.041440  1
  Ca  Ca17  1  0.193546  0.261289  0.458560  1
  Ca  Ca18  1  0.306454  0.261289  0.958560  1
  Ca  Ca19  1  0.806454  0.738711  0.541440  1
  Ca  Ca20  1  0.306155  0.732697  0.341723  1
  Ca  Ca21  1  0.806155  0.267303  0.158277  1
  Ca  Ca22  1  0.693845  0.267303  0.658277  1
  Ca  Ca23  1  0.193845  0.732697  0.841723  1
  Ca  Ca24  1  0.342683  0.692969  0.069485  1
  Ca  Ca25  1  0.842683  0.307031  0.430515  1
  Ca  Ca26  1  0.657317  0.307031  0.930515  1
  Ca  Ca27  1  0.157317  0.692969  0.569485  1
  Ca  Ca28  1  0.007487  0.606052  0.097399  1
  Ca  Ca29  1  0.507487  0.393948  0.402601  1
  Ca  Ca30  1  0.992513  0.393948  0.902601  1
  Ca  Ca31  1  0.492513  0.606052  0.597399  1
  Ca  Ca32  1  0.247764  0.495121  0.271205  1
  Ca  Ca33  1  0.747764  0.504879  0.228795  1
  Ca  Ca34  1  0.752236  0.504879  0.728795  1
  Ca  Ca35  1  0.252236  0.495121  0.771205  1
  Ca  Ca36  1  0.489934  0.391680  0.150030  1
  Ca  Ca37  1  0.989934  0.608320  0.349970  1
  Ca  Ca38  1  0.510066  0.608320  0.849970  1
  Ca  Ca39  1  0.010066  0.391680  0.650030  1
  Ca  Ca40  1  0.161621  0.299274  0.168358  1
  Ca  Ca41  1  0.661621  0.700726  0.331642  1
  Ca  Ca42  1  0.838379  0.700726  0.831642  1
  Ca  Ca43  1  0.338379  0.299274  0.668358  1
  Ga  Ga44  1  0.517593  0.867886  0.414417  1
  Ga  Ga45  1  0.017593  0.132114  0.085583  1
  Ga  Ga46  1  0.482407  0.132114  0.585583  1
  Ga  Ga47  1  0.982407  0.867886  0.914417  1
  Ga  Ga48  1  0.019329  0.855397  0.400246  1
  Ga  Ga49  1  0.519329  0.144603  0.099754  1
  Ga  Ga50  1  0.980671  0.144603  0.599754  1
  Ga  Ga51  1  0.480671  0.855397  0.900246  1
  Ga  Ga52  1  0.245329  0.498014  0.001665  1
  Ga  Ga53  1  0.745329  0.501986  0.498335  1
  Ga  Ga54  1  0.754671  0.501986  0.998335  1
  Ga  Ga55  1  0.254671  0.498014  0.501665  1
  C  C56  1  0.344156  0.319511  0.297088  1
  C  C57  1  0.844156  0.680489  0.202912  1
  C  C58  1  0.655844  0.680489  0.702912  1
  C  C59  1  0.155844  0.319511  0.797088  1
  C  C60  1  0.793406  0.774852  0.183495  1
  C  C61  1  0.293406  0.225148  0.316505  1
  C  C62  1  0.206594  0.225148  0.816505  1
  C  C63  1  0.706594  0.774852  0.683495  1
  C  C64  1  0.739683  0.868058  0.159033  1
  C  C65  1  0.239683  0.131942  0.340967  1
  C  C66  1  0.260317  0.131942  0.840967  1
  C  C67  1  0.760317  0.868058  0.659033  1
  C  C68  1  0.269705  0.859114  0.158350  1
  C  C69  1  0.769705  0.140886  0.341650  1
  C  C70  1  0.730295  0.140886  0.841650  1
  C  C71  1  0.230295  0.859114  0.658350  1
  C  C72  1  0.211760  0.767382  0.180070  1
  C  C73  1  0.711760  0.232618  0.319930  1
  C  C74  1  0.788240  0.232618  0.819930  1
  C  C75  1  0.288240  0.767382  0.680070  1
  C  C76  1  0.158251  0.674206  0.209317  1
  C  C77  1  0.658251  0.325794  0.290683  1
  C  C78  1  0.841749  0.325794  0.790683  1
  C  C79  1  0.341749  0.674206  0.709317  1
  C  C80  1  0.489853  0.570101  0.235098  1
  C  C81  1  0.989853  0.429899  0.264902  1
  C  C82  1  0.510147  0.429899  0.764902  1
  C  C83  1  0.010147  0.570101  0.735098  1
  C  C84  1  0.516251  0.666361  0.200470  1
  C  C85  1  0.016251  0.333639  0.299530  1
  C  C86  1  0.483749  0.333639  0.799530  1
  C  C87  1  0.983749  0.666361  0.700470  1
