# generated using pymatgen
data_La4Zn9CdSiSn
_symmetry_space_group_name_H-M   'P 1'
_cell_length_a   8.66460242
_cell_length_b   8.66460215
_cell_length_c   9.12761400
_cell_angle_alpha   90.00000000
_cell_angle_beta   90.00000000
_cell_angle_gamma   149.52878625
_symmetry_Int_Tables_number   1
_chemical_formula_structural   La4Zn9CdSiSn
_chemical_formula_sum   'La4 Zn9 Cd1 Si1 Sn1'
_cell_volume   347.49836844
_cell_formula_units_Z   1
loop_
 _symmetry_equiv_pos_site_id
 _symmetry_equiv_pos_as_xyz
  1  'x, y, z'
loop_
 _atom_site_type_symbol
 _atom_site_label
 _atom_site_symmetry_multiplicity
 _atom_site_fract_x
 _atom_site_fract_y
 _atom_site_fract_z
 _atom_site_occupancy
  La  La0  1  0.203789  0.796211  0.250000  1
  La  La1  1  0.792101  0.207899  0.750000  1
  La  La2  1  0.002308  0.997692  0.490319  1
  La  La3  1  0.002308  0.997692  0.009681  1
  Zn  Zn4  1  0.812866  0.187134  0.392918  1
  Zn  Zn5  1  0.184686  0.815314  0.607922  1
  Zn  Zn6  1  0.812866  0.187134  0.107082  1
  Zn  Zn7  1  0.184686  0.815314  0.892078  1
  Zn  Zn8  1  0.651185  0.348815  0.478386  1
  Zn  Zn9  1  0.341387  0.658613  0.520445  1
  Zn  Zn10  1  0.651185  0.348815  0.021614  1
  Zn  Zn11  1  0.341387  0.658613  0.979555  1
  Zn  Zn12  1  0.602456  0.397544  0.750000  1
  Cd  Cd13  1  0.407237  0.592763  0.250000  1
  Si  Si14  1  0.565861  0.434139  0.250000  1
  Sn  Sn15  1  0.443689  0.556311  0.750000  1
