# generated using pymatgen
data_CaPr2Si3As3Pd20
_symmetry_space_group_name_H-M   'P 1'
_cell_length_a   8.82660447
_cell_length_b   8.86294724
_cell_length_c   8.90131125
_cell_angle_alpha   59.58638348
_cell_angle_beta   59.99069077
_cell_angle_gamma   60.42292842
_symmetry_Int_Tables_number   1
_chemical_formula_structural   CaPr2Si3As3Pd20
_chemical_formula_sum   'Ca1 Pr2 Si3 As3 Pd20'
_cell_volume   492.33929941
_cell_formula_units_Z   1
loop_
 _symmetry_equiv_pos_site_id
 _symmetry_equiv_pos_as_xyz
  1  'x, y, z'
loop_
 _atom_site_type_symbol
 _atom_site_label
 _atom_site_symmetry_multiplicity
 _atom_site_fract_x
 _atom_site_fract_y
 _atom_site_fract_z
 _atom_site_occupancy
  Ca  Ca0  1  0.999663  0.000337  0.999663  1
  Pr  Pr1  1  0.249739  0.250261  0.249739  1
  Pr  Pr2  1  0.749739  0.750261  0.749739  1
  Si  Si3  1  0.734606  0.265394  0.734606  1
  Si  Si4  1  0.264471  0.264479  0.735521  1
  Si  Si5  1  0.735521  0.735529  0.264471  1
  As  As6  1  0.736075  0.263925  0.263144  1
  As  As7  1  0.263144  0.736856  0.736075  1
  As  As8  1  0.263007  0.736993  0.263007  1
  Pd  Pd9  1  0.382779  0.381617  0.391255  1
  Pd  Pd10  1  0.619465  0.611448  0.612781  1
  Pd  Pd11  1  0.388552  0.380535  0.843695  1
  Pd  Pd12  1  0.391255  0.844351  0.382779  1
  Pd  Pd13  1  0.618383  0.617221  0.155649  1
  Pd  Pd14  1  0.612781  0.156305  0.619465  1
  Pd  Pd15  1  0.843695  0.387219  0.388552  1
  Pd  Pd16  1  0.155649  0.608745  0.618383  1
  Pd  Pd17  1  0.349667  0.006784  0.993216  1
  Pd  Pd18  1  0.654312  0.999441  0.000559  1
  Pd  Pd19  1  0.000559  0.345688  0.654312  1
  Pd  Pd20  1  0.993216  0.650333  0.349667  1
  Pd  Pd21  1  0.006459  0.348874  0.991777  1
  Pd  Pd22  1  0.651126  0.993541  0.347111  1
  Pd  Pd23  1  0.991777  0.652889  0.006459  1
  Pd  Pd24  1  0.347111  0.008223  0.651126  1
  Pd  Pd25  1  0.000510  0.999490  0.350397  1
  Pd  Pd26  1  0.992772  0.007228  0.653568  1
  Pd  Pd27  1  0.653568  0.346432  0.992772  1
  Pd  Pd28  1  0.350397  0.649603  0.000510  1
