# generated using pymatgen
data_Ho4Al24Pd8Pt
_symmetry_space_group_name_H-M   'P 1'
_cell_length_a   7.53247516
_cell_length_b   7.56168795
_cell_length_c   13.17570252
_cell_angle_alpha   84.59407783
_cell_angle_beta   79.12326004
_cell_angle_gamma   60.00080990
_symmetry_Int_Tables_number   1
_chemical_formula_structural   Ho4Al24Pd8Pt
_chemical_formula_sum   'Ho4 Al24 Pd8 Pt1'
_cell_volume   638.25107283
_cell_formula_units_Z   1
loop_
 _symmetry_equiv_pos_site_id
 _symmetry_equiv_pos_as_xyz
  1  'x, y, z'
loop_
 _atom_site_type_symbol
 _atom_site_label
 _atom_site_symmetry_multiplicity
 _atom_site_fract_x
 _atom_site_fract_y
 _atom_site_fract_z
 _atom_site_occupancy
  Ho  Ho0  1  0.393288  0.168752  0.808285  1
  Ho  Ho1  1  0.606740  0.831150  0.191915  1
  Ho  Ho2  1  0.733825  0.498514  0.808085  1
  Ho  Ho3  1  0.266251  0.501361  0.192079  1
  Al  Al4  1  0.684557  0.833760  0.944592  1
  Al  Al5  1  0.315558  0.166186  0.055501  1
  Al  Al6  1  0.146441  0.832663  0.561513  1
  Al  Al7  1  0.854031  0.166954  0.438350  1
  Al  Al8  1  0.479486  0.166586  0.558686  1
  Al  Al9  1  0.520405  0.833257  0.441124  1
  Al  Al10  1  0.217085  0.165623  0.329737  1
  Al  Al11  1  0.783067  0.834864  0.670350  1
  Al  Al12  1  0.437206  0.506563  0.670457  1
  Al  Al13  1  0.562992  0.493307  0.329656  1
  Al  Al14  1  0.109326  0.159627  0.669424  1
  Al  Al15  1  0.890114  0.840094  0.330597  1
  Al  Al16  1  0.353136  0.499337  0.944771  1
  Al  Al17  1  0.646971  0.500449  0.055294  1
  Al  Al18  1  0.015394  0.167722  0.953300  1
  Al  Al19  1  0.984493  0.832327  0.046829  1
  Al  Al20  1  0.186869  0.499625  0.441061  1
  Al  Al21  1  0.813264  0.500762  0.558787  1
  Al  Al22  1  0.733441  0.164004  0.183566  1
  Al  Al23  1  0.266368  0.836077  0.816418  1
  Al  Al24  1  0.061770  0.630830  0.815265  1
  Al  Al25  1  0.938002  0.369460  0.184719  1
  Al  Al26  1  0.854853  0.041990  0.815847  1
  Al  Al27  1  0.144599  0.958639  0.183788  1
  Pd  Pd28  1  0.119758  0.492362  0.638713  1
  Pd  Pd29  1  0.880329  0.507527  0.361238  1
  Pd  Pd30  1  0.657133  0.171220  0.999797  1
  Pd  Pd31  1  0.342898  0.828630  0.000373  1
  Pd  Pd32  1  0.538199  0.166901  0.361190  1
  Pd  Pd33  1  0.461795  0.833134  0.638735  1
  Pd  Pd34  1  0.778703  0.174725  0.637338  1
  Pd  Pd35  1  0.000068  0.499990  0.000013  1
  Pt  Pt36  1  0.221583  0.825032  0.362610  1
