# generated using pymatgen
data_Tb19Dy(IrPt5)2
_symmetry_space_group_name_H-M   'P 1'
_cell_length_a   11.10156400
_cell_length_b   11.10139300
_cell_length_c   6.45087900
_cell_angle_alpha   90.00000000
_cell_angle_beta   90.00000000
_cell_angle_gamma   90.00027870
_symmetry_Int_Tables_number   1
_chemical_formula_structural   Tb19Dy(IrPt5)2
_chemical_formula_sum   'Tb19 Dy1 Ir2 Pt10'
_cell_volume   795.02455091
_cell_formula_units_Z   1
loop_
 _symmetry_equiv_pos_site_id
 _symmetry_equiv_pos_as_xyz
  1  'x, y, z'
loop_
 _atom_site_type_symbol
 _atom_site_label
 _atom_site_symmetry_multiplicity
 _atom_site_fract_x
 _atom_site_fract_y
 _atom_site_fract_z
 _atom_site_occupancy
  Tb  Tb0  1  0.292635  0.088632  0.377172  1
  Tb  Tb1  1  0.292635  0.911375  0.877178  1
  Tb  Tb2  1  0.707365  0.088625  0.877178  1
  Tb  Tb3  1  0.707365  0.911368  0.377172  1
  Tb  Tb4  1  0.588621  0.792591  0.877160  1
  Tb  Tb5  1  0.588607  0.207457  0.377238  1
  Tb  Tb6  1  0.411393  0.792543  0.377238  1
  Tb  Tb7  1  0.411379  0.207409  0.877160  1
  Tb  Tb8  1  0.205127  0.412072  0.623295  1
  Tb  Tb9  1  0.205077  0.587947  0.123375  1
  Tb  Tb10  1  0.794923  0.412053  0.123375  1
  Tb  Tb11  1  0.794873  0.587928  0.623295  1
  Tb  Tb12  1  0.912057  0.705026  0.123357  1
  Tb  Tb13  1  0.912049  0.294970  0.623372  1
  Tb  Tb14  1  0.087951  0.705030  0.623372  1
  Tb  Tb15  1  0.087943  0.294974  0.123357  1
  Tb  Tb16  1  0.000000  0.000000  0.500451  1
  Tb  Tb17  1  0.000000  0.000000  0.000458  1
  Tb  Tb18  1  0.500000  0.500000  0.000454  1
  Dy  Dy19  1  0.500000  0.500000  0.500456  1
  Ir  Ir20  1  0.000000  0.500000  0.877954  1
  Ir  Ir21  1  0.000000  0.500000  0.377986  1
  Pt  Pt22  1  0.845900  0.153013  0.249917  1
  Pt  Pt23  1  0.845899  0.846984  0.749898  1
  Pt  Pt24  1  0.154101  0.153016  0.749898  1
  Pt  Pt25  1  0.154100  0.846987  0.249917  1
  Pt  Pt26  1  0.652867  0.346038  0.749662  1
  Pt  Pt27  1  0.652878  0.653954  0.250157  1
  Pt  Pt28  1  0.347122  0.346046  0.250157  1
  Pt  Pt29  1  0.347133  0.653962  0.749662  1
  Pt  Pt30  1  0.500000  0.000000  0.119342  1
  Pt  Pt31  1  0.500000  0.000000  0.619339  1
