# generated using pymatgen
data_ZnHg4(AsI2)2
_symmetry_space_group_name_H-M   'P 1'
_cell_length_a   13.64921500
_cell_length_b   8.14988992
_cell_length_c   8.23243663
_cell_angle_alpha   62.43599173
_cell_angle_beta   90.00000000
_cell_angle_gamma   90.00000000
_symmetry_Int_Tables_number   1
_chemical_formula_structural   ZnHg4(AsI2)2
_chemical_formula_sum   'Zn2 Hg8 As4 I8'
_cell_volume   811.82762905
_cell_formula_units_Z   2
loop_
 _symmetry_equiv_pos_site_id
 _symmetry_equiv_pos_as_xyz
  1  'x, y, z'
loop_
 _atom_site_type_symbol
 _atom_site_label
 _atom_site_symmetry_multiplicity
 _atom_site_fract_x
 _atom_site_fract_y
 _atom_site_fract_z
 _atom_site_occupancy
  Zn  Zn0  1  0.841661  0.993144  0.007177  1
  Zn  Zn1  1  0.341661  0.006856  0.992823  1
  Hg  Hg2  1  0.791982  0.674716  0.666965  1
  Hg  Hg3  1  0.549424  0.027251  0.578425  1
  Hg  Hg4  1  0.049424  0.972749  0.421575  1
  Hg  Hg5  1  0.552168  0.519015  0.052680  1
  Hg  Hg6  1  0.291982  0.325284  0.333035  1
  Hg  Hg7  1  0.024083  0.472548  0.448697  1
  Hg  Hg8  1  0.524083  0.527452  0.551303  1
  Hg  Hg9  1  0.052168  0.480985  0.947320  1
  As  As10  1  0.477688  0.350009  0.374299  1
  As  As11  1  0.606402  0.690120  0.716882  1
  As  As12  1  0.977688  0.649991  0.625701  1
  As  As13  1  0.106402  0.309880  0.283118  1
  I  I14  1  0.243606  0.305781  0.762078  1
  I  I15  1  0.314676  0.729003  0.917176  1
  I  I16  1  0.029781  0.893097  0.062249  1
  I  I17  1  0.743606  0.694219  0.237922  1
  I  I18  1  0.529781  0.106903  0.937751  1
  I  I19  1  0.814676  0.270997  0.082824  1
  I  I20  1  0.807259  0.103928  0.656324  1
  I  I21  1  0.307259  0.896072  0.343676  1
