# generated using pymatgen
data_Ti3Nb3(Fe5B2)2
_symmetry_space_group_name_H-M   'P 1'
_cell_length_a   8.73507453
_cell_length_b   8.73507415
_cell_length_c   2.91784100
_cell_angle_alpha   90.00000000
_cell_angle_beta   90.00000000
_cell_angle_gamma   89.80450652
_symmetry_Int_Tables_number   1
_chemical_formula_structural   Ti3Nb3(Fe5B2)2
_chemical_formula_sum   'Ti3 Nb3 Fe10 B4'
_cell_volume   222.63441820
_cell_formula_units_Z   1
loop_
 _symmetry_equiv_pos_site_id
 _symmetry_equiv_pos_as_xyz
  1  'x, y, z'
loop_
 _atom_site_type_symbol
 _atom_site_label
 _atom_site_symmetry_multiplicity
 _atom_site_fract_x
 _atom_site_fract_y
 _atom_site_fract_z
 _atom_site_occupancy
  Ti  Ti0  1  0.823673  0.676327  0.000000  1
  Ti  Ti1  1  0.501799  0.500802  0.000000  1
  Ti  Ti2  1  0.999198  0.998201  0.000000  1
  Nb  Nb3  1  0.174864  0.325136  0.000000  1
  Nb  Nb4  1  0.324024  0.822723  0.000000  1
  Nb  Nb5  1  0.677277  0.175976  0.000000  1
  Fe  Fe6  1  0.570307  0.719252  0.500000  1
  Fe  Fe7  1  0.431129  0.280099  0.500000  1
  Fe  Fe8  1  0.067481  0.779811  0.500000  1
  Fe  Fe9  1  0.932200  0.220631  0.500000  1
  Fe  Fe10  1  0.279369  0.567800  0.500000  1
  Fe  Fe11  1  0.720189  0.432519  0.500000  1
  Fe  Fe12  1  0.219901  0.068871  0.500000  1
  Fe  Fe13  1  0.780748  0.929693  0.500000  1
  Fe  Fe14  1  0.500620  0.999380  0.500000  1
  Fe  Fe15  1  0.997414  0.502586  0.500000  1
  B  B16  1  0.623419  0.876581  0.000000  1
  B  B17  1  0.379205  0.120795  0.000000  1
  B  B18  1  0.119025  0.621843  0.000000  1
  B  B19  1  0.878157  0.380975  0.000000  1
