# generated using pymatgen
data_Ho5Tm11(Ga3Co)2
_symmetry_space_group_name_H-M   'P 1'
_cell_length_a   9.89320300
_cell_length_b   9.89320351
_cell_length_c   6.88306900
_cell_angle_alpha   90.00000000
_cell_angle_beta   90.00000000
_cell_angle_gamma   119.99999495
_symmetry_Int_Tables_number   1
_chemical_formula_structural   Ho5Tm11(Ga3Co)2
_chemical_formula_sum   'Ho5 Tm11 Ga6 Co2'
_cell_volume   583.42715683
_cell_formula_units_Z   1
loop_
 _symmetry_equiv_pos_site_id
 _symmetry_equiv_pos_as_xyz
  1  'x, y, z'
loop_
 _atom_site_type_symbol
 _atom_site_label
 _atom_site_symmetry_multiplicity
 _atom_site_fract_x
 _atom_site_fract_y
 _atom_site_fract_z
 _atom_site_occupancy
  Ho  Ho0  1  0.535340  0.464660  0.708073  1
  Ho  Ho1  1  0.929320  0.464660  0.708073  1
  Ho  Ho2  1  0.535340  0.070680  0.708073  1
  Ho  Ho3  1  0.000000  0.000000  0.230760  1
  Ho  Ho4  1  0.000000  0.000000  0.730854  1
  Tm  Tm5  1  0.173924  0.826076  0.509451  1
  Tm  Tm6  1  0.652149  0.826076  0.509451  1
  Tm  Tm7  1  0.173924  0.347851  0.509451  1
  Tm  Tm8  1  0.826186  0.173814  0.012663  1
  Tm  Tm9  1  0.347630  0.173814  0.012663  1
  Tm  Tm10  1  0.826186  0.652370  0.012663  1
  Tm  Tm11  1  0.333333  0.666667  0.828647  1
  Tm  Tm12  1  0.666667  0.333333  0.327725  1
  Tm  Tm13  1  0.463500  0.536500  0.207248  1
  Tm  Tm14  1  0.072997  0.536500  0.207248  1
  Tm  Tm15  1  0.463500  0.927003  0.207248  1
  Ga  Ga16  1  0.163830  0.836170  0.959892  1
  Ga  Ga17  1  0.672341  0.836170  0.959892  1
  Ga  Ga18  1  0.163830  0.327659  0.959892  1
  Ga  Ga19  1  0.836453  0.163547  0.458650  1
  Ga  Ga20  1  0.327095  0.163547  0.458650  1
  Ga  Ga21  1  0.836453  0.672905  0.458650  1
  Co  Co22  1  0.333333  0.666667  0.443251  1
  Co  Co23  1  0.666667  0.333333  0.944872  1
