# generated using pymatgen
data_TmLu15Cd4Ru3Pt
_symmetry_space_group_name_H-M   'P 1'
_cell_length_a   9.42892592
_cell_length_b   9.46757921
_cell_length_c   9.48865300
_cell_angle_alpha   59.92634429
_cell_angle_beta   59.79023937
_cell_angle_gamma   59.67123051
_symmetry_Int_Tables_number   1
_chemical_formula_structural   TmLu15Cd4Ru3Pt
_chemical_formula_sum   'Tm1 Lu15 Cd4 Ru3 Pt1'
_cell_volume   596.16964070
_cell_formula_units_Z   1
loop_
 _symmetry_equiv_pos_site_id
 _symmetry_equiv_pos_as_xyz
  1  'x, y, z'
loop_
 _atom_site_type_symbol
 _atom_site_label
 _atom_site_symmetry_multiplicity
 _atom_site_fract_x
 _atom_site_fract_y
 _atom_site_fract_z
 _atom_site_occupancy
  Tm  Tm0  1  0.936914  0.938902  0.562093  1
  Lu  Lu1  1  0.346644  0.350583  0.349808  1
  Lu  Lu2  1  0.346644  0.350583  0.952965  1
  Lu  Lu3  1  0.347149  0.953269  0.349791  1
  Lu  Lu4  1  0.962915  0.345887  0.345600  1
  Lu  Lu5  1  0.814531  0.189526  0.189393  1
  Lu  Lu6  1  0.186746  0.811340  0.812359  1
  Lu  Lu7  1  0.186746  0.811340  0.189555  1
  Lu  Lu8  1  0.814531  0.189526  0.806551  1
  Lu  Lu9  1  0.187024  0.189111  0.811932  1
  Lu  Lu10  1  0.814448  0.805980  0.189786  1
  Lu  Lu11  1  0.936955  0.561802  0.561963  1
  Lu  Lu12  1  0.557977  0.938218  0.938098  1
  Lu  Lu13  1  0.557977  0.938218  0.565707  1
  Lu  Lu14  1  0.936955  0.561802  0.939281  1
  Lu  Lu15  1  0.558007  0.565392  0.938300  1
  Cd  Cd16  1  0.580129  0.580292  0.580307  1
  Cd  Cd17  1  0.580129  0.580292  0.259273  1
  Cd  Cd18  1  0.579982  0.259410  0.580304  1
  Cd  Cd19  1  0.255312  0.581469  0.581610  1
  Ru  Ru20  1  0.145731  0.139518  0.138571  1
  Ru  Ru21  1  0.145731  0.139518  0.576180  1
  Ru  Ru22  1  0.145916  0.576065  0.139010  1
  Pt  Pt23  1  0.574911  0.141958  0.141566  1
