# generated using pymatgen
data_NdSmB4Ru3Rh
_symmetry_space_group_name_H-M   'P 1'
_cell_length_a   6.80585661
_cell_length_b   5.99408220
_cell_length_c   5.58579321
_cell_angle_alpha   71.89420129
_cell_angle_beta   56.83663339
_cell_angle_gamma   51.47531933
_symmetry_Int_Tables_number   1
_chemical_formula_structural   NdSmB4Ru3Rh
_chemical_formula_sum   'Nd1 Sm1 B4 Ru3 Rh1'
_cell_volume   149.07887815
_cell_formula_units_Z   1
loop_
 _symmetry_equiv_pos_site_id
 _symmetry_equiv_pos_as_xyz
  1  'x, y, z'
loop_
 _atom_site_type_symbol
 _atom_site_label
 _atom_site_symmetry_multiplicity
 _atom_site_fract_x
 _atom_site_fract_y
 _atom_site_fract_z
 _atom_site_occupancy
  Nd  Nd0  1  0.000194  0.000194  0.999806  1
  Sm  Sm1  1  0.248593  0.248593  0.251407  1
  B  B2  1  0.679420  0.318180  0.678266  1
  B  B3  1  0.318180  0.679420  0.324134  1
  B  B4  1  0.936370  0.568966  0.936575  1
  B  B5  1  0.568966  0.936370  0.558090  1
  Ru  Ru6  1  0.636329  0.636329  0.363671  1
  Ru  Ru7  1  0.363316  0.363316  0.636684  1
  Ru  Ru8  1  0.884570  0.884570  0.615430  1
  Rh  Rh9  1  0.614063  0.614063  0.885937  1
