# generated using pymatgen
data_Y10Os2RuRh
_symmetry_space_group_name_H-M   'P 1'
_cell_length_a   6.41222836
_cell_length_b   7.36748953
_cell_length_c   8.51589126
_cell_angle_alpha   96.80104837
_cell_angle_beta   112.20278380
_cell_angle_gamma   90.12157947
_symmetry_Int_Tables_number   1
_chemical_formula_structural   Y10Os2RuRh
_chemical_formula_sum   'Y10 Os2 Ru1 Rh1'
_cell_volume   369.37569274
_cell_formula_units_Z   1
loop_
 _symmetry_equiv_pos_site_id
 _symmetry_equiv_pos_as_xyz
  1  'x, y, z'
loop_
 _atom_site_type_symbol
 _atom_site_label
 _atom_site_symmetry_multiplicity
 _atom_site_fract_x
 _atom_site_fract_y
 _atom_site_fract_z
 _atom_site_occupancy
  Y  Y0  1  0.978467  0.914987  0.184225  1
  Y  Y1  1  0.792533  0.586454  0.816957  1
  Y  Y2  1  0.020140  0.082413  0.814712  1
  Y  Y3  1  0.207765  0.414433  0.188834  1
  Y  Y4  1  0.642632  0.816030  0.435308  1
  Y  Y5  1  0.206294  0.685921  0.562891  1
  Y  Y6  1  0.359648  0.181734  0.563492  1
  Y  Y7  1  0.789861  0.315841  0.432075  1
  Y  Y8  1  0.424963  0.752390  0.002049  1
  Y  Y9  1  0.579873  0.249148  0.000598  1
  Os  Os10  1  0.823906  0.575743  0.220268  1
  Os  Os11  1  0.602288  0.923071  0.779998  1
  Ru  Ru12  1  0.395005  0.078286  0.220230  1
  Rh  Rh13  1  0.176626  0.423549  0.778363  1
