# generated using pymatgen
data_Ta3TiCo4Si7
_symmetry_space_group_name_H-M   'P 1'
_cell_length_a   9.19536364
_cell_length_b   9.19541089
_cell_length_c   9.19536371
_cell_angle_alpha   94.22617935
_cell_angle_beta   94.18827200
_cell_angle_gamma   148.56883458
_symmetry_Int_Tables_number   1
_chemical_formula_structural   Ta3TiCo4Si7
_chemical_formula_sum   'Ta6 Ti2 Co8 Si14'
_cell_volume   390.29825428
_cell_formula_units_Z   2
loop_
 _symmetry_equiv_pos_site_id
 _symmetry_equiv_pos_as_xyz
  1  'x, y, z'
loop_
 _atom_site_type_symbol
 _atom_site_label
 _atom_site_symmetry_multiplicity
 _atom_site_fract_x
 _atom_site_fract_y
 _atom_site_fract_z
 _atom_site_occupancy
  Ta  Ta0  1  0.133276  0.133382  0.266561  1
  Ta  Ta1  1  0.866724  0.866618  0.733439  1
  Ta  Ta2  1  0.866821  0.133382  0.000106  1
  Ta  Ta3  1  0.133179  0.866618  0.999894  1
  Ta  Ta4  1  0.499995  0.689614  0.189620  1
  Ta  Ta5  1  0.500005  0.310386  0.810380  1
  Ti  Ti6  1  0.308949  0.500000  0.808949  1
  Ti  Ti7  1  0.691051  0.500000  0.191051  1
  Co  Co8  1  0.399551  0.899856  0.798371  1
  Co  Co9  1  0.101461  0.601139  0.201604  1
  Co  Co10  1  0.101485  0.899856  0.500305  1
  Co  Co11  1  0.399535  0.601139  0.499678  1
  Co  Co12  1  0.600465  0.398861  0.500322  1
  Co  Co13  1  0.898515  0.100144  0.499695  1
  Co  Co14  1  0.898539  0.398861  0.798396  1
  Co  Co15  1  0.600449  0.100144  0.201629  1
  Si  Si16  1  0.291961  0.293330  0.585384  1
  Si  Si17  1  0.708039  0.706670  0.414616  1
  Si  Si18  1  0.707946  0.293330  0.001369  1
  Si  Si19  1  0.292054  0.706670  0.998631  1
  Si  Si20  1  0.999971  0.297424  0.297453  1
  Si  Si21  1  0.000029  0.702576  0.702547  1
  Si  Si22  1  0.703873  0.000000  0.703873  1
  Si  Si23  1  0.296127  0.000000  0.296127  1
  Si  Si24  1  0.500019  0.906242  0.406222  1
  Si  Si25  1  0.499981  0.093758  0.593778  1
  Si  Si26  1  0.094442  0.500000  0.594442  1
  Si  Si27  1  0.905558  0.500000  0.405558  1
  Si  Si28  1  0.749628  0.749629  0.000002  1
  Si  Si29  1  0.250372  0.250371  0.999998  1
