# generated using pymatgen
data_Y7ErCdInPd2
_symmetry_space_group_name_H-M   'P 1'
_cell_length_a   9.73115261
_cell_length_b   9.73115276
_cell_length_c   9.74515700
_cell_angle_alpha   59.95238644
_cell_angle_beta   59.95238594
_cell_angle_gamma   59.95628370
_symmetry_Int_Tables_number   1
_chemical_formula_structural   Y7ErCdInPd2
_chemical_formula_sum   'Y14 Er2 Cd2 In2 Pd4'
_cell_volume   651.84749813
_cell_formula_units_Z   2
loop_
 _symmetry_equiv_pos_site_id
 _symmetry_equiv_pos_as_xyz
  1  'x, y, z'
loop_
 _atom_site_type_symbol
 _atom_site_label
 _atom_site_symmetry_multiplicity
 _atom_site_fract_x
 _atom_site_fract_y
 _atom_site_fract_z
 _atom_site_occupancy
  Y  Y0  1  0.354235  0.938196  0.353784  1
  Y  Y1  1  0.938196  0.354235  0.353784  1
  Y  Y2  1  0.809492  0.190628  0.189958  1
  Y  Y3  1  0.190628  0.809492  0.809921  1
  Y  Y4  1  0.190628  0.809492  0.189958  1
  Y  Y5  1  0.809492  0.190628  0.809921  1
  Y  Y6  1  0.189380  0.189380  0.810620  1
  Y  Y7  1  0.808933  0.808933  0.191067  1
  Y  Y8  1  0.937414  0.564962  0.564449  1
  Y  Y9  1  0.564962  0.937414  0.933175  1
  Y  Y10  1  0.564962  0.937414  0.564449  1
  Y  Y11  1  0.937414  0.564962  0.933175  1
  Y  Y12  1  0.565041  0.565041  0.934959  1
  Y  Y13  1  0.936068  0.936068  0.563932  1
  Er  Er14  1  0.352534  0.352534  0.352579  1
  Er  Er15  1  0.352534  0.352534  0.942352  1
  Cd  Cd16  1  0.581077  0.251397  0.583764  1
  Cd  Cd17  1  0.251397  0.581077  0.583764  1
  In  In18  1  0.582115  0.582115  0.584469  1
  In  In19  1  0.582115  0.582115  0.251300  1
  Pd  Pd20  1  0.145226  0.145226  0.143739  1
  Pd  Pd21  1  0.145226  0.145226  0.565808  1
  Pd  Pd22  1  0.146230  0.564695  0.144537  1
  Pd  Pd23  1  0.564695  0.146230  0.144537  1
