# generated using pymatgen
data_Ga12ReTcRh2
_symmetry_space_group_name_H-M   'P 1'
_cell_length_a   6.58239317
_cell_length_b   6.58239260
_cell_length_c   6.79175500
_cell_angle_alpha   90.00000000
_cell_angle_beta   90.00000000
_cell_angle_gamma   89.65216190
_symmetry_Int_Tables_number   1
_chemical_formula_structural   Ga12ReTcRh2
_chemical_formula_sum   'Ga12 Re1 Tc1 Rh2'
_cell_volume   294.26703223
_cell_formula_units_Z   1
loop_
 _symmetry_equiv_pos_site_id
 _symmetry_equiv_pos_as_xyz
  1  'x, y, z'
loop_
 _atom_site_type_symbol
 _atom_site_label
 _atom_site_symmetry_multiplicity
 _atom_site_fract_x
 _atom_site_fract_y
 _atom_site_fract_z
 _atom_site_occupancy
  Ga  Ga0  1  0.999391  0.498646  0.500000  1
  Ga  Ga1  1  0.500229  0.000111  0.000000  1
  Ga  Ga2  1  0.501354  0.000609  0.500000  1
  Ga  Ga3  1  0.999889  0.499771  0.000000  1
  Ga  Ga4  1  0.347839  0.652161  0.238304  1
  Ga  Ga5  1  0.652798  0.347202  0.239018  1
  Ga  Ga6  1  0.157277  0.157741  0.731885  1
  Ga  Ga7  1  0.842259  0.842723  0.731885  1
  Ga  Ga8  1  0.652798  0.347202  0.760982  1
  Ga  Ga9  1  0.347839  0.652161  0.761696  1
  Ga  Ga10  1  0.842259  0.842723  0.268115  1
  Ga  Ga11  1  0.157277  0.157741  0.268115  1
  Re  Re12  1  0.160418  0.839582  0.500000  1
  Tc  Tc13  1  0.838695  0.161305  0.500000  1
  Rh  Rh14  1  0.342315  0.342638  0.000000  1
  Rh  Rh15  1  0.657362  0.657685  0.000000  1
