# generated using pymatgen
data_Y8HoThIr4
_symmetry_space_group_name_H-M   'P 1'
_cell_length_a   6.51483198
_cell_length_b   7.24376335
_cell_length_c   8.66808735
_cell_angle_alpha   96.96851043
_cell_angle_beta   112.07339883
_cell_angle_gamma   90.00000407
_symmetry_Int_Tables_number   1
_chemical_formula_structural   Y8HoThIr4
_chemical_formula_sum   'Y8 Ho1 Th1 Ir4'
_cell_volume   375.81771273
_cell_formula_units_Z   1
loop_
 _symmetry_equiv_pos_site_id
 _symmetry_equiv_pos_as_xyz
  1  'x, y, z'
loop_
 _atom_site_type_symbol
 _atom_site_label
 _atom_site_symmetry_multiplicity
 _atom_site_fract_x
 _atom_site_fract_y
 _atom_site_fract_z
 _atom_site_occupancy
  Y  Y0  1  0.976861  0.921325  0.185961  1
  Y  Y1  1  0.790901  0.578675  0.814039  1
  Y  Y2  1  0.019536  0.085643  0.815480  1
  Y  Y3  1  0.204055  0.414357  0.184520  1
  Y  Y4  1  0.658604  0.816018  0.445615  1
  Y  Y5  1  0.212990  0.683982  0.554385  1
  Y  Y6  1  0.352174  0.184304  0.561619  1
  Y  Y7  1  0.790555  0.315696  0.438381  1
  Ho  Ho8  1  0.569966  0.250000  0.000000  1
  Th  Th9  1  0.423334  0.750000  0.000000  1
  Ir  Ir10  1  0.815004  0.574733  0.215813  1
  Ir  Ir11  1  0.599192  0.925267  0.784187  1
  Ir  Ir12  1  0.184840  0.431012  0.782850  1
  Ir  Ir13  1  0.401988  0.068988  0.217150  1
