# generated using pymatgen
data_La4Pr12Cd3InIr4
_symmetry_space_group_name_H-M   'P 1'
_cell_length_a   10.07817067
_cell_length_b   10.07814729
_cell_length_c   10.07793500
_cell_angle_alpha   60.00336634
_cell_angle_beta   60.00659787
_cell_angle_gamma   59.99790997
_symmetry_Int_Tables_number   1
_chemical_formula_structural   La4Pr12Cd3InIr4
_chemical_formula_sum   'La4 Pr12 Cd3 In1 Ir4'
_cell_volume   723.84370706
_cell_formula_units_Z   1
loop_
 _symmetry_equiv_pos_site_id
 _symmetry_equiv_pos_as_xyz
  1  'x, y, z'
loop_
 _atom_site_type_symbol
 _atom_site_label
 _atom_site_symmetry_multiplicity
 _atom_site_fract_x
 _atom_site_fract_y
 _atom_site_fract_z
 _atom_site_occupancy
  La  La0  1  0.346763  0.346784  0.346662  1
  La  La1  1  0.348471  0.348468  0.956254  1
  La  La2  1  0.348384  0.956284  0.348473  1
  La  La3  1  0.956261  0.348377  0.348508  1
  Pr  Pr4  1  0.810517  0.189065  0.189138  1
  Pr  Pr5  1  0.190023  0.808367  0.808391  1
  Pr  Pr6  1  0.189086  0.810526  0.189111  1
  Pr  Pr7  1  0.808372  0.190006  0.808391  1
  Pr  Pr8  1  0.189099  0.189085  0.810514  1
  Pr  Pr9  1  0.808399  0.808397  0.190020  1
  Pr  Pr10  1  0.940994  0.561947  0.561940  1
  Pr  Pr11  1  0.561253  0.938575  0.938551  1
  Pr  Pr12  1  0.561947  0.940979  0.561937  1
  Pr  Pr13  1  0.938554  0.561279  0.938548  1
  Pr  Pr14  1  0.562054  0.562071  0.940899  1
  Pr  Pr15  1  0.938511  0.938490  0.561281  1
  Cd  Cd16  1  0.579451  0.579454  0.259939  1
  Cd  Cd17  1  0.579438  0.259943  0.579459  1
  Cd  Cd18  1  0.259942  0.579440  0.579458  1
  In  In19  1  0.580580  0.580577  0.580559  1
  Ir  Ir20  1  0.142236  0.142228  0.142251  1
  Ir  Ir21  1  0.142886  0.142884  0.573930  1
  Ir  Ir22  1  0.142864  0.573907  0.142891  1
  Ir  Ir23  1  0.573910  0.142867  0.142891  1
