# generated using pymatgen
data_Pr16Cd4Co3Tc
_symmetry_space_group_name_H-M   'P 1'
_cell_length_a   9.98325567
_cell_length_b   9.87859366
_cell_length_c   9.87859400
_cell_angle_alpha   59.99999885
_cell_angle_beta   60.34619695
_cell_angle_gamma   60.34619147
_symmetry_Int_Tables_number   1
_chemical_formula_structural   Pr16Cd4Co3Tc
_chemical_formula_sum   'Pr16 Cd4 Co3 Tc1'
_cell_volume   692.46891626
_cell_formula_units_Z   1
loop_
 _symmetry_equiv_pos_site_id
 _symmetry_equiv_pos_as_xyz
  1  'x, y, z'
loop_
 _atom_site_type_symbol
 _atom_site_label
 _atom_site_symmetry_multiplicity
 _atom_site_fract_x
 _atom_site_fract_y
 _atom_site_fract_z
 _atom_site_occupancy
  Pr  Pr0  1  0.342090  0.348091  0.348091  1
  Pr  Pr1  1  0.342090  0.348091  0.961727  1
  Pr  Pr2  1  0.342090  0.961727  0.348091  1
  Pr  Pr3  1  0.961394  0.346202  0.346202  1
  Pr  Pr4  1  0.814154  0.188837  0.188837  1
  Pr  Pr5  1  0.190485  0.810137  0.810137  1
  Pr  Pr6  1  0.190485  0.810137  0.189240  1
  Pr  Pr7  1  0.814154  0.188837  0.808173  1
  Pr  Pr8  1  0.190485  0.189240  0.810137  1
  Pr  Pr9  1  0.814154  0.808173  0.188837  1
  Pr  Pr10  1  0.937989  0.561753  0.561753  1
  Pr  Pr11  1  0.564912  0.939170  0.939170  1
  Pr  Pr12  1  0.564912  0.939170  0.556750  1
  Pr  Pr13  1  0.937989  0.561753  0.938506  1
  Pr  Pr14  1  0.564912  0.556750  0.939170  1
  Pr  Pr15  1  0.937989  0.938506  0.561753  1
  Cd  Cd16  1  0.580499  0.578566  0.578566  1
  Cd  Cd17  1  0.580499  0.578566  0.262368  1
  Cd  Cd18  1  0.580499  0.262368  0.578566  1
  Cd  Cd19  1  0.260577  0.579808  0.579808  1
  Co  Co20  1  0.134461  0.141159  0.141159  1
  Co  Co21  1  0.134461  0.141159  0.583223  1
  Co  Co22  1  0.134461  0.583223  0.141159  1
  Tc  Tc23  1  0.584263  0.138579  0.138579  1
