# generated using pymatgen
data_PrDyCI
_symmetry_space_group_name_H-M   'P 1'
_cell_length_a   3.82706300
_cell_length_b   3.82706207
_cell_length_c   15.31891000
_cell_angle_alpha   90.00000000
_cell_angle_beta   90.00000000
_cell_angle_gamma   119.99999936
_symmetry_Int_Tables_number   1
_chemical_formula_structural   PrDyCI
_chemical_formula_sum   'Pr2 Dy2 C2 I2'
_cell_volume   194.30752376
_cell_formula_units_Z   2
loop_
 _symmetry_equiv_pos_site_id
 _symmetry_equiv_pos_as_xyz
  1  'x, y, z'
loop_
 _atom_site_type_symbol
 _atom_site_label
 _atom_site_symmetry_multiplicity
 _atom_site_fract_x
 _atom_site_fract_y
 _atom_site_fract_z
 _atom_site_occupancy
  Pr  Pr0  1  0.333333  0.666667  0.413010  1
  Pr  Pr1  1  0.666667  0.333333  0.913010  1
  Dy  Dy2  1  0.666667  0.333333  0.585699  1
  Dy  Dy3  1  0.333333  0.666667  0.085699  1
  C  C4  1  0.000000  0.000000  0.508203  1
  C  C5  1  0.000000  0.000000  0.008203  1
  I  I6  1  0.666667  0.333333  0.243089  1
  I  I7  1  0.333333  0.666667  0.743089  1
