# generated using pymatgen
data_LiEr6Co17P12
_symmetry_space_group_name_H-M   'P 1'
_cell_length_a   3.69302400
_cell_length_b   10.51581200
_cell_length_c   12.14213300
_cell_angle_alpha   90.00000000
_cell_angle_beta   90.00000000
_cell_angle_gamma   90.00000000
_symmetry_Int_Tables_number   1
_chemical_formula_structural   LiEr6Co17P12
_chemical_formula_sum   'Li1 Er6 Co17 P12'
_cell_volume   471.54150897
_cell_formula_units_Z   1
loop_
 _symmetry_equiv_pos_site_id
 _symmetry_equiv_pos_as_xyz
  1  'x, y, z'
loop_
 _atom_site_type_symbol
 _atom_site_label
 _atom_site_symmetry_multiplicity
 _atom_site_fract_x
 _atom_site_fract_y
 _atom_site_fract_z
 _atom_site_occupancy
  Li  Li0  1  0.250000  0.250000  0.846568  1
  Er  Er1  1  0.750000  0.250000  0.477304  1
  Er  Er2  1  0.250000  0.750000  0.521842  1
  Er  Er3  1  0.250000  0.931128  0.793871  1
  Er  Er4  1  0.250000  0.568872  0.793871  1
  Er  Er5  1  0.750000  0.067519  0.205857  1
  Er  Er6  1  0.750000  0.432481  0.205857  1
  Co  Co7  1  0.750000  0.750000  0.159310  1
  Co  Co8  1  0.250000  0.250000  0.296694  1
  Co  Co9  1  0.750000  0.750000  0.702856  1
  Co  Co10  1  0.750000  0.250000  0.014840  1
  Co  Co11  1  0.250000  0.750000  0.986975  1
  Co  Co12  1  0.250000  0.418647  0.005104  1
  Co  Co13  1  0.250000  0.081353  0.005104  1
  Co  Co14  1  0.750000  0.584755  0.996016  1
  Co  Co15  1  0.750000  0.915245  0.996016  1
  Co  Co16  1  0.250000  0.453425  0.568239  1
  Co  Co17  1  0.250000  0.046575  0.568239  1
  Co  Co18  1  0.750000  0.547705  0.430022  1
  Co  Co19  1  0.750000  0.952295  0.430022  1
  Co  Co20  1  0.250000  0.870709  0.290816  1
  Co  Co21  1  0.250000  0.629291  0.290816  1
  Co  Co22  1  0.750000  0.127641  0.707264  1
  Co  Co23  1  0.750000  0.372359  0.707264  1
  P  P24  1  0.250000  0.250000  0.116859  1
  P  P25  1  0.750000  0.750000  0.882214  1
  P  P26  1  0.250000  0.250000  0.653624  1
  P  P27  1  0.750000  0.750000  0.344612  1
  P  P28  1  0.250000  0.439269  0.383224  1
  P  P29  1  0.250000  0.060731  0.383224  1
  P  P30  1  0.750000  0.561014  0.615534  1
  P  P31  1  0.750000  0.938986  0.615534  1
  P  P32  1  0.250000  0.902692  0.108133  1
  P  P33  1  0.250000  0.597308  0.108133  1
  P  P34  1  0.750000  0.093225  0.894070  1
  P  P35  1  0.750000  0.406775  0.894070  1
