# generated using pymatgen
data_DyTh(Fe4B)2
_symmetry_space_group_name_H-M   'P 1'
_cell_length_a   5.08936700
_cell_length_b   5.08952687
_cell_length_c   7.07414100
_cell_angle_alpha   90.00000000
_cell_angle_beta   90.00000000
_cell_angle_gamma   119.99895442
_symmetry_Int_Tables_number   1
_chemical_formula_structural   DyTh(Fe4B)2
_chemical_formula_sum   'Dy1 Th1 Fe8 B2'
_cell_volume   158.69019728
_cell_formula_units_Z   1
loop_
 _symmetry_equiv_pos_site_id
 _symmetry_equiv_pos_as_xyz
  1  'x, y, z'
loop_
 _atom_site_type_symbol
 _atom_site_label
 _atom_site_symmetry_multiplicity
 _atom_site_fract_x
 _atom_site_fract_y
 _atom_site_fract_z
 _atom_site_occupancy
  Dy  Dy0  1  0.999993  0.000000  0.500000  1
  Th  Th1  1  0.999977  0.000000  0.000000  1
  Fe  Fe2  1  0.333277  0.666612  0.000000  1
  Fe  Fe3  1  0.666664  0.333388  0.000000  1
  Fe  Fe4  1  0.499989  0.000000  0.290047  1
  Fe  Fe5  1  0.499986  0.500001  0.290056  1
  Fe  Fe6  1  0.999985  0.499999  0.290056  1
  Fe  Fe7  1  0.499989  0.000000  0.709953  1
  Fe  Fe8  1  0.499986  0.500001  0.709944  1
  Fe  Fe9  1  0.999985  0.499999  0.709944  1
  B  B10  1  0.333318  0.666666  0.500000  1
  B  B11  1  0.666651  0.333334  0.500000  1
