# generated using pymatgen
data_Tb3DyV2Pt2F28
_symmetry_space_group_name_H-M   'P 1'
_cell_length_a   5.54891001
_cell_length_b   8.89578897
_cell_length_c   11.92338073
_cell_angle_alpha   62.79763793
_cell_angle_beta   89.99290879
_cell_angle_gamma   89.99592783
_symmetry_Int_Tables_number   1
_chemical_formula_structural   Tb3DyV2Pt2F28
_chemical_formula_sum   'Tb3 Dy1 V2 Pt2 F28'
_cell_volume   523.46479625
_cell_formula_units_Z   1
loop_
 _symmetry_equiv_pos_site_id
 _symmetry_equiv_pos_as_xyz
  1  'x, y, z'
loop_
 _atom_site_type_symbol
 _atom_site_label
 _atom_site_symmetry_multiplicity
 _atom_site_fract_x
 _atom_site_fract_y
 _atom_site_fract_z
 _atom_site_occupancy
  Tb  Tb0  1  0.758445  0.811257  0.764327  1
  Tb  Tb1  1  0.258396  0.188407  0.735757  1
  Tb  Tb2  1  0.240157  0.190244  0.228621  1
  Dy  Dy3  1  0.739962  0.808699  0.271767  1
  V  V4  1  0.754581  0.274968  0.954560  1
  V  V5  1  0.254754  0.724980  0.544994  1
  Pt  Pt6  1  0.242890  0.729695  0.043745  1
  Pt  Pt7  1  0.743098  0.270883  0.456584  1
  F  F8  1  0.435539  0.701163  0.916202  1
  F  F9  1  0.935279  0.299004  0.584478  1
  F  F10  1  0.547844  0.290777  0.075138  1
  F  F11  1  0.047353  0.709148  0.424607  1
  F  F12  1  0.441975  0.282239  0.540589  1
  F  F13  1  0.942192  0.718072  0.959544  1
  F  F14  1  0.536249  0.717713  0.454005  1
  F  F15  1  0.035851  0.282523  0.045342  1
  F  F16  1  0.768959  0.507997  0.864798  1
  F  F17  1  0.269442  0.492186  0.634894  1
  F  F18  1  0.231447  0.482185  0.144390  1
  F  F19  1  0.731850  0.518358  0.355941  1
  F  F20  1  0.757504  0.045201  0.045811  1
  F  F21  1  0.257533  0.954937  0.453751  1
  F  F22  1  0.244489  0.977514  0.950168  1
  F  F23  1  0.744607  0.022915  0.549943  1
  F  F24  1  0.985781  0.726037  0.642947  1
  F  F25  1  0.485364  0.274147  0.856711  1
  F  F26  1  0.039403  0.266475  0.367501  1
  F  F27  1  0.539112  0.733757  0.133228  1
  F  F28  1  0.054117  0.752496  0.175219  1
  F  F29  1  0.555608  0.248269  0.324895  1
  F  F30  1  0.958445  0.258252  0.831198  1
  F  F31  1  0.458699  0.741963  0.668297  1
  F  F32  1  0.420240  0.970664  0.230803  1
  F  F33  1  0.918192  0.027246  0.269178  1
  F  F34  1  0.582278  0.029020  0.766903  1
  F  F35  1  0.082362  0.970608  0.733165  1
