# generated using pymatgen
data_Sr9LaNi(RuO5)4
_symmetry_space_group_name_H-M   'P 1'
_cell_length_a   8.90316047
_cell_length_b   8.90838540
_cell_length_c   8.88834648
_cell_angle_alpha   120.84313100
_cell_angle_beta   120.75251922
_cell_angle_gamma   88.70798250
_symmetry_Int_Tables_number   1
_chemical_formula_structural   Sr9LaNi(RuO5)4
_chemical_formula_sum   'Sr9 La1 Ni1 Ru4 O20'
_cell_volume   491.96077979
_cell_formula_units_Z   1
loop_
 _symmetry_equiv_pos_site_id
 _symmetry_equiv_pos_as_xyz
  1  'x, y, z'
loop_
 _atom_site_type_symbol
 _atom_site_label
 _atom_site_symmetry_multiplicity
 _atom_site_fract_x
 _atom_site_fract_y
 _atom_site_fract_z
 _atom_site_occupancy
  Sr  Sr0  1  0.356126  0.352591  0.999797  1
  Sr  Sr1  1  0.950803  0.561057  0.800311  1
  Sr  Sr2  1  0.563491  0.759650  0.612615  1
  Sr  Sr3  1  0.147879  0.952868  0.389947  1
  Sr  Sr4  1  0.644379  0.640521  0.996745  1
  Sr  Sr5  1  0.237098  0.852498  0.801814  1
  Sr  Sr6  1  0.855952  0.049410  0.617233  1
  Sr  Sr7  1  0.435443  0.243084  0.389268  1
  Sr  Sr8  1  0.050786  0.438461  0.195191  1
  La  La9  1  0.759344  0.141007  0.191697  1
  Ni  Ni10  1  0.002034  0.000787  0.999283  1
  Ru  Ru11  1  0.600374  0.200355  0.799324  1
  Ru  Ru12  1  0.198820  0.402769  0.600626  1
  Ru  Ru13  1  0.798978  0.597540  0.395917  1
  Ru  Ru14  1  0.403292  0.801264  0.203431  1
  O  O15  1  0.567324  0.966037  0.198282  1
  O  O16  1  0.166585  0.167801  0.999204  1
  O  O17  1  0.763011  0.364185  0.801342  1
  O  O18  1  0.362877  0.559315  0.598484  1
  O  O19  1  0.963098  0.763602  0.402769  1
  O  O20  1  0.827462  0.851836  0.015011  1
  O  O21  1  0.448781  0.038360  0.813817  1
  O  O22  1  0.025604  0.234486  0.585839  1
  O  O23  1  0.638863  0.430236  0.393836  1
  O  O24  1  0.240959  0.641098  0.200549  1
  O  O25  1  0.699901  0.395188  0.095911  1
  O  O26  1  0.301243  0.603272  0.903775  1
  O  O27  1  0.894761  0.791960  0.693586  1
  O  O28  1  0.502891  0.998762  0.500045  1
  O  O29  1  0.096618  0.205735  0.305545  1
  O  O30  1  0.995297  0.496640  0.493534  1
  O  O31  1  0.601898  0.698148  0.299081  1
  O  O32  1  0.207209  0.898796  0.105576  1
  O  O33  1  0.797182  0.104591  0.904637  1
  O  O34  1  0.393638  0.296089  0.695977  1
