# generated using pymatgen
data_Nd8Al(Si4Ni)3
_symmetry_space_group_name_H-M   'P 1'
_cell_length_a   8.10428100
_cell_length_b   8.10428142
_cell_length_c   8.54909400
_cell_angle_alpha   90.00000000
_cell_angle_beta   90.00000000
_cell_angle_gamma   119.99999420
_symmetry_Int_Tables_number   1
_chemical_formula_structural   Nd8Al(Si4Ni)3
_chemical_formula_sum   'Nd8 Al1 Si12 Ni3'
_cell_volume   486.27254929
_cell_formula_units_Z   1
loop_
 _symmetry_equiv_pos_site_id
 _symmetry_equiv_pos_as_xyz
  1  'x, y, z'
loop_
 _atom_site_type_symbol
 _atom_site_label
 _atom_site_symmetry_multiplicity
 _atom_site_fract_x
 _atom_site_fract_y
 _atom_site_fract_z
 _atom_site_occupancy
  Nd  Nd0  1  0.498549  0.501451  0.753074  1
  Nd  Nd1  1  0.498545  0.501455  0.246985  1
  Nd  Nd2  1  0.002901  0.501451  0.753074  1
  Nd  Nd3  1  0.002911  0.501455  0.246985  1
  Nd  Nd4  1  0.498549  0.997099  0.753074  1
  Nd  Nd5  1  0.498545  0.997089  0.246985  1
  Nd  Nd6  1  0.000000  0.000000  0.753560  1
  Nd  Nd7  1  0.000000  0.000000  0.246784  1
  Al  Al8  1  0.666667  0.333333  0.499697  1
  Si  Si9  1  0.828636  0.171364  0.000282  1
  Si  Si10  1  0.171109  0.828891  0.000149  1
  Si  Si11  1  0.342727  0.171364  0.000282  1
  Si  Si12  1  0.174884  0.825116  0.500180  1
  Si  Si13  1  0.657782  0.828891  0.000149  1
  Si  Si14  1  0.839114  0.160886  0.500401  1
  Si  Si15  1  0.828636  0.657273  0.000282  1
  Si  Si16  1  0.650233  0.825116  0.500180  1
  Si  Si17  1  0.171109  0.342218  0.000149  1
  Si  Si18  1  0.321771  0.160886  0.500401  1
  Si  Si19  1  0.174884  0.349767  0.500180  1
  Si  Si20  1  0.839114  0.678229  0.500401  1
  Ni  Ni21  1  0.666667  0.333333  0.000739  1
  Ni  Ni22  1  0.333333  0.666667  0.998031  1
  Ni  Ni23  1  0.333333  0.666667  0.497974  1
