# generated using pymatgen
data_LuHf(SiMo)2
_symmetry_space_group_name_H-M   'P 1'
_cell_length_a   3.55211200
_cell_length_b   7.08723743
_cell_length_c   8.28739771
_cell_angle_alpha   90.15536280
_cell_angle_beta   90.00000000
_cell_angle_gamma   90.00000000
_symmetry_Int_Tables_number   1
_chemical_formula_structural   LuHf(SiMo)2
_chemical_formula_sum   'Lu2 Hf2 Si4 Mo4'
_cell_volume   208.63166206
_cell_formula_units_Z   2
loop_
 _symmetry_equiv_pos_site_id
 _symmetry_equiv_pos_as_xyz
  1  'x, y, z'
loop_
 _atom_site_type_symbol
 _atom_site_label
 _atom_site_symmetry_multiplicity
 _atom_site_fract_x
 _atom_site_fract_y
 _atom_site_fract_z
 _atom_site_occupancy
  Lu  Lu0  1  0.250000  0.043155  0.332260  1
  Lu  Lu1  1  0.750000  0.956845  0.667740  1
  Hf  Hf2  1  0.250000  0.542519  0.165405  1
  Hf  Hf3  1  0.750000  0.457481  0.834595  1
  Si  Si4  1  0.250000  0.265452  0.639014  1
  Si  Si5  1  0.750000  0.734548  0.360986  1
  Si  Si6  1  0.250000  0.754143  0.866301  1
  Si  Si7  1  0.750000  0.245857  0.133699  1
  Mo  Mo8  1  0.750000  0.373586  0.439557  1
  Mo  Mo9  1  0.250000  0.626414  0.560443  1
  Mo  Mo10  1  0.750000  0.867153  0.061127  1
  Mo  Mo11  1  0.250000  0.132847  0.938873  1
