# generated using pymatgen
data_Cs2ZrMnTe4
_symmetry_space_group_name_H-M   'P 1'
_cell_length_a   15.90527587
_cell_length_b   14.18987296
_cell_length_c   8.58498264
_cell_angle_alpha   84.80119611
_cell_angle_beta   62.68270455
_cell_angle_gamma   32.51609561
_symmetry_Int_Tables_number   1
_chemical_formula_structural   Cs2ZrMnTe4
_chemical_formula_sum   'Cs4 Zr2 Mn2 Te8'
_cell_volume   725.64557328
_cell_formula_units_Z   2
loop_
 _symmetry_equiv_pos_site_id
 _symmetry_equiv_pos_as_xyz
  1  'x, y, z'
loop_
 _atom_site_type_symbol
 _atom_site_label
 _atom_site_symmetry_multiplicity
 _atom_site_fract_x
 _atom_site_fract_y
 _atom_site_fract_z
 _atom_site_occupancy
  Cs  Cs0  1  0.817208  0.817208  0.182792  1
  Cs  Cs1  1  0.182792  0.182792  0.817208  1
  Cs  Cs2  1  0.432792  0.432792  0.067208  1
  Cs  Cs3  1  0.067208  0.067208  0.432792  1
  Zr  Zr4  1  0.250000  0.250000  0.250000  1
  Zr  Zr5  1  0.000000  0.000000  0.000000  1
  Mn  Mn6  1  0.750000  0.750000  0.750000  1
  Mn  Mn7  1  0.500000  0.500000  0.500000  1
  Te  Te8  1  0.406730  0.705681  0.788006  1
  Te  Te9  1  0.099584  0.788006  0.705681  1
  Te  Te10  1  0.788006  0.099584  0.406730  1
  Te  Te11  1  0.705681  0.406730  0.099584  1
  Te  Te12  1  0.843270  0.544319  0.461994  1
  Te  Te13  1  0.150416  0.461994  0.544319  1
  Te  Te14  1  0.461994  0.150416  0.843270  1
  Te  Te15  1  0.544319  0.843270  0.150416  1
