# generated using pymatgen
data_LaNdCo2(B4Os3)2
_symmetry_space_group_name_H-M   'P 1'
_cell_length_a   7.60105003
_cell_length_b   7.40341431
_cell_length_c   3.97561900
_cell_angle_alpha   90.00000000
_cell_angle_beta   90.00000000
_cell_angle_gamma   91.81868158
_symmetry_Int_Tables_number   1
_chemical_formula_structural   LaNdCo2(B4Os3)2
_chemical_formula_sum   'La1 Nd1 Co2 B8 Os6'
_cell_volume   223.61018359
_cell_formula_units_Z   1
loop_
 _symmetry_equiv_pos_site_id
 _symmetry_equiv_pos_as_xyz
  1  'x, y, z'
loop_
 _atom_site_type_symbol
 _atom_site_label
 _atom_site_symmetry_multiplicity
 _atom_site_fract_x
 _atom_site_fract_y
 _atom_site_fract_z
 _atom_site_occupancy
  La  La0  1  0.000000  0.000000  0.968832  1
  Nd  Nd1  1  0.500000  0.500000  0.422365  1
  Co  Co2  1  0.132285  0.612095  0.116057  1
  Co  Co3  1  0.867715  0.387905  0.116057  1
  B  B4  1  0.792319  0.664886  0.116197  1
  B  B5  1  0.207681  0.335114  0.116197  1
  B  B6  1  0.840244  0.310059  0.616265  1
  B  B7  1  0.159756  0.689941  0.616265  1
  B  B8  1  0.719868  0.835019  0.397550  1
  B  B9  1  0.280132  0.164981  0.397550  1
  B  B10  1  0.672628  0.227056  0.897695  1
  B  B11  1  0.327372  0.772944  0.897695  1
  Os  Os12  1  0.397761  0.152379  0.896264  1
  Os  Os13  1  0.602239  0.847621  0.896264  1
  Os  Os14  1  0.348449  0.887961  0.396332  1
  Os  Os15  1  0.651551  0.112039  0.396332  1
  Os  Os16  1  0.116781  0.370646  0.618041  1
  Os  Os17  1  0.883219  0.629354  0.618041  1
