# generated using pymatgen
data_DyTm4Ga4P8Ir19
_symmetry_space_group_name_H-M   'P 1'
_cell_length_a   12.88858791
_cell_length_b   12.87261849
_cell_length_c   3.94819000
_cell_angle_alpha   90.00000000
_cell_angle_beta   90.00000000
_cell_angle_gamma   120.02894298
_symmetry_Int_Tables_number   1
_chemical_formula_structural   DyTm4Ga4P8Ir19
_chemical_formula_sum   'Dy1 Tm4 Ga4 P8 Ir19'
_cell_volume   567.11897305
_cell_formula_units_Z   1
loop_
 _symmetry_equiv_pos_site_id
 _symmetry_equiv_pos_as_xyz
  1  'x, y, z'
loop_
 _atom_site_type_symbol
 _atom_site_label
 _atom_site_symmetry_multiplicity
 _atom_site_fract_x
 _atom_site_fract_y
 _atom_site_fract_z
 _atom_site_occupancy
  Dy  Dy0  1  0.180362  0.180601  0.000000  1
  Tm  Tm1  1  0.335084  0.668902  0.500000  1
  Tm  Tm2  1  0.665898  0.331743  0.500000  1
  Tm  Tm3  1  0.818536  0.999169  0.000000  1
  Tm  Tm4  1  0.002544  0.817307  0.000000  1
  Ga  Ga5  1  0.318186  0.834052  0.000000  1
  Ga  Ga6  1  0.356840  0.357889  0.500000  1
  Ga  Ga7  1  0.642160  0.000907  0.500000  1
  Ga  Ga8  1  0.996970  0.639025  0.500000  1
  P  P9  1  0.173560  0.484727  0.000000  1
  P  P10  1  0.520788  0.690334  0.000000  1
  P  P11  1  0.823906  0.306666  0.000000  1
  P  P12  1  0.482605  0.174992  0.000000  1
  P  P13  1  0.691414  0.514878  0.000000  1
  P  P14  1  0.822973  0.819227  0.500000  1
  P  P15  1  0.177942  0.000608  0.500000  1
  P  P16  1  0.999580  0.179372  0.500000  1
  Ir  Ir17  1  0.190360  0.825292  0.500000  1
  Ir  Ir18  1  0.174637  0.382149  0.500000  1
  Ir  Ir19  1  0.626104  0.795551  0.500000  1
  Ir  Ir20  1  0.825508  0.204861  0.500000  1
  Ir  Ir21  1  0.385431  0.178313  0.500000  1
  Ir  Ir22  1  0.791261  0.615387  0.500000  1
  Ir  Ir23  1  0.129062  0.633464  0.000000  1
  Ir  Ir24  1  0.362787  0.498092  0.000000  1
  Ir  Ir25  1  0.521663  0.870690  0.000000  1
  Ir  Ir26  1  0.634233  0.133078  0.000000  1
  Ir  Ir27  1  0.497380  0.365705  0.000000  1
  Ir  Ir28  1  0.865351  0.500453  0.000000  1
  Ir  Ir29  1  0.547684  0.550277  0.500000  1
  Ir  Ir30  1  0.444135  0.993376  0.500000  1
  Ir  Ir31  1  0.997578  0.447400  0.500000  1
  Ir  Ir32  1  0.719939  0.716569  0.000000  1
  Ir  Ir33  1  0.279658  0.007660  0.000000  1
  Ir  Ir34  1  0.999926  0.281444  0.000000  1
  Ir  Ir35  1  0.997952  0.999840  0.500000  1
