# generated using pymatgen
data_Tm3Ni8P6Os
_symmetry_space_group_name_H-M   'P 1'
_cell_length_a   3.74565000
_cell_length_b   10.46568700
_cell_length_c   12.32656500
_cell_angle_alpha   90.00000000
_cell_angle_beta   90.00000000
_cell_angle_gamma   90.00000000
_symmetry_Int_Tables_number   1
_chemical_formula_structural   Tm3Ni8P6Os
_chemical_formula_sum   'Tm6 Ni16 P12 Os2'
_cell_volume   483.21121556
_cell_formula_units_Z   2
loop_
 _symmetry_equiv_pos_site_id
 _symmetry_equiv_pos_as_xyz
  1  'x, y, z'
loop_
 _atom_site_type_symbol
 _atom_site_label
 _atom_site_symmetry_multiplicity
 _atom_site_fract_x
 _atom_site_fract_y
 _atom_site_fract_z
 _atom_site_occupancy
  Tm  Tm0  1  0.000000  0.500000  0.524295  1
  Tm  Tm1  1  0.500000  0.000000  0.475705  1
  Tm  Tm2  1  0.500000  0.815167  0.208590  1
  Tm  Tm3  1  0.500000  0.184833  0.208590  1
  Tm  Tm4  1  0.000000  0.684833  0.791410  1
  Tm  Tm5  1  0.000000  0.315167  0.791410  1
  Ni  Ni6  1  0.500000  0.500000  0.699962  1
  Ni  Ni7  1  0.000000  0.000000  0.300038  1
  Ni  Ni8  1  0.000000  0.500000  0.981229  1
  Ni  Ni9  1  0.500000  0.000000  0.018771  1
  Ni  Ni10  1  0.500000  0.331257  0.986151  1
  Ni  Ni11  1  0.500000  0.668743  0.986151  1
  Ni  Ni12  1  0.000000  0.168743  0.013849  1
  Ni  Ni13  1  0.000000  0.831257  0.013849  1
  Ni  Ni14  1  0.500000  0.302930  0.430087  1
  Ni  Ni15  1  0.500000  0.697070  0.430087  1
  Ni  Ni16  1  0.000000  0.197070  0.569913  1
  Ni  Ni17  1  0.000000  0.802930  0.569913  1
  Ni  Ni18  1  0.500000  0.878341  0.709166  1
  Ni  Ni19  1  0.500000  0.121659  0.709166  1
  Ni  Ni20  1  0.000000  0.621659  0.290834  1
  Ni  Ni21  1  0.000000  0.378341  0.290834  1
  P  P22  1  0.500000  0.500000  0.874363  1
  P  P23  1  0.000000  0.000000  0.125637  1
  P  P24  1  0.500000  0.500000  0.350473  1
  P  P25  1  0.000000  0.000000  0.649527  1
  P  P26  1  0.500000  0.315101  0.614779  1
  P  P27  1  0.500000  0.684899  0.614779  1
  P  P28  1  0.000000  0.184899  0.385221  1
  P  P29  1  0.000000  0.815101  0.385221  1
  P  P30  1  0.500000  0.849972  0.891412  1
  P  P31  1  0.500000  0.150028  0.891412  1
  P  P32  1  0.000000  0.650028  0.108588  1
  P  P33  1  0.000000  0.349972  0.108588  1
  Os  Os34  1  0.500000  0.500000  0.158010  1
  Os  Os35  1  0.000000  0.000000  0.841990  1
