# generated using pymatgen
data_Ta2Nb8SiB4As
_symmetry_space_group_name_H-M   'P 1'
_cell_length_a   7.34575848
_cell_length_b   7.34575835
_cell_length_c   7.34575824
_cell_angle_alpha   129.41315471
_cell_angle_beta   129.41316623
_cell_angle_gamma   74.34668367
_symmetry_Int_Tables_number   1
_chemical_formula_structural   Ta2Nb8SiB4As
_chemical_formula_sum   'Ta2 Nb8 Si1 B4 As1'
_cell_volume   230.62035412
_cell_formula_units_Z   1
loop_
 _symmetry_equiv_pos_site_id
 _symmetry_equiv_pos_as_xyz
  1  'x, y, z'
loop_
 _atom_site_type_symbol
 _atom_site_label
 _atom_site_symmetry_multiplicity
 _atom_site_fract_x
 _atom_site_fract_y
 _atom_site_fract_z
 _atom_site_occupancy
  Ta  Ta0  1  0.999411  0.999411  0.000000  1
  Ta  Ta1  1  0.500589  0.500589  0.000000  1
  Nb  Nb2  1  0.803267  0.306818  0.834334  1
  Nb  Nb3  1  0.193182  0.696733  0.165666  1
  Nb  Nb4  1  0.472484  0.968934  0.165666  1
  Nb  Nb5  1  0.306818  0.472484  0.503551  1
  Nb  Nb6  1  0.027516  0.193182  0.496449  1
  Nb  Nb7  1  0.531066  0.027516  0.834334  1
  Nb  Nb8  1  0.696733  0.531066  0.503551  1
  Nb  Nb9  1  0.968934  0.803267  0.496449  1
  Si  Si10  1  0.750000  0.750000  0.000000  1
  B  B11  1  0.114865  0.614865  0.729729  1
  B  B12  1  0.885135  0.385135  0.270271  1
  B  B13  1  0.614865  0.885135  0.500000  1
  B  B14  1  0.385135  0.114865  0.500000  1
  As  As15  1  0.250000  0.250000  0.000000  1
