# generated using pymatgen
data_Ce(AgBr3)2
_symmetry_space_group_name_H-M   'P 1'
_cell_length_a   7.05970000
_cell_length_b   7.05970040
_cell_length_c   13.83074200
_cell_angle_alpha   90.00000000
_cell_angle_beta   90.00000000
_cell_angle_gamma   119.99999815
_symmetry_Int_Tables_number   1
_chemical_formula_structural   Ce(AgBr3)2
_chemical_formula_sum   'Ce2 Ag4 Br12'
_cell_volume   596.96468026
_cell_formula_units_Z   2
loop_
 _symmetry_equiv_pos_site_id
 _symmetry_equiv_pos_as_xyz
  1  'x, y, z'
loop_
 _atom_site_type_symbol
 _atom_site_label
 _atom_site_symmetry_multiplicity
 _atom_site_fract_x
 _atom_site_fract_y
 _atom_site_fract_z
 _atom_site_occupancy
  Ce  Ce0  1  0.666667  0.333333  0.750000  1
  Ce  Ce1  1  0.333333  0.666667  0.250000  1
  Ag  Ag2  1  0.666667  0.333333  0.250000  1
  Ag  Ag3  1  0.333333  0.666667  0.750000  1
  Ag  Ag4  1  0.000000  0.000000  0.250000  1
  Ag  Ag5  1  0.000000  0.000000  0.750000  1
  Br  Br6  1  0.333302  0.991989  0.129961  1
  Br  Br7  1  0.991989  0.333302  0.629961  1
  Br  Br8  1  0.666698  0.658687  0.629961  1
  Br  Br9  1  0.666698  0.008011  0.870039  1
  Br  Br10  1  0.333302  0.341313  0.370039  1
  Br  Br11  1  0.008011  0.666698  0.370039  1
  Br  Br12  1  0.341313  0.333302  0.870039  1
  Br  Br13  1  0.658687  0.666698  0.129961  1
  Br  Br14  1  0.991989  0.658687  0.870039  1
  Br  Br15  1  0.008011  0.341313  0.129961  1
  Br  Br16  1  0.658687  0.991989  0.370039  1
  Br  Br17  1  0.341313  0.008011  0.629961  1
