# generated using pymatgen
data_Tm10GaRu3Pb2
_symmetry_space_group_name_H-M   'P 1'
_cell_length_a   8.74248395
_cell_length_b   8.74248369
_cell_length_c   8.69593300
_cell_angle_alpha   127.67363010
_cell_angle_beta   127.67362880
_cell_angle_gamma   77.53653351
_symmetry_Int_Tables_number   1
_chemical_formula_structural   Tm10GaRu3Pb2
_chemical_formula_sum   'Tm10 Ga1 Ru3 Pb2'
_cell_volume   402.97466629
_cell_formula_units_Z   1
loop_
 _symmetry_equiv_pos_site_id
 _symmetry_equiv_pos_as_xyz
  1  'x, y, z'
loop_
 _atom_site_type_symbol
 _atom_site_label
 _atom_site_symmetry_multiplicity
 _atom_site_fract_x
 _atom_site_fract_y
 _atom_site_fract_z
 _atom_site_occupancy
  Tm  Tm0  1  0.997432  0.997938  0.995370  1
  Tm  Tm1  1  0.502062  0.502568  0.004630  1
  Tm  Tm2  1  0.805156  0.293940  0.829515  1
  Tm  Tm3  1  0.206060  0.694844  0.170485  1
  Tm  Tm4  1  0.475640  0.964424  0.170485  1
  Tm  Tm5  1  0.278627  0.483882  0.500000  1
  Tm  Tm6  1  0.016118  0.221373  0.500000  1
  Tm  Tm7  1  0.535576  0.024360  0.829515  1
  Tm  Tm8  1  0.709073  0.530902  0.500000  1
  Tm  Tm9  1  0.969098  0.790927  0.500000  1
  Ga  Ga10  1  0.365533  0.134467  0.500000  1
  Ru  Ru11  1  0.142056  0.638558  0.780615  1
  Ru  Ru12  1  0.861442  0.357944  0.219385  1
  Ru  Ru13  1  0.626110  0.873890  0.500000  1
  Pb  Pb14  1  0.255008  0.244992  0.000000  1
  Pb  Pb15  1  0.755008  0.744992  0.000000  1
