# generated using pymatgen
data_Tb4Pr2Co17TcP12
_symmetry_space_group_name_H-M   'P 1'
_cell_length_a   3.73314100
_cell_length_b   10.58410600
_cell_length_c   12.31059900
_cell_angle_alpha   90.00000000
_cell_angle_beta   90.00000000
_cell_angle_gamma   90.00000000
_symmetry_Int_Tables_number   1
_chemical_formula_structural   Tb4Pr2Co17TcP12
_chemical_formula_sum   'Tb4 Pr2 Co17 Tc1 P12'
_cell_volume   486.41589597
_cell_formula_units_Z   1
loop_
 _symmetry_equiv_pos_site_id
 _symmetry_equiv_pos_as_xyz
  1  'x, y, z'
loop_
 _atom_site_type_symbol
 _atom_site_label
 _atom_site_symmetry_multiplicity
 _atom_site_fract_x
 _atom_site_fract_y
 _atom_site_fract_z
 _atom_site_occupancy
  Tb  Tb0  1  0.500000  0.817260  0.205506  1
  Tb  Tb1  1  0.500000  0.182740  0.205506  1
  Tb  Tb2  1  0.000000  0.683157  0.795980  1
  Tb  Tb3  1  0.000000  0.316843  0.795980  1
  Pr  Pr4  1  0.000000  0.500000  0.524742  1
  Pr  Pr5  1  0.500000  0.000000  0.477689  1
  Co  Co6  1  0.000000  0.000000  0.842115  1
  Co  Co7  1  0.500000  0.500000  0.706614  1
  Co  Co8  1  0.000000  0.000000  0.292731  1
  Co  Co9  1  0.000000  0.500000  0.987735  1
  Co  Co10  1  0.500000  0.000000  0.014039  1
  Co  Co11  1  0.500000  0.331892  0.991559  1
  Co  Co12  1  0.500000  0.668108  0.991559  1
  Co  Co13  1  0.000000  0.166548  0.005428  1
  Co  Co14  1  0.000000  0.833452  0.005428  1
  Co  Co15  1  0.500000  0.296345  0.429026  1
  Co  Co16  1  0.500000  0.703655  0.429026  1
  Co  Co17  1  0.000000  0.204047  0.570370  1
  Co  Co18  1  0.000000  0.795953  0.570370  1
  Co  Co19  1  0.500000  0.879907  0.711939  1
  Co  Co20  1  0.500000  0.120093  0.711939  1
  Co  Co21  1  0.000000  0.619970  0.289011  1
  Co  Co22  1  0.000000  0.380030  0.289011  1
  Tc  Tc23  1  0.500000  0.500000  0.154681  1
  P  P24  1  0.500000  0.500000  0.883288  1
  P  P25  1  0.000000  0.000000  0.115499  1
  P  P26  1  0.500000  0.500000  0.344118  1
  P  P27  1  0.000000  0.000000  0.660627  1
  P  P28  1  0.500000  0.306756  0.617913  1
  P  P29  1  0.500000  0.693244  0.617913  1
  P  P30  1  0.000000  0.192536  0.382935  1
  P  P31  1  0.000000  0.807464  0.382935  1
  P  P32  1  0.500000  0.849192  0.893436  1
  P  P33  1  0.500000  0.150808  0.893436  1
  P  P34  1  0.000000  0.655379  0.104958  1
  P  P35  1  0.000000  0.344621  0.104958  1
