# generated using pymatgen
data_TbSc(BiO4)2
_symmetry_space_group_name_H-M   'P 1'
_cell_length_a   5.47242930
_cell_length_b   7.77488532
_cell_length_c   7.78515599
_cell_angle_alpha   82.21787630
_cell_angle_beta   87.12844029
_cell_angle_gamma   91.66106243
_symmetry_Int_Tables_number   1
_chemical_formula_structural   TbSc(BiO4)2
_chemical_formula_sum   'Tb2 Sc2 Bi4 O16'
_cell_volume   327.56202460
_cell_formula_units_Z   2
loop_
 _symmetry_equiv_pos_site_id
 _symmetry_equiv_pos_as_xyz
  1  'x, y, z'
loop_
 _atom_site_type_symbol
 _atom_site_label
 _atom_site_symmetry_multiplicity
 _atom_site_fract_x
 _atom_site_fract_y
 _atom_site_fract_z
 _atom_site_occupancy
  Tb  Tb0  1  0.743242  0.871567  0.380228  1
  Tb  Tb1  1  0.256758  0.128433  0.619772  1
  Sc  Sc2  1  0.726463  0.356560  0.334824  1
  Sc  Sc3  1  0.273537  0.643440  0.665176  1
  Bi  Bi4  1  0.772917  0.823598  0.845294  1
  Bi  Bi5  1  0.227083  0.176402  0.154706  1
  Bi  Bi6  1  0.241994  0.671185  0.176071  1
  Bi  Bi7  1  0.758006  0.328815  0.823929  1
  O  O8  1  0.899972  0.314581  0.078056  1
  O  O9  1  0.100028  0.685419  0.921944  1
  O  O10  1  0.409170  0.424924  0.183029  1
  O  O11  1  0.590830  0.575076  0.816971  1
  O  O12  1  0.071731  0.921075  0.177533  1
  O  O13  1  0.928269  0.078925  0.822467  1
  O  O14  1  0.577843  0.823203  0.088743  1
  O  O15  1  0.422157  0.176797  0.911257  1
  O  O16  1  0.000764  0.822691  0.607693  1
  O  O17  1  0.999236  0.177309  0.392307  1
  O  O18  1  0.413236  0.683854  0.413799  1
  O  O19  1  0.586764  0.316146  0.586201  1
  O  O20  1  0.496767  0.109187  0.336699  1
  O  O21  1  0.503233  0.890813  0.663301  1
  O  O22  1  0.907621  0.595682  0.312926  1
  O  O23  1  0.092379  0.404318  0.687074  1
