# generated using pymatgen
data_YbY3Os3Ru5
_symmetry_space_group_name_H-M   'P 1'
_cell_length_a   5.27923807
_cell_length_b   5.26093504
_cell_length_c   8.95404607
_cell_angle_alpha   90.00000213
_cell_angle_beta   89.98749762
_cell_angle_gamma   119.88537600
_symmetry_Int_Tables_number   1
_chemical_formula_structural   YbY3Os3Ru5
_chemical_formula_sum   'Yb1 Y3 Os3 Ru5'
_cell_volume   215.61779151
_cell_formula_units_Z   1
loop_
 _symmetry_equiv_pos_site_id
 _symmetry_equiv_pos_as_xyz
  1  'x, y, z'
loop_
 _atom_site_type_symbol
 _atom_site_label
 _atom_site_symmetry_multiplicity
 _atom_site_fract_x
 _atom_site_fract_y
 _atom_site_fract_z
 _atom_site_occupancy
  Yb  Yb0  1  0.338328  0.669165  0.436037  1
  Y  Y1  1  0.672714  0.336356  0.560898  1
  Y  Y2  1  0.668982  0.334490  0.933307  1
  Y  Y3  1  0.334981  0.667492  0.071411  1
  Os  Os4  1  0.164418  0.338712  0.749568  1
  Os  Os5  1  0.164418  0.825705  0.749568  1
  Os  Os6  1  0.323944  0.161971  0.251260  1
  Ru  Ru7  1  0.818734  0.650730  0.249284  1
  Ru  Ru8  1  0.650897  0.825449  0.751307  1
  Ru  Ru9  1  0.019860  0.009930  0.999434  1
  Ru  Ru10  1  0.818734  0.168005  0.249284  1
  Ru  Ru11  1  0.023991  0.011996  0.498641  1
