# generated using pymatgen
data_YSi2(AsRh3)2
_symmetry_space_group_name_H-M   'P 1'
_cell_length_a   7.16767600
_cell_length_b   7.15452417
_cell_length_c   3.80531000
_cell_angle_alpha   90.00000000
_cell_angle_beta   90.00000000
_cell_angle_gamma   120.06081834
_symmetry_Int_Tables_number   1
_chemical_formula_structural   YSi2(AsRh3)2
_chemical_formula_sum   'Y1 Si2 As2 Rh6'
_cell_volume   168.89364673
_cell_formula_units_Z   1
loop_
 _symmetry_equiv_pos_site_id
 _symmetry_equiv_pos_as_xyz
  1  'x, y, z'
loop_
 _atom_site_type_symbol
 _atom_site_label
 _atom_site_symmetry_multiplicity
 _atom_site_fract_x
 _atom_site_fract_y
 _atom_site_fract_z
 _atom_site_occupancy
  Y  Y0  1  0.995383  0.990766  0.000000  1
  Si  Si1  1  0.803840  0.607678  0.500000  1
  Si  Si2  1  0.334102  0.668205  0.000000  1
  As  As3  1  0.382814  0.193135  0.500000  1
  As  As4  1  0.810321  0.193135  0.500000  1
  Rh  Rh5  1  0.531747  0.063493  0.000000  1
  Rh  Rh6  1  0.603458  0.796769  0.500000  1
  Rh  Rh7  1  0.203699  0.407396  0.500000  1
  Rh  Rh8  1  0.541682  0.474659  0.000000  1
  Rh  Rh9  1  0.193312  0.796769  0.500000  1
  Rh  Rh10  1  0.932977  0.474659  0.000000  1
