# generated using pymatgen
data_Yb2Pr8Si5Sn
_symmetry_space_group_name_H-M   'P 1'
_cell_length_a   7.84093823
_cell_length_b   7.84093862
_cell_length_c   9.10817984
_cell_angle_alpha   115.49510736
_cell_angle_beta   115.49510461
_cell_angle_gamma   89.99999317
_symmetry_Int_Tables_number   1
_chemical_formula_structural   Yb2Pr8Si5Sn
_chemical_formula_sum   'Yb2 Pr8 Si5 Sn1'
_cell_volume   444.27247029
_cell_formula_units_Z   1
loop_
 _symmetry_equiv_pos_site_id
 _symmetry_equiv_pos_as_xyz
  1  'x, y, z'
loop_
 _atom_site_type_symbol
 _atom_site_label
 _atom_site_symmetry_multiplicity
 _atom_site_fract_x
 _atom_site_fract_y
 _atom_site_fract_z
 _atom_site_occupancy
  Yb  Yb0  1  0.507367  0.507367  0.014736  1
  Yb  Yb1  1  0.992633  0.992633  0.985264  1
  Pr  Pr2  1  0.969327  0.827319  0.282957  1
  Pr  Pr3  1  0.313630  0.455638  0.282957  1
  Pr  Pr4  1  0.827319  0.313630  0.282957  1
  Pr  Pr5  1  0.455638  0.969327  0.282957  1
  Pr  Pr6  1  0.044362  0.186370  0.717043  1
  Pr  Pr7  1  0.672681  0.530673  0.717043  1
  Pr  Pr8  1  0.186370  0.672681  0.717043  1
  Pr  Pr9  1  0.530673  0.044362  0.717043  1
  Si  Si10  1  0.250000  0.250000  0.500000  1
  Si  Si11  1  0.612940  0.887060  0.000000  1
  Si  Si12  1  0.387060  0.112940  0.000000  1
  Si  Si13  1  0.887060  0.387060  0.000000  1
  Si  Si14  1  0.112940  0.612940  0.000000  1
  Sn  Sn15  1  0.750000  0.750000  0.500000  1
