# generated using pymatgen
data_DyLu2Zr7Sn6
_symmetry_space_group_name_H-M   'P 1'
_cell_length_a   8.59100546
_cell_length_b   8.67655828
_cell_length_c   5.92855100
_cell_angle_alpha   90.00000000
_cell_angle_beta   90.00000000
_cell_angle_gamma   119.55756145
_symmetry_Int_Tables_number   1
_chemical_formula_structural   DyLu2Zr7Sn6
_chemical_formula_sum   'Dy1 Lu2 Zr7 Sn6'
_cell_volume   384.40557557
_cell_formula_units_Z   1
loop_
 _symmetry_equiv_pos_site_id
 _symmetry_equiv_pos_as_xyz
  1  'x, y, z'
loop_
 _atom_site_type_symbol
 _atom_site_label
 _atom_site_symmetry_multiplicity
 _atom_site_fract_x
 _atom_site_fract_y
 _atom_site_fract_z
 _atom_site_occupancy
  Dy  Dy0  1  0.232522  0.000710  0.250000  1
  Lu  Lu1  1  0.000620  0.756026  0.750000  1
  Lu  Lu2  1  0.765408  0.000955  0.750000  1
  Zr  Zr3  1  0.999936  0.248877  0.250000  1
  Zr  Zr4  1  0.747233  0.748979  0.250000  1
  Zr  Zr5  1  0.250406  0.251291  0.750000  1
  Zr  Zr6  1  0.334320  0.665910  0.499091  1
  Zr  Zr7  1  0.666074  0.331752  0.000735  1
  Zr  Zr8  1  0.666074  0.331752  0.499265  1
  Zr  Zr9  1  0.334320  0.665910  0.000909  1
  Sn  Sn10  1  0.396513  0.002656  0.750000  1
  Sn  Sn11  1  0.393091  0.395705  0.250000  1
  Sn  Sn12  1  0.996490  0.602604  0.250000  1
  Sn  Sn13  1  0.002444  0.393616  0.750000  1
  Sn  Sn14  1  0.604069  0.602837  0.750000  1
  Sn  Sn15  1  0.610483  0.000420  0.250000  1
