# generated using pymatgen
data_Hf6Al6Os2PdPt3
_symmetry_space_group_name_H-M   'P 1'
_cell_length_a   7.34984400
_cell_length_b   7.34984346
_cell_length_c   6.70956100
_cell_angle_alpha   90.00000000
_cell_angle_beta   90.00000000
_cell_angle_gamma   120.00000241
_symmetry_Int_Tables_number   1
_chemical_formula_structural   Hf6Al6Os2PdPt3
_chemical_formula_sum   'Hf6 Al6 Os2 Pd1 Pt3'
_cell_volume   313.89249913
_cell_formula_units_Z   1
loop_
 _symmetry_equiv_pos_site_id
 _symmetry_equiv_pos_as_xyz
  1  'x, y, z'
loop_
 _atom_site_type_symbol
 _atom_site_label
 _atom_site_symmetry_multiplicity
 _atom_site_fract_x
 _atom_site_fract_y
 _atom_site_fract_z
 _atom_site_occupancy
  Hf  Hf0  1  0.604047  0.009245  0.750000  1
  Hf  Hf1  1  0.990755  0.594803  0.750000  1
  Hf  Hf2  1  0.405197  0.395953  0.750000  1
  Hf  Hf3  1  0.989997  0.599197  0.250000  1
  Hf  Hf4  1  0.609200  0.010003  0.250000  1
  Hf  Hf5  1  0.400803  0.390800  0.250000  1
  Al  Al6  1  0.732683  0.732891  0.999077  1
  Al  Al7  1  0.267109  0.999792  0.999077  1
  Al  Al8  1  0.000208  0.267317  0.999077  1
  Al  Al9  1  0.732683  0.732891  0.500923  1
  Al  Al10  1  0.267109  0.999792  0.500923  1
  Al  Al11  1  0.000208  0.267317  0.500923  1
  Os  Os12  1  0.666667  0.333333  0.999975  1
  Os  Os13  1  0.666667  0.333333  0.500025  1
  Pd  Pd14  1  0.000000  0.000000  0.750000  1
  Pt  Pt15  1  0.000000  0.000000  0.250000  1
  Pt  Pt16  1  0.333333  0.666667  0.498526  1
  Pt  Pt17  1  0.333333  0.666667  0.001475  1
