# generated using pymatgen
data_Ho2LuZr(Co4P3)2
_symmetry_space_group_name_H-M   'P 1'
_cell_length_a   3.70920100
_cell_length_b   10.65884700
_cell_length_c   12.35728700
_cell_angle_alpha   90.00000000
_cell_angle_beta   90.00000000
_cell_angle_gamma   90.00000000
_symmetry_Int_Tables_number   1
_chemical_formula_structural   Ho2LuZr(Co4P3)2
_chemical_formula_sum   'Ho4 Lu2 Zr2 Co16 P12'
_cell_volume   488.55530092
_cell_formula_units_Z   2
loop_
 _symmetry_equiv_pos_site_id
 _symmetry_equiv_pos_as_xyz
  1  'x, y, z'
loop_
 _atom_site_type_symbol
 _atom_site_label
 _atom_site_symmetry_multiplicity
 _atom_site_fract_x
 _atom_site_fract_y
 _atom_site_fract_z
 _atom_site_occupancy
  Ho  Ho0  1  0.000000  0.500000  0.529492  1
  Ho  Ho1  1  0.500000  0.000000  0.469762  1
  Ho  Ho2  1  0.000000  0.678035  0.795303  1
  Ho  Ho3  1  0.000000  0.321965  0.795303  1
  Lu  Lu4  1  0.500000  0.822452  0.204511  1
  Lu  Lu5  1  0.500000  0.177548  0.204511  1
  Zr  Zr6  1  0.500000  0.500000  0.158681  1
  Zr  Zr7  1  0.000000  0.000000  0.841647  1
  Co  Co8  1  0.000000  0.500000  0.986790  1
  Co  Co9  1  0.500000  0.000000  0.015313  1
  Co  Co10  1  0.500000  0.294749  0.432378  1
  Co  Co11  1  0.500000  0.705251  0.432378  1
  Co  Co12  1  0.000000  0.204710  0.565609  1
  Co  Co13  1  0.000000  0.795290  0.565609  1
  Co  Co14  1  0.500000  0.877223  0.700854  1
  Co  Co15  1  0.500000  0.122777  0.700854  1
  Co  Co16  1  0.000000  0.623750  0.297871  1
  Co  Co17  1  0.000000  0.376250  0.297871  1
  Co  Co18  1  0.500000  0.331333  0.993964  1
  Co  Co19  1  0.500000  0.668667  0.993964  1
  Co  Co20  1  0.000000  0.167828  0.008420  1
  Co  Co21  1  0.000000  0.832172  0.008420  1
  Co  Co22  1  0.500000  0.500000  0.703265  1
  Co  Co23  1  0.000000  0.000000  0.295642  1
  P  P24  1  0.500000  0.310314  0.615293  1
  P  P25  1  0.500000  0.689686  0.615293  1
  P  P26  1  0.000000  0.188884  0.382646  1
  P  P27  1  0.000000  0.811116  0.382646  1
  P  P28  1  0.500000  0.500000  0.883973  1
  P  P29  1  0.000000  0.000000  0.117993  1
  P  P30  1  0.500000  0.837966  0.893818  1
  P  P31  1  0.500000  0.162034  0.893818  1
  P  P32  1  0.000000  0.663254  0.108204  1
  P  P33  1  0.000000  0.336746  0.108204  1
  P  P34  1  0.500000  0.500000  0.363755  1
  P  P35  1  0.000000  0.000000  0.635946  1
