# generated using pymatgen
data_Ba6DyLu(BO3)6
_symmetry_space_group_name_H-M   'P 1'
_cell_length_a   8.20073182
_cell_length_b   8.20073190
_cell_length_c   8.20073141
_cell_angle_alpha   105.69591382
_cell_angle_beta   105.69592221
_cell_angle_gamma   105.69592684
_symmetry_Int_Tables_number   1
_chemical_formula_structural   Ba6DyLu(BO3)6
_chemical_formula_sum   'Ba6 Dy1 Lu1 B6 O18'
_cell_volume   474.70033470
_cell_formula_units_Z   1
loop_
 _symmetry_equiv_pos_site_id
 _symmetry_equiv_pos_as_xyz
  1  'x, y, z'
loop_
 _atom_site_type_symbol
 _atom_site_label
 _atom_site_symmetry_multiplicity
 _atom_site_fract_x
 _atom_site_fract_y
 _atom_site_fract_z
 _atom_site_occupancy
  Ba  Ba0  1  0.349018  0.734194  0.839731  1
  Ba  Ba1  1  0.839731  0.349018  0.734194  1
  Ba  Ba2  1  0.734194  0.839731  0.349018  1
  Ba  Ba3  1  0.650982  0.265806  0.160269  1
  Ba  Ba4  1  0.160269  0.650982  0.265806  1
  Ba  Ba5  1  0.265806  0.160269  0.650982  1
  Dy  Dy6  1  0.000000  0.000000  0.000000  1
  Lu  Lu7  1  0.500000  0.500000  0.500000  1
  B  B8  1  0.709565  0.623825  0.954237  1
  B  B9  1  0.954237  0.709565  0.623825  1
  B  B10  1  0.623825  0.954237  0.709565  1
  B  B11  1  0.045763  0.290435  0.376175  1
  B  B12  1  0.376175  0.045763  0.290435  1
  B  B13  1  0.290435  0.376175  0.045763  1
  O  O14  1  0.062904  0.803107  0.551040  1
  O  O15  1  0.551040  0.062904  0.803107  1
  O  O16  1  0.426514  0.490302  0.217083  1
  O  O17  1  0.490302  0.217083  0.426514  1
  O  O18  1  0.217083  0.426514  0.490302  1
  O  O19  1  0.782917  0.573486  0.509698  1
  O  O20  1  0.573486  0.509698  0.782917  1
  O  O21  1  0.509698  0.782917  0.573486  1
  O  O22  1  0.257120  0.189465  0.985465  1
  O  O23  1  0.189465  0.985465  0.257120  1
  O  O24  1  0.985465  0.257120  0.189465  1
  O  O25  1  0.742880  0.810535  0.014535  1
  O  O26  1  0.810535  0.014535  0.742880  1
  O  O27  1  0.014535  0.742880  0.810535  1
  O  O28  1  0.196893  0.448960  0.937096  1
  O  O29  1  0.448960  0.937096  0.196893  1
  O  O30  1  0.937096  0.196893  0.448960  1
  O  O31  1  0.803107  0.551040  0.062904  1
