# generated using pymatgen
data_Li2Y2Co3P6Ir5
_symmetry_space_group_name_H-M   'P 1'
_cell_length_a   3.84316500
_cell_length_b   10.62526886
_cell_length_c   12.52255340
_cell_angle_alpha   89.89369907
_cell_angle_beta   90.00000000
_cell_angle_gamma   90.00000000
_symmetry_Int_Tables_number   1
_chemical_formula_structural   Li2Y2Co3P6Ir5
_chemical_formula_sum   'Li4 Y4 Co6 P12 Ir10'
_cell_volume   511.35334767
_cell_formula_units_Z   2
loop_
 _symmetry_equiv_pos_site_id
 _symmetry_equiv_pos_as_xyz
  1  'x, y, z'
loop_
 _atom_site_type_symbol
 _atom_site_label
 _atom_site_symmetry_multiplicity
 _atom_site_fract_x
 _atom_site_fract_y
 _atom_site_fract_z
 _atom_site_occupancy
  Li  Li0  1  0.250000  0.796181  0.490563  1
  Li  Li1  1  0.750000  0.203819  0.509437  1
  Li  Li2  1  0.750000  0.290899  0.012823  1
  Li  Li3  1  0.250000  0.709101  0.987177  1
  Y  Y4  1  0.250000  0.920824  0.212589  1
  Y  Y5  1  0.750000  0.079176  0.787411  1
  Y  Y6  1  0.750000  0.415788  0.290831  1
  Y  Y7  1  0.250000  0.584212  0.709169  1
  Co  Co8  1  0.750000  0.118304  0.309152  1
  Co  Co9  1  0.250000  0.881696  0.690848  1
  Co  Co10  1  0.250000  0.034743  0.435617  1
  Co  Co11  1  0.750000  0.965257  0.564383  1
  Co  Co12  1  0.750000  0.532515  0.064033  1
  Co  Co13  1  0.250000  0.467485  0.935967  1
  P  P14  1  0.250000  0.068885  0.610191  1
  P  P15  1  0.750000  0.931115  0.389809  1
  P  P16  1  0.750000  0.578468  0.892783  1
  P  P17  1  0.250000  0.421532  0.107217  1
  P  P18  1  0.250000  0.224445  0.363752  1
  P  P19  1  0.750000  0.775555  0.636248  1
  P  P20  1  0.750000  0.729192  0.134908  1
  P  P21  1  0.250000  0.270808  0.865092  1
  P  P22  1  0.250000  0.901179  0.879067  1
  P  P23  1  0.750000  0.098821  0.120933  1
  P  P24  1  0.750000  0.398284  0.612143  1
  P  P25  1  0.250000  0.601716  0.387857  1
  Ir  Ir26  1  0.250000  0.094085  0.971947  1
  Ir  Ir27  1  0.750000  0.905915  0.028053  1
  Ir  Ir28  1  0.750000  0.596463  0.526718  1
  Ir  Ir29  1  0.250000  0.403537  0.473282  1
  Ir  Ir30  1  0.250000  0.275164  0.672714  1
  Ir  Ir31  1  0.750000  0.724836  0.327286  1
  Ir  Ir32  1  0.750000  0.783451  0.824625  1
  Ir  Ir33  1  0.250000  0.216549  0.175375  1
  Ir  Ir34  1  0.250000  0.616328  0.193756  1
  Ir  Ir35  1  0.750000  0.383672  0.806244  1
