# generated using pymatgen
data_CePr5(CI5)2
_symmetry_space_group_name_H-M   'P 1'
_cell_length_a   8.00938355
_cell_length_b   9.82038868
_cell_length_c   9.90329075
_cell_angle_alpha   107.05745750
_cell_angle_beta   96.66342238
_cell_angle_gamma   104.47159861
_symmetry_Int_Tables_number   1
_chemical_formula_structural   CePr5(CI5)2
_chemical_formula_sum   'Ce1 Pr5 C2 I10'
_cell_volume   705.80876023
_cell_formula_units_Z   1
loop_
 _symmetry_equiv_pos_site_id
 _symmetry_equiv_pos_as_xyz
  1  'x, y, z'
loop_
 _atom_site_type_symbol
 _atom_site_label
 _atom_site_symmetry_multiplicity
 _atom_site_fract_x
 _atom_site_fract_y
 _atom_site_fract_z
 _atom_site_occupancy
  Ce  Ce0  1  0.626144  0.866475  0.819546  1
  Pr  Pr1  1  0.108029  0.040560  0.776452  1
  Pr  Pr2  1  0.373046  0.132675  0.179081  1
  Pr  Pr3  1  0.892303  0.959400  0.223713  1
  Pr  Pr4  1  0.032170  0.735223  0.923692  1
  Pr  Pr5  1  0.968614  0.264982  0.076619  1
  C  C6  1  0.911293  0.969647  0.958285  1
  C  C7  1  0.084681  0.028687  0.039542  1
  I  I8  1  0.191907  0.734693  0.645125  1
  I  I9  1  0.088104  0.369613  0.820736  1
  I  I10  1  0.456775  0.809575  0.093224  1
  I  I11  1  0.253221  0.084538  0.460389  1
  I  I12  1  0.543151  0.191146  0.908117  1
  I  I13  1  0.809764  0.265788  0.355550  1
  I  I14  1  0.344253  0.455199  0.272464  1
  I  I15  1  0.912445  0.630682  0.179684  1
  I  I16  1  0.656553  0.545194  0.728091  1
  I  I17  1  0.747547  0.915923  0.539691  1
