# generated using pymatgen
data_Dy8AlSi16W11
_symmetry_space_group_name_H-M   'P 1'
_cell_length_a   6.87685608
_cell_length_b   6.87685557
_cell_length_c   12.78786206
_cell_angle_alpha   89.99421545
_cell_angle_beta   90.00578138
_cell_angle_gamma   90.07594540
_symmetry_Int_Tables_number   1
_chemical_formula_structural   Dy8AlSi16W11
_chemical_formula_sum   'Dy8 Al1 Si16 W11'
_cell_volume   604.75211512
_cell_formula_units_Z   1
loop_
 _symmetry_equiv_pos_site_id
 _symmetry_equiv_pos_as_xyz
  1  'x, y, z'
loop_
 _atom_site_type_symbol
 _atom_site_label
 _atom_site_symmetry_multiplicity
 _atom_site_fract_x
 _atom_site_fract_y
 _atom_site_fract_z
 _atom_site_occupancy
  Dy  Dy0  1  0.001178  0.662746  0.032324  1
  Dy  Dy1  1  0.998785  0.336822  0.531611  1
  Dy  Dy2  1  0.662746  0.001178  0.967676  1
  Dy  Dy3  1  0.161937  0.499082  0.781228  1
  Dy  Dy4  1  0.837774  0.502629  0.281175  1
  Dy  Dy5  1  0.499082  0.161937  0.218772  1
  Dy  Dy6  1  0.502629  0.837774  0.718825  1
  Dy  Dy7  1  0.336822  0.998785  0.468389  1
  Al  Al8  1  0.331609  0.331609  0.000000  1
  Si  Si9  1  0.034737  0.712589  0.436825  1
  Si  Si10  1  0.957327  0.289424  0.934517  1
  Si  Si11  1  0.712589  0.034737  0.563175  1
  Si  Si12  1  0.211968  0.465637  0.187193  1
  Si  Si13  1  0.789244  0.537221  0.687079  1
  Si  Si14  1  0.465637  0.211968  0.812807  1
  Si  Si15  1  0.537221  0.789244  0.312921  1
  Si  Si16  1  0.289424  0.957327  0.065483  1
  Si  Si17  1  0.799577  0.873989  0.183550  1
  Si  Si18  1  0.299605  0.625070  0.566389  1
  Si  Si19  1  0.704185  0.373281  0.066969  1
  Si  Si20  1  0.625070  0.299605  0.433611  1
  Si  Si21  1  0.373281  0.704185  0.933031  1
  Si  Si22  1  0.124770  0.201865  0.315712  1
  Si  Si23  1  0.201865  0.124770  0.684288  1
  Si  Si24  1  0.873989  0.799577  0.816450  1
  W  W25  1  0.334221  0.503695  0.375729  1
  W  W26  1  0.833670  0.001946  0.372814  1
  W  W27  1  0.000413  0.164593  0.125349  1
  W  W28  1  0.001946  0.833670  0.627186  1
  W  W29  1  0.503695  0.334221  0.624271  1
  W  W30  1  0.164593  0.000413  0.874651  1
  W  W31  1  0.667593  0.667593  0.500000  1
  W  W32  1  0.830719  0.165563  0.746697  1
  W  W33  1  0.165563  0.830719  0.253303  1
  W  W34  1  0.502997  0.661539  0.122767  1
  W  W35  1  0.661539  0.502997  0.877233  1
