# generated using pymatgen
data_DyLuHf2(NiP)4
_symmetry_space_group_name_H-M   'P 1'
_cell_length_a   3.83972800
_cell_length_b   3.83972801
_cell_length_c   14.55880400
_cell_angle_alpha   90.00000000
_cell_angle_beta   90.00000000
_cell_angle_gamma   119.99999994
_symmetry_Int_Tables_number   1
_chemical_formula_structural   DyLuHf2(NiP)4
_chemical_formula_sum   'Dy1 Lu1 Hf2 Ni4 P4'
_cell_volume   185.89052485
_cell_formula_units_Z   1
loop_
 _symmetry_equiv_pos_site_id
 _symmetry_equiv_pos_as_xyz
  1  'x, y, z'
loop_
 _atom_site_type_symbol
 _atom_site_label
 _atom_site_symmetry_multiplicity
 _atom_site_fract_x
 _atom_site_fract_y
 _atom_site_fract_z
 _atom_site_occupancy
  Dy  Dy0  1  0.000000  0.000000  0.000000  1
  Lu  Lu1  1  0.000000  0.000000  0.500000  1
  Hf  Hf2  1  0.000000  0.000000  0.251738  1
  Hf  Hf3  1  0.000000  0.000000  0.748262  1
  Ni  Ni4  1  0.333333  0.666667  0.355354  1
  Ni  Ni5  1  0.666667  0.333333  0.644646  1
  Ni  Ni6  1  0.666667  0.333333  0.850570  1
  Ni  Ni7  1  0.333333  0.666667  0.149430  1
  P  P8  1  0.333333  0.666667  0.873617  1
  P  P9  1  0.666667  0.333333  0.126383  1
  P  P10  1  0.666667  0.333333  0.377705  1
  P  P11  1  0.333333  0.666667  0.622295  1
