# generated using pymatgen
data_Tb7Tm(LuSn3)2
_symmetry_space_group_name_H-M   'P 1'
_cell_length_a   8.97041600
_cell_length_b   8.97041638
_cell_length_c   6.51149800
_cell_angle_alpha   90.00000000
_cell_angle_beta   90.00000000
_cell_angle_gamma   120.00000597
_symmetry_Int_Tables_number   1
_chemical_formula_structural   Tb7Tm(LuSn3)2
_chemical_formula_sum   'Tb7 Tm1 Lu2 Sn6'
_cell_volume   453.77096430
_cell_formula_units_Z   1
loop_
 _symmetry_equiv_pos_site_id
 _symmetry_equiv_pos_as_xyz
  1  'x, y, z'
loop_
 _atom_site_type_symbol
 _atom_site_label
 _atom_site_symmetry_multiplicity
 _atom_site_fract_x
 _atom_site_fract_y
 _atom_site_fract_z
 _atom_site_occupancy
  Tb  Tb0  1  0.333333  0.666667  0.000000  1
  Tb  Tb1  1  0.760162  0.759989  0.749246  1
  Tb  Tb2  1  0.240011  0.000173  0.749246  1
  Tb  Tb3  1  0.999827  0.239838  0.749246  1
  Tb  Tb4  1  0.240011  0.239838  0.250754  1
  Tb  Tb5  1  0.760162  0.000173  0.250754  1
  Tb  Tb6  1  0.999827  0.759989  0.250754  1
  Tm  Tm7  1  0.666667  0.333333  0.000000  1
  Lu  Lu8  1  0.333333  0.666667  0.500000  1
  Lu  Lu9  1  0.666667  0.333333  0.500000  1
  Sn  Sn10  1  0.396357  0.395599  0.746716  1
  Sn  Sn11  1  0.604401  0.000758  0.746716  1
  Sn  Sn12  1  0.999242  0.603643  0.746716  1
  Sn  Sn13  1  0.604401  0.603643  0.253284  1
  Sn  Sn14  1  0.396357  0.000758  0.253284  1
  Sn  Sn15  1  0.999242  0.395599  0.253284  1
