# generated using pymatgen
data_Eu2ZnNiH8
_symmetry_space_group_name_H-M   'P 1'
_cell_length_a   6.38403966
_cell_length_b   6.38403957
_cell_length_c   4.97867100
_cell_angle_alpha   90.00000000
_cell_angle_beta   90.00000000
_cell_angle_gamma   144.89444345
_symmetry_Int_Tables_number   1
_chemical_formula_structural   Eu2ZnNiH8
_chemical_formula_sum   'Eu2 Zn1 Ni1 H8'
_cell_volume   116.69071685
_cell_formula_units_Z   1
loop_
 _symmetry_equiv_pos_site_id
 _symmetry_equiv_pos_as_xyz
  1  'x, y, z'
loop_
 _atom_site_type_symbol
 _atom_site_label
 _atom_site_symmetry_multiplicity
 _atom_site_fract_x
 _atom_site_fract_y
 _atom_site_fract_z
 _atom_site_occupancy
  Eu  Eu0  1  0.871363  0.128639  0.249999  1
  Eu  Eu1  1  0.129893  0.870109  0.750000  1
  Zn  Zn2  1  0.602709  0.397293  0.249999  1
  Ni  Ni3  1  0.404862  0.595140  0.750000  1
  H  H4  1  0.491908  0.508094  0.986076  1
  H  H5  1  0.694707  0.305295  0.992767  1
  H  H6  1  0.080185  0.919817  0.249999  1
  H  H7  1  0.694707  0.305295  0.507231  1
  H  H8  1  0.491908  0.508094  0.513925  1
  H  H9  1  0.311810  0.688192  0.520982  1
  H  H10  1  0.914148  0.085854  0.750000  1
  H  H11  1  0.311810  0.688192  0.979018  1
