# generated using pymatgen
data_Ho5Tm15(Cd3Ni)2
_symmetry_space_group_name_H-M   'P 1'
_cell_length_a   9.48774700
_cell_length_b   9.48728800
_cell_length_c   9.63414000
_cell_angle_alpha   90.00000000
_cell_angle_beta   90.00000000
_cell_angle_gamma   119.99839271
_symmetry_Int_Tables_number   1
_chemical_formula_structural   Ho5Tm15(Cd3Ni)2
_chemical_formula_sum   'Ho5 Tm15 Cd6 Ni2'
_cell_volume   751.02742857
_cell_formula_units_Z   1
loop_
 _symmetry_equiv_pos_site_id
 _symmetry_equiv_pos_as_xyz
  1  'x, y, z'
loop_
 _atom_site_type_symbol
 _atom_site_label
 _atom_site_symmetry_multiplicity
 _atom_site_fract_x
 _atom_site_fract_y
 _atom_site_fract_z
 _atom_site_occupancy
  Ho  Ho0  1  0.542858  0.457062  0.250000  1
  Ho  Ho1  1  0.542858  0.085796  0.250000  1
  Ho  Ho2  1  0.914043  0.457022  0.250000  1
  Ho  Ho3  1  0.456668  0.542879  0.750000  1
  Ho  Ho4  1  0.456668  0.913789  0.750000  1
  Tm  Tm5  1  0.999913  0.999956  0.499928  1
  Tm  Tm6  1  0.999913  0.999956  0.000072  1
  Tm  Tm7  1  0.085677  0.542839  0.750000  1
  Tm  Tm8  1  0.210908  0.788677  0.438592  1
  Tm  Tm9  1  0.210908  0.422231  0.438592  1
  Tm  Tm10  1  0.577775  0.788887  0.438353  1
  Tm  Tm11  1  0.789402  0.211465  0.561905  1
  Tm  Tm12  1  0.789402  0.577937  0.561905  1
  Tm  Tm13  1  0.422198  0.211099  0.561777  1
  Tm  Tm14  1  0.789402  0.211465  0.938095  1
  Tm  Tm15  1  0.789402  0.577937  0.938095  1
  Tm  Tm16  1  0.422198  0.211099  0.938223  1
  Tm  Tm17  1  0.210908  0.788677  0.061408  1
  Tm  Tm18  1  0.210908  0.422231  0.061408  1
  Tm  Tm19  1  0.577775  0.788887  0.061647  1
  Cd  Cd20  1  0.885580  0.114620  0.250000  1
  Cd  Cd21  1  0.885580  0.770960  0.250000  1
  Cd  Cd22  1  0.228805  0.114403  0.250000  1
  Cd  Cd23  1  0.114413  0.884917  0.750000  1
  Cd  Cd24  1  0.114413  0.229495  0.750000  1
  Cd  Cd25  1  0.770927  0.885464  0.750000  1
  Ni  Ni26  1  0.333515  0.666758  0.250000  1
  Ni  Ni27  1  0.666986  0.333492  0.750000  1
