# generated using pymatgen
data_Dy2Fe11P7W
_symmetry_space_group_name_H-M   'P 1'
_cell_length_a   8.96601060
_cell_length_b   9.05363117
_cell_length_c   3.65091800
_cell_angle_alpha   90.00000000
_cell_angle_beta   90.00000000
_cell_angle_gamma   119.52524316
_symmetry_Int_Tables_number   1
_chemical_formula_structural   Dy2Fe11P7W
_chemical_formula_sum   'Dy2 Fe11 P7 W1'
_cell_volume   257.87698869
_cell_formula_units_Z   1
loop_
 _symmetry_equiv_pos_site_id
 _symmetry_equiv_pos_as_xyz
  1  'x, y, z'
loop_
 _atom_site_type_symbol
 _atom_site_label
 _atom_site_symmetry_multiplicity
 _atom_site_fract_x
 _atom_site_fract_y
 _atom_site_fract_z
 _atom_site_occupancy
  Dy  Dy0  1  0.330940  0.659784  0.000000  1
  Dy  Dy1  1  0.668350  0.335845  0.500001  1
  Fe  Fe2  1  0.431215  0.051794  0.000000  1
  Fe  Fe3  1  0.150813  0.271113  0.000000  1
  Fe  Fe4  1  0.943907  0.370368  0.000000  1
  Fe  Fe5  1  0.632823  0.577188  0.000000  1
  Fe  Fe6  1  0.116065  0.842076  0.000000  1
  Fe  Fe7  1  0.721697  0.880704  0.000000  1
  Fe  Fe8  1  0.903971  0.122303  0.500001  1
  Fe  Fe9  1  0.385027  0.436689  0.500001  1
  Fe  Fe10  1  0.046520  0.613266  0.500001  1
  Fe  Fe11  1  0.880777  0.786417  0.500001  1
  Fe  Fe12  1  0.567675  0.954398  0.500001  1
  P  P13  1  0.991309  0.996116  0.000000  1
  P  P14  1  0.711699  0.118443  0.000000  1
  P  P15  1  0.416593  0.309745  0.000000  1
  P  P16  1  0.888013  0.588626  0.000000  1
  P  P17  1  0.110561  0.401043  0.500001  1
  P  P18  1  0.600006  0.710011  0.500001  1
  P  P19  1  0.284562  0.872186  0.500001  1
  W  W20  1  0.217479  0.101890  0.500001  1
