# generated using pymatgen
data_Y3Zn3Ag2Ru
_symmetry_space_group_name_H-M   'P 1'
_cell_length_a   7.49248500
_cell_length_b   7.49248358
_cell_length_c   3.86078400
_cell_angle_alpha   90.00000000
_cell_angle_beta   90.00000000
_cell_angle_gamma   120.00000184
_symmetry_Int_Tables_number   1
_chemical_formula_structural   Y3Zn3Ag2Ru
_chemical_formula_sum   'Y3 Zn3 Ag2 Ru1'
_cell_volume   187.69720715
_cell_formula_units_Z   1
loop_
 _symmetry_equiv_pos_site_id
 _symmetry_equiv_pos_as_xyz
  1  'x, y, z'
loop_
 _atom_site_type_symbol
 _atom_site_label
 _atom_site_symmetry_multiplicity
 _atom_site_fract_x
 _atom_site_fract_y
 _atom_site_fract_z
 _atom_site_occupancy
  Y  Y0  1  0.422894  0.396488  0.500000  1
  Y  Y1  1  0.973594  0.577106  0.500000  1
  Y  Y2  1  0.603512  0.026406  0.500000  1
  Zn  Zn3  1  0.739351  0.730564  0.000000  1
  Zn  Zn4  1  0.269436  0.008788  0.000000  1
  Zn  Zn5  1  0.991212  0.260649  0.000000  1
  Ag  Ag6  1  0.333333  0.666667  0.000000  1
  Ag  Ag7  1  0.000000  0.000000  0.500000  1
  Ru  Ru8  1  0.666667  0.333333  0.000000  1
