# generated using pymatgen
data_CeEr4Al2Os3
_symmetry_space_group_name_H-M   'P 1'
_cell_length_a   8.40267778
_cell_length_b   8.34399101
_cell_length_c   8.31823072
_cell_angle_alpha   109.89319894
_cell_angle_beta   109.34104118
_cell_angle_gamma   110.05017861
_symmetry_Int_Tables_number   1
_chemical_formula_structural   CeEr4Al2Os3
_chemical_formula_sum   'Ce2 Er8 Al4 Os6'
_cell_volume   444.04863262
_cell_formula_units_Z   2
loop_
 _symmetry_equiv_pos_site_id
 _symmetry_equiv_pos_as_xyz
  1  'x, y, z'
loop_
 _atom_site_type_symbol
 _atom_site_label
 _atom_site_symmetry_multiplicity
 _atom_site_fract_x
 _atom_site_fract_y
 _atom_site_fract_z
 _atom_site_occupancy
  Ce  Ce0  1  0.939246  0.251439  0.191189  1
  Ce  Ce1  1  0.191872  0.937015  0.250431  1
  Er  Er2  1  0.782231  0.785580  0.779365  1
  Er  Er3  1  0.321571  0.572119  0.753194  1
  Er  Er4  1  0.750255  0.321277  0.573106  1
  Er  Er5  1  0.571612  0.747760  0.318234  1
  Er  Er6  1  0.716349  0.502571  0.998270  1
  Er  Er7  1  0.999613  0.718075  0.506697  1
  Er  Er8  1  0.501175  0.993838  0.714716  1
  Er  Er9  1  0.251781  0.181787  0.927101  1
  Al  Al10  1  0.415600  0.411693  0.410642  1
  Al  Al11  1  0.090738  0.493135  0.996825  1
  Al  Al12  1  0.997165  0.089752  0.500922  1
  Al  Al13  1  0.501389  0.007982  0.092767  1
  Os  Os14  1  0.871929  0.120363  0.742843  1
  Os  Os15  1  0.749489  0.892094  0.122362  1
  Os  Os16  1  0.127338  0.756625  0.896405  1
  Os  Os17  1  0.235013  0.602907  0.367238  1
  Os  Os18  1  0.361961  0.232926  0.605791  1
  Os  Os19  1  0.623675  0.381062  0.251900  1
