# generated using pymatgen
data_Lu5GaBiOs
_symmetry_space_group_name_H-M   'P 1'
_cell_length_a   8.61597291
_cell_length_b   8.61597324
_cell_length_c   8.72334099
_cell_angle_alpha   126.93759046
_cell_angle_beta   126.93758301
_cell_angle_gamma   77.47493989
_symmetry_Int_Tables_number   1
_chemical_formula_structural   Lu5GaBiOs
_chemical_formula_sum   'Lu10 Ga2 Bi2 Os2'
_cell_volume   403.02813459
_cell_formula_units_Z   2
loop_
 _symmetry_equiv_pos_site_id
 _symmetry_equiv_pos_as_xyz
  1  'x, y, z'
loop_
 _atom_site_type_symbol
 _atom_site_label
 _atom_site_symmetry_multiplicity
 _atom_site_fract_x
 _atom_site_fract_y
 _atom_site_fract_z
 _atom_site_occupancy
  Lu  Lu0  1  0.000000  0.000000  0.000000  1
  Lu  Lu1  1  0.500000  0.500000  0.000000  1
  Lu  Lu2  1  0.781635  0.281635  0.792160  1
  Lu  Lu3  1  0.218365  0.718365  0.207840  1
  Lu  Lu4  1  0.489477  0.989477  0.207840  1
  Lu  Lu5  1  0.308046  0.462010  0.500000  1
  Lu  Lu6  1  0.037990  0.191954  0.500000  1
  Lu  Lu7  1  0.510523  0.010523  0.792160  1
  Lu  Lu8  1  0.691954  0.537990  0.500000  1
  Lu  Lu9  1  0.962010  0.808046  0.500000  1
  Ga  Ga10  1  0.137546  0.637546  0.775092  1
  Ga  Ga11  1  0.862454  0.362454  0.224908  1
  Bi  Bi12  1  0.250000  0.250000  0.000000  1
  Bi  Bi13  1  0.750000  0.750000  0.000000  1
  Os  Os14  1  0.635591  0.864409  0.500000  1
  Os  Os15  1  0.364409  0.135591  0.500000  1
