# generated using pymatgen
data_Pr2AlGaI2
_symmetry_space_group_name_H-M   'P 1'
_cell_length_a   4.34382400
_cell_length_b   4.34382442
_cell_length_c   12.81982900
_cell_angle_alpha   90.00000000
_cell_angle_beta   90.00000000
_cell_angle_gamma   119.99998154
_symmetry_Int_Tables_number   1
_chemical_formula_structural   Pr2AlGaI2
_chemical_formula_sum   'Pr2 Al1 Ga1 I2'
_cell_volume   209.48716916
_cell_formula_units_Z   1
loop_
 _symmetry_equiv_pos_site_id
 _symmetry_equiv_pos_as_xyz
  1  'x, y, z'
loop_
 _atom_site_type_symbol
 _atom_site_label
 _atom_site_symmetry_multiplicity
 _atom_site_fract_x
 _atom_site_fract_y
 _atom_site_fract_z
 _atom_site_occupancy
  Pr  Pr0  1  0.000000  0.000000  0.831113  1
  Pr  Pr1  1  0.000000  0.000000  0.166345  1
  Al  Al2  1  0.333333  0.666667  0.981209  1
  Ga  Ga3  1  0.666667  0.333333  0.022888  1
  I  I4  1  0.666667  0.333333  0.669971  1
  I  I5  1  0.333333  0.666667  0.328473  1
