# generated using pymatgen
data_CeY3HfIr3
_symmetry_space_group_name_H-M   'P 1'
_cell_length_a   10.91341300
_cell_length_b   10.97115600
_cell_length_c   6.25142100
_cell_angle_alpha   90.00000000
_cell_angle_beta   90.00000000
_cell_angle_gamma   90.00000000
_symmetry_Int_Tables_number   1
_chemical_formula_structural   CeY3HfIr3
_chemical_formula_sum   'Ce4 Y12 Hf4 Ir12'
_cell_volume   748.49986847
_cell_formula_units_Z   4
loop_
 _symmetry_equiv_pos_site_id
 _symmetry_equiv_pos_as_xyz
  1  'x, y, z'
loop_
 _atom_site_type_symbol
 _atom_site_label
 _atom_site_symmetry_multiplicity
 _atom_site_fract_x
 _atom_site_fract_y
 _atom_site_fract_z
 _atom_site_occupancy
  Ce  Ce0  1  0.292897  0.087725  0.377422  1
  Ce  Ce1  1  0.292897  0.912275  0.877422  1
  Ce  Ce2  1  0.707103  0.087725  0.877422  1
  Ce  Ce3  1  0.707103  0.912275  0.377422  1
  Y  Y4  1  0.586605  0.782630  0.874730  1
  Y  Y5  1  0.586605  0.217370  0.374730  1
  Y  Y6  1  0.413395  0.782630  0.374730  1
  Y  Y7  1  0.413395  0.217370  0.874730  1
  Y  Y8  1  0.208822  0.415077  0.626480  1
  Y  Y9  1  0.208822  0.584923  0.126480  1
  Y  Y10  1  0.791178  0.415077  0.126480  1
  Y  Y11  1  0.791178  0.584923  0.626480  1
  Y  Y12  1  0.914181  0.712681  0.123306  1
  Y  Y13  1  0.914181  0.287319  0.623306  1
  Y  Y14  1  0.085819  0.712681  0.623306  1
  Y  Y15  1  0.085819  0.287319  0.123306  1
  Hf  Hf16  1  0.000000  0.000000  0.493392  1
  Hf  Hf17  1  0.000000  0.000000  0.993392  1
  Hf  Hf18  1  0.500000  0.500000  0.009936  1
  Hf  Hf19  1  0.500000  0.500000  0.509936  1
  Ir  Ir20  1  0.854534  0.140016  0.240826  1
  Ir  Ir21  1  0.854534  0.859984  0.740826  1
  Ir  Ir22  1  0.145466  0.140016  0.740826  1
  Ir  Ir23  1  0.145466  0.859984  0.240826  1
  Ir  Ir24  1  0.642054  0.358290  0.757073  1
  Ir  Ir25  1  0.642054  0.641710  0.257073  1
  Ir  Ir26  1  0.357946  0.358290  0.257073  1
  Ir  Ir27  1  0.357946  0.641710  0.757073  1
  Ir  Ir28  1  0.500000  0.000000  0.115473  1
  Ir  Ir29  1  0.500000  0.000000  0.615473  1
  Ir  Ir30  1  0.000000  0.500000  0.881528  1
  Ir  Ir31  1  0.000000  0.500000  0.381528  1
