# generated using pymatgen
data_Zn6In5GeRh12
_symmetry_space_group_name_H-M   'P 1'
_cell_length_a   4.40655000
_cell_length_b   6.28937600
_cell_length_c   13.22087400
_cell_angle_alpha   90.00000000
_cell_angle_beta   89.99995233
_cell_angle_gamma   90.00000000
_symmetry_Int_Tables_number   1
_chemical_formula_structural   Zn6In5GeRh12
_chemical_formula_sum   'Zn6 In5 Ge1 Rh12'
_cell_volume   366.40924895
_cell_formula_units_Z   1
loop_
 _symmetry_equiv_pos_site_id
 _symmetry_equiv_pos_as_xyz
  1  'x, y, z'
loop_
 _atom_site_type_symbol
 _atom_site_label
 _atom_site_symmetry_multiplicity
 _atom_site_fract_x
 _atom_site_fract_y
 _atom_site_fract_z
 _atom_site_occupancy
  Zn  Zn0  1  0.999998  0.500000  0.004042  1
  Zn  Zn1  1  0.500004  0.000000  0.163618  1
  Zn  Zn2  1  0.000003  0.500000  0.333384  1
  Zn  Zn3  1  0.500000  0.000000  0.503064  1
  Zn  Zn4  1  0.999997  0.500000  0.662672  1
  Zn  Zn5  1  0.499996  0.000000  0.833382  1
  In  In6  1  0.999998  0.000000  0.996525  1
  In  In7  1  0.500005  0.500000  0.165026  1
  In  In8  1  0.000013  0.000000  0.333167  1
  In  In9  1  0.499998  0.500000  0.501823  1
  In  In10  1  0.999997  0.000000  0.669734  1
  Ge  Ge11  1  0.499995  0.500000  0.833420  1
  Rh  Rh12  1  0.499998  0.260226  0.990230  1
  Rh  Rh13  1  0.499998  0.739775  0.990230  1
  Rh  Rh14  1  0.000005  0.247892  0.164804  1
  Rh  Rh15  1  0.000005  0.752109  0.164804  1
  Rh  Rh16  1  0.500003  0.250598  0.333387  1
  Rh  Rh17  1  0.500003  0.749403  0.333387  1
  Rh  Rh18  1  0.999999  0.247800  0.501756  1
  Rh  Rh19  1  0.999999  0.752199  0.501756  1
  Rh  Rh20  1  0.499998  0.260218  0.676568  1
  Rh  Rh21  1  0.499998  0.739783  0.676568  1
  Rh  Rh22  1  0.999995  0.270322  0.833326  1
  Rh  Rh23  1  0.999995  0.729679  0.833326  1
