# generated using pymatgen
data_Sr3Pr(Ge3Pd)2
_symmetry_space_group_name_H-M   'P 1'
_cell_length_a   8.70132700
_cell_length_b   8.70132705
_cell_length_c   8.90913100
_cell_angle_alpha   90.00000000
_cell_angle_beta   90.00000000
_cell_angle_gamma   120.00000360
_symmetry_Int_Tables_number   1
_chemical_formula_structural   Sr3Pr(Ge3Pd)2
_chemical_formula_sum   'Sr6 Pr2 Ge12 Pd4'
_cell_volume   584.16689717
_cell_formula_units_Z   2
loop_
 _symmetry_equiv_pos_site_id
 _symmetry_equiv_pos_as_xyz
  1  'x, y, z'
loop_
 _atom_site_type_symbol
 _atom_site_label
 _atom_site_symmetry_multiplicity
 _atom_site_fract_x
 _atom_site_fract_y
 _atom_site_fract_z
 _atom_site_occupancy
  Sr  Sr0  1  0.499945  0.500055  0.750000  1
  Sr  Sr1  1  0.500055  0.499945  0.250000  1
  Sr  Sr2  1  0.000112  0.500055  0.750000  1
  Sr  Sr3  1  0.999888  0.499945  0.250000  1
  Sr  Sr4  1  0.499945  0.999888  0.750000  1
  Sr  Sr5  1  0.500055  0.000112  0.250000  1
  Pr  Pr6  1  0.000000  0.000000  0.750000  1
  Pr  Pr7  1  0.000000  0.000000  0.250000  1
  Ge  Ge8  1  0.834492  0.165508  0.001714  1
  Ge  Ge9  1  0.165508  0.834492  0.998286  1
  Ge  Ge10  1  0.331017  0.165508  0.001714  1
  Ge  Ge11  1  0.165508  0.834492  0.501714  1
  Ge  Ge12  1  0.668983  0.834492  0.998286  1
  Ge  Ge13  1  0.834492  0.165508  0.498286  1
  Ge  Ge14  1  0.834492  0.668983  0.001714  1
  Ge  Ge15  1  0.668983  0.834492  0.501714  1
  Ge  Ge16  1  0.165508  0.331017  0.998286  1
  Ge  Ge17  1  0.331017  0.165508  0.498286  1
  Ge  Ge18  1  0.165508  0.331017  0.501714  1
  Ge  Ge19  1  0.834492  0.668983  0.498286  1
  Pd  Pd20  1  0.666667  0.333333  0.998118  1
  Pd  Pd21  1  0.333333  0.666667  0.001882  1
  Pd  Pd22  1  0.333333  0.666667  0.498118  1
  Pd  Pd23  1  0.666667  0.333333  0.501882  1
