# generated using pymatgen
data_EuHf4N5
_symmetry_space_group_name_H-M   'P 1'
_cell_length_a   13.74616901
_cell_length_b   13.74616901
_cell_length_c   13.74617000
_cell_angle_alpha   13.54835991
_cell_angle_beta   13.54835983
_cell_angle_gamma   13.54835981
_symmetry_Int_Tables_number   1
_chemical_formula_structural   EuHf4N5
_chemical_formula_sum   'Eu1 Hf4 N5'
_cell_volume   124.02608476
_cell_formula_units_Z   1
loop_
 _symmetry_equiv_pos_site_id
 _symmetry_equiv_pos_as_xyz
  1  'x, y, z'
loop_
 _atom_site_type_symbol
 _atom_site_label
 _atom_site_symmetry_multiplicity
 _atom_site_fract_x
 _atom_site_fract_y
 _atom_site_fract_z
 _atom_site_occupancy
  Eu  Eu0  1  0.000000  0.000000  0.000000  1
  Hf  Hf1  1  0.596378  0.596378  0.596378  1
  Hf  Hf2  1  0.197688  0.197688  0.197688  1
  Hf  Hf3  1  0.802312  0.802312  0.802312  1
  Hf  Hf4  1  0.403622  0.403622  0.403622  1
  N  N5  1  0.708855  0.708855  0.708855  1
  N  N6  1  0.500000  0.500000  0.500000  1
  N  N7  1  0.102837  0.102837  0.102837  1
  N  N8  1  0.291145  0.291145  0.291145  1
  N  N9  1  0.897163  0.897163  0.897163  1
