# generated using pymatgen
data_Sc22Ir3Os4Au
_symmetry_space_group_name_H-M   'P 1'
_cell_length_a   9.50165583
_cell_length_b   9.52346944
_cell_length_c   9.52555651
_cell_angle_alpha   59.72370588
_cell_angle_beta   60.06803197
_cell_angle_gamma   60.09118149
_symmetry_Int_Tables_number   1
_chemical_formula_structural   Sc22Ir3Os4Au
_chemical_formula_sum   'Sc22 Ir3 Os4 Au1'
_cell_volume   608.93944881
_cell_formula_units_Z   1
loop_
 _symmetry_equiv_pos_site_id
 _symmetry_equiv_pos_as_xyz
  1  'x, y, z'
loop_
 _atom_site_type_symbol
 _atom_site_label
 _atom_site_symmetry_multiplicity
 _atom_site_fract_x
 _atom_site_fract_y
 _atom_site_fract_z
 _atom_site_occupancy
  Sc  Sc0  1  0.802764  0.803615  0.196383  1
  Sc  Sc1  1  0.196786  0.803595  0.196412  1
  Sc  Sc2  1  0.803714  0.196286  0.196289  1
  Sc  Sc3  1  0.197236  0.196385  0.803617  1
  Sc  Sc4  1  0.803214  0.196405  0.803588  1
  Sc  Sc5  1  0.196286  0.803714  0.803711  1
  Sc  Sc6  1  0.614286  0.618289  0.150467  1
  Sc  Sc7  1  0.616962  0.150470  0.618291  1
  Sc  Sc8  1  0.150834  0.622245  0.619125  1
  Sc  Sc9  1  0.607797  0.619117  0.622244  1
  Sc  Sc10  1  0.385714  0.381711  0.849533  1
  Sc  Sc11  1  0.383038  0.849530  0.381709  1
  Sc  Sc12  1  0.849166  0.377755  0.380875  1
  Sc  Sc13  1  0.392203  0.380883  0.377756  1
  Sc  Sc14  1  0.837882  0.853365  0.471592  1
  Sc  Sc15  1  0.837159  0.471596  0.853355  1
  Sc  Sc16  1  0.469502  0.843279  0.844212  1
  Sc  Sc17  1  0.843004  0.844226  0.843269  1
  Sc  Sc18  1  0.162118  0.146635  0.528408  1
  Sc  Sc19  1  0.162841  0.528404  0.146645  1
  Sc  Sc20  1  0.530498  0.156721  0.155788  1
  Sc  Sc21  1  0.156996  0.155774  0.156731  1
  Ir  Ir22  1  0.500000  0.000000  0.500000  1
  Ir  Ir23  1  0.000000  0.500000  0.000000  1
  Ir  Ir24  1  0.500000  0.000000  0.000000  1
  Os  Os25  1  0.000000  0.000000  0.000000  1
  Os  Os26  1  0.500000  0.500000  0.500000  1
  Os  Os27  1  0.000000  0.000000  0.500000  1
  Os  Os28  1  0.500000  0.500000  0.000000  1
  Au  Au29  1  0.000000  0.500000  0.500000  1
