# generated using pymatgen
data_Er2Nb6Fe3Co13P12
_symmetry_space_group_name_H-M   'P 1'
_cell_length_a   12.00165400
_cell_length_b   12.00165378
_cell_length_c   3.60665300
_cell_angle_alpha   90.00000000
_cell_angle_beta   90.00000000
_cell_angle_gamma   120.00000060
_symmetry_Int_Tables_number   1
_chemical_formula_structural   Er2Nb6Fe3Co13P12
_chemical_formula_sum   'Er2 Nb6 Fe3 Co13 P12'
_cell_volume   449.90123563
_cell_formula_units_Z   1
loop_
 _symmetry_equiv_pos_site_id
 _symmetry_equiv_pos_as_xyz
  1  'x, y, z'
loop_
 _atom_site_type_symbol
 _atom_site_label
 _atom_site_symmetry_multiplicity
 _atom_site_fract_x
 _atom_site_fract_y
 _atom_site_fract_z
 _atom_site_occupancy
  Er  Er0  1  0.333333  0.666667  0.000000  1
  Er  Er1  1  0.666667  0.333333  0.000000  1
  Nb  Nb2  1  0.820923  0.000000  0.500000  1
  Nb  Nb3  1  0.000000  0.820923  0.500000  1
  Nb  Nb4  1  0.179077  0.179077  0.500000  1
  Nb  Nb5  1  0.445584  0.000000  0.000000  1
  Nb  Nb6  1  0.000000  0.445584  0.000000  1
  Nb  Nb7  1  0.554416  0.554416  0.000000  1
  Fe  Fe8  1  0.274142  0.000000  0.500000  1
  Fe  Fe9  1  0.000000  0.274142  0.500000  1
  Fe  Fe10  1  0.725858  0.725858  0.500000  1
  Co  Co11  1  0.634870  0.810689  0.000000  1
  Co  Co12  1  0.189311  0.824181  0.000000  1
  Co  Co13  1  0.175819  0.365130  0.000000  1
  Co  Co14  1  0.365130  0.175819  0.000000  1
  Co  Co15  1  0.810689  0.634870  0.000000  1
  Co  Co16  1  0.824181  0.189311  0.000000  1
  Co  Co17  1  0.521452  0.873868  0.500000  1
  Co  Co18  1  0.126132  0.647584  0.500000  1
  Co  Co19  1  0.352416  0.478548  0.500000  1
  Co  Co20  1  0.478548  0.352416  0.500000  1
  Co  Co21  1  0.873868  0.521452  0.500000  1
  Co  Co22  1  0.647584  0.126132  0.500000  1
  Co  Co23  1  0.000000  0.000000  0.000000  1
  P  P24  1  0.172808  0.000000  0.000000  1
  P  P25  1  0.000000  0.172808  0.000000  1
  P  P26  1  0.827192  0.827192  0.000000  1
  P  P27  1  0.523156  0.690476  0.500000  1
  P  P28  1  0.309524  0.832681  0.500000  1
  P  P29  1  0.167319  0.476844  0.500000  1
  P  P30  1  0.476844  0.167319  0.500000  1
  P  P31  1  0.690476  0.523156  0.500000  1
  P  P32  1  0.832681  0.309524  0.500000  1
  P  P33  1  0.648832  0.000000  0.000000  1
  P  P34  1  0.000000  0.648832  0.000000  1
  P  P35  1  0.351168  0.351168  0.000000  1
