# generated using pymatgen
data_Dy3Sc2Sn2Bi
_symmetry_space_group_name_H-M   'P 1'
_cell_length_a   8.85804910
_cell_length_b   8.85447157
_cell_length_c   6.26838400
_cell_angle_alpha   90.00000000
_cell_angle_beta   90.00000000
_cell_angle_gamma   119.98664499
_symmetry_Int_Tables_number   1
_chemical_formula_structural   Dy3Sc2Sn2Bi
_chemical_formula_sum   'Dy6 Sc4 Sn4 Bi2'
_cell_volume   425.83895278
_cell_formula_units_Z   2
loop_
 _symmetry_equiv_pos_site_id
 _symmetry_equiv_pos_as_xyz
  1  'x, y, z'
loop_
 _atom_site_type_symbol
 _atom_site_label
 _atom_site_symmetry_multiplicity
 _atom_site_fract_x
 _atom_site_fract_y
 _atom_site_fract_z
 _atom_site_occupancy
  Dy  Dy0  1  0.994636  0.755455  0.750000  1
  Dy  Dy1  1  0.994636  0.239182  0.250000  1
  Dy  Dy2  1  0.761798  0.761663  0.250000  1
  Dy  Dy3  1  0.761798  0.000135  0.750000  1
  Dy  Dy4  1  0.238863  0.244322  0.750000  1
  Dy  Dy5  1  0.238863  0.994539  0.250000  1
  Sc  Sc6  1  0.330654  0.665327  0.500000  1
  Sc  Sc7  1  0.674655  0.337327  0.000000  1
  Sc  Sc8  1  0.674655  0.337327  0.500000  1
  Sc  Sc9  1  0.330654  0.665327  0.000000  1
  Sn  Sn10  1  0.001031  0.601354  0.250000  1
  Sn  Sn11  1  0.001031  0.399678  0.750000  1
  Sn  Sn12  1  0.601368  0.602263  0.750000  1
  Sn  Sn13  1  0.601368  0.999104  0.250000  1
  Bi  Bi14  1  0.396995  0.001646  0.750000  1
  Bi  Bi15  1  0.396995  0.395349  0.250000  1
