# generated using pymatgen
data_SrAc3H10
_symmetry_space_group_name_H-M   'P 1'
_cell_length_a   7.17324624
_cell_length_b   7.17324680
_cell_length_c   7.17324593
_cell_angle_alpha   132.49209793
_cell_angle_beta   131.96614558
_cell_angle_gamma   69.86825402
_symmetry_Int_Tables_number   1
_chemical_formula_structural   SrAc3H10
_chemical_formula_sum   'Sr1 Ac3 H10'
_cell_volume   198.43685615
_cell_formula_units_Z   1
loop_
 _symmetry_equiv_pos_site_id
 _symmetry_equiv_pos_as_xyz
  1  'x, y, z'
loop_
 _atom_site_type_symbol
 _atom_site_label
 _atom_site_symmetry_multiplicity
 _atom_site_fract_x
 _atom_site_fract_y
 _atom_site_fract_z
 _atom_site_occupancy
  Sr  Sr0  1  0.506251  0.006251  0.500000  1
  Ac  Ac1  1  0.239485  0.239485  0.000000  1
  Ac  Ac2  1  0.991800  0.491800  0.500000  1
  Ac  Ac3  1  0.758231  0.758231  0.000000  1
  H  H4  1  0.601646  0.622098  0.474771  1
  H  H5  1  0.147326  0.126875  0.525229  1
  H  H6  1  0.601646  0.126875  0.979548  1
  H  H7  1  0.147326  0.622098  0.020452  1
  H  H8  1  0.375056  0.400262  0.524808  1
  H  H9  1  0.875455  0.850247  0.475192  1
  H  H10  1  0.875455  0.400262  0.025208  1
  H  H11  1  0.375056  0.850247  0.974792  1
  H  H12  1  0.754666  0.254666  0.500000  1
  H  H13  1  0.000605  0.000605  0.000000  1
