# generated using pymatgen
data_YbAg(NO3)4
_symmetry_space_group_name_H-M   'P 1'
_cell_length_a   7.97306407
_cell_length_b   7.57789900
_cell_length_c   8.56208500
_cell_angle_alpha   90.00000000
_cell_angle_beta   85.84674684
_cell_angle_gamma   90.00000000
_symmetry_Int_Tables_number   1
_chemical_formula_structural   YbAg(NO3)4
_chemical_formula_sum   'Yb2 Ag2 N8 O24'
_cell_volume   515.95473255
_cell_formula_units_Z   2
loop_
 _symmetry_equiv_pos_site_id
 _symmetry_equiv_pos_as_xyz
  1  'x, y, z'
loop_
 _atom_site_type_symbol
 _atom_site_label
 _atom_site_symmetry_multiplicity
 _atom_site_fract_x
 _atom_site_fract_y
 _atom_site_fract_z
 _atom_site_occupancy
  Yb  Yb0  1  0.000000  0.500000  0.000000  1
  Yb  Yb1  1  0.000000  0.000000  0.500000  1
  Ag  Ag2  1  0.500000  0.500000  0.500000  1
  Ag  Ag3  1  0.500000  0.000000  0.000000  1
  N  N4  1  0.677209  0.172142  0.349458  1
  N  N5  1  0.677209  0.327858  0.849458  1
  N  N6  1  0.831393  0.831108  0.827369  1
  N  N7  1  0.831393  0.668892  0.327369  1
  N  N8  1  0.168607  0.168892  0.172631  1
  N  N9  1  0.168607  0.331108  0.672631  1
  N  N10  1  0.322791  0.672142  0.150542  1
  N  N11  1  0.322791  0.827858  0.650542  1
  O  O12  1  0.554630  0.220694  0.833128  1
  O  O13  1  0.554630  0.279306  0.333128  1
  O  O14  1  0.699865  0.451428  0.754382  1
  O  O15  1  0.699865  0.048572  0.254382  1
  O  O16  1  0.728381  0.682141  0.447951  1
  O  O17  1  0.728381  0.817859  0.947951  1
  O  O18  1  0.771420  0.305324  0.960722  1
  O  O19  1  0.771420  0.194676  0.460722  1
  O  O20  1  0.807498  0.939435  0.720508  1
  O  O21  1  0.807498  0.560565  0.220508  1
  O  O22  1  0.958929  0.731300  0.818683  1
  O  O23  1  0.958929  0.768700  0.318683  1
  O  O24  1  0.041071  0.231300  0.681317  1
  O  O25  1  0.041071  0.268700  0.181317  1
  O  O26  1  0.192502  0.439435  0.779492  1
  O  O27  1  0.192502  0.060565  0.279492  1
  O  O28  1  0.228580  0.694676  0.039278  1
  O  O29  1  0.228580  0.805324  0.539278  1
  O  O30  1  0.271619  0.182141  0.052049  1
  O  O31  1  0.271619  0.317859  0.552049  1
  O  O32  1  0.300135  0.548572  0.245618  1
  O  O33  1  0.300135  0.951428  0.745618  1
  O  O34  1  0.445370  0.720694  0.666872  1
  O  O35  1  0.445370  0.779306  0.166872  1
