# generated using pymatgen
data_Tb2CeMg3Ir2Pd
_symmetry_space_group_name_H-M   'P 1'
_cell_length_a   7.36920453
_cell_length_b   7.36920322
_cell_length_c   4.00475900
_cell_angle_alpha   90.00000000
_cell_angle_beta   90.00000000
_cell_angle_gamma   117.71771388
_symmetry_Int_Tables_number   1
_chemical_formula_structural   Tb2CeMg3Ir2Pd
_chemical_formula_sum   'Tb2 Ce1 Mg3 Ir2 Pd1'
_cell_volume   192.52334625
_cell_formula_units_Z   1
loop_
 _symmetry_equiv_pos_site_id
 _symmetry_equiv_pos_as_xyz
  1  'x, y, z'
loop_
 _atom_site_type_symbol
 _atom_site_label
 _atom_site_symmetry_multiplicity
 _atom_site_fract_x
 _atom_site_fract_y
 _atom_site_fract_z
 _atom_site_occupancy
  Tb  Tb0  1  0.999476  0.583980  0.500000  1
  Tb  Tb1  1  0.583980  0.999476  0.500000  1
  Ce  Ce2  1  0.430371  0.430371  0.500000  1
  Mg  Mg3  1  0.760281  0.760281  0.000000  1
  Mg  Mg4  1  0.247032  0.997345  0.000000  1
  Mg  Mg5  1  0.997345  0.247032  0.000000  1
  Ir  Ir6  1  0.651877  0.332850  0.000000  1
  Ir  Ir7  1  0.332850  0.651877  0.000000  1
  Pd  Pd8  1  0.996788  0.996788  0.500000  1
