# generated using pymatgen
data_Hf16Co4ReMo3
_symmetry_space_group_name_H-M   'P 1'
_cell_length_a   8.67588566
_cell_length_b   8.67588540
_cell_length_c   8.67588668
_cell_angle_alpha   60.01220271
_cell_angle_beta   60.01219371
_cell_angle_gamma   60.01220169
_symmetry_Int_Tables_number   1
_chemical_formula_structural   Hf16Co4ReMo3
_chemical_formula_sum   'Hf16 Co4 Re1 Mo3'
_cell_volume   461.89854636
_cell_formula_units_Z   1
loop_
 _symmetry_equiv_pos_site_id
 _symmetry_equiv_pos_as_xyz
  1  'x, y, z'
loop_
 _atom_site_type_symbol
 _atom_site_label
 _atom_site_symmetry_multiplicity
 _atom_site_fract_x
 _atom_site_fract_y
 _atom_site_fract_z
 _atom_site_occupancy
  Hf  Hf0  1  0.696754  0.101538  0.101538  1
  Hf  Hf1  1  0.101538  0.696754  0.101538  1
  Hf  Hf2  1  0.101538  0.101538  0.696754  1
  Hf  Hf3  1  0.100688  0.100688  0.100688  1
  Hf  Hf4  1  0.313877  0.313877  0.684362  1
  Hf  Hf5  1  0.685796  0.685796  0.314098  1
  Hf  Hf6  1  0.313877  0.684362  0.313877  1
  Hf  Hf7  1  0.685796  0.314098  0.685796  1
  Hf  Hf8  1  0.684362  0.313877  0.313877  1
  Hf  Hf9  1  0.314098  0.685796  0.685796  1
  Hf  Hf10  1  0.949719  0.949719  0.550267  1
  Hf  Hf11  1  0.548584  0.548584  0.952001  1
  Hf  Hf12  1  0.949719  0.550267  0.949719  1
  Hf  Hf13  1  0.548584  0.952001  0.548584  1
  Hf  Hf14  1  0.550267  0.949719  0.949719  1
  Hf  Hf15  1  0.952001  0.548584  0.548584  1
  Co  Co16  1  0.326203  0.891404  0.891404  1
  Co  Co17  1  0.891404  0.326203  0.891404  1
  Co  Co18  1  0.891404  0.891404  0.326203  1
  Co  Co19  1  0.891298  0.891298  0.891298  1
  Re  Re20  1  0.334146  0.334146  0.334146  1
  Mo  Mo21  1  0.002449  0.332948  0.332948  1
  Mo  Mo22  1  0.332948  0.002449  0.332948  1
  Mo  Mo23  1  0.332948  0.332948  0.002449  1
