# generated using pymatgen
data_Mg2Ti3(Re7Tc5)2
_symmetry_space_group_name_H-M   'P 1'
_cell_length_a   8.36980926
_cell_length_b   8.36455945
_cell_length_c   8.36327140
_cell_angle_alpha   109.48834156
_cell_angle_beta   109.51881511
_cell_angle_gamma   109.54709134
_symmetry_Int_Tables_number   1
_chemical_formula_structural   Mg2Ti3(Re7Tc5)2
_chemical_formula_sum   'Mg2 Ti3 Re14 Tc10'
_cell_volume   449.94252697
_cell_formula_units_Z   1
loop_
 _symmetry_equiv_pos_site_id
 _symmetry_equiv_pos_as_xyz
  1  'x, y, z'
loop_
 _atom_site_type_symbol
 _atom_site_label
 _atom_site_symmetry_multiplicity
 _atom_site_fract_x
 _atom_site_fract_y
 _atom_site_fract_z
 _atom_site_occupancy
  Mg  Mg0  1  0.998435  0.999458  0.999731  1
  Mg  Mg1  1  0.638791  0.999864  0.999788  1
  Ti  Ti2  1  0.000736  0.636102  0.999938  1
  Ti  Ti3  1  0.000262  0.999093  0.635695  1
  Ti  Ti4  1  0.364991  0.363846  0.362878  1
  Re  Re5  1  0.280878  0.600113  0.600105  1
  Re  Re6  1  0.598505  0.280150  0.601007  1
  Re  Re7  1  0.377638  0.192645  0.999863  1
  Re  Re8  1  0.185487  0.808355  0.808559  1
  Re  Re9  1  0.378164  0.001141  0.193516  1
  Re  Re10  1  0.194883  0.375440  0.999975  1
  Re  Re11  1  0.001145  0.377683  0.193463  1
  Re  Re12  1  0.808464  0.184522  0.808392  1
  Re  Re13  1  0.807563  0.807669  0.184893  1
  Re  Re14  1  0.000634  0.192742  0.377622  1
  Re  Re15  1  0.195155  0.000552  0.375729  1
  Re  Re16  1  0.622318  0.621982  0.814403  1
  Re  Re17  1  0.818233  0.623842  0.623552  1
  Re  Re18  1  0.622105  0.813543  0.621751  1
  Tc  Tc19  1  0.397060  0.676285  0.000080  1
  Tc  Tc20  1  0.721638  0.324468  0.323852  1
  Tc  Tc21  1  0.397072  0.000088  0.675463  1
  Tc  Tc22  1  0.682485  0.400426  0.000011  1
  Tc  Tc23  1  0.997367  0.399808  0.679967  1
  Tc  Tc24  1  0.316767  0.719935  0.319175  1
  Tc  Tc25  1  0.316458  0.319521  0.720121  1
  Tc  Tc26  1  0.997129  0.680073  0.399497  1
  Tc  Tc27  1  0.681805  0.999918  0.400413  1
  Tc  Tc28  1  0.597835  0.600736  0.280561  1
