# generated using pymatgen
data_TbPr5(In4Te)2
_symmetry_space_group_name_H-M   'P 1'
_cell_length_a   8.57426828
_cell_length_b   8.57426673
_cell_length_c   8.57426800
_cell_angle_alpha   119.23132296
_cell_angle_beta   119.23132482
_cell_angle_gamma   91.33662931
_symmetry_Int_Tables_number   1
_chemical_formula_structural   TbPr5(In4Te)2
_chemical_formula_sum   'Tb1 Pr5 In8 Te2'
_cell_volume   450.78036052
_cell_formula_units_Z   1
loop_
 _symmetry_equiv_pos_site_id
 _symmetry_equiv_pos_as_xyz
  1  'x, y, z'
loop_
 _atom_site_type_symbol
 _atom_site_label
 _atom_site_symmetry_multiplicity
 _atom_site_fract_x
 _atom_site_fract_y
 _atom_site_fract_z
 _atom_site_occupancy
  Tb  Tb0  1  0.750000  0.750000  0.000000  1
  Pr  Pr1  1  0.250000  0.250000  0.000000  1
  Pr  Pr2  1  0.659185  0.159185  0.818371  1
  Pr  Pr3  1  0.340815  0.840815  0.181629  1
  Pr  Pr4  1  0.159185  0.340815  0.500000  1
  Pr  Pr5  1  0.840815  0.659185  0.500000  1
  In  In6  1  0.333273  0.831616  0.791603  1
  In  In7  1  0.668384  0.166727  0.208397  1
  In  In8  1  0.040013  0.541670  0.208397  1
  In  In9  1  0.831616  0.040013  0.498343  1
  In  In10  1  0.459987  0.668384  0.501657  1
  In  In11  1  0.958330  0.459987  0.791603  1
  In  In12  1  0.166727  0.958330  0.498343  1
  In  In13  1  0.541670  0.333273  0.501657  1
  Te  Te14  1  0.503897  0.503897  0.000000  1
  Te  Te15  1  0.996103  0.996103  0.000000  1
