# generated using pymatgen
data_PrU3(Al8Pt3)3
_symmetry_space_group_name_H-M   'P 1'
_cell_length_a   7.58205793
_cell_length_b   7.58895930
_cell_length_c   13.21815930
_cell_angle_alpha   84.27657034
_cell_angle_beta   78.74571832
_cell_angle_gamma   59.90993124
_symmetry_Int_Tables_number   1
_chemical_formula_structural   PrU3(Al8Pt3)3
_chemical_formula_sum   'Pr1 U3 Al24 Pt9'
_cell_volume   645.42008228
_cell_formula_units_Z   1
loop_
 _symmetry_equiv_pos_site_id
 _symmetry_equiv_pos_as_xyz
  1  'x, y, z'
loop_
 _atom_site_type_symbol
 _atom_site_label
 _atom_site_symmetry_multiplicity
 _atom_site_fract_x
 _atom_site_fract_y
 _atom_site_fract_z
 _atom_site_occupancy
  Pr  Pr0  1  0.267926  0.501513  0.189826  1
  U  U1  1  0.393897  0.168603  0.804293  1
  U  U2  1  0.604578  0.831845  0.196808  1
  U  U3  1  0.736724  0.498236  0.803991  1
  Al  Al4  1  0.681156  0.834538  0.947290  1
  Al  Al5  1  0.319308  0.162015  0.051923  1
  Al  Al6  1  0.146096  0.832594  0.560488  1
  Al  Al7  1  0.854052  0.165990  0.439552  1
  Al  Al8  1  0.480772  0.167490  0.558371  1
  Al  Al9  1  0.518347  0.833053  0.442440  1
  Al  Al10  1  0.214771  0.167228  0.332195  1
  Al  Al11  1  0.783781  0.834368  0.669315  1
  Al  Al12  1  0.435859  0.507831  0.670398  1
  Al  Al13  1  0.562723  0.491401  0.331643  1
  Al  Al14  1  0.110141  0.156247  0.668306  1
  Al  Al15  1  0.890669  0.841104  0.332796  1
  Al  Al16  1  0.357014  0.497262  0.941533  1
  Al  Al17  1  0.650812  0.503018  0.051590  1
  Al  Al18  1  0.016600  0.169616  0.951867  1
  Al  Al19  1  0.981301  0.834256  0.046041  1
  Al  Al20  1  0.185873  0.500360  0.442253  1
  Al  Al21  1  0.814181  0.499300  0.558213  1
  Al  Al22  1  0.737631  0.161128  0.183156  1
  Al  Al23  1  0.263246  0.836767  0.817683  1
  Al  Al24  1  0.059320  0.632176  0.817237  1
  Al  Al25  1  0.935302  0.369843  0.184183  1
  Al  Al26  1  0.854281  0.040794  0.818063  1
  Al  Al27  1  0.145088  0.962730  0.183077  1
  Pt  Pt28  1  0.119578  0.491982  0.640050  1
  Pt  Pt29  1  0.878131  0.507640  0.362338  1
  Pt  Pt30  1  0.659460  0.172140  0.000457  1
  Pt  Pt31  1  0.338766  0.828875  0.999570  1
  Pt  Pt32  1  0.538377  0.166133  0.362822  1
  Pt  Pt33  1  0.461809  0.832490  0.638844  1
  Pt  Pt34  1  0.779302  0.173453  0.638244  1
  Pt  Pt35  1  0.220242  0.826543  0.362790  1
  Pt  Pt36  1  0.002891  0.499437  0.000354  1
