# generated using pymatgen
data_Rb2ThMn2Se5
_symmetry_space_group_name_H-M   'P 1'
_cell_length_a   10.47202303
_cell_length_b   4.31396900
_cell_length_c   15.18646000
_cell_angle_alpha   90.00000000
_cell_angle_beta   102.81255173
_cell_angle_gamma   90.00000000
_symmetry_Int_Tables_number   1
_chemical_formula_structural   Rb2ThMn2Se5
_chemical_formula_sum   'Rb4 Th2 Mn4 Se10'
_cell_volume   668.98082609
_cell_formula_units_Z   2
loop_
 _symmetry_equiv_pos_site_id
 _symmetry_equiv_pos_as_xyz
  1  'x, y, z'
loop_
 _atom_site_type_symbol
 _atom_site_label
 _atom_site_symmetry_multiplicity
 _atom_site_fract_x
 _atom_site_fract_y
 _atom_site_fract_z
 _atom_site_occupancy
  Rb  Rb0  1  0.263846  0.293905  0.066582  1
  Rb  Rb1  1  0.236154  0.293905  0.433418  1
  Rb  Rb2  1  0.763845  0.706096  0.566582  1
  Rb  Rb3  1  0.736155  0.706096  0.933418  1
  Th  Th4  1  0.750000  0.197862  0.250000  1
  Th  Th5  1  0.250000  0.802137  0.750000  1
  Mn  Mn6  1  0.014834  0.697751  0.203783  1
  Mn  Mn7  1  0.485166  0.697751  0.296217  1
  Mn  Mn8  1  0.514834  0.302248  0.703783  1
  Mn  Mn9  1  0.985165  0.302248  0.796217  1
  Se  Se10  1  0.916687  0.201266  0.118744  1
  Se  Se11  1  0.583561  0.697578  0.154363  1
  Se  Se12  1  0.250000  0.812085  0.250000  1
  Se  Se13  1  0.916440  0.697578  0.345637  1
  Se  Se14  1  0.583314  0.201266  0.381256  1
  Se  Se15  1  0.416687  0.798735  0.618744  1
  Se  Se16  1  0.083561  0.302424  0.654363  1
  Se  Se17  1  0.750000  0.187916  0.750000  1
  Se  Se18  1  0.416439  0.302424  0.845637  1
  Se  Se19  1  0.083314  0.798735  0.881256  1
