# generated using pymatgen
data_Ho4Ga18Ir4PdPt
_symmetry_space_group_name_H-M   'P 1'
_cell_length_a   7.60753400
_cell_length_b   7.60753625
_cell_length_c   9.46628000
_cell_angle_alpha   90.00060390
_cell_angle_beta   90.00062388
_cell_angle_gamma   119.80185914
_symmetry_Int_Tables_number   1
_chemical_formula_structural   Ho4Ga18Ir4PdPt
_chemical_formula_sum   'Ho4 Ga18 Ir4 Pd1 Pt1'
_cell_volume   475.40261305
_cell_formula_units_Z   1
loop_
 _symmetry_equiv_pos_site_id
 _symmetry_equiv_pos_as_xyz
  1  'x, y, z'
loop_
 _atom_site_type_symbol
 _atom_site_label
 _atom_site_symmetry_multiplicity
 _atom_site_fract_x
 _atom_site_fract_y
 _atom_site_fract_z
 _atom_site_occupancy
  Ho  Ho0  1  0.996665  0.670686  0.249844  1
  Ho  Ho1  1  0.003335  0.329314  0.750156  1
  Ho  Ho2  1  0.670686  0.996665  0.249843  1
  Ho  Ho3  1  0.329314  0.003335  0.750157  1
  Ga  Ga4  1  0.131062  0.131061  0.249374  1
  Ga  Ga5  1  0.868938  0.868939  0.750626  1
  Ga  Ga6  1  0.998589  0.337595  0.081525  1
  Ga  Ga7  1  0.001411  0.662405  0.918475  1
  Ga  Ga8  1  0.001600  0.662315  0.581652  1
  Ga  Ga9  1  0.337687  0.998400  0.418348  1
  Ga  Ga10  1  0.998400  0.337685  0.418348  1
  Ga  Ga11  1  0.662313  0.001600  0.581652  1
  Ga  Ga12  1  0.662405  0.001412  0.918475  1
  Ga  Ga13  1  0.337595  0.998588  0.081525  1
  Ga  Ga14  1  0.335144  0.335144  0.568424  1
  Ga  Ga15  1  0.664856  0.664856  0.431576  1
  Ga  Ga16  1  0.664956  0.664957  0.068743  1
  Ga  Ga17  1  0.335044  0.335043  0.931257  1
  Ga  Ga18  1  0.337071  0.547127  0.249907  1
  Ga  Ga19  1  0.662929  0.452873  0.750093  1
  Ga  Ga20  1  0.547126  0.337070  0.249907  1
  Ga  Ga21  1  0.452874  0.662930  0.750093  1
  Ir  Ir22  1  0.671589  0.328410  0.000000  1
  Ir  Ir23  1  0.328411  0.671590  0.000000  1
  Ir  Ir24  1  0.328602  0.671399  0.500000  1
  Ir  Ir25  1  0.671398  0.328601  0.500000  1
  Pd  Pd26  1  0.000000  0.000000  0.000000  1
  Pt  Pt27  1  0.000000  0.000000  0.500000  1
