# generated using pymatgen
data_SrSc(TaSe2)8
_symmetry_space_group_name_H-M   'P 1'
_cell_length_a   7.01173600
_cell_length_b   7.01173507
_cell_length_c   14.32389300
_cell_angle_alpha   90.00000000
_cell_angle_beta   90.00000000
_cell_angle_gamma   119.99999497
_symmetry_Int_Tables_number   1
_chemical_formula_structural   SrSc(TaSe2)8
_chemical_formula_sum   'Sr1 Sc1 Ta8 Se16'
_cell_volume   609.87773135
_cell_formula_units_Z   1
loop_
 _symmetry_equiv_pos_site_id
 _symmetry_equiv_pos_as_xyz
  1  'x, y, z'
loop_
 _atom_site_type_symbol
 _atom_site_label
 _atom_site_symmetry_multiplicity
 _atom_site_fract_x
 _atom_site_fract_y
 _atom_site_fract_z
 _atom_site_occupancy
  Sr  Sr0  1  0.000000  0.000000  0.000000  1
  Sc  Sc1  1  0.000000  0.000000  0.500000  1
  Ta  Ta2  1  0.983471  0.491679  0.268053  1
  Ta  Ta3  1  0.016529  0.508321  0.731947  1
  Ta  Ta4  1  0.491797  0.508290  0.731959  1
  Ta  Ta5  1  0.508326  0.016624  0.268023  1
  Ta  Ta6  1  0.999994  0.999980  0.732197  1
  Ta  Ta7  1  0.000006  0.000020  0.267803  1
  Ta  Ta8  1  0.508203  0.491710  0.268041  1
  Ta  Ta9  1  0.491674  0.983376  0.731977  1
  Se  Se10  1  0.333341  0.666673  0.611374  1
  Se  Se11  1  0.666647  0.333360  0.146207  1
  Se  Se12  1  0.666659  0.333327  0.388626  1
  Se  Se13  1  0.333353  0.666640  0.853793  1
  Se  Se14  1  0.169947  0.339875  0.382236  1
  Se  Se15  1  0.829737  0.170290  0.845821  1
  Se  Se16  1  0.340564  0.170329  0.845829  1
  Se  Se17  1  0.660168  0.830030  0.382238  1
  Se  Se18  1  0.169870  0.830043  0.382213  1
  Se  Se19  1  0.829689  0.659435  0.845821  1
  Se  Se20  1  0.170311  0.340565  0.154179  1
  Se  Se21  1  0.830130  0.169957  0.617787  1
  Se  Se22  1  0.339832  0.169970  0.617762  1
  Se  Se23  1  0.659436  0.829671  0.154171  1
  Se  Se24  1  0.170263  0.829710  0.154179  1
  Se  Se25  1  0.830053  0.660125  0.617764  1
