# generated using pymatgen
data_Hf8Be(Si5Ru4)3
_symmetry_space_group_name_H-M   'P 1'
_cell_length_a   9.86180897
_cell_length_b   9.86180920
_cell_length_c   13.30409946
_cell_angle_alpha   54.21709189
_cell_angle_beta   54.21709190
_cell_angle_gamma   31.30177406
_symmetry_Int_Tables_number   1
_chemical_formula_structural   Hf8Be(Si5Ru4)3
_chemical_formula_sum   'Hf8 Be1 Si15 Ru12'
_cell_volume   534.10984604
_cell_formula_units_Z   1
loop_
 _symmetry_equiv_pos_site_id
 _symmetry_equiv_pos_as_xyz
  1  'x, y, z'
loop_
 _atom_site_type_symbol
 _atom_site_label
 _atom_site_symmetry_multiplicity
 _atom_site_fract_x
 _atom_site_fract_y
 _atom_site_fract_z
 _atom_site_occupancy
  Hf  Hf0  1  0.293449  0.558332  0.647402  1
  Hf  Hf1  1  0.441668  0.706551  0.852598  1
  Hf  Hf2  1  0.710030  0.432829  0.351649  1
  Hf  Hf3  1  0.567171  0.289970  0.148351  1
  Hf  Hf4  1  0.037679  0.295558  0.636789  1
  Hf  Hf5  1  0.704442  0.962321  0.863211  1
  Hf  Hf6  1  0.959597  0.712558  0.361168  1
  Hf  Hf7  1  0.287442  0.040403  0.138832  1
  Be  Be8  1  0.874780  0.125220  0.250000  1
  Si  Si9  1  0.124251  0.875749  0.750000  1
  Si  Si10  1  0.384384  0.615616  0.250000  1
  Si  Si11  1  0.617220  0.382780  0.750000  1
  Si  Si12  1  0.970514  0.255468  0.896676  1
  Si  Si13  1  0.744532  0.029486  0.603324  1
  Si  Si14  1  0.030344  0.743468  0.107230  1
  Si  Si15  1  0.256532  0.969656  0.392770  1
  Si  Si16  1  0.571916  0.084162  0.065956  1
  Si  Si17  1  0.915838  0.428084  0.434044  1
  Si  Si18  1  0.427824  0.913959  0.936158  1
  Si  Si19  1  0.086041  0.572176  0.563842  1
  Si  Si20  1  0.386430  0.146254  0.395037  1
  Si  Si21  1  0.853746  0.613570  0.104963  1
  Si  Si22  1  0.612430  0.858165  0.603304  1
  Si  Si23  1  0.141835  0.387570  0.896696  1
  Ru  Ru24  1  0.648634  0.826949  0.281682  1
  Ru  Ru25  1  0.173051  0.351366  0.218318  1
  Ru  Ru26  1  0.761375  0.481899  0.068402  1
  Ru  Ru27  1  0.826157  0.649903  0.780122  1
  Ru  Ru28  1  0.900839  0.141562  0.583638  1
  Ru  Ru29  1  0.858438  0.099161  0.916362  1
  Ru  Ru30  1  0.101568  0.857402  0.414812  1
  Ru  Ru31  1  0.142598  0.898432  0.085188  1
  Ru  Ru32  1  0.238095  0.519048  0.931108  1
  Ru  Ru33  1  0.480952  0.761905  0.568892  1
  Ru  Ru34  1  0.518101  0.238625  0.431598  1
  Ru  Ru35  1  0.350097  0.173843  0.719878  1
