# generated using pymatgen
data_Y2Zr3Sn4
_symmetry_space_group_name_H-M   'P 1'
_cell_length_a   7.77400500
_cell_length_b   7.82663700
_cell_length_c   14.74331500
_cell_angle_alpha   90.00000000
_cell_angle_beta   90.00000000
_cell_angle_gamma   90.00000000
_symmetry_Int_Tables_number   1
_chemical_formula_structural   Y2Zr3Sn4
_chemical_formula_sum   'Y8 Zr12 Sn16'
_cell_volume   897.04690453
_cell_formula_units_Z   4
loop_
 _symmetry_equiv_pos_site_id
 _symmetry_equiv_pos_as_xyz
  1  'x, y, z'
loop_
 _atom_site_type_symbol
 _atom_site_label
 _atom_site_symmetry_multiplicity
 _atom_site_fract_x
 _atom_site_fract_y
 _atom_site_fract_z
 _atom_site_occupancy
  Y  Y0  1  0.512990  0.322393  0.907138  1
  Y  Y1  1  0.012990  0.177607  0.592862  1
  Y  Y2  1  0.487010  0.677607  0.407138  1
  Y  Y3  1  0.987010  0.822393  0.092862  1
  Y  Y4  1  0.487010  0.677607  0.092862  1
  Y  Y5  1  0.987010  0.822393  0.407138  1
  Y  Y6  1  0.512990  0.322393  0.592862  1
  Y  Y7  1  0.012990  0.177607  0.907138  1
  Zr  Zr8  1  0.349716  0.837120  0.870840  1
  Zr  Zr9  1  0.849716  0.662880  0.629160  1
  Zr  Zr10  1  0.650284  0.162880  0.370840  1
  Zr  Zr11  1  0.150284  0.337120  0.129160  1
  Zr  Zr12  1  0.650284  0.162880  0.129160  1
  Zr  Zr13  1  0.150284  0.337120  0.370840  1
  Zr  Zr14  1  0.349716  0.837120  0.629160  1
  Zr  Zr15  1  0.849716  0.662880  0.870840  1
  Zr  Zr16  1  0.171734  0.509971  0.750000  1
  Zr  Zr17  1  0.671734  0.990029  0.750000  1
  Zr  Zr18  1  0.828266  0.490029  0.250000  1
  Zr  Zr19  1  0.328266  0.009971  0.250000  1
  Sn  Sn20  1  0.311331  0.040518  0.042372  1
  Sn  Sn21  1  0.811331  0.459482  0.457628  1
  Sn  Sn22  1  0.688669  0.959482  0.542372  1
  Sn  Sn23  1  0.188669  0.540518  0.957628  1
  Sn  Sn24  1  0.688669  0.959482  0.957628  1
  Sn  Sn25  1  0.188669  0.540518  0.542372  1
  Sn  Sn26  1  0.311331  0.040518  0.457628  1
  Sn  Sn27  1  0.811331  0.459482  0.042372  1
  Sn  Sn28  1  0.544840  0.615750  0.750000  1
  Sn  Sn29  1  0.044840  0.884250  0.750000  1
  Sn  Sn30  1  0.455160  0.384250  0.250000  1
  Sn  Sn31  1  0.955160  0.115750  0.250000  1
  Sn  Sn32  1  0.318093  0.154051  0.750000  1
  Sn  Sn33  1  0.818093  0.345949  0.750000  1
  Sn  Sn34  1  0.681907  0.845949  0.250000  1
  Sn  Sn35  1  0.181907  0.654051  0.250000  1
