# generated using pymatgen
data_La19Y(IrPt2)4
_symmetry_space_group_name_H-M   'P 1'
_cell_length_a   11.58162700
_cell_length_b   11.58162700
_cell_length_c   6.63969100
_cell_angle_alpha   90.00000000
_cell_angle_beta   90.00000000
_cell_angle_gamma   90.00000000
_symmetry_Int_Tables_number   1
_chemical_formula_structural   La19Y(IrPt2)4
_chemical_formula_sum   'La19 Y1 Ir4 Pt8'
_cell_volume   890.60887011
_cell_formula_units_Z   1
loop_
 _symmetry_equiv_pos_site_id
 _symmetry_equiv_pos_as_xyz
  1  'x, y, z'
loop_
 _atom_site_type_symbol
 _atom_site_label
 _atom_site_symmetry_multiplicity
 _atom_site_fract_x
 _atom_site_fract_y
 _atom_site_fract_z
 _atom_site_occupancy
  La  La0  1  0.295109  0.088995  0.376082  1
  La  La1  1  0.295271  0.911411  0.876505  1
  La  La2  1  0.704729  0.088589  0.876505  1
  La  La3  1  0.704891  0.911005  0.376082  1
  La  La4  1  0.588528  0.794473  0.876230  1
  La  La5  1  0.588608  0.205967  0.377884  1
  La  La6  1  0.411392  0.794033  0.377884  1
  La  La7  1  0.411472  0.205527  0.876230  1
  La  La8  1  0.205967  0.411392  0.622116  1
  La  La9  1  0.205527  0.588528  0.123770  1
  La  La10  1  0.794473  0.411472  0.123770  1
  La  La11  1  0.794033  0.588608  0.622116  1
  La  La12  1  0.911411  0.704729  0.123495  1
  La  La13  1  0.911005  0.295109  0.623918  1
  La  La14  1  0.088995  0.704891  0.623918  1
  La  La15  1  0.088589  0.295271  0.123495  1
  La  La16  1  0.000000  0.000000  0.500000  1
  La  La17  1  0.000000  0.000000  0.000000  1
  La  La18  1  0.500000  0.500000  0.000000  1
  Y  Y19  1  0.500000  0.500000  0.500000  1
  Ir  Ir20  1  0.500000  0.000000  0.119116  1
  Ir  Ir21  1  0.500000  0.000000  0.619147  1
  Ir  Ir22  1  0.000000  0.500000  0.880884  1
  Ir  Ir23  1  0.000000  0.500000  0.380853  1
  Pt  Pt24  1  0.845708  0.154347  0.250075  1
  Pt  Pt25  1  0.845653  0.845708  0.749925  1
  Pt  Pt26  1  0.154347  0.154292  0.749925  1
  Pt  Pt27  1  0.154292  0.845653  0.250075  1
  Pt  Pt28  1  0.652135  0.348111  0.747014  1
  Pt  Pt29  1  0.651889  0.652135  0.252986  1
  Pt  Pt30  1  0.348111  0.347865  0.252986  1
  Pt  Pt31  1  0.347865  0.651889  0.747014  1
