# generated using pymatgen
data_Tb6Er2Sc12Si7Ge9
_symmetry_space_group_name_H-M   'P 1'
_cell_length_a   7.18208481
_cell_length_b   7.42395248
_cell_length_c   14.09166855
_cell_angle_alpha   90.04852481
_cell_angle_beta   89.97635005
_cell_angle_gamma   90.29416069
_symmetry_Int_Tables_number   1
_chemical_formula_structural   Tb6Er2Sc12Si7Ge9
_chemical_formula_sum   'Tb6 Er2 Sc12 Si7 Ge9'
_cell_volume   751.34987244
_cell_formula_units_Z   1
loop_
 _symmetry_equiv_pos_site_id
 _symmetry_equiv_pos_as_xyz
  1  'x, y, z'
loop_
 _atom_site_type_symbol
 _atom_site_label
 _atom_site_symmetry_multiplicity
 _atom_site_fract_x
 _atom_site_fract_y
 _atom_site_fract_z
 _atom_site_occupancy
  Tb  Tb0  1  0.002412  0.176957  0.099458  1
  Tb  Tb1  1  0.998662  0.821352  0.900873  1
  Tb  Tb2  1  0.498002  0.676085  0.901793  1
  Tb  Tb3  1  0.997902  0.820390  0.598053  1
  Tb  Tb4  1  0.501988  0.323258  0.098818  1
  Tb  Tb5  1  0.003116  0.177892  0.401685  1
  Er  Er6  1  0.500272  0.323254  0.400769  1
  Er  Er7  1  0.499814  0.676109  0.598510  1
  Sc  Sc8  1  0.175106  0.503260  0.749226  1
  Sc  Sc9  1  0.825061  0.499078  0.250680  1
  Sc  Sc10  1  0.326074  0.000232  0.250336  1
  Sc  Sc11  1  0.671218  0.998807  0.749630  1
  Sc  Sc12  1  0.345111  0.173009  0.626568  1
  Sc  Sc13  1  0.656537  0.826968  0.373292  1
  Sc  Sc14  1  0.156991  0.670664  0.374762  1
  Sc  Sc15  1  0.656977  0.827814  0.127134  1
  Sc  Sc16  1  0.839996  0.331951  0.623797  1
  Sc  Sc17  1  0.344829  0.172072  0.873038  1
  Sc  Sc18  1  0.839578  0.330635  0.875044  1
  Sc  Sc19  1  0.157450  0.671858  0.126452  1
  Si  Si20  1  0.955359  0.882016  0.250812  1
  Si  Si21  1  0.453632  0.616851  0.250287  1
  Si  Si22  1  0.545833  0.382523  0.749762  1
  Si  Si23  1  0.301133  0.868116  0.749139  1
  Si  Si24  1  0.702818  0.128071  0.250829  1
  Si  Si25  1  0.203794  0.372987  0.250768  1
  Si  Si26  1  0.796680  0.627495  0.749273  1
  Ge  Ge27  1  0.041017  0.123260  0.749345  1
  Ge  Ge28  1  0.180617  0.459661  0.540933  1
  Ge  Ge29  1  0.819224  0.539863  0.458260  1
  Ge  Ge30  1  0.327858  0.960105  0.459694  1
  Ge  Ge31  1  0.825045  0.540902  0.041433  1
  Ge  Ge32  1  0.673455  0.039413  0.540297  1
  Ge  Ge33  1  0.175295  0.458090  0.959136  1
  Ge  Ge34  1  0.675600  0.039263  0.959904  1
  Ge  Ge35  1  0.325543  0.959738  0.040208  1
