# generated using pymatgen
data_TmLu3(Ga3Rh)6
_symmetry_space_group_name_H-M   'P 1'
_cell_length_a   7.53621532
_cell_length_b   7.54542613
_cell_length_c   9.47340500
_cell_angle_alpha   90.00000000
_cell_angle_beta   90.00000000
_cell_angle_gamma   119.80417208
_symmetry_Int_Tables_number   1
_chemical_formula_structural   TmLu3(Ga3Rh)6
_chemical_formula_sum   'Tm1 Lu3 Ga18 Rh6'
_cell_volume   467.44166294
_cell_formula_units_Z   1
loop_
 _symmetry_equiv_pos_site_id
 _symmetry_equiv_pos_as_xyz
  1  'x, y, z'
loop_
 _atom_site_type_symbol
 _atom_site_label
 _atom_site_symmetry_multiplicity
 _atom_site_fract_x
 _atom_site_fract_y
 _atom_site_fract_z
 _atom_site_occupancy
  Tm  Tm0  1  0.998069  0.669598  0.250000  1
  Lu  Lu1  1  0.001974  0.329987  0.750000  1
  Lu  Lu2  1  0.669614  0.997779  0.250000  1
  Lu  Lu3  1  0.330223  0.002250  0.750000  1
  Ga  Ga4  1  0.339570  0.550109  0.250000  1
  Ga  Ga5  1  0.659431  0.449552  0.750000  1
  Ga  Ga6  1  0.549829  0.339685  0.250000  1
  Ga  Ga7  1  0.449361  0.659834  0.750000  1
  Ga  Ga8  1  0.999678  0.334381  0.081349  1
  Ga  Ga9  1  0.000035  0.664775  0.917510  1
  Ga  Ga10  1  0.000035  0.664775  0.582490  1
  Ga  Ga11  1  0.335663  0.999858  0.418255  1
  Ga  Ga12  1  0.999678  0.334381  0.418651  1
  Ga  Ga13  1  0.664751  0.000601  0.581617  1
  Ga  Ga14  1  0.664751  0.000601  0.918383  1
  Ga  Ga15  1  0.335663  0.999858  0.081745  1
  Ga  Ga16  1  0.331805  0.332064  0.566361  1
  Ga  Ga17  1  0.668317  0.668614  0.433894  1
  Ga  Ga18  1  0.668317  0.668614  0.066106  1
  Ga  Ga19  1  0.331805  0.332064  0.933639  1
  Ga  Ga20  1  0.125322  0.125680  0.250000  1
  Ga  Ga21  1  0.874014  0.874438  0.750000  1
  Rh  Rh22  1  0.671945  0.328347  0.000217  1
  Rh  Rh23  1  0.328160  0.671881  0.000058  1
  Rh  Rh24  1  0.328160  0.671881  0.499942  1
  Rh  Rh25  1  0.671945  0.328347  0.499783  1
  Rh  Rh26  1  0.000942  0.000021  0.999622  1
  Rh  Rh27  1  0.000942  0.000021  0.500378  1
