# generated using pymatgen
data_Ac7U(Si3Pt)4
_symmetry_space_group_name_H-M   'P 1'
_cell_length_a   8.42519600
_cell_length_b   8.42519570
_cell_length_c   8.71471500
_cell_angle_alpha   90.00000000
_cell_angle_beta   90.00000000
_cell_angle_gamma   119.99999332
_symmetry_Int_Tables_number   1
_chemical_formula_structural   Ac7U(Si3Pt)4
_chemical_formula_sum   'Ac7 U1 Si12 Pt4'
_cell_volume   535.72740123
_cell_formula_units_Z   1
loop_
 _symmetry_equiv_pos_site_id
 _symmetry_equiv_pos_as_xyz
  1  'x, y, z'
loop_
 _atom_site_type_symbol
 _atom_site_label
 _atom_site_symmetry_multiplicity
 _atom_site_fract_x
 _atom_site_fract_y
 _atom_site_fract_z
 _atom_site_occupancy
  Ac  Ac0  1  0.499872  0.500128  0.750000  1
  Ac  Ac1  1  0.500212  0.499788  0.250000  1
  Ac  Ac2  1  0.000257  0.500128  0.750000  1
  Ac  Ac3  1  0.999576  0.499788  0.250000  1
  Ac  Ac4  1  0.499872  0.999743  0.750000  1
  Ac  Ac5  1  0.500212  0.000424  0.250000  1
  Ac  Ac6  1  0.000000  0.000000  0.250000  1
  U  U7  1  0.000000  0.000000  0.750000  1
  Si  Si8  1  0.837594  0.162406  0.991329  1
  Si  Si9  1  0.162487  0.837513  0.992074  1
  Si  Si10  1  0.324812  0.162406  0.991329  1
  Si  Si11  1  0.162487  0.837513  0.507926  1
  Si  Si12  1  0.675026  0.837513  0.992074  1
  Si  Si13  1  0.837594  0.162406  0.508671  1
  Si  Si14  1  0.837594  0.675188  0.991329  1
  Si  Si15  1  0.675026  0.837513  0.507926  1
  Si  Si16  1  0.162487  0.324974  0.992074  1
  Si  Si17  1  0.324812  0.162406  0.508671  1
  Si  Si18  1  0.162487  0.324974  0.507926  1
  Si  Si19  1  0.837594  0.675188  0.508671  1
  Pt  Pt20  1  0.666667  0.333333  0.000711  1
  Pt  Pt21  1  0.333333  0.666667  0.001091  1
  Pt  Pt22  1  0.333333  0.666667  0.498909  1
  Pt  Pt23  1  0.666667  0.333333  0.499289  1
