# generated using pymatgen
data_YPa3Pt3Rh
_symmetry_space_group_name_H-M   'P 1'
_cell_length_a   3.75082600
_cell_length_b   4.36984100
_cell_length_c   10.90004800
_cell_angle_alpha   90.00000000
_cell_angle_beta   90.00000000
_cell_angle_gamma   90.00000000
_symmetry_Int_Tables_number   1
_chemical_formula_structural   YPa3Pt3Rh
_chemical_formula_sum   'Y1 Pa3 Pt3 Rh1'
_cell_volume   178.65738105
_cell_formula_units_Z   1
loop_
 _symmetry_equiv_pos_site_id
 _symmetry_equiv_pos_as_xyz
  1  'x, y, z'
loop_
 _atom_site_type_symbol
 _atom_site_label
 _atom_site_symmetry_multiplicity
 _atom_site_fract_x
 _atom_site_fract_y
 _atom_site_fract_z
 _atom_site_occupancy
  Y  Y0  1  0.500000  0.750000  0.361634  1
  Pa  Pa1  1  0.000000  0.750000  0.863363  1
  Pa  Pa2  1  0.000000  0.250000  0.141438  1
  Pa  Pa3  1  0.500000  0.250000  0.635134  1
  Pt  Pt4  1  0.500000  0.750000  0.091077  1
  Pt  Pt5  1  0.000000  0.750000  0.601031  1
  Pt  Pt6  1  0.000000  0.250000  0.408194  1
  Rh  Rh7  1  0.500000  0.250000  0.898128  1
