# generated using pymatgen
data_Dy2MnIn2Co3
_symmetry_space_group_name_H-M   'P 1'
_cell_length_a   4.04641000
_cell_length_b   5.04603800
_cell_length_c   7.19766160
_cell_angle_alpha   90.78680877
_cell_angle_beta   90.00000000
_cell_angle_gamma   90.00000000
_symmetry_Int_Tables_number   1
_chemical_formula_structural   Dy2MnIn2Co3
_chemical_formula_sum   'Dy2 Mn1 In2 Co3'
_cell_volume   146.95043466
_cell_formula_units_Z   1
loop_
 _symmetry_equiv_pos_site_id
 _symmetry_equiv_pos_as_xyz
  1  'x, y, z'
loop_
 _atom_site_type_symbol
 _atom_site_label
 _atom_site_symmetry_multiplicity
 _atom_site_fract_x
 _atom_site_fract_y
 _atom_site_fract_z
 _atom_site_occupancy
  Dy  Dy0  1  0.500000  0.757130  0.714946  1
  Dy  Dy1  1  0.500000  0.242870  0.285054  1
  Mn  Mn2  1  0.000000  0.000000  0.000000  1
  In  In3  1  0.000000  0.747174  0.348305  1
  In  In4  1  0.000000  0.252826  0.651695  1
  Co  Co5  1  0.000000  0.500000  0.000000  1
  Co  Co6  1  0.500000  0.736368  0.087258  1
  Co  Co7  1  0.500000  0.263632  0.912742  1
