# generated using pymatgen
data_Tb8Lu12Si15Os
_symmetry_space_group_name_H-M   'P 1'
_cell_length_a   7.28005535
_cell_length_b   7.66794419
_cell_length_c   14.36115200
_cell_angle_alpha   90.00000000
_cell_angle_beta   90.00000000
_cell_angle_gamma   90.11613851
_symmetry_Int_Tables_number   1
_chemical_formula_structural   Tb8Lu12Si15Os
_chemical_formula_sum   'Tb8 Lu12 Si15 Os1'
_cell_volume   801.68177609
_cell_formula_units_Z   1
loop_
 _symmetry_equiv_pos_site_id
 _symmetry_equiv_pos_as_xyz
  1  'x, y, z'
loop_
 _atom_site_type_symbol
 _atom_site_label
 _atom_site_symmetry_multiplicity
 _atom_site_fract_x
 _atom_site_fract_y
 _atom_site_fract_z
 _atom_site_occupancy
  Tb  Tb0  1  0.016722  0.182713  0.097445  1
  Tb  Tb1  1  0.985953  0.827914  0.903379  1
  Tb  Tb2  1  0.483283  0.678803  0.903974  1
  Tb  Tb3  1  0.985953  0.827914  0.596621  1
  Tb  Tb4  1  0.516050  0.320674  0.097150  1
  Tb  Tb5  1  0.016722  0.182713  0.402555  1
  Tb  Tb6  1  0.516050  0.320674  0.402850  1
  Tb  Tb7  1  0.483283  0.678803  0.596026  1
  Lu  Lu8  1  0.153138  0.504747  0.750000  1
  Lu  Lu9  1  0.840606  0.489636  0.250000  1
  Lu  Lu10  1  0.341129  0.012467  0.250000  1
  Lu  Lu11  1  0.665859  0.991157  0.750000  1
  Lu  Lu12  1  0.313372  0.172906  0.626546  1
  Lu  Lu13  1  0.676682  0.825358  0.374580  1
  Lu  Lu14  1  0.175781  0.678698  0.374826  1
  Lu  Lu15  1  0.676682  0.825358  0.125420  1
  Lu  Lu16  1  0.835612  0.314121  0.626679  1
  Lu  Lu17  1  0.313372  0.172906  0.873454  1
  Lu  Lu18  1  0.835612  0.314121  0.873321  1
  Lu  Lu19  1  0.175781  0.678698  0.125174  1
  Si  Si20  1  0.972269  0.890835  0.250000  1
  Si  Si21  1  0.473403  0.609406  0.250000  1
  Si  Si22  1  0.526807  0.394719  0.750000  1
  Si  Si23  1  0.279523  0.865557  0.750000  1
  Si  Si24  1  0.718030  0.132240  0.250000  1
  Si  Si25  1  0.219766  0.370001  0.250000  1
  Si  Si26  1  0.770432  0.624713  0.750000  1
  Si  Si27  1  0.156983  0.473010  0.537407  1
  Si  Si28  1  0.847484  0.533622  0.462213  1
  Si  Si29  1  0.347250  0.968297  0.460231  1
  Si  Si30  1  0.847484  0.533622  0.037787  1
  Si  Si31  1  0.650275  0.031338  0.537911  1
  Si  Si32  1  0.156983  0.473010  0.962593  1
  Si  Si33  1  0.650275  0.031338  0.962089  1
  Si  Si34  1  0.347250  0.968297  0.039769  1
  Os  Os35  1  0.028142  0.099614  0.750000  1
