# generated using pymatgen
data_Mn11Be(W6C)2
_symmetry_space_group_name_H-M   'P 1'
_cell_length_a   7.76783573
_cell_length_b   7.76783627
_cell_length_c   7.76783667
_cell_angle_alpha   59.82720404
_cell_angle_beta   59.82720476
_cell_angle_gamma   59.82720192
_symmetry_Int_Tables_number   1
_chemical_formula_structural   Mn11Be(W6C)2
_chemical_formula_sum   'Mn11 Be1 W12 C2'
_cell_volume   330.12510080
_cell_formula_units_Z   1
loop_
 _symmetry_equiv_pos_site_id
 _symmetry_equiv_pos_as_xyz
  1  'x, y, z'
loop_
 _atom_site_type_symbol
 _atom_site_label
 _atom_site_symmetry_multiplicity
 _atom_site_fract_x
 _atom_site_fract_y
 _atom_site_fract_z
 _atom_site_occupancy
  Mn  Mn0  1  0.421556  0.421556  0.735557  1
  Mn  Mn1  1  0.421556  0.735557  0.421556  1
  Mn  Mn2  1  0.735557  0.421556  0.421556  1
  Mn  Mn3  1  0.421671  0.421671  0.421671  1
  Mn  Mn4  1  0.829154  0.829154  0.515891  1
  Mn  Mn5  1  0.829154  0.515891  0.829154  1
  Mn  Mn6  1  0.515891  0.829154  0.829154  1
  Mn  Mn7  1  0.626482  0.626482  0.120457  1
  Mn  Mn8  1  0.626482  0.120457  0.626482  1
  Mn  Mn9  1  0.120457  0.626482  0.626482  1
  Mn  Mn10  1  0.625768  0.625768  0.625768  1
  Be  Be11  1  0.832846  0.832846  0.832846  1
  W  W12  1  0.051886  0.051886  0.449562  1
  W  W13  1  0.446145  0.054041  0.446145  1
  W  W14  1  0.054041  0.446145  0.446145  1
  W  W15  1  0.446145  0.446145  0.054041  1
  W  W16  1  0.051886  0.449562  0.051886  1
  W  W17  1  0.449562  0.051886  0.051886  1
  W  W18  1  0.195528  0.195528  0.803960  1
  W  W19  1  0.803305  0.193400  0.803305  1
  W  W20  1  0.193400  0.803305  0.803305  1
  W  W21  1  0.803305  0.803305  0.193400  1
  W  W22  1  0.195528  0.803960  0.195528  1
  W  W23  1  0.803960  0.195528  0.195528  1
  C  C24  1  0.249399  0.249399  0.249399  1
  C  C25  1  0.999336  0.999336  0.999336  1
