# generated using pymatgen
data_Th8Si12Os3Rh
_symmetry_space_group_name_H-M   'P 1'
_cell_length_a   8.26861016
_cell_length_b   8.26880878
_cell_length_c   8.40291701
_cell_angle_alpha   90.00406707
_cell_angle_beta   89.99420658
_cell_angle_gamma   120.00675533
_symmetry_Int_Tables_number   1
_chemical_formula_structural   Th8Si12Os3Rh
_chemical_formula_sum   'Th8 Si12 Os3 Rh1'
_cell_volume   497.51548494
_cell_formula_units_Z   1
loop_
 _symmetry_equiv_pos_site_id
 _symmetry_equiv_pos_as_xyz
  1  'x, y, z'
loop_
 _atom_site_type_symbol
 _atom_site_label
 _atom_site_symmetry_multiplicity
 _atom_site_fract_x
 _atom_site_fract_y
 _atom_site_fract_z
 _atom_site_occupancy
  Th  Th0  1  0.999999  0.999995  0.249301  1
  Th  Th1  1  0.000004  0.999980  0.749708  1
  Th  Th2  1  0.501938  0.498082  0.252455  1
  Th  Th3  1  0.501942  0.003891  0.252460  1
  Th  Th4  1  0.996121  0.498074  0.252449  1
  Th  Th5  1  0.501158  0.498861  0.748228  1
  Th  Th6  1  0.501133  0.002287  0.748229  1
  Th  Th7  1  0.997727  0.498882  0.748222  1
  Si  Si8  1  0.166545  0.833460  0.491043  1
  Si  Si9  1  0.166545  0.333068  0.491027  1
  Si  Si10  1  0.666920  0.833451  0.491055  1
  Si  Si11  1  0.834144  0.165856  0.507652  1
  Si  Si12  1  0.834124  0.668244  0.507629  1
  Si  Si13  1  0.331749  0.165873  0.507647  1
  Si  Si14  1  0.833561  0.166439  0.008809  1
  Si  Si15  1  0.833554  0.667131  0.008824  1
  Si  Si16  1  0.332868  0.166447  0.008845  1
  Si  Si17  1  0.166072  0.833939  0.992802  1
  Si  Si18  1  0.166070  0.332148  0.992784  1
  Si  Si19  1  0.667844  0.833930  0.992799  1
  Os  Os20  1  0.333325  0.666652  0.516722  1
  Os  Os21  1  0.666680  0.333311  0.485884  1
  Os  Os22  1  0.666663  0.333332  0.982826  1
  Rh  Rh23  1  0.333317  0.666669  0.012600  1
