# generated using pymatgen
data_Sc8Be3Si13Mo11W
_symmetry_space_group_name_H-M   'P 1'
_cell_length_a   6.51955676
_cell_length_b   6.69737524
_cell_length_c   12.65731600
_cell_angle_alpha   90.00000000
_cell_angle_beta   90.00000000
_cell_angle_gamma   89.89401338
_symmetry_Int_Tables_number   1
_chemical_formula_structural   Sc8Be3Si13Mo11W
_chemical_formula_sum   'Sc8 Be3 Si13 Mo11 W1'
_cell_volume   552.66706323
_cell_formula_units_Z   1
loop_
 _symmetry_equiv_pos_site_id
 _symmetry_equiv_pos_as_xyz
  1  'x, y, z'
loop_
 _atom_site_type_symbol
 _atom_site_label
 _atom_site_symmetry_multiplicity
 _atom_site_fract_x
 _atom_site_fract_y
 _atom_site_fract_z
 _atom_site_occupancy
  Sc  Sc0  1  0.499498  0.670651  0.596062  1
  Sc  Sc1  1  0.999010  0.830221  0.903797  1
  Sc  Sc2  1  0.503918  0.332389  0.091937  1
  Sc  Sc3  1  0.002296  0.172290  0.406459  1
  Sc  Sc4  1  0.503918  0.332389  0.408063  1
  Sc  Sc5  1  0.002296  0.172290  0.093541  1
  Sc  Sc6  1  0.499498  0.670651  0.903938  1
  Sc  Sc7  1  0.999010  0.830221  0.596203  1
  Be  Be8  1  0.459125  0.378389  0.750000  1
  Be  Be9  1  0.957703  0.122206  0.750000  1
  Be  Be10  1  0.540723  0.623121  0.250000  1
  Si  Si11  1  0.668308  0.961258  0.458507  1
  Si  Si12  1  0.167934  0.538034  0.040807  1
  Si  Si13  1  0.331974  0.038794  0.958207  1
  Si  Si14  1  0.832317  0.459010  0.543495  1
  Si  Si15  1  0.331974  0.038794  0.541793  1
  Si  Si16  1  0.832317  0.459010  0.956505  1
  Si  Si17  1  0.668308  0.961258  0.041493  1
  Si  Si18  1  0.167934  0.538034  0.459193  1
  Si  Si19  1  0.035428  0.879123  0.250000  1
  Si  Si20  1  0.709044  0.867209  0.750000  1
  Si  Si21  1  0.208690  0.631723  0.750000  1
  Si  Si22  1  0.301679  0.142804  0.250000  1
  Si  Si23  1  0.790595  0.367391  0.250000  1
  Mo  Mo24  1  0.661993  0.167996  0.627871  1
  Mo  Mo25  1  0.163941  0.330049  0.872150  1
  Mo  Mo26  1  0.336366  0.830732  0.126462  1
  Mo  Mo27  1  0.831424  0.662604  0.375294  1
  Mo  Mo28  1  0.336366  0.830732  0.373538  1
  Mo  Mo29  1  0.831424  0.662604  0.124706  1
  Mo  Mo30  1  0.661993  0.167996  0.872129  1
  Mo  Mo31  1  0.163941  0.330049  0.627850  1
  Mo  Mo32  1  0.835142  0.490476  0.750000  1
  Mo  Mo33  1  0.165835  0.502942  0.250000  1
  Mo  Mo34  1  0.664411  0.996073  0.250000  1
  W  W35  1  0.333661  0.010492  0.750000  1
