# generated using pymatgen
data_Nd3TmIrRh3O14
_symmetry_space_group_name_H-M   'P 1'
_cell_length_a   7.32751933
_cell_length_b   7.36611892
_cell_length_c   7.36597435
_cell_angle_alpha   59.99935555
_cell_angle_beta   59.73962103
_cell_angle_gamma   59.82560109
_symmetry_Int_Tables_number   1
_chemical_formula_structural   Nd3TmIrRh3O14
_chemical_formula_sum   'Nd3 Tm1 Ir1 Rh3 O14'
_cell_volume   280.20343274
_cell_formula_units_Z   1
loop_
 _symmetry_equiv_pos_site_id
 _symmetry_equiv_pos_as_xyz
  1  'x, y, z'
loop_
 _atom_site_type_symbol
 _atom_site_label
 _atom_site_symmetry_multiplicity
 _atom_site_fract_x
 _atom_site_fract_y
 _atom_site_fract_z
 _atom_site_occupancy
  Nd  Nd0  1  0.125000  0.625000  0.125000  1
  Nd  Nd1  1  0.125000  0.125000  0.625000  1
  Nd  Nd2  1  0.125000  0.125000  0.125000  1
  Tm  Tm3  1  0.625000  0.125000  0.125000  1
  Ir  Ir4  1  0.625000  0.625000  0.125000  1
  Rh  Rh5  1  0.125000  0.625000  0.625000  1
  Rh  Rh6  1  0.625000  0.125000  0.625000  1
  Rh  Rh7  1  0.625000  0.625000  0.625000  1
  O  O8  1  0.697430  0.715551  0.290479  1
  O  O9  1  0.289564  0.289193  0.713357  1
  O  O10  1  0.698472  0.289583  0.722362  1
  O  O11  1  0.297102  0.706505  0.289889  1
  O  O12  1  0.289564  0.707886  0.713357  1
  O  O13  1  0.697430  0.296540  0.290479  1
  O  O14  1  0.552570  0.534449  0.959521  1
  O  O15  1  0.960436  0.960807  0.536643  1
  O  O16  1  0.551528  0.960417  0.527638  1
  O  O17  1  0.952898  0.543495  0.960111  1
  O  O18  1  0.960436  0.542114  0.536643  1
  O  O19  1  0.552570  0.953460  0.959521  1
  O  O20  1  0.265875  0.245937  0.242252  1
  O  O21  1  0.984125  0.004063  0.007748  1
