# generated using pymatgen
data_Ac3(ZnSi)4
_symmetry_space_group_name_H-M   'P 1'
_cell_length_a   4.52258674
_cell_length_b   4.33181627
_cell_length_c   12.86292265
_cell_angle_alpha   99.69386364
_cell_angle_beta   100.12518708
_cell_angle_gamma   89.99999414
_symmetry_Int_Tables_number   1
_chemical_formula_structural   Ac3(ZnSi)4
_chemical_formula_sum   'Ac3 Zn4 Si4'
_cell_volume   244.41717956
_cell_formula_units_Z   1
loop_
 _symmetry_equiv_pos_site_id
 _symmetry_equiv_pos_as_xyz
  1  'x, y, z'
loop_
 _atom_site_type_symbol
 _atom_site_label
 _atom_site_symmetry_multiplicity
 _atom_site_fract_x
 _atom_site_fract_y
 _atom_site_fract_z
 _atom_site_occupancy
  Ac  Ac0  1  0.852708  0.352708  0.705417  1
  Ac  Ac1  1  0.147292  0.647292  0.294583  1
  Ac  Ac2  1  0.000000  0.000000  0.000000  1
  Zn  Zn3  1  0.249500  0.249500  0.498999  1
  Zn  Zn4  1  0.750500  0.750500  0.501001  1
  Zn  Zn5  1  0.595708  0.095708  0.191416  1
  Zn  Zn6  1  0.404292  0.904292  0.808584  1
  Si  Si7  1  0.451707  0.451707  0.903413  1
  Si  Si8  1  0.548293  0.548293  0.096587  1
  Si  Si9  1  0.694936  0.194936  0.389872  1
  Si  Si10  1  0.305064  0.805064  0.610128  1
