# generated using pymatgen
data_YHo4Co19(Si2P)4
_symmetry_space_group_name_H-M   'P 1'
_cell_length_a   12.11612505
_cell_length_b   12.11481135
_cell_length_c   3.69915800
_cell_angle_alpha   90.00000000
_cell_angle_beta   90.00000000
_cell_angle_gamma   119.94946959
_symmetry_Int_Tables_number   1
_chemical_formula_structural   YHo4Co19(Si2P)4
_chemical_formula_sum   'Y1 Ho4 Co19 Si8 P4'
_cell_volume   470.47312919
_cell_formula_units_Z   1
loop_
 _symmetry_equiv_pos_site_id
 _symmetry_equiv_pos_as_xyz
  1  'x, y, z'
loop_
 _atom_site_type_symbol
 _atom_site_label
 _atom_site_symmetry_multiplicity
 _atom_site_fract_x
 _atom_site_fract_y
 _atom_site_fract_z
 _atom_site_occupancy
  Y  Y0  1  0.667177  0.332233  0.500000  1
  Ho  Ho1  1  0.332739  0.665989  0.500000  1
  Ho  Ho2  1  0.001047  0.185380  0.000000  1
  Ho  Ho3  1  0.814361  0.815120  0.000000  1
  Ho  Ho4  1  0.186202  0.999960  0.000000  1
  Co  Co5  1  0.627556  0.825100  0.500000  1
  Co  Co6  1  0.176160  0.802861  0.500000  1
  Co  Co7  1  0.196393  0.372001  0.500000  1
  Co  Co8  1  0.374343  0.196472  0.500000  1
  Co  Co9  1  0.823949  0.627450  0.500000  1
  Co  Co10  1  0.797970  0.175525  0.500000  1
  Co  Co11  1  0.999304  0.558149  0.500000  1
  Co  Co12  1  0.440525  0.440861  0.500000  1
  Co  Co13  1  0.556560  0.996869  0.500000  1
  Co  Co14  1  0.520739  0.644895  0.000000  1
  Co  Co15  1  0.355388  0.876097  0.000000  1
  Co  Co16  1  0.122789  0.478413  0.000000  1
  Co  Co17  1  0.486291  0.123734  0.000000  1
  Co  Co18  1  0.643817  0.520752  0.000000  1
  Co  Co19  1  0.874741  0.353749  0.000000  1
  Co  Co20  1  0.000032  0.723129  0.000000  1
  Co  Co21  1  0.277689  0.276668  0.000000  1
  Co  Co22  1  0.721269  0.004391  0.000000  1
  Co  Co23  1  0.999245  0.000107  0.500000  1
  Si  Si24  1  0.999727  0.370244  0.500000  1
  Si  Si25  1  0.629131  0.629334  0.500000  1
  Si  Si26  1  0.370865  0.000237  0.500000  1
  Si  Si27  1  0.521839  0.839765  0.000000  1
  Si  Si28  1  0.159437  0.681690  0.000000  1
  Si  Si29  1  0.317507  0.477200  0.000000  1
  Si  Si30  1  0.477952  0.317102  0.000000  1
  Si  Si31  1  0.840194  0.522886  0.000000  1
  P  P32  1  0.686813  0.165196  0.000000  1
  P  P33  1  0.999965  0.818705  0.500000  1
  P  P34  1  0.182074  0.180828  0.500000  1
  P  P35  1  0.818210  0.000904  0.500000  1
