# generated using pymatgen
data_TbHo2(Al3Os)4
_symmetry_space_group_name_H-M   'P 1'
_cell_length_a   8.82667800
_cell_length_b   8.82804689
_cell_length_c   9.60262700
_cell_angle_alpha   90.00000000
_cell_angle_beta   90.00000000
_cell_angle_gamma   119.99487073
_symmetry_Int_Tables_number   1
_chemical_formula_structural   TbHo2(Al3Os)4
_chemical_formula_sum   'Tb2 Ho4 Al24 Os8'
_cell_volume   648.04483120
_cell_formula_units_Z   2
loop_
 _symmetry_equiv_pos_site_id
 _symmetry_equiv_pos_as_xyz
  1  'x, y, z'
loop_
 _atom_site_type_symbol
 _atom_site_label
 _atom_site_symmetry_multiplicity
 _atom_site_fract_x
 _atom_site_fract_y
 _atom_site_fract_z
 _atom_site_occupancy
  Tb  Tb0  1  0.193171  0.386341  0.250000  1
  Tb  Tb1  1  0.806829  0.613659  0.750000  1
  Ho  Ho2  1  0.612389  0.806350  0.250000  1
  Ho  Ho3  1  0.387611  0.193650  0.750000  1
  Ho  Ho4  1  0.193961  0.806350  0.250000  1
  Ho  Ho5  1  0.806039  0.193650  0.750000  1
  Al  Al6  1  0.333535  0.667071  0.016932  1
  Al  Al7  1  0.666465  0.332929  0.983068  1
  Al  Al8  1  0.666465  0.332929  0.516932  1
  Al  Al9  1  0.333535  0.667071  0.483068  1
  Al  Al10  1  0.163584  0.327168  0.575655  1
  Al  Al11  1  0.836416  0.672832  0.424345  1
  Al  Al12  1  0.672700  0.836350  0.574696  1
  Al  Al13  1  0.836416  0.672832  0.075655  1
  Al  Al14  1  0.327300  0.163650  0.425304  1
  Al  Al15  1  0.163584  0.327168  0.924345  1
  Al  Al16  1  0.163651  0.836350  0.574696  1
  Al  Al17  1  0.327300  0.163650  0.074696  1
  Al  Al18  1  0.836349  0.163650  0.425304  1
  Al  Al19  1  0.672700  0.836350  0.925304  1
  Al  Al20  1  0.836349  0.163650  0.074696  1
  Al  Al21  1  0.163651  0.836350  0.925304  1
  Al  Al22  1  0.561226  0.122453  0.250000  1
  Al  Al23  1  0.438774  0.877547  0.750000  1
  Al  Al24  1  0.877202  0.439072  0.250000  1
  Al  Al25  1  0.122798  0.560928  0.750000  1
  Al  Al26  1  0.561868  0.439072  0.250000  1
  Al  Al27  1  0.438132  0.560928  0.750000  1
  Al  Al28  1  0.999739  0.999478  0.250000  1
  Al  Al29  1  0.000261  0.000522  0.750000  1
  Os  Os30  1  0.500000  0.000000  0.000000  1
  Os  Os31  1  0.000000  0.500000  0.000000  1
  Os  Os32  1  0.500000  0.000000  0.500000  1
  Os  Os33  1  0.500000  0.500000  0.000000  1
  Os  Os34  1  0.000000  0.500000  0.500000  1
  Os  Os35  1  0.500000  0.500000  0.500000  1
  Os  Os36  1  0.000000  0.000000  0.000000  1
  Os  Os37  1  0.000000  0.000000  0.500000  1
