# generated using pymatgen
data_PrNd7(Zr3Sn4)4
_symmetry_space_group_name_H-M   'P 1'
_cell_length_a   7.88729702
_cell_length_b   7.93418902
_cell_length_c   14.90398705
_cell_angle_alpha   89.99237727
_cell_angle_beta   89.99404214
_cell_angle_gamma   89.99568311
_symmetry_Int_Tables_number   1
_chemical_formula_structural   PrNd7(Zr3Sn4)4
_chemical_formula_sum   'Pr1 Nd7 Zr12 Sn16'
_cell_volume   932.68114167
_cell_formula_units_Z   1
loop_
 _symmetry_equiv_pos_site_id
 _symmetry_equiv_pos_as_xyz
  1  'x, y, z'
loop_
 _atom_site_type_symbol
 _atom_site_label
 _atom_site_symmetry_multiplicity
 _atom_site_fract_x
 _atom_site_fract_y
 _atom_site_fract_z
 _atom_site_occupancy
  Pr  Pr0  1  0.008615  0.174022  0.906785  1
  Nd  Nd1  1  0.508665  0.325857  0.906651  1
  Nd  Nd2  1  0.008640  0.174176  0.593357  1
  Nd  Nd3  1  0.491352  0.674175  0.406655  1
  Nd  Nd4  1  0.991366  0.825777  0.093389  1
  Nd  Nd5  1  0.491362  0.674178  0.093368  1
  Nd  Nd6  1  0.991350  0.825815  0.406656  1
  Nd  Nd7  1  0.508638  0.325836  0.593313  1
  Zr  Zr8  1  0.344309  0.836856  0.871088  1
  Zr  Zr9  1  0.844214  0.663075  0.628856  1
  Zr  Zr10  1  0.655785  0.163070  0.371116  1
  Zr  Zr11  1  0.155834  0.336994  0.128950  1
  Zr  Zr12  1  0.655775  0.163054  0.128904  1
  Zr  Zr13  1  0.155786  0.336927  0.371112  1
  Zr  Zr14  1  0.344246  0.836902  0.628868  1
  Zr  Zr15  1  0.844195  0.663024  0.871087  1
  Zr  Zr16  1  0.168368  0.509007  0.749960  1
  Zr  Zr17  1  0.668264  0.991039  0.749974  1
  Zr  Zr18  1  0.831665  0.491068  0.250008  1
  Zr  Zr19  1  0.331684  0.008943  0.250009  1
  Sn  Sn20  1  0.320146  0.042530  0.044082  1
  Sn  Sn21  1  0.819850  0.457373  0.456020  1
  Sn  Sn22  1  0.680163  0.957380  0.543969  1
  Sn  Sn23  1  0.180323  0.542936  0.956072  1
  Sn  Sn24  1  0.679723  0.957140  0.956090  1
  Sn  Sn25  1  0.180151  0.542616  0.543964  1
  Sn  Sn26  1  0.319849  0.042627  0.456022  1
  Sn  Sn27  1  0.819737  0.457560  0.044070  1
  Sn  Sn28  1  0.540468  0.623125  0.749992  1
  Sn  Sn29  1  0.040496  0.876668  0.749908  1
  Sn  Sn30  1  0.459524  0.376877  0.250005  1
  Sn  Sn31  1  0.959526  0.123134  0.250004  1
  Sn  Sn32  1  0.313044  0.147863  0.749892  1
  Sn  Sn33  1  0.812556  0.352376  0.749790  1
  Sn  Sn34  1  0.687162  0.852102  0.250008  1
  Sn  Sn35  1  0.187169  0.647897  0.250004  1
