# generated using pymatgen
data_Pr3LuAu2
_symmetry_space_group_name_H-M   'P 1'
_cell_length_a   5.01814400
_cell_length_b   7.38973029
_cell_length_c   9.23685872
_cell_angle_alpha   90.05802295
_cell_angle_beta   90.00000000
_cell_angle_gamma   90.00000000
_symmetry_Int_Tables_number   1
_chemical_formula_structural   Pr3LuAu2
_chemical_formula_sum   'Pr6 Lu2 Au4'
_cell_volume   342.52776876
_cell_formula_units_Z   2
loop_
 _symmetry_equiv_pos_site_id
 _symmetry_equiv_pos_as_xyz
  1  'x, y, z'
loop_
 _atom_site_type_symbol
 _atom_site_label
 _atom_site_symmetry_multiplicity
 _atom_site_fract_x
 _atom_site_fract_y
 _atom_site_fract_z
 _atom_site_occupancy
  Pr  Pr0  1  0.250000  0.488836  0.175021  1
  Pr  Pr1  1  0.750000  0.511164  0.824979  1
  Pr  Pr2  1  0.250000  0.991838  0.323123  1
  Pr  Pr3  1  0.750000  0.008162  0.676877  1
  Pr  Pr4  1  0.750000  0.651610  0.410623  1
  Pr  Pr5  1  0.250000  0.348390  0.589377  1
  Lu  Lu6  1  0.750000  0.147305  0.075935  1
  Lu  Lu7  1  0.250000  0.852695  0.924065  1
  Au  Au8  1  0.250000  0.237794  0.913837  1
  Au  Au9  1  0.750000  0.762206  0.086163  1
  Au  Au10  1  0.250000  0.757704  0.613501  1
  Au  Au11  1  0.750000  0.242296  0.386499  1
