# generated using pymatgen
data_Hf4Zr12Ir3Pd5N4
_symmetry_space_group_name_H-M   'P 1'
_cell_length_a   8.83928414
_cell_length_b   8.83759298
_cell_length_c   8.83759200
_cell_angle_alpha   60.00000366
_cell_angle_beta   60.00633240
_cell_angle_gamma   60.00632171
_symmetry_Int_Tables_number   1
_chemical_formula_structural   Hf4Zr12Ir3Pd5N4
_chemical_formula_sum   'Hf4 Zr12 Ir3 Pd5 N4'
_cell_volume   488.21551780
_cell_formula_units_Z   1
loop_
 _symmetry_equiv_pos_site_id
 _symmetry_equiv_pos_as_xyz
  1  'x, y, z'
loop_
 _atom_site_type_symbol
 _atom_site_label
 _atom_site_symmetry_multiplicity
 _atom_site_fract_x
 _atom_site_fract_y
 _atom_site_fract_z
 _atom_site_occupancy
  Hf  Hf0  1  0.108836  0.630388  0.630388  1
  Hf  Hf1  1  0.630772  0.114846  0.627191  1
  Hf  Hf2  1  0.630772  0.627191  0.114846  1
  Hf  Hf3  1  0.630772  0.627191  0.627191  1
  Zr  Zr4  1  0.817354  0.817422  0.182612  1
  Zr  Zr5  1  0.179050  0.185220  0.817866  1
  Zr  Zr6  1  0.817354  0.182612  0.817422  1
  Zr  Zr7  1  0.179050  0.817866  0.185220  1
  Zr  Zr8  1  0.179050  0.817866  0.817866  1
  Zr  Zr9  1  0.817354  0.182612  0.182612  1
  Zr  Zr10  1  0.432427  0.431674  0.067949  1
  Zr  Zr11  1  0.067517  0.067164  0.432660  1
  Zr  Zr12  1  0.432427  0.067949  0.431674  1
  Zr  Zr13  1  0.067517  0.432660  0.067164  1
  Zr  Zr14  1  0.067517  0.432660  0.432660  1
  Zr  Zr15  1  0.432427  0.067949  0.067949  1
  Ir  Ir16  1  0.842907  0.467837  0.844628  1
  Ir  Ir17  1  0.842907  0.844628  0.467837  1
  Ir  Ir18  1  0.842907  0.844628  0.844628  1
  Pd  Pd19  1  0.761443  0.412852  0.412852  1
  Pd  Pd20  1  0.412499  0.760365  0.413567  1
  Pd  Pd21  1  0.412499  0.413567  0.760365  1
  Pd  Pd22  1  0.412499  0.413567  0.413567  1
  Pd  Pd23  1  0.478040  0.840653  0.840653  1
  N  N24  1  0.624311  0.125229  0.125229  1
  N  N25  1  0.126597  0.623487  0.124957  1
  N  N26  1  0.126597  0.124957  0.623487  1
  N  N27  1  0.126597  0.124957  0.124957  1
