# generated using pymatgen
data_Cs4CrFe3Se8
_symmetry_space_group_name_H-M   'P 1'
_cell_length_a   5.61163440
_cell_length_b   7.56781572
_cell_length_c   13.08609927
_cell_angle_alpha   89.83552989
_cell_angle_beta   83.63985668
_cell_angle_gamma   79.46022034
_symmetry_Int_Tables_number   1
_chemical_formula_structural   Cs4CrFe3Se8
_chemical_formula_sum   'Cs4 Cr1 Fe3 Se8'
_cell_volume   542.91294114
_cell_formula_units_Z   1
loop_
 _symmetry_equiv_pos_site_id
 _symmetry_equiv_pos_as_xyz
  1  'x, y, z'
loop_
 _atom_site_type_symbol
 _atom_site_label
 _atom_site_symmetry_multiplicity
 _atom_site_fract_x
 _atom_site_fract_y
 _atom_site_fract_z
 _atom_site_occupancy
  Cs  Cs0  1  0.079175  0.024114  0.674714  1
  Cs  Cs1  1  0.566641  0.536516  0.178737  1
  Cs  Cs2  1  0.427521  0.463710  0.821230  1
  Cs  Cs3  1  0.926649  0.976616  0.325225  1
  Cr  Cr4  1  0.750194  0.998820  0.999490  1
  Fe  Fe5  1  0.252845  0.494499  0.498194  1
  Fe  Fe6  1  0.746823  0.505595  0.502288  1
  Fe  Fe7  1  0.249746  0.000571  0.000203  1
  Se  Se8  1  0.956929  0.546972  0.642507  1
  Se  Se9  1  0.457738  0.064674  0.139881  1
  Se  Se10  1  0.940355  0.241722  0.962613  1
  Se  Se11  1  0.448004  0.740396  0.455635  1
  Se  Se12  1  0.560675  0.934218  0.859880  1
  Se  Se13  1  0.041664  0.454743  0.357951  1
  Se  Se14  1  0.553015  0.259456  0.544895  1
  Se  Se15  1  0.042026  0.757375  0.036556  1
