# generated using pymatgen
data_Tb8Er11Si16Tc
_symmetry_space_group_name_H-M   'P 1'
_cell_length_a   7.25600800
_cell_length_b   7.63007818
_cell_length_c   14.40307100
_cell_angle_alpha   90.00000000
_cell_angle_beta   90.00000000
_cell_angle_gamma   90.09825893
_symmetry_Int_Tables_number   1
_chemical_formula_structural   Tb8Er11Si16Tc
_chemical_formula_sum   'Tb8 Er11 Si16 Tc1'
_cell_volume   797.40912975
_cell_formula_units_Z   1
loop_
 _symmetry_equiv_pos_site_id
 _symmetry_equiv_pos_as_xyz
  1  'x, y, z'
loop_
 _atom_site_type_symbol
 _atom_site_label
 _atom_site_symmetry_multiplicity
 _atom_site_fract_x
 _atom_site_fract_y
 _atom_site_fract_z
 _atom_site_occupancy
  Tb  Tb0  1  0.018777  0.182042  0.092781  1
  Tb  Tb1  1  0.987701  0.812498  0.898306  1
  Tb  Tb2  1  0.479094  0.675238  0.901251  1
  Tb  Tb3  1  0.987701  0.812498  0.601694  1
  Tb  Tb4  1  0.520367  0.317818  0.096050  1
  Tb  Tb5  1  0.018777  0.182042  0.407219  1
  Tb  Tb6  1  0.520367  0.317818  0.403950  1
  Tb  Tb7  1  0.479094  0.675238  0.598749  1
  Er  Er8  1  0.844316  0.488884  0.250000  1
  Er  Er9  1  0.345763  0.012001  0.250000  1
  Er  Er10  1  0.652087  0.984749  0.750000  1
  Er  Er11  1  0.319805  0.182203  0.627531  1
  Er  Er12  1  0.677929  0.822066  0.377309  1
  Er  Er13  1  0.176414  0.676524  0.379817  1
  Er  Er14  1  0.677929  0.822066  0.122691  1
  Er  Er15  1  0.823224  0.329598  0.628599  1
  Er  Er16  1  0.319805  0.182203  0.872469  1
  Er  Er17  1  0.823224  0.329598  0.871401  1
  Er  Er18  1  0.176414  0.676524  0.120183  1
  Si  Si19  1  0.023871  0.103066  0.750000  1
  Si  Si20  1  0.974976  0.892959  0.250000  1
  Si  Si21  1  0.470000  0.609546  0.250000  1
  Si  Si22  1  0.509158  0.410476  0.750000  1
  Si  Si23  1  0.274209  0.850244  0.750000  1
  Si  Si24  1  0.729144  0.128403  0.250000  1
  Si  Si25  1  0.224954  0.373867  0.250000  1
  Si  Si26  1  0.790820  0.629309  0.750000  1
  Si  Si27  1  0.151304  0.473064  0.550153  1
  Si  Si28  1  0.846839  0.531518  0.464269  1
  Si  Si29  1  0.350409  0.970240  0.463687  1
  Si  Si30  1  0.846839  0.531518  0.035731  1
  Si  Si31  1  0.653893  0.031621  0.540541  1
  Si  Si32  1  0.151304  0.473064  0.949847  1
  Si  Si33  1  0.653893  0.031621  0.959459  1
  Si  Si34  1  0.350409  0.970240  0.036313  1
  Tc  Tc35  1  0.149193  0.507635  0.750000  1
