# generated using pymatgen
data_Ho5Er3GaPd24
_symmetry_space_group_name_H-M   'P 1'
_cell_length_a   8.33087900
_cell_length_b   8.33087900
_cell_length_c   8.33087900
_cell_angle_alpha   89.99903715
_cell_angle_beta   89.99903715
_cell_angle_gamma   90.00096285
_symmetry_Int_Tables_number   1
_chemical_formula_structural   Ho5Er3GaPd24
_chemical_formula_sum   'Ho5 Er3 Ga1 Pd24'
_cell_volume   578.19253472
_cell_formula_units_Z   1
loop_
 _symmetry_equiv_pos_site_id
 _symmetry_equiv_pos_as_xyz
  1  'x, y, z'
loop_
 _atom_site_type_symbol
 _atom_site_label
 _atom_site_symmetry_multiplicity
 _atom_site_fract_x
 _atom_site_fract_y
 _atom_site_fract_z
 _atom_site_occupancy
  Ho  Ho0  1  0.251459  0.251459  0.748541  1
  Ho  Ho1  1  0.251467  0.748539  0.251461  1
  Ho  Ho2  1  0.748539  0.251467  0.251461  1
  Ho  Ho3  1  0.748539  0.748539  0.748533  1
  Ho  Ho4  1  0.748522  0.748522  0.251478  1
  Er  Er5  1  0.748515  0.251481  0.748519  1
  Er  Er6  1  0.251481  0.748515  0.748519  1
  Er  Er7  1  0.251481  0.251481  0.251485  1
  Ga  Ga8  1  0.000014  0.000014  0.999986  1
  Pd  Pd9  1  0.500000  0.500000  0.747017  1
  Pd  Pd10  1  0.500000  0.252983  0.500000  1
  Pd  Pd11  1  0.252983  0.500000  0.500000  1
  Pd  Pd12  1  0.499866  0.499866  0.252983  1
  Pd  Pd13  1  0.499866  0.747017  0.500134  1
  Pd  Pd14  1  0.747017  0.499866  0.500134  1
  Pd  Pd15  1  0.000000  0.000000  0.708303  1
  Pd  Pd16  1  0.000000  0.291697  0.000000  1
  Pd  Pd17  1  0.291697  0.000000  0.000000  1
  Pd  Pd18  1  0.000116  0.000116  0.291714  1
  Pd  Pd19  1  0.000116  0.708286  0.999884  1
  Pd  Pd20  1  0.708286  0.000116  0.999884  1
  Pd  Pd21  1  0.999999  0.500005  0.739757  1
  Pd  Pd22  1  0.500005  0.260243  0.000001  1
  Pd  Pd23  1  0.260243  0.999999  0.499995  1
  Pd  Pd24  1  0.999999  0.260243  0.499995  1
  Pd  Pd25  1  0.500005  0.999999  0.739757  1
  Pd  Pd26  1  0.260243  0.500005  0.000001  1
  Pd  Pd27  1  0.000128  0.499876  0.260234  1
  Pd  Pd28  1  0.499876  0.739766  0.999872  1
  Pd  Pd29  1  0.000128  0.739766  0.500124  1
  Pd  Pd30  1  0.499876  0.000128  0.260234  1
  Pd  Pd31  1  0.739766  0.000128  0.500124  1
  Pd  Pd32  1  0.739766  0.499876  0.999872  1
