# generated using pymatgen
data_Ho5Er5Si5Sn
_symmetry_space_group_name_H-M   'P 1'
_cell_length_a   8.45825807
_cell_length_b   8.48558614
_cell_length_c   6.33464200
_cell_angle_alpha   90.00000000
_cell_angle_beta   90.00000000
_cell_angle_gamma   119.87857436
_symmetry_Int_Tables_number   1
_chemical_formula_structural   Ho5Er5Si5Sn
_chemical_formula_sum   'Ho5 Er5 Si5 Sn1'
_cell_volume   394.22628235
_cell_formula_units_Z   1
loop_
 _symmetry_equiv_pos_site_id
 _symmetry_equiv_pos_as_xyz
  1  'x, y, z'
loop_
 _atom_site_type_symbol
 _atom_site_label
 _atom_site_symmetry_multiplicity
 _atom_site_fract_x
 _atom_site_fract_y
 _atom_site_fract_z
 _atom_site_occupancy
  Ho  Ho0  1  0.989710  0.749259  0.750000  1
  Ho  Ho1  1  0.998330  0.242128  0.250000  1
  Ho  Ho2  1  0.756131  0.757830  0.250000  1
  Ho  Ho3  1  0.765899  0.000026  0.750000  1
  Ho  Ho4  1  0.241032  0.000033  0.250000  1
  Er  Er5  1  0.240496  0.250830  0.750000  1
  Er  Er6  1  0.331280  0.657415  0.497026  1
  Er  Er7  1  0.673807  0.342534  0.002983  1
  Er  Er8  1  0.673807  0.342534  0.497017  1
  Er  Er9  1  0.331280  0.657415  0.002974  1
  Si  Si10  1  0.393456  0.392011  0.250000  1
  Si  Si11  1  0.001454  0.608011  0.250000  1
  Si  Si12  1  0.998672  0.394261  0.750000  1
  Si  Si13  1  0.604200  0.605620  0.750000  1
  Si  Si14  1  0.604968  0.000006  0.250000  1
  Sn  Sn15  1  0.395478  0.000088  0.750000  1
