# generated using pymatgen
data_MgSn13(Ir2Ru)2
_symmetry_space_group_name_H-M   'P 1'
_cell_length_a   8.22315379
_cell_length_b   8.20059870
_cell_length_c   8.20059864
_cell_angle_alpha   109.59569794
_cell_angle_beta   110.16411237
_cell_angle_gamma   108.54720760
_symmetry_Int_Tables_number   1
_chemical_formula_structural   MgSn13(Ir2Ru)2
_chemical_formula_sum   'Mg1 Sn13 Ir4 Ru2'
_cell_volume   426.19784501
_cell_formula_units_Z   1
loop_
 _symmetry_equiv_pos_site_id
 _symmetry_equiv_pos_as_xyz
  1  'x, y, z'
loop_
 _atom_site_type_symbol
 _atom_site_label
 _atom_site_symmetry_multiplicity
 _atom_site_fract_x
 _atom_site_fract_y
 _atom_site_fract_z
 _atom_site_occupancy
  Mg  Mg0  1  0.250288  0.749820  0.500467  1
  Sn  Sn1  1  0.753487  0.250640  0.502847  1
  Sn  Sn2  1  0.757871  0.506078  0.251792  1
  Sn  Sn3  1  0.255016  0.505880  0.749135  1
  Sn  Sn4  1  0.501267  0.750634  0.254555  1
  Sn  Sn5  1  0.501267  0.246712  0.750634  1
  Sn  Sn6  1  0.999455  0.996347  0.325236  1
  Sn  Sn7  1  0.671797  0.996961  0.994079  1
  Sn  Sn8  1  0.999455  0.674221  0.003108  1
  Sn  Sn9  1  0.325384  0.328986  0.328928  1
  Sn  Sn10  1  0.997547  0.325755  0.999974  1
  Sn  Sn11  1  0.671797  0.677717  0.674835  1
  Sn  Sn12  1  0.325384  0.996456  0.996399  1
  Sn  Sn13  1  0.997547  0.997573  0.671793  1
  Ir  Ir14  1  0.346305  0.005366  0.340939  1
  Ir  Ir15  1  0.994731  0.336584  0.342253  1
  Ir  Ir16  1  0.994731  0.652478  0.658147  1
  Ir  Ir17  1  0.342778  0.342525  0.000253  1
  Ru  Ru18  1  0.652609  0.652561  0.000047  1
  Ru  Ru19  1  0.661286  0.006706  0.654579  1
