# generated using pymatgen
data_DyY3(ErPd)4
_symmetry_space_group_name_H-M   'P 1'
_cell_length_a   4.86571600
_cell_length_b   7.17453156
_cell_length_c   8.68483500
_cell_angle_alpha   90.12310422
_cell_angle_beta   90.00000000
_cell_angle_gamma   90.00000000
_symmetry_Int_Tables_number   1
_chemical_formula_structural   DyY3(ErPd)4
_chemical_formula_sum   'Dy1 Y3 Er4 Pd4'
_cell_volume   303.18022882
_cell_formula_units_Z   1
loop_
 _symmetry_equiv_pos_site_id
 _symmetry_equiv_pos_as_xyz
  1  'x, y, z'
loop_
 _atom_site_type_symbol
 _atom_site_label
 _atom_site_symmetry_multiplicity
 _atom_site_fract_x
 _atom_site_fract_y
 _atom_site_fract_z
 _atom_site_occupancy
  Dy  Dy0  1  0.250000  0.018292  0.329408  1
  Y  Y1  1  0.250000  0.518530  0.170909  1
  Y  Y2  1  0.750000  0.981302  0.671921  1
  Y  Y3  1  0.750000  0.481512  0.828948  1
  Er  Er4  1  0.250000  0.143644  0.921710  1
  Er  Er5  1  0.250000  0.644168  0.578162  1
  Er  Er6  1  0.750000  0.856563  0.078789  1
  Er  Er7  1  0.750000  0.355762  0.421470  1
  Pd  Pd8  1  0.250000  0.247330  0.594729  1
  Pd  Pd9  1  0.250000  0.748273  0.904269  1
  Pd  Pd10  1  0.750000  0.752779  0.404190  1
  Pd  Pd11  1  0.750000  0.251845  0.095494  1
