# generated using pymatgen
data_TbDy19(Sn5Pb3)2
_symmetry_space_group_name_H-M   'P 1'
_cell_length_a   8.07569100
_cell_length_b   8.20801406
_cell_length_c   15.53092100
_cell_angle_alpha   90.04638521
_cell_angle_beta   90.00086557
_cell_angle_gamma   89.95646910
_symmetry_Int_Tables_number   1
_chemical_formula_structural   TbDy19(Sn5Pb3)2
_chemical_formula_sum   'Tb1 Dy19 Sn10 Pb6'
_cell_volume   1029.47244748
_cell_formula_units_Z   1
loop_
 _symmetry_equiv_pos_site_id
 _symmetry_equiv_pos_as_xyz
  1  'x, y, z'
loop_
 _atom_site_type_symbol
 _atom_site_label
 _atom_site_symmetry_multiplicity
 _atom_site_fract_x
 _atom_site_fract_y
 _atom_site_fract_z
 _atom_site_occupancy
  Tb  Tb0  1  0.198534  0.503066  0.750082  1
  Dy  Dy1  1  0.367564  0.838347  0.875777  1
  Dy  Dy2  1  0.867398  0.661832  0.624152  1
  Dy  Dy3  1  0.629952  0.161816  0.376182  1
  Dy  Dy4  1  0.130076  0.338181  0.123305  1
  Dy  Dy5  1  0.632900  0.164361  0.123491  1
  Dy  Dy6  1  0.132927  0.335712  0.376879  1
  Dy  Dy7  1  0.367365  0.839672  0.623389  1
  Dy  Dy8  1  0.867185  0.660542  0.876791  1
  Dy  Dy9  1  0.524237  0.322768  0.900846  1
  Dy  Dy10  1  0.024281  0.177564  0.599270  1
  Dy  Dy11  1  0.476988  0.680902  0.400408  1
  Dy  Dy12  1  0.976971  0.819000  0.099920  1
  Dy  Dy13  1  0.480239  0.676732  0.099376  1
  Dy  Dy14  1  0.980197  0.823123  0.400244  1
  Dy  Dy15  1  0.521202  0.320165  0.599520  1
  Dy  Dy16  1  0.021263  0.180130  0.900403  1
  Dy  Dy17  1  0.698788  0.997630  0.749959  1
  Dy  Dy18  1  0.800875  0.497051  0.248694  1
  Dy  Dy19  1  0.300852  0.002631  0.251258  1
  Sn  Sn20  1  0.291994  0.036441  0.458480  1
  Sn  Sn21  1  0.791697  0.463208  0.041460  1
  Sn  Sn22  1  0.564372  0.618931  0.749862  1
  Sn  Sn23  1  0.064216  0.880965  0.750287  1
  Sn  Sn24  1  0.434534  0.381293  0.250043  1
  Sn  Sn25  1  0.934904  0.118743  0.249839  1
  Sn  Sn26  1  0.330653  0.149383  0.750420  1
  Sn  Sn27  1  0.830909  0.351268  0.749778  1
  Sn  Sn28  1  0.669701  0.851810  0.249888  1
  Sn  Sn29  1  0.169859  0.647633  0.249971  1
  Pb  Pb30  1  0.291340  0.036847  0.041297  1
  Pb  Pb31  1  0.791246  0.462760  0.458675  1
  Pb  Pb32  1  0.708773  0.962531  0.540973  1
  Pb  Pb33  1  0.208851  0.537248  0.958645  1
  Pb  Pb34  1  0.708699  0.962699  0.958883  1
  Pb  Pb35  1  0.208459  0.537020  0.541551  1
