# generated using pymatgen
data_LaNd5RuBr10
_symmetry_space_group_name_H-M   'P 1'
_cell_length_a   7.71575014
_cell_length_b   9.39226174
_cell_length_c   9.76211668
_cell_angle_alpha   108.95109909
_cell_angle_beta   96.92052667
_cell_angle_gamma   105.86371969
_symmetry_Int_Tables_number   1
_chemical_formula_structural   LaNd5RuBr10
_chemical_formula_sum   'La1 Nd5 Ru1 Br10'
_cell_volume   626.35742609
_cell_formula_units_Z   1
loop_
 _symmetry_equiv_pos_site_id
 _symmetry_equiv_pos_as_xyz
  1  'x, y, z'
loop_
 _atom_site_type_symbol
 _atom_site_label
 _atom_site_symmetry_multiplicity
 _atom_site_fract_x
 _atom_site_fract_y
 _atom_site_fract_z
 _atom_site_occupancy
  La  La0  1  0.971090  0.285132  0.088297  1
  Nd  Nd1  1  0.131878  0.051826  0.750336  1
  Nd  Nd2  1  0.628223  0.853245  0.810412  1
  Nd  Nd3  1  0.867045  0.947866  0.249136  1
  Nd  Nd4  1  0.029598  0.714750  0.911555  1
  Nd  Nd5  1  0.371761  0.145078  0.189185  1
  Ru  Ru6  1  0.998090  0.010480  0.003180  1
  Br  Br7  1  0.201091  0.742344  0.654203  1
  Br  Br8  1  0.648557  0.538580  0.727493  1
  Br  Br9  1  0.246492  0.080711  0.449893  1
  Br  Br10  1  0.794348  0.253988  0.350519  1
  Br  Br11  1  0.547051  0.172192  0.919277  1
  Br  Br12  1  0.752479  0.917686  0.549513  1
  Br  Br13  1  0.910234  0.629662  0.165718  1
  Br  Br14  1  0.361772  0.462382  0.276253  1
  Br  Br15  1  0.093339  0.370282  0.827736  1
  Br  Br16  1  0.446949  0.823799  0.077292  1
