# generated using pymatgen
data_Tb3Ho(InRh2)4
_symmetry_space_group_name_H-M   'P 1'
_cell_length_a   6.37868800
_cell_length_b   6.37864300
_cell_length_c   7.25060700
_cell_angle_alpha   90.00003593
_cell_angle_beta   90.00023354
_cell_angle_gamma   89.99836520
_symmetry_Int_Tables_number   1
_chemical_formula_structural   Tb3Ho(InRh2)4
_chemical_formula_sum   'Tb3 Ho1 In4 Rh8'
_cell_volume   295.00815555
_cell_formula_units_Z   1
loop_
 _symmetry_equiv_pos_site_id
 _symmetry_equiv_pos_as_xyz
  1  'x, y, z'
loop_
 _atom_site_type_symbol
 _atom_site_label
 _atom_site_symmetry_multiplicity
 _atom_site_fract_x
 _atom_site_fract_y
 _atom_site_fract_z
 _atom_site_occupancy
  Tb  Tb0  1  0.749936  0.250036  0.999996  1
  Tb  Tb1  1  0.250028  0.749966  0.999988  1
  Tb  Tb2  1  0.750096  0.249979  0.500025  1
  Ho  Ho3  1  0.250041  0.750010  0.500039  1
  In  In4  1  0.250034  0.250017  0.999676  1
  In  In5  1  0.750012  0.749984  0.000433  1
  In  In6  1  0.249911  0.250034  0.500016  1
  In  In7  1  0.750056  0.750011  0.499891  1
  Rh  Rh8  1  0.000434  0.999665  0.250468  1
  Rh  Rh9  1  0.000454  0.500371  0.250599  1
  Rh  Rh10  1  0.499481  0.999569  0.250633  1
  Rh  Rh11  1  0.499568  0.500392  0.250634  1
  Rh  Rh12  1  0.499561  0.999506  0.749333  1
  Rh  Rh13  1  0.499635  0.500450  0.749360  1
  Rh  Rh14  1  0.000390  0.999557  0.749453  1
  Rh  Rh15  1  0.000364  0.500453  0.749459  1
