# generated using pymatgen
data_NdTmZr2(Ga3Ir)6
_symmetry_space_group_name_H-M   'P 1'
_cell_length_a   7.51664700
_cell_length_b   7.50618964
_cell_length_c   9.36311400
_cell_angle_alpha   90.00000000
_cell_angle_beta   90.00000000
_cell_angle_gamma   119.68451117
_symmetry_Int_Tables_number   1
_chemical_formula_structural   NdTmZr2(Ga3Ir)6
_chemical_formula_sum   'Nd1 Tm1 Zr2 Ga18 Ir6'
_cell_volume   458.95121636
_cell_formula_units_Z   1
loop_
 _symmetry_equiv_pos_site_id
 _symmetry_equiv_pos_as_xyz
  1  'x, y, z'
loop_
 _atom_site_type_symbol
 _atom_site_label
 _atom_site_symmetry_multiplicity
 _atom_site_fract_x
 _atom_site_fract_y
 _atom_site_fract_z
 _atom_site_occupancy
  Nd  Nd0  1  0.669918  0.995841  0.250000  1
  Tm  Tm1  1  0.329376  0.004276  0.750000  1
  Zr  Zr2  1  0.996280  0.671973  0.250000  1
  Zr  Zr3  1  0.004349  0.328505  0.750000  1
  Ga  Ga4  1  0.130767  0.129724  0.250000  1
  Ga  Ga5  1  0.872810  0.871062  0.750000  1
  Ga  Ga6  1  0.000609  0.339593  0.077192  1
  Ga  Ga7  1  0.002475  0.662603  0.917400  1
  Ga  Ga8  1  0.002475  0.662603  0.582600  1
  Ga  Ga9  1  0.330296  0.997426  0.419426  1
  Ga  Ga10  1  0.000609  0.339593  0.422808  1
  Ga  Ga11  1  0.666814  0.003263  0.587443  1
  Ga  Ga12  1  0.666814  0.003263  0.912557  1
  Ga  Ga13  1  0.330296  0.997426  0.080574  1
  Ga  Ga14  1  0.329509  0.331322  0.570815  1
  Ga  Ga15  1  0.670196  0.665857  0.434740  1
  Ga  Ga16  1  0.670196  0.665857  0.065260  1
  Ga  Ga17  1  0.329509  0.331322  0.929185  1
  Ga  Ga18  1  0.334588  0.543919  0.250000  1
  Ga  Ga19  1  0.662499  0.452449  0.750000  1
  Ga  Ga20  1  0.551347  0.343867  0.250000  1
  Ga  Ga21  1  0.448004  0.657957  0.750000  1
  Ir  Ir22  1  0.671148  0.327663  0.998834  1
  Ir  Ir23  1  0.328099  0.672249  0.999526  1
  Ir  Ir24  1  0.328099  0.672249  0.500474  1
  Ir  Ir25  1  0.671148  0.327663  0.501166  1
  Ir  Ir26  1  0.000886  0.000238  0.998867  1
  Ir  Ir27  1  0.000886  0.000238  0.501133  1
