# generated using pymatgen
data_YbFe3NiSb12
_symmetry_space_group_name_H-M   'P 1'
_cell_length_a   7.93752547
_cell_length_b   7.93752568
_cell_length_c   7.95619300
_cell_angle_alpha   109.51886539
_cell_angle_beta   109.51886592
_cell_angle_gamma   109.42353282
_symmetry_Int_Tables_number   1
_chemical_formula_structural   YbFe3NiSb12
_chemical_formula_sum   'Yb1 Fe3 Ni1 Sb12'
_cell_volume   385.65413654
_cell_formula_units_Z   1
loop_
 _symmetry_equiv_pos_site_id
 _symmetry_equiv_pos_as_xyz
  1  'x, y, z'
loop_
 _atom_site_type_symbol
 _atom_site_label
 _atom_site_symmetry_multiplicity
 _atom_site_fract_x
 _atom_site_fract_y
 _atom_site_fract_z
 _atom_site_occupancy
  Yb  Yb0  1  0.000000  0.000000  0.000000  1
  Fe  Fe1  1  0.500000  0.500000  0.500000  1
  Fe  Fe2  1  0.500000  0.000000  0.000000  1
  Fe  Fe3  1  0.000000  0.500000  0.000000  1
  Ni  Ni4  1  0.000000  0.000000  0.500000  1
  Sb  Sb5  1  0.836409  0.660063  0.503923  1
  Sb  Sb6  1  0.163591  0.339937  0.496077  1
  Sb  Sb7  1  0.162322  0.666624  0.829627  1
  Sb  Sb8  1  0.837678  0.333376  0.170373  1
  Sb  Sb9  1  0.666624  0.504302  0.836996  1
  Sb  Sb10  1  0.333376  0.495698  0.163004  1
  Sb  Sb11  1  0.660063  0.823653  0.156140  1
  Sb  Sb12  1  0.339937  0.176347  0.843860  1
  Sb  Sb13  1  0.504302  0.837678  0.667306  1
  Sb  Sb14  1  0.495698  0.162322  0.332694  1
  Sb  Sb15  1  0.176347  0.836409  0.332486  1
  Sb  Sb16  1  0.823653  0.163591  0.667514  1
