# generated using pymatgen
data_Mg2CdSi(PPd4)5
_symmetry_space_group_name_H-M   'P 1'
_cell_length_a   8.59331028
_cell_length_b   8.59251703
_cell_length_c   8.59251660
_cell_angle_alpha   60.01743029
_cell_angle_beta   59.99694285
_cell_angle_gamma   59.99694522
_symmetry_Int_Tables_number   1
_chemical_formula_structural   Mg2CdSi(PPd4)5
_chemical_formula_sum   'Mg2 Cd1 Si1 P5 Pd20'
_cell_volume   448.66623382
_cell_formula_units_Z   1
loop_
 _symmetry_equiv_pos_site_id
 _symmetry_equiv_pos_as_xyz
  1  'x, y, z'
loop_
 _atom_site_type_symbol
 _atom_site_label
 _atom_site_symmetry_multiplicity
 _atom_site_fract_x
 _atom_site_fract_y
 _atom_site_fract_z
 _atom_site_occupancy
  Mg  Mg0  1  0.998134  0.001866  0.001866  1
  Mg  Mg1  1  0.251057  0.248943  0.248943  1
  Cd  Cd2  1  0.751091  0.748909  0.748909  1
  Si  Si3  1  0.733478  0.266522  0.266522  1
  P  P4  1  0.734714  0.732771  0.265307  1
  P  P5  1  0.734714  0.265307  0.732771  1
  P  P6  1  0.267209  0.732771  0.265307  1
  P  P7  1  0.265692  0.734308  0.734308  1
  P  P8  1  0.267209  0.265307  0.732771  1
  Pd  Pd9  1  0.339306  0.002077  0.002077  1
  Pd  Pd10  1  0.999415  0.659322  0.341849  1
  Pd  Pd11  1  0.340563  0.001112  0.657543  1
  Pd  Pd12  1  0.000782  0.657543  0.001112  1
  Pd  Pd13  1  0.656142  0.341832  0.999171  1
  Pd  Pd14  1  0.616644  0.618216  0.148496  1
  Pd  Pd15  1  0.383102  0.851294  0.382503  1
  Pd  Pd16  1  0.150998  0.616355  0.616355  1
  Pd  Pd17  1  0.656142  0.999171  0.341832  1
  Pd  Pd18  1  0.999415  0.341849  0.659322  1
  Pd  Pd19  1  0.656541  0.002077  0.002077  1
  Pd  Pd20  1  0.002856  0.999171  0.341832  1
  Pd  Pd21  1  0.616644  0.148496  0.618216  1
  Pd  Pd22  1  0.340563  0.657543  0.001112  1
  Pd  Pd23  1  0.380533  0.382719  0.382719  1
  Pd  Pd24  1  0.616292  0.616355  0.616355  1
  Pd  Pd25  1  0.383102  0.382503  0.851294  1
  Pd  Pd26  1  0.000782  0.001112  0.657543  1
  Pd  Pd27  1  0.854030  0.382719  0.382719  1
  Pd  Pd28  1  0.002856  0.341832  0.999171  1
