# generated using pymatgen
data_Rb3Sr(USe3)2
_symmetry_space_group_name_H-M   'P 1'
_cell_length_a   7.58427427
_cell_length_b   7.58427353
_cell_length_c   8.39957772
_cell_angle_alpha   81.31413011
_cell_angle_beta   81.31413333
_cell_angle_gamma   119.96897244
_symmetry_Int_Tables_number   1
_chemical_formula_structural   Rb3Sr(USe3)2
_chemical_formula_sum   'Rb3 Sr1 U2 Se6'
_cell_volume   399.02538344
_cell_formula_units_Z   1
loop_
 _symmetry_equiv_pos_site_id
 _symmetry_equiv_pos_as_xyz
  1  'x, y, z'
loop_
 _atom_site_type_symbol
 _atom_site_label
 _atom_site_symmetry_multiplicity
 _atom_site_fract_x
 _atom_site_fract_y
 _atom_site_fract_z
 _atom_site_occupancy
  Rb  Rb0  1  0.660535  0.339465  0.500000  1
  Rb  Rb1  1  0.339465  0.660535  0.500000  1
  Rb  Rb2  1  0.000000  0.000000  0.500000  1
  Sr  Sr3  1  0.500000  0.500000  0.000000  1
  U  U4  1  0.832660  0.167340  0.000000  1
  U  U5  1  0.167340  0.832660  0.000000  1
  Se  Se6  1  0.788910  0.788910  0.196229  1
  Se  Se7  1  0.211090  0.211090  0.803771  1
  Se  Se8  1  0.433362  0.078394  0.198250  1
  Se  Se9  1  0.566638  0.921606  0.801750  1
  Se  Se10  1  0.921606  0.566638  0.801750  1
  Se  Se11  1  0.078394  0.433362  0.198250  1
