# generated using pymatgen
data_Nd3EuTi8O20
_symmetry_space_group_name_H-M   'P 1'
_cell_length_a   5.85388700
_cell_length_b   7.80486737
_cell_length_c   8.79604251
_cell_angle_alpha   89.86867333
_cell_angle_beta   90.00000000
_cell_angle_gamma   90.00000000
_symmetry_Int_Tables_number   1
_chemical_formula_structural   Nd3EuTi8O20
_chemical_formula_sum   'Nd3 Eu1 Ti8 O20'
_cell_volume   401.87967356
_cell_formula_units_Z   1
loop_
 _symmetry_equiv_pos_site_id
 _symmetry_equiv_pos_as_xyz
  1  'x, y, z'
loop_
 _atom_site_type_symbol
 _atom_site_label
 _atom_site_symmetry_multiplicity
 _atom_site_fract_x
 _atom_site_fract_y
 _atom_site_fract_z
 _atom_site_occupancy
  Nd  Nd0  1  0.000000  0.641870  0.330662  1
  Nd  Nd1  1  0.000000  0.859549  0.828678  1
  Nd  Nd2  1  0.000000  0.140860  0.171136  1
  Eu  Eu3  1  0.000000  0.356302  0.670603  1
  Ti  Ti4  1  0.500000  0.115806  0.858298  1
  Ti  Ti5  1  0.500000  0.880713  0.142458  1
  Ti  Ti6  1  0.500000  0.616562  0.641068  1
  Ti  Ti7  1  0.500000  0.387406  0.357671  1
  Ti  Ti8  1  0.246028  0.499881  0.997337  1
  Ti  Ti9  1  0.747509  0.001045  0.500276  1
  Ti  Ti10  1  0.753972  0.499881  0.997337  1
  Ti  Ti11  1  0.252491  0.001045  0.500276  1
  O  O12  1  0.256151  0.897848  0.289833  1
  O  O13  1  0.258610  0.092334  0.711541  1
  O  O14  1  0.745412  0.400280  0.209578  1
  O  O15  1  0.741935  0.606617  0.793256  1
  O  O16  1  0.741390  0.092334  0.711541  1
  O  O17  1  0.743849  0.897848  0.289833  1
  O  O18  1  0.258065  0.606617  0.793256  1
  O  O19  1  0.254588  0.400280  0.209578  1
  O  O20  1  0.500000  0.337164  0.921561  1
  O  O21  1  0.500000  0.661849  0.078167  1
  O  O22  1  0.500000  0.833702  0.573889  1
  O  O23  1  0.500000  0.167149  0.423070  1
  O  O24  1  0.281565  0.999657  0.001564  1
  O  O25  1  0.716434  0.505443  0.496878  1
  O  O26  1  0.718435  0.999657  0.001564  1
  O  O27  1  0.283566  0.505443  0.496878  1
  O  O28  1  0.000000  0.158140  0.442827  1
  O  O29  1  0.000000  0.838655  0.553178  1
  O  O30  1  0.000000  0.665914  0.055099  1
  O  O31  1  0.000000  0.332150  0.951109  1
