# generated using pymatgen
data_KTa(WSe3)2
_symmetry_space_group_name_H-M   'P 1'
_cell_length_a   5.88999300
_cell_length_b   5.88999363
_cell_length_c   17.51938300
_cell_angle_alpha   90.00000000
_cell_angle_beta   90.00000000
_cell_angle_gamma   120.00000210
_symmetry_Int_Tables_number   1
_chemical_formula_structural   KTa(WSe3)2
_chemical_formula_sum   'K2 Ta2 W4 Se12'
_cell_volume   526.35533961
_cell_formula_units_Z   2
loop_
 _symmetry_equiv_pos_site_id
 _symmetry_equiv_pos_as_xyz
  1  'x, y, z'
loop_
 _atom_site_type_symbol
 _atom_site_label
 _atom_site_symmetry_multiplicity
 _atom_site_fract_x
 _atom_site_fract_y
 _atom_site_fract_z
 _atom_site_occupancy
  K  K0  1  0.000000  0.000000  0.000000  1
  K  K1  1  0.000000  0.000000  0.500000  1
  Ta  Ta2  1  0.666667  0.333333  0.250000  1
  Ta  Ta3  1  0.333333  0.666667  0.750000  1
  W  W4  1  0.000000  0.000000  0.750000  1
  W  W5  1  0.000000  0.000000  0.250000  1
  W  W6  1  0.333333  0.666667  0.250000  1
  W  W7  1  0.666667  0.333333  0.750000  1
  Se  Se8  1  0.329925  0.995124  0.154964  1
  Se  Se9  1  0.004876  0.334800  0.154964  1
  Se  Se10  1  0.665200  0.670075  0.154964  1
  Se  Se11  1  0.334800  0.329925  0.654964  1
  Se  Se12  1  0.665200  0.670075  0.345036  1
  Se  Se13  1  0.670075  0.004876  0.654964  1
  Se  Se14  1  0.995124  0.665200  0.654964  1
  Se  Se15  1  0.995124  0.665200  0.845036  1
  Se  Se16  1  0.334800  0.329925  0.845036  1
  Se  Se17  1  0.004876  0.334800  0.345036  1
  Se  Se18  1  0.329925  0.995124  0.345036  1
  Se  Se19  1  0.670075  0.004876  0.845036  1
