# generated using pymatgen
data_Er2TmPuB16
_symmetry_space_group_name_H-M   'P 1'
_cell_length_a   7.07484730
_cell_length_b   7.07484786
_cell_length_c   3.99728300
_cell_angle_alpha   90.00000000
_cell_angle_beta   90.00000000
_cell_angle_gamma   90.32765190
_symmetry_Int_Tables_number   1
_chemical_formula_structural   Er2TmPuB16
_chemical_formula_sum   'Er2 Tm1 Pu1 B16'
_cell_volume   200.07460660
_cell_formula_units_Z   1
loop_
 _symmetry_equiv_pos_site_id
 _symmetry_equiv_pos_as_xyz
  1  'x, y, z'
loop_
 _atom_site_type_symbol
 _atom_site_label
 _atom_site_symmetry_multiplicity
 _atom_site_fract_x
 _atom_site_fract_y
 _atom_site_fract_z
 _atom_site_occupancy
  Er  Er0  1  0.683228  0.817440  0.000000  1
  Er  Er1  1  0.317440  0.183228  0.000000  1
  Tm  Tm2  1  0.183297  0.683297  0.000000  1
  Pu  Pu3  1  0.814217  0.314217  0.000000  1
  B  B4  1  0.322515  0.462454  0.500000  1
  B  B5  1  0.676759  0.538792  0.500000  1
  B  B6  1  0.537678  0.323811  0.500000  1
  B  B7  1  0.460961  0.677336  0.500000  1
  B  B8  1  0.001506  0.998579  0.201921  1
  B  B9  1  0.498579  0.501506  0.798079  1
  B  B10  1  0.001506  0.998579  0.798079  1
  B  B11  1  0.498579  0.501506  0.201921  1
  B  B12  1  0.587748  0.087748  0.500000  1
  B  B13  1  0.086219  0.414051  0.500000  1
  B  B14  1  0.914051  0.586219  0.500000  1
  B  B15  1  0.413325  0.913325  0.500000  1
  B  B16  1  0.038792  0.176759  0.500000  1
  B  B17  1  0.177336  0.960961  0.500000  1
  B  B18  1  0.823811  0.037678  0.500000  1
  B  B19  1  0.962454  0.822515  0.500000  1
