# generated using pymatgen
data_Eu6Se5Br3
_symmetry_space_group_name_H-M   'P 1'
_cell_length_a   8.23838002
_cell_length_b   7.93222342
_cell_length_c   7.91642588
_cell_angle_alpha   108.09901824
_cell_angle_beta   109.82377832
_cell_angle_gamma   109.82982899
_symmetry_Int_Tables_number   1
_chemical_formula_structural   Eu6Se5Br3
_chemical_formula_sum   'Eu6 Se5 Br3'
_cell_volume   401.36412409
_cell_formula_units_Z   1
loop_
 _symmetry_equiv_pos_site_id
 _symmetry_equiv_pos_as_xyz
  1  'x, y, z'
loop_
 _atom_site_type_symbol
 _atom_site_label
 _atom_site_symmetry_multiplicity
 _atom_site_fract_x
 _atom_site_fract_y
 _atom_site_fract_z
 _atom_site_occupancy
  Eu  Eu0  1  0.738360  0.894914  0.127154  1
  Eu  Eu1  1  0.654879  0.382962  0.287030  1
  Eu  Eu2  1  0.265277  0.658944  0.423519  1
  Eu  Eu3  1  0.357438  0.233364  0.615039  1
  Eu  Eu4  1  0.830706  0.084897  0.702666  1
  Eu  Eu5  1  0.122796  0.762432  0.857798  1
  Se  Se6  1  0.477338  0.994033  0.337597  1
  Se  Se7  1  0.987708  0.847912  0.484475  1
  Se  Se8  1  0.012563  0.356717  0.514592  1
  Se  Se9  1  0.632302  0.633110  0.648891  1
  Se  Se10  1  0.501625  0.022617  0.864768  1
  Br  Br11  1  0.907953  0.496520  0.005207  1
  Br  Br12  1  0.398587  0.498784  0.016515  1
  Br  Br13  1  0.112466  0.132793  0.114749  1
