# generated using pymatgen
data_Ac2Sn3
_symmetry_space_group_name_H-M   'P 1'
_cell_length_a   6.75642592
_cell_length_b   9.02448914
_cell_length_c   11.74351267
_cell_angle_alpha   107.55785621
_cell_angle_beta   96.45988199
_cell_angle_gamma   99.86590370
_symmetry_Int_Tables_number   1
_chemical_formula_structural   Ac2Sn3
_chemical_formula_sum   'Ac8 Sn12'
_cell_volume   662.23072951
_cell_formula_units_Z   4
loop_
 _symmetry_equiv_pos_site_id
 _symmetry_equiv_pos_as_xyz
  1  'x, y, z'
loop_
 _atom_site_type_symbol
 _atom_site_label
 _atom_site_symmetry_multiplicity
 _atom_site_fract_x
 _atom_site_fract_y
 _atom_site_fract_z
 _atom_site_occupancy
  Ac  Ac0  1  0.329935  0.032397  0.744509  1
  Ac  Ac1  1  0.670065  0.967603  0.255491  1
  Ac  Ac2  1  0.957334  0.251346  0.053776  1
  Ac  Ac3  1  0.042666  0.748654  0.946224  1
  Ac  Ac4  1  0.558621  0.429556  0.334439  1
  Ac  Ac5  1  0.441379  0.570444  0.665561  1
  Ac  Ac6  1  0.126635  0.751894  0.381695  1
  Ac  Ac7  1  0.873365  0.248106  0.618305  1
  Sn  Sn8  1  0.053746  0.347281  0.377931  1
  Sn  Sn9  1  0.946254  0.652719  0.622069  1
  Sn  Sn10  1  0.350460  0.165901  0.494631  1
  Sn  Sn11  1  0.649540  0.834099  0.505369  1
  Sn  Sn12  1  0.436760  0.160922  0.051134  1
  Sn  Sn13  1  0.563240  0.839078  0.948866  1
  Sn  Sn14  1  0.330833  0.599758  0.133677  1
  Sn  Sn15  1  0.669167  0.400242  0.866323  1
  Sn  Sn16  1  0.228967  0.407927  0.868055  1
  Sn  Sn17  1  0.771033  0.592073  0.131945  1
  Sn  Sn18  1  0.182109  0.044903  0.225203  1
  Sn  Sn19  1  0.817891  0.955097  0.774797  1
