# generated using pymatgen
data_SmHo2Lu(WN3)4
_symmetry_space_group_name_H-M   'P 1'
_cell_length_a   7.31430109
_cell_length_b   7.31430046
_cell_length_c   6.26145800
_cell_angle_alpha   73.99305229
_cell_angle_beta   73.99305372
_cell_angle_gamma   81.91802243
_symmetry_Int_Tables_number   1
_chemical_formula_structural   SmHo2Lu(WN3)4
_chemical_formula_sum   'Sm1 Ho2 Lu1 W4 N12'
_cell_volume   308.75339982
_cell_formula_units_Z   1
loop_
 _symmetry_equiv_pos_site_id
 _symmetry_equiv_pos_as_xyz
  1  'x, y, z'
loop_
 _atom_site_type_symbol
 _atom_site_label
 _atom_site_symmetry_multiplicity
 _atom_site_fract_x
 _atom_site_fract_y
 _atom_site_fract_z
 _atom_site_occupancy
  Sm  Sm0  1  0.706926  0.293074  0.250000  1
  Ho  Ho1  1  0.089313  0.910687  0.250000  1
  Ho  Ho2  1  0.289993  0.710007  0.750000  1
  Lu  Lu3  1  0.912575  0.087425  0.750000  1
  W  W4  1  0.801034  0.619888  0.763870  1
  W  W5  1  0.199406  0.380671  0.235493  1
  W  W6  1  0.619329  0.800594  0.264507  1
  W  W7  1  0.380112  0.198966  0.736130  1
  N  N8  1  0.216627  0.999481  0.846847  1
  N  N9  1  0.361270  0.351193  0.443566  1
  N  N10  1  0.636863  0.650998  0.558463  1
  N  N11  1  0.626141  0.109173  0.670276  1
  N  N12  1  0.000519  0.783373  0.653153  1
  N  N13  1  0.785777  0.996912  0.144554  1
  N  N14  1  0.107796  0.625403  0.161421  1
  N  N15  1  0.890827  0.373859  0.829724  1
  N  N16  1  0.003088  0.214223  0.355446  1
  N  N17  1  0.349002  0.363137  0.941537  1
  N  N18  1  0.648807  0.638730  0.056434  1
  N  N19  1  0.374597  0.892204  0.338579  1
