# generated using pymatgen
data_NbCo4Si3Mo3P
_symmetry_space_group_name_H-M   'P 1'
_cell_length_a   3.64253400
_cell_length_b   6.09569742
_cell_length_c   6.95948664
_cell_angle_alpha   89.59778947
_cell_angle_beta   90.00000000
_cell_angle_gamma   90.00000000
_symmetry_Int_Tables_number   1
_chemical_formula_structural   NbCo4Si3Mo3P
_chemical_formula_sum   'Nb1 Co4 Si3 Mo3 P1'
_cell_volume   154.52313830
_cell_formula_units_Z   1
loop_
 _symmetry_equiv_pos_site_id
 _symmetry_equiv_pos_as_xyz
  1  'x, y, z'
loop_
 _atom_site_type_symbol
 _atom_site_label
 _atom_site_symmetry_multiplicity
 _atom_site_fract_x
 _atom_site_fract_y
 _atom_site_fract_z
 _atom_site_occupancy
  Nb  Nb0  1  0.750000  0.477237  0.325587  1
  Co  Co1  1  0.250000  0.142268  0.439272  1
  Co  Co2  1  0.250000  0.645335  0.066565  1
  Co  Co3  1  0.750000  0.853865  0.555609  1
  Co  Co4  1  0.750000  0.355626  0.940504  1
  Si  Si5  1  0.250000  0.267867  0.116688  1
  Si  Si6  1  0.750000  0.224299  0.629103  1
  Si  Si7  1  0.750000  0.725740  0.878078  1
  Mo  Mo8  1  0.250000  0.023972  0.826800  1
  Mo  Mo9  1  0.250000  0.529609  0.669081  1
  Mo  Mo10  1  0.750000  0.973049  0.173279  1
  P  P11  1  0.250000  0.781132  0.379433  1
