# generated using pymatgen
data_Ho3Mn5(Co2P3)2
_symmetry_space_group_name_H-M   'P 1'
_cell_length_a   3.64444400
_cell_length_b   10.78846500
_cell_length_c   12.34330100
_cell_angle_alpha   90.00000000
_cell_angle_beta   90.00000000
_cell_angle_gamma   90.00000000
_symmetry_Int_Tables_number   1
_chemical_formula_structural   Ho3Mn5(Co2P3)2
_chemical_formula_sum   'Ho6 Mn10 Co8 P12'
_cell_volume   485.31337226
_cell_formula_units_Z   2
loop_
 _symmetry_equiv_pos_site_id
 _symmetry_equiv_pos_as_xyz
  1  'x, y, z'
loop_
 _atom_site_type_symbol
 _atom_site_label
 _atom_site_symmetry_multiplicity
 _atom_site_fract_x
 _atom_site_fract_y
 _atom_site_fract_z
 _atom_site_occupancy
  Ho  Ho0  1  0.000000  0.500000  0.531635  1
  Ho  Ho1  1  0.500000  0.000000  0.468365  1
  Ho  Ho2  1  0.500000  0.822082  0.200625  1
  Ho  Ho3  1  0.500000  0.177918  0.200625  1
  Ho  Ho4  1  0.000000  0.677918  0.799375  1
  Ho  Ho5  1  0.000000  0.322082  0.799375  1
  Mn  Mn6  1  0.500000  0.297943  0.430938  1
  Mn  Mn7  1  0.500000  0.702057  0.430938  1
  Mn  Mn8  1  0.000000  0.202057  0.569062  1
  Mn  Mn9  1  0.000000  0.797943  0.569062  1
  Mn  Mn10  1  0.500000  0.882413  0.707514  1
  Mn  Mn11  1  0.500000  0.117587  0.707514  1
  Mn  Mn12  1  0.000000  0.617587  0.292486  1
  Mn  Mn13  1  0.000000  0.382413  0.292486  1
  Mn  Mn14  1  0.500000  0.500000  0.158932  1
  Mn  Mn15  1  0.000000  0.000000  0.841068  1
  Co  Co16  1  0.000000  0.500000  0.989653  1
  Co  Co17  1  0.500000  0.000000  0.010347  1
  Co  Co18  1  0.500000  0.333389  0.995616  1
  Co  Co19  1  0.500000  0.666611  0.995616  1
  Co  Co20  1  0.000000  0.166611  0.004384  1
  Co  Co21  1  0.000000  0.833389  0.004384  1
  Co  Co22  1  0.500000  0.500000  0.710220  1
  Co  Co23  1  0.000000  0.000000  0.289780  1
  P  P24  1  0.500000  0.317532  0.621158  1
  P  P25  1  0.500000  0.682468  0.621158  1
  P  P26  1  0.000000  0.182468  0.378842  1
  P  P27  1  0.000000  0.817532  0.378842  1
  P  P28  1  0.500000  0.500000  0.887090  1
  P  P29  1  0.000000  0.000000  0.112910  1
  P  P30  1  0.500000  0.844807  0.893323  1
  P  P31  1  0.500000  0.155193  0.893323  1
  P  P32  1  0.000000  0.655193  0.106677  1
  P  P33  1  0.000000  0.344807  0.106677  1
  P  P34  1  0.500000  0.500000  0.356294  1
  P  P35  1  0.000000  0.000000  0.643706  1
