# generated using pymatgen
data_Pr8Si12OsPt3
_symmetry_space_group_name_H-M   'P 1'
_cell_length_a   8.27562800
_cell_length_b   8.27562843
_cell_length_c   8.63797000
_cell_angle_alpha   90.00000000
_cell_angle_beta   90.00000000
_cell_angle_gamma   120.00000627
_symmetry_Int_Tables_number   1
_chemical_formula_structural   Pr8Si12OsPt3
_chemical_formula_sum   'Pr8 Si12 Os1 Pt3'
_cell_volume   512.32345485
_cell_formula_units_Z   1
loop_
 _symmetry_equiv_pos_site_id
 _symmetry_equiv_pos_as_xyz
  1  'x, y, z'
loop_
 _atom_site_type_symbol
 _atom_site_label
 _atom_site_symmetry_multiplicity
 _atom_site_fract_x
 _atom_site_fract_y
 _atom_site_fract_z
 _atom_site_occupancy
  Pr  Pr0  1  0.501676  0.498324  0.755044  1
  Pr  Pr1  1  0.502552  0.497448  0.245278  1
  Pr  Pr2  1  0.996649  0.498324  0.755044  1
  Pr  Pr3  1  0.994895  0.497448  0.245278  1
  Pr  Pr4  1  0.501676  0.003351  0.755044  1
  Pr  Pr5  1  0.502552  0.005105  0.245278  1
  Pr  Pr6  1  0.000000  0.000000  0.749614  1
  Pr  Pr7  1  0.000000  0.000000  0.250045  1
  Si  Si8  1  0.832479  0.167521  0.000837  1
  Si  Si9  1  0.164983  0.835017  0.999178  1
  Si  Si10  1  0.335042  0.167521  0.000837  1
  Si  Si11  1  0.165814  0.834186  0.500989  1
  Si  Si12  1  0.670036  0.835017  0.999178  1
  Si  Si13  1  0.834438  0.165562  0.498947  1
  Si  Si14  1  0.832479  0.664958  0.000837  1
  Si  Si15  1  0.668373  0.834186  0.500989  1
  Si  Si16  1  0.164983  0.329964  0.999178  1
  Si  Si17  1  0.331123  0.165562  0.498947  1
  Si  Si18  1  0.165814  0.331627  0.500989  1
  Si  Si19  1  0.834438  0.668877  0.498947  1
  Os  Os20  1  0.666667  0.333333  0.997109  1
  Pt  Pt21  1  0.333333  0.666667  0.002585  1
  Pt  Pt22  1  0.333333  0.666667  0.497776  1
  Pt  Pt23  1  0.666667  0.333333  0.502051  1
