# generated using pymatgen
data_LiPr4Co16(P4Ru)3
_symmetry_space_group_name_H-M   'P 1'
_cell_length_a   3.72635000
_cell_length_b   10.52099693
_cell_length_c   11.92006495
_cell_angle_alpha   89.85942442
_cell_angle_beta   90.00000000
_cell_angle_gamma   90.00000000
_symmetry_Int_Tables_number   1
_chemical_formula_structural   LiPr4Co16(P4Ru)3
_chemical_formula_sum   'Li1 Pr4 Co16 P12 Ru3'
_cell_volume   467.32374952
_cell_formula_units_Z   1
loop_
 _symmetry_equiv_pos_site_id
 _symmetry_equiv_pos_as_xyz
  1  'x, y, z'
loop_
 _atom_site_type_symbol
 _atom_site_label
 _atom_site_symmetry_multiplicity
 _atom_site_fract_x
 _atom_site_fract_y
 _atom_site_fract_z
 _atom_site_occupancy
  Li  Li0  1  0.250000  0.701165  0.991497  1
  Pr  Pr1  1  0.250000  0.585652  0.702142  1
  Pr  Pr2  1  0.250000  0.914395  0.202329  1
  Pr  Pr3  1  0.750000  0.413938  0.297071  1
  Pr  Pr4  1  0.750000  0.082742  0.797921  1
  Co  Co5  1  0.250000  0.406599  0.491977  1
  Co  Co6  1  0.250000  0.098309  0.991580  1
  Co  Co7  1  0.750000  0.590991  0.509665  1
  Co  Co8  1  0.750000  0.911617  0.008441  1
  Co  Co9  1  0.250000  0.222700  0.174945  1
  Co  Co10  1  0.250000  0.279527  0.674782  1
  Co  Co11  1  0.750000  0.780194  0.822442  1
  Co  Co12  1  0.750000  0.718509  0.328894  1
  Co  Co13  1  0.250000  0.888516  0.700127  1
  Co  Co14  1  0.250000  0.616127  0.200191  1
  Co  Co15  1  0.750000  0.113937  0.297328  1
  Co  Co16  1  0.750000  0.384798  0.799545  1
  Co  Co17  1  0.250000  0.466218  0.932220  1
  Co  Co18  1  0.250000  0.033346  0.430465  1
  Co  Co19  1  0.750000  0.534793  0.066242  1
  Co  Co20  1  0.750000  0.967264  0.566720  1
  P  P21  1  0.250000  0.422114  0.110076  1
  P  P22  1  0.250000  0.080724  0.608673  1
  P  P23  1  0.750000  0.580555  0.887915  1
  P  P24  1  0.750000  0.918748  0.389824  1
  P  P25  1  0.250000  0.276076  0.865747  1
  P  P26  1  0.250000  0.222551  0.365548  1
  P  P27  1  0.750000  0.721835  0.139388  1
  P  P28  1  0.750000  0.779041  0.634273  1
  P  P29  1  0.250000  0.599124  0.393683  1
  P  P30  1  0.250000  0.895086  0.894532  1
  P  P31  1  0.750000  0.399454  0.608153  1
  P  P32  1  0.750000  0.101010  0.106010  1
  Ru  Ru33  1  0.250000  0.785270  0.492781  1
  Ru  Ru34  1  0.750000  0.292308  0.009854  1
  Ru  Ru35  1  0.750000  0.214767  0.507017  1
