# generated using pymatgen
data_TbYCuPt
_symmetry_space_group_name_H-M   'P 1'
_cell_length_a   4.47109300
_cell_length_b   5.54114300
_cell_length_c   7.19336900
_cell_angle_alpha   90.00000000
_cell_angle_beta   90.00000000
_cell_angle_gamma   90.00000000
_symmetry_Int_Tables_number   1
_chemical_formula_structural   TbYCuPt
_chemical_formula_sum   'Tb2 Y2 Cu2 Pt2'
_cell_volume   178.21547009
_cell_formula_units_Z   2
loop_
 _symmetry_equiv_pos_site_id
 _symmetry_equiv_pos_as_xyz
  1  'x, y, z'
loop_
 _atom_site_type_symbol
 _atom_site_label
 _atom_site_symmetry_multiplicity
 _atom_site_fract_x
 _atom_site_fract_y
 _atom_site_fract_z
 _atom_site_occupancy
  Tb  Tb0  1  0.500000  0.395138  0.315199  1
  Tb  Tb1  1  0.500000  0.604862  0.815199  1
  Y  Y2  1  0.000000  0.113858  0.684629  1
  Y  Y3  1  0.000000  0.886142  0.184629  1
  Cu  Cu4  1  0.500000  0.892401  0.464318  1
  Cu  Cu5  1  0.500000  0.107599  0.964318  1
  Pt  Pt6  1  0.000000  0.614176  0.535855  1
  Pt  Pt7  1  0.000000  0.385824  0.035855  1
