# generated using pymatgen
data_Tb5Nd4LuPb8
_symmetry_space_group_name_H-M   'P 1'
_cell_length_a   8.27408400
_cell_length_b   8.33588000
_cell_length_c   15.79136400
_cell_angle_alpha   90.00000000
_cell_angle_beta   90.00000000
_cell_angle_gamma   90.00000000
_symmetry_Int_Tables_number   1
_chemical_formula_structural   Tb5Nd4LuPb8
_chemical_formula_sum   'Tb10 Nd8 Lu2 Pb16'
_cell_volume   1089.15834686
_cell_formula_units_Z   2
loop_
 _symmetry_equiv_pos_site_id
 _symmetry_equiv_pos_as_xyz
  1  'x, y, z'
loop_
 _atom_site_type_symbol
 _atom_site_label
 _atom_site_symmetry_multiplicity
 _atom_site_fract_x
 _atom_site_fract_y
 _atom_site_fract_z
 _atom_site_occupancy
  Tb  Tb0  1  0.633880  0.158482  0.621774  1
  Tb  Tb1  1  0.133880  0.341518  0.878226  1
  Tb  Tb2  1  0.366215  0.841949  0.122518  1
  Tb  Tb3  1  0.866215  0.658051  0.377482  1
  Tb  Tb4  1  0.366215  0.841949  0.377482  1
  Tb  Tb5  1  0.866215  0.658051  0.122518  1
  Tb  Tb6  1  0.633880  0.158482  0.878226  1
  Tb  Tb7  1  0.133880  0.341518  0.621774  1
  Tb  Tb8  1  0.800094  0.495390  0.750000  1
  Tb  Tb9  1  0.300094  0.004610  0.750000  1
  Nd  Nd10  1  0.476921  0.677580  0.596829  1
  Nd  Nd11  1  0.976921  0.822420  0.903171  1
  Nd  Nd12  1  0.523206  0.322376  0.097320  1
  Nd  Nd13  1  0.023206  0.177624  0.402680  1
  Nd  Nd14  1  0.523206  0.322376  0.402680  1
  Nd  Nd15  1  0.023206  0.177624  0.097320  1
  Nd  Nd16  1  0.476921  0.677580  0.903171  1
  Nd  Nd17  1  0.976921  0.822420  0.596829  1
  Lu  Lu18  1  0.199966  0.505089  0.250000  1
  Lu  Lu19  1  0.699966  0.994911  0.250000  1
  Pb  Pb20  1  0.706434  0.960336  0.455717  1
  Pb  Pb21  1  0.206434  0.539664  0.044283  1
  Pb  Pb22  1  0.293897  0.039988  0.957037  1
  Pb  Pb23  1  0.793897  0.460012  0.542963  1
  Pb  Pb24  1  0.293897  0.039988  0.542963  1
  Pb  Pb25  1  0.793897  0.460012  0.957037  1
  Pb  Pb26  1  0.706434  0.960336  0.044283  1
  Pb  Pb27  1  0.206434  0.539664  0.455717  1
  Pb  Pb28  1  0.436946  0.373602  0.750000  1
  Pb  Pb29  1  0.936946  0.126398  0.750000  1
  Pb  Pb30  1  0.561396  0.626024  0.250000  1
  Pb  Pb31  1  0.061396  0.873976  0.250000  1
  Pb  Pb32  1  0.664949  0.849139  0.750000  1
  Pb  Pb33  1  0.164949  0.650861  0.750000  1
  Pb  Pb34  1  0.335541  0.153110  0.250000  1
  Pb  Pb35  1  0.835541  0.346890  0.250000  1
