# generated using pymatgen
data_TbY15(LuIr3)4
_symmetry_space_group_name_H-M   'P 1'
_cell_length_a   10.90615012
_cell_length_b   10.90473805
_cell_length_c   6.36351907
_cell_angle_alpha   89.99221648
_cell_angle_beta   89.98515737
_cell_angle_gamma   89.99203463
_symmetry_Int_Tables_number   1
_chemical_formula_structural   TbY15(LuIr3)4
_chemical_formula_sum   'Tb1 Y15 Lu4 Ir12'
_cell_volume   756.80507532
_cell_formula_units_Z   1
loop_
 _symmetry_equiv_pos_site_id
 _symmetry_equiv_pos_as_xyz
  1  'x, y, z'
loop_
 _atom_site_type_symbol
 _atom_site_label
 _atom_site_symmetry_multiplicity
 _atom_site_fract_x
 _atom_site_fract_y
 _atom_site_fract_z
 _atom_site_occupancy
  Tb  Tb0  1  0.290452  0.087805  0.378867  1
  Y  Y1  1  0.290368  0.912173  0.878592  1
  Y  Y2  1  0.709593  0.087719  0.878892  1
  Y  Y3  1  0.709741  0.912208  0.378820  1
  Y  Y4  1  0.587840  0.790387  0.878803  1
  Y  Y5  1  0.587971  0.209755  0.378700  1
  Y  Y6  1  0.412284  0.790254  0.378807  1
  Y  Y7  1  0.412323  0.209686  0.878662  1
  Y  Y8  1  0.209637  0.412252  0.621269  1
  Y  Y9  1  0.209645  0.587753  0.121339  1
  Y  Y10  1  0.790341  0.412223  0.121210  1
  Y  Y11  1  0.790346  0.587801  0.621176  1
  Y  Y12  1  0.912240  0.709676  0.121336  1
  Y  Y13  1  0.912186  0.290354  0.621215  1
  Y  Y14  1  0.087719  0.709584  0.621181  1
  Y  Y15  1  0.087662  0.290268  0.121091  1
  Lu  Lu16  1  0.999822  0.999978  0.500051  1
  Lu  Lu17  1  0.999912  0.999981  0.999939  1
  Lu  Lu18  1  0.499988  0.499966  0.000058  1
  Lu  Lu19  1  0.500050  0.500031  0.500078  1
  Ir  Ir20  1  0.849610  0.150487  0.249963  1
  Ir  Ir21  1  0.849596  0.849579  0.750006  1
  Ir  Ir22  1  0.150529  0.150416  0.749746  1
  Ir  Ir23  1  0.150497  0.849617  0.249982  1
  Ir  Ir24  1  0.650410  0.349574  0.750006  1
  Ir  Ir25  1  0.650377  0.650416  0.249976  1
  Ir  Ir26  1  0.349595  0.349490  0.250134  1
  Ir  Ir27  1  0.349583  0.650424  0.750017  1
  Ir  Ir28  1  0.499836  0.000061  0.124628  1
  Ir  Ir29  1  0.499850  0.000090  0.624103  1
  Ir  Ir30  1  0.999994  0.499990  0.875688  1
  Ir  Ir31  1  0.000001  0.500001  0.375666  1
