# generated using pymatgen
data_Pr5PdRuO12
_symmetry_space_group_name_H-M   'P 1'
_cell_length_a   7.15740303
_cell_length_b   7.15740252
_cell_length_c   7.64213804
_cell_angle_alpha   74.50406386
_cell_angle_beta   74.50406441
_cell_angle_gamma   50.59626102
_symmetry_Int_Tables_number   1
_chemical_formula_structural   Pr5PdRuO12
_chemical_formula_sum   'Pr5 Pd1 Ru1 O12'
_cell_volume   288.99479589
_cell_formula_units_Z   1
loop_
 _symmetry_equiv_pos_site_id
 _symmetry_equiv_pos_as_xyz
  1  'x, y, z'
loop_
 _atom_site_type_symbol
 _atom_site_label
 _atom_site_symmetry_multiplicity
 _atom_site_fract_x
 _atom_site_fract_y
 _atom_site_fract_z
 _atom_site_occupancy
  Pr  Pr0  1  0.310162  0.297718  0.357688  1
  Pr  Pr1  1  0.702282  0.689838  0.642312  1
  Pr  Pr2  1  0.697478  0.691404  0.164361  1
  Pr  Pr3  1  0.308596  0.302522  0.835639  1
  Pr  Pr4  1  0.001519  0.998481  0.500000  1
  Pd  Pd5  1  0.749251  0.250749  0.000000  1
  Ru  Ru6  1  0.239307  0.760693  0.000000  1
  O  O7  1  0.099688  0.597398  0.574312  1
  O  O8  1  0.001934  0.997167  0.173476  1
  O  O9  1  0.402602  0.900312  0.425688  1
  O  O10  1  0.492389  0.508440  0.173853  1
  O  O11  1  0.102888  0.582908  0.079218  1
  O  O12  1  0.907918  0.401246  0.422496  1
  O  O13  1  0.002833  0.998066  0.826524  1
  O  O14  1  0.598754  0.092081  0.577504  1
  O  O15  1  0.491560  0.507611  0.826147  1
  O  O16  1  0.571546  0.097798  0.081517  1
  O  O17  1  0.417092  0.897112  0.920782  1
  O  O18  1  0.902202  0.428454  0.918483  1
