# generated using pymatgen
data_Sc5Zn6SbRh12
_symmetry_space_group_name_H-M   'P 1'
_cell_length_a   4.42265500
_cell_length_b   6.25993200
_cell_length_c   13.27055900
_cell_angle_alpha   90.00000000
_cell_angle_beta   89.99800943
_cell_angle_gamma   90.00000000
_symmetry_Int_Tables_number   1
_chemical_formula_structural   Sc5Zn6SbRh12
_chemical_formula_sum   'Sc5 Zn6 Sb1 Rh12'
_cell_volume   367.40232065
_cell_formula_units_Z   1
loop_
 _symmetry_equiv_pos_site_id
 _symmetry_equiv_pos_as_xyz
  1  'x, y, z'
loop_
 _atom_site_type_symbol
 _atom_site_label
 _atom_site_symmetry_multiplicity
 _atom_site_fract_x
 _atom_site_fract_y
 _atom_site_fract_z
 _atom_site_occupancy
  Sc  Sc0  1  0.499827  0.500000  0.167066  1
  Sc  Sc1  1  0.999833  0.000000  0.335649  1
  Sc  Sc2  1  0.500000  0.500000  0.500021  1
  Sc  Sc3  1  0.000166  0.000000  0.664377  1
  Sc  Sc4  1  0.500174  0.500000  0.832921  1
  Zn  Zn5  1  0.999998  0.500000  0.000001  1
  Zn  Zn6  1  0.499811  0.000000  0.175976  1
  Zn  Zn7  1  0.999817  0.500000  0.330561  1
  Zn  Zn8  1  0.499998  0.000000  0.500001  1
  Zn  Zn9  1  0.000179  0.500000  0.669489  1
  Zn  Zn10  1  0.500193  0.000000  0.823968  1
  Sb  Sb11  1  0.000003  0.000000  0.999988  1
  Rh  Rh12  1  0.500003  0.241635  0.999988  1
  Rh  Rh13  1  0.500003  0.758365  0.999988  1
  Rh  Rh14  1  0.999827  0.244421  0.162647  1
  Rh  Rh15  1  0.999827  0.755578  0.162647  1
  Rh  Rh16  1  0.499832  0.252568  0.333928  1
  Rh  Rh17  1  0.499832  0.747432  0.333928  1
  Rh  Rh18  1  0.999999  0.250628  0.500011  1
  Rh  Rh19  1  0.999999  0.749371  0.500011  1
  Rh  Rh20  1  0.500163  0.252574  0.666069  1
  Rh  Rh21  1  0.500163  0.747426  0.666069  1
  Rh  Rh22  1  0.000176  0.244429  0.837349  1
  Rh  Rh23  1  0.000176  0.755570  0.837349  1
