# generated using pymatgen
data_SrHo3(Al8Pt3)3
_symmetry_space_group_name_H-M   'P 1'
_cell_length_a   7.53803575
_cell_length_b   7.55879454
_cell_length_c   13.23832487
_cell_angle_alpha   84.60244754
_cell_angle_beta   79.13142296
_cell_angle_gamma   59.94081167
_symmetry_Int_Tables_number   1
_chemical_formula_structural   SrHo3(Al8Pt3)3
_chemical_formula_sum   'Sr1 Ho3 Al24 Pt9'
_cell_volume   641.14173993
_cell_formula_units_Z   1
loop_
 _symmetry_equiv_pos_site_id
 _symmetry_equiv_pos_as_xyz
  1  'x, y, z'
loop_
 _atom_site_type_symbol
 _atom_site_label
 _atom_site_symmetry_multiplicity
 _atom_site_fract_x
 _atom_site_fract_y
 _atom_site_fract_z
 _atom_site_occupancy
  Sr  Sr0  1  0.393225  0.168062  0.809467  1
  Ho  Ho1  1  0.605221  0.832106  0.192743  1
  Ho  Ho2  1  0.733694  0.498657  0.807544  1
  Ho  Ho3  1  0.266414  0.501002  0.192864  1
  Al  Al4  1  0.686008  0.831537  0.947586  1
  Al  Al5  1  0.315098  0.166296  0.057773  1
  Al  Al6  1  0.147075  0.832355  0.559765  1
  Al  Al7  1  0.853838  0.167761  0.437505  1
  Al  Al8  1  0.480338  0.166676  0.557331  1
  Al  Al9  1  0.520509  0.833418  0.440169  1
  Al  Al10  1  0.217919  0.165397  0.328854  1
  Al  Al11  1  0.784065  0.834407  0.667219  1
  Al  Al12  1  0.438162  0.506746  0.666874  1
  Al  Al13  1  0.563074  0.493398  0.329123  1
  Al  Al14  1  0.110179  0.160158  0.665622  1
  Al  Al15  1  0.890552  0.839811  0.330378  1
  Al  Al16  1  0.351294  0.501839  0.947768  1
  Al  Al17  1  0.646006  0.501383  0.056996  1
  Al  Al18  1  0.012345  0.167448  0.957666  1
  Al  Al19  1  0.983718  0.831531  0.048761  1
  Al  Al20  1  0.186907  0.499339  0.440220  1
  Al  Al21  1  0.813792  0.500429  0.557617  1
  Al  Al22  1  0.733842  0.164546  0.183892  1
  Al  Al23  1  0.268469  0.827330  0.816459  1
  Al  Al24  1  0.053894  0.636473  0.815542  1
  Al  Al25  1  0.937922  0.369796  0.185121  1
  Al  Al26  1  0.860993  0.043906  0.816297  1
  Al  Al27  1  0.145005  0.958052  0.184482  1
  Pt  Pt28  1  0.118855  0.494282  0.636819  1
  Pt  Pt29  1  0.880247  0.508127  0.361039  1
  Pt  Pt30  1  0.657362  0.171058  0.001328  1
  Pt  Pt31  1  0.341792  0.828511  0.001759  1
  Pt  Pt32  1  0.538216  0.166671  0.361049  1
  Pt  Pt33  1  0.462040  0.831512  0.636797  1
  Pt  Pt34  1  0.781132  0.174388  0.635517  1
  Pt  Pt35  1  0.221477  0.824975  0.362298  1
  Pt  Pt36  1  0.999323  0.500615  0.001756  1
