# generated using pymatgen
data_SrDy3Al18OsPd5
_symmetry_space_group_name_H-M   'P 1'
_cell_length_a   7.65947968
_cell_length_b   7.66182113
_cell_length_c   9.54374800
_cell_angle_alpha   90.01716204
_cell_angle_beta   90.10110669
_cell_angle_gamma   119.57590911
_symmetry_Int_Tables_number   1
_chemical_formula_structural   SrDy3Al18OsPd5
_chemical_formula_sum   'Sr1 Dy3 Al18 Os1 Pd5'
_cell_volume   487.10199536
_cell_formula_units_Z   1
loop_
 _symmetry_equiv_pos_site_id
 _symmetry_equiv_pos_as_xyz
  1  'x, y, z'
loop_
 _atom_site_type_symbol
 _atom_site_label
 _atom_site_symmetry_multiplicity
 _atom_site_fract_x
 _atom_site_fract_y
 _atom_site_fract_z
 _atom_site_occupancy
  Sr  Sr0  1  0.994674  0.670639  0.249594  1
  Dy  Dy1  1  0.004229  0.330370  0.750766  1
  Dy  Dy2  1  0.670477  0.996344  0.248772  1
  Dy  Dy3  1  0.329561  0.003397  0.751405  1
  Al  Al4  1  0.130539  0.137311  0.249042  1
  Al  Al5  1  0.869898  0.872760  0.750906  1
  Al  Al6  1  0.995794  0.332479  0.070926  1
  Al  Al7  1  0.994776  0.658713  0.921579  1
  Al  Al8  1  0.998790  0.665793  0.582077  1
  Al  Al9  1  0.336986  0.004528  0.425939  1
  Al  Al10  1  0.001628  0.332487  0.427491  1
  Al  Al11  1  0.664997  0.999937  0.578571  1
  Al  Al12  1  0.665894  0.003512  0.923224  1
  Al  Al13  1  0.341919  0.006000  0.071347  1
  Al  Al14  1  0.332934  0.333331  0.562794  1
  Al  Al15  1  0.662722  0.665991  0.447802  1
  Al  Al16  1  0.666033  0.661274  0.046113  1
  Al  Al17  1  0.336147  0.330913  0.944041  1
  Al  Al18  1  0.345890  0.548177  0.249167  1
  Al  Al19  1  0.659129  0.450721  0.753013  1
  Al  Al20  1  0.543603  0.334039  0.245162  1
  Al  Al21  1  0.454355  0.662652  0.750923  1
  Os  Os22  1  0.670185  0.325261  0.997206  1
  Pd  Pd23  1  0.328587  0.671220  0.997846  1
  Pd  Pd24  1  0.327844  0.671961  0.502183  1
  Pd  Pd25  1  0.670573  0.327300  0.502113  1
  Pd  Pd26  1  0.001355  0.001383  0.997902  1
  Pd  Pd27  1  0.000480  0.001509  0.502090  1
