# generated using pymatgen
data_LaInGa3Pt2
_symmetry_space_group_name_H-M   'P 1'
_cell_length_a   4.40438100
_cell_length_b   6.94712700
_cell_length_c   18.05367300
_cell_angle_alpha   90.00000000
_cell_angle_beta   90.00000000
_cell_angle_gamma   90.00000000
_symmetry_Int_Tables_number   1
_chemical_formula_structural   LaInGa3Pt2
_chemical_formula_sum   'La4 In4 Ga12 Pt8'
_cell_volume   552.40257035
_cell_formula_units_Z   4
loop_
 _symmetry_equiv_pos_site_id
 _symmetry_equiv_pos_as_xyz
  1  'x, y, z'
loop_
 _atom_site_type_symbol
 _atom_site_label
 _atom_site_symmetry_multiplicity
 _atom_site_fract_x
 _atom_site_fract_y
 _atom_site_fract_z
 _atom_site_occupancy
  La  La0  1  0.750000  0.993551  0.640774  1
  La  La1  1  0.250000  0.006449  0.359226  1
  La  La2  1  0.250000  0.493551  0.859226  1
  La  La3  1  0.750000  0.506449  0.140774  1
  In  In4  1  0.250000  0.495309  0.429444  1
  In  In5  1  0.750000  0.504691  0.570556  1
  In  In6  1  0.750000  0.995309  0.070556  1
  In  In7  1  0.250000  0.004691  0.929444  1
  Ga  Ga8  1  0.250000  0.279492  0.693179  1
  Ga  Ga9  1  0.750000  0.720508  0.306821  1
  Ga  Ga10  1  0.750000  0.779492  0.806821  1
  Ga  Ga11  1  0.250000  0.220508  0.193179  1
  Ga  Ga12  1  0.250000  0.676523  0.685626  1
  Ga  Ga13  1  0.750000  0.323477  0.314374  1
  Ga  Ga14  1  0.750000  0.176523  0.814374  1
  Ga  Ga15  1  0.250000  0.823477  0.185626  1
  Ga  Ga16  1  0.250000  0.154879  0.534648  1
  Ga  Ga17  1  0.750000  0.845121  0.465352  1
  Ga  Ga18  1  0.750000  0.654879  0.965352  1
  Ga  Ga19  1  0.250000  0.345121  0.034648  1
  Pt  Pt20  1  0.250000  0.768533  0.540511  1
  Pt  Pt21  1  0.750000  0.231467  0.459489  1
  Pt  Pt22  1  0.750000  0.268533  0.959489  1
  Pt  Pt23  1  0.250000  0.731467  0.040511  1
  Pt  Pt24  1  0.250000  0.972134  0.779406  1
  Pt  Pt25  1  0.750000  0.027866  0.220594  1
  Pt  Pt26  1  0.750000  0.472134  0.720594  1
  Pt  Pt27  1  0.250000  0.527866  0.279406  1
