# generated using pymatgen
data_Zr2Si3Rh4
_symmetry_space_group_name_H-M   'P 1'
_cell_length_a   12.93572900
_cell_length_b   12.93572831
_cell_length_c   3.95295300
_cell_angle_alpha   90.00000000
_cell_angle_beta   90.00000000
_cell_angle_gamma   119.99999409
_symmetry_Int_Tables_number   1
_chemical_formula_structural   Zr2Si3Rh4
_chemical_formula_sum   'Zr8 Si12 Rh16'
_cell_volume   572.84101074
_cell_formula_units_Z   4
loop_
 _symmetry_equiv_pos_site_id
 _symmetry_equiv_pos_as_xyz
  1  'x, y, z'
loop_
 _atom_site_type_symbol
 _atom_site_label
 _atom_site_symmetry_multiplicity
 _atom_site_fract_x
 _atom_site_fract_y
 _atom_site_fract_z
 _atom_site_occupancy
  Zr  Zr0  1  0.437570  0.437570  0.000000  1
  Zr  Zr1  1  0.562430  0.000000  0.000000  1
  Zr  Zr2  1  0.000000  0.562430  0.000000  1
  Zr  Zr3  1  0.666667  0.333333  0.000000  1
  Zr  Zr4  1  0.333333  0.666667  0.000000  1
  Zr  Zr5  1  0.805663  0.805663  0.500000  1
  Zr  Zr6  1  0.194337  0.000000  0.500000  1
  Zr  Zr7  1  0.000000  0.194337  0.500000  1
  Si  Si8  1  0.645341  0.645341  0.000000  1
  Si  Si9  1  0.354659  0.000000  0.000000  1
  Si  Si10  1  0.000000  0.354659  0.000000  1
  Si  Si11  1  0.482984  0.306579  0.500000  1
  Si  Si12  1  0.693421  0.176403  0.500000  1
  Si  Si13  1  0.823597  0.517016  0.500000  1
  Si  Si14  1  0.517016  0.823597  0.500000  1
  Si  Si15  1  0.176403  0.693421  0.500000  1
  Si  Si16  1  0.823651  0.000000  0.000000  1
  Si  Si17  1  0.000000  0.823651  0.000000  1
  Si  Si18  1  0.306579  0.482984  0.500000  1
  Si  Si19  1  0.176349  0.176349  0.000000  1
  Rh  Rh20  1  0.192221  0.372070  0.000000  1
  Rh  Rh21  1  0.179848  0.807779  0.000000  1
  Rh  Rh22  1  0.820152  0.627930  0.000000  1
  Rh  Rh23  1  0.807779  0.179848  0.000000  1
  Rh  Rh24  1  0.372070  0.192221  0.000000  1
  Rh  Rh25  1  0.125713  0.487345  0.500000  1
  Rh  Rh26  1  0.361632  0.874287  0.500000  1
  Rh  Rh27  1  0.512655  0.638368  0.500000  1
  Rh  Rh28  1  0.638368  0.512655  0.500000  1
  Rh  Rh29  1  0.874287  0.361632  0.500000  1
  Rh  Rh30  1  0.487345  0.125713  0.500000  1
  Rh  Rh31  1  0.000000  0.000000  0.000000  1
  Rh  Rh32  1  0.725346  0.000000  0.500000  1
  Rh  Rh33  1  0.000000  0.725346  0.500000  1
  Rh  Rh34  1  0.627930  0.820152  0.000000  1
  Rh  Rh35  1  0.274654  0.274654  0.500000  1
