# generated using pymatgen
data_CaTb4Er2NiI12
_symmetry_space_group_name_H-M   'P 1'
_cell_length_a   9.75935335
_cell_length_b   9.72315395
_cell_length_c   9.75870667
_cell_angle_alpha   106.91730019
_cell_angle_beta   106.72936072
_cell_angle_gamma   106.64701039
_symmetry_Int_Tables_number   1
_chemical_formula_structural   CaTb4Er2NiI12
_chemical_formula_sum   'Ca1 Tb4 Er2 Ni1 I12'
_cell_volume   776.09481937
_cell_formula_units_Z   1
loop_
 _symmetry_equiv_pos_site_id
 _symmetry_equiv_pos_as_xyz
  1  'x, y, z'
loop_
 _atom_site_type_symbol
 _atom_site_label
 _atom_site_symmetry_multiplicity
 _atom_site_fract_x
 _atom_site_fract_y
 _atom_site_fract_z
 _atom_site_occupancy
  Ca  Ca0  1  0.499599  0.500102  0.499914  1
  Tb  Tb1  1  0.976050  0.705534  0.903625  1
  Tb  Tb2  1  0.094603  0.024019  0.294483  1
  Tb  Tb3  1  0.294766  0.095626  0.023819  1
  Tb  Tb4  1  0.023596  0.294044  0.094907  1
  Er  Er5  1  0.905298  0.975751  0.710181  1
  Er  Er6  1  0.709840  0.905536  0.976032  1
  Ni  Ni7  1  0.000891  0.999895  0.000565  1
  I  I8  1  0.925588  0.319127  0.773440  1
  I  I9  1  0.773847  0.926398  0.320726  1
  I  I10  1  0.324292  0.776380  0.927109  1
  I  I11  1  0.072776  0.677186  0.223478  1
  I  I12  1  0.220129  0.071983  0.676535  1
  I  I13  1  0.676619  0.220453  0.071807  1
  I  I14  1  0.545145  0.851688  0.623313  1
  I  I15  1  0.620632  0.545365  0.851528  1
  I  I16  1  0.850304  0.623609  0.541920  1
  I  I17  1  0.457727  0.150195  0.379445  1
  I  I18  1  0.379296  0.457831  0.149530  1
  I  I19  1  0.149001  0.379278  0.457644  1
