# generated using pymatgen
data_Li8Pr8Sn7Bi
_symmetry_space_group_name_H-M   'P 1'
_cell_length_a   9.62295864
_cell_length_b   9.62295835
_cell_length_c   7.74042679
_cell_angle_alpha   89.87838322
_cell_angle_beta   90.12162023
_cell_angle_gamma   119.97713221
_symmetry_Int_Tables_number   1
_chemical_formula_structural   Li8Pr8Sn7Bi
_chemical_formula_sum   'Li8 Pr8 Sn7 Bi1'
_cell_volume   620.88545765
_cell_formula_units_Z   1
loop_
 _symmetry_equiv_pos_site_id
 _symmetry_equiv_pos_as_xyz
  1  'x, y, z'
loop_
 _atom_site_type_symbol
 _atom_site_label
 _atom_site_symmetry_multiplicity
 _atom_site_fract_x
 _atom_site_fract_y
 _atom_site_fract_z
 _atom_site_occupancy
  Li  Li0  1  0.833186  0.166814  0.714933  1
  Li  Li1  1  0.832240  0.665618  0.712126  1
  Li  Li2  1  0.334382  0.167760  0.712126  1
  Li  Li3  1  0.166942  0.833058  0.212856  1
  Li  Li4  1  0.170307  0.335279  0.210611  1
  Li  Li5  1  0.664721  0.829693  0.210611  1
  Li  Li6  1  0.665076  0.334924  0.334890  1
  Li  Li7  1  0.333648  0.666352  0.833291  1
  Pr  Pr8  1  0.487820  0.512180  0.504988  1
  Pr  Pr9  1  0.482578  0.973385  0.507363  1
  Pr  Pr10  1  0.026615  0.517422  0.507363  1
  Pr  Pr11  1  0.512246  0.487754  0.004244  1
  Pr  Pr12  1  0.507116  0.021419  0.003114  1
  Pr  Pr13  1  0.978581  0.492884  0.003114  1
  Pr  Pr14  1  0.002582  0.997418  0.502823  1
  Pr  Pr15  1  0.002024  0.997976  0.999621  1
  Sn  Sn16  1  0.833625  0.666561  0.270134  1
  Sn  Sn17  1  0.333439  0.166375  0.270134  1
  Sn  Sn18  1  0.166563  0.833437  0.769418  1
  Sn  Sn19  1  0.166258  0.333308  0.770041  1
  Sn  Sn20  1  0.666692  0.833742  0.770041  1
  Sn  Sn21  1  0.667035  0.332965  0.732924  1
  Sn  Sn22  1  0.333102  0.666898  0.232731  1
  Bi  Bi23  1  0.833221  0.166779  0.268508  1
