# generated using pymatgen
data_Tm2Fe2TcGe4
_symmetry_space_group_name_H-M   'P 1'
_cell_length_a   8.07309800
_cell_length_b   5.59848758
_cell_length_c   6.76472106
_cell_angle_alpha   76.36591367
_cell_angle_beta   90.00000000
_cell_angle_gamma   90.00000000
_symmetry_Int_Tables_number   1
_chemical_formula_structural   Tm2Fe2TcGe4
_chemical_formula_sum   'Tm4 Fe4 Tc2 Ge8'
_cell_volume   297.13040083
_cell_formula_units_Z   2
loop_
 _symmetry_equiv_pos_site_id
 _symmetry_equiv_pos_as_xyz
  1  'x, y, z'
loop_
 _atom_site_type_symbol
 _atom_site_label
 _atom_site_symmetry_multiplicity
 _atom_site_fract_x
 _atom_site_fract_y
 _atom_site_fract_z
 _atom_site_occupancy
  Tm  Tm0  1  0.564641  0.065794  0.245998  1
  Tm  Tm1  1  0.064641  0.434206  0.754002  1
  Tm  Tm2  1  0.435359  0.934206  0.754002  1
  Tm  Tm3  1  0.935359  0.565794  0.245998  1
  Fe  Fe4  1  0.210140  0.121964  0.108189  1
  Fe  Fe5  1  0.710140  0.378036  0.891811  1
  Fe  Fe6  1  0.789860  0.878036  0.891811  1
  Fe  Fe7  1  0.289860  0.621964  0.108189  1
  Tc  Tc8  1  0.000000  0.000000  0.500000  1
  Tc  Tc9  1  0.500000  0.500000  0.500000  1
  Ge  Ge10  1  0.906982  0.115378  0.113341  1
  Ge  Ge11  1  0.406982  0.384622  0.886659  1
  Ge  Ge12  1  0.093018  0.884622  0.886659  1
  Ge  Ge13  1  0.593018  0.615378  0.113341  1
  Ge  Ge14  1  0.750172  0.217789  0.599745  1
  Ge  Ge15  1  0.250172  0.282211  0.400255  1
  Ge  Ge16  1  0.249828  0.782211  0.400255  1
  Ge  Ge17  1  0.749828  0.717789  0.599745  1
