# generated using pymatgen
data_Tb5Dy5(TlSb)3
_symmetry_space_group_name_H-M   'P 1'
_cell_length_a   9.03213900
_cell_length_b   9.03283215
_cell_length_c   6.64979700
_cell_angle_alpha   90.00000000
_cell_angle_beta   90.00000000
_cell_angle_gamma   120.01809953
_symmetry_Int_Tables_number   1
_chemical_formula_structural   Tb5Dy5(TlSb)3
_chemical_formula_sum   'Tb5 Dy5 Tl3 Sb3'
_cell_volume   469.75816269
_cell_formula_units_Z   1
loop_
 _symmetry_equiv_pos_site_id
 _symmetry_equiv_pos_as_xyz
  1  'x, y, z'
loop_
 _atom_site_type_symbol
 _atom_site_label
 _atom_site_symmetry_multiplicity
 _atom_site_fract_x
 _atom_site_fract_y
 _atom_site_fract_z
 _atom_site_occupancy
  Tb  Tb0  1  0.004742  0.243098  0.250000  1
  Tb  Tb1  1  0.761944  0.757050  0.250000  1
  Tb  Tb2  1  0.759457  0.000063  0.750000  1
  Tb  Tb3  1  0.239866  0.237158  0.750000  1
  Tb  Tb4  1  0.237560  0.999900  0.250000  1
  Dy  Dy5  1  0.002702  0.762517  0.750000  1
  Dy  Dy6  1  0.330535  0.666123  0.500104  1
  Dy  Dy7  1  0.664469  0.333955  0.999910  1
  Dy  Dy8  1  0.664469  0.333955  0.500090  1
  Dy  Dy9  1  0.330535  0.666123  0.999896  1
  Tl  Tl10  1  0.396546  0.999664  0.750000  1
  Tl  Tl11  1  0.395514  0.396880  0.250000  1
  Tl  Tl12  1  0.998588  0.603010  0.250000  1
  Sb  Sb13  1  0.997917  0.392750  0.750000  1
  Sb  Sb14  1  0.606005  0.607735  0.750000  1
  Sb  Sb15  1  0.609152  0.000017  0.250000  1
