# generated using pymatgen
data_Nd4Ga3Si9Ni20
_symmetry_space_group_name_H-M   'P 1'
_cell_length_a   3.86838400
_cell_length_b   6.64144575
_cell_length_c   19.28792909
_cell_angle_alpha   90.11322465
_cell_angle_beta   90.00000000
_cell_angle_gamma   90.00000000
_symmetry_Int_Tables_number   1
_chemical_formula_structural   Nd4Ga3Si9Ni20
_chemical_formula_sum   'Nd4 Ga3 Si9 Ni20'
_cell_volume   495.53799667
_cell_formula_units_Z   1
loop_
 _symmetry_equiv_pos_site_id
 _symmetry_equiv_pos_as_xyz
  1  'x, y, z'
loop_
 _atom_site_type_symbol
 _atom_site_label
 _atom_site_symmetry_multiplicity
 _atom_site_fract_x
 _atom_site_fract_y
 _atom_site_fract_z
 _atom_site_occupancy
  Nd  Nd0  1  0.250000  0.625916  0.642587  1
  Nd  Nd1  1  0.750000  0.376717  0.358089  1
  Nd  Nd2  1  0.750000  0.123917  0.856154  1
  Nd  Nd3  1  0.250000  0.875249  0.144972  1
  Ga  Ga4  1  0.250000  0.836070  0.925905  1
  Ga  Ga5  1  0.750000  0.162491  0.074625  1
  Ga  Ga6  1  0.750000  0.339296  0.573154  1
  Si  Si7  1  0.250000  0.663143  0.427140  1
  Si  Si8  1  0.750000  0.627223  0.761270  1
  Si  Si9  1  0.250000  0.377186  0.239581  1
  Si  Si10  1  0.250000  0.428511  0.914815  1
  Si  Si11  1  0.750000  0.570202  0.086532  1
  Si  Si12  1  0.750000  0.927024  0.583805  1
  Si  Si13  1  0.250000  0.070173  0.413646  1
  Si  Si14  1  0.250000  0.126210  0.736564  1
  Si  Si15  1  0.750000  0.875982  0.264191  1
  Ni  Ni16  1  0.250000  0.147944  0.993806  1
  Ni  Ni17  1  0.750000  0.399437  0.981264  1
  Ni  Ni18  1  0.750000  0.103525  0.480925  1
  Ni  Ni19  1  0.250000  0.600411  0.019795  1
  Ni  Ni20  1  0.250000  0.372426  0.122830  1
  Ni  Ni21  1  0.750000  0.626005  0.877922  1
  Ni  Ni22  1  0.750000  0.857644  0.382532  1
  Ni  Ni23  1  0.250000  0.126632  0.619080  1
  Ni  Ni24  1  0.250000  0.065051  0.294675  1
  Ni  Ni25  1  0.750000  0.936979  0.703910  1
  Ni  Ni26  1  0.750000  0.565735  0.207011  1
  Ni  Ni27  1  0.250000  0.437109  0.794286  1
  Ni  Ni28  1  0.750000  0.646425  0.500722  1
  Ni  Ni29  1  0.250000  0.361677  0.490369  1
  Ni  Ni30  1  0.250000  0.816010  0.794015  1
  Ni  Ni31  1  0.750000  0.187272  0.206018  1
  Ni  Ni32  1  0.750000  0.315883  0.704179  1
  Ni  Ni33  1  0.250000  0.685876  0.300931  1
  Ni  Ni34  1  0.250000  0.892046  0.515828  1
  Ni  Ni35  1  0.750000  0.850600  0.006872  1
