# generated using pymatgen
data_RbReTe7Mo5
_symmetry_space_group_name_H-M   'P 1'
_cell_length_a   10.39432668
_cell_length_b   10.45232001
_cell_length_c   10.44580163
_cell_angle_alpha   60.38757058
_cell_angle_beta   60.40603408
_cell_angle_gamma   60.27528508
_symmetry_Int_Tables_number   1
_chemical_formula_structural   RbReTe7Mo5
_chemical_formula_sum   'Rb2 Re2 Te14 Mo10'
_cell_volume   808.94839294
_cell_formula_units_Z   2
loop_
 _symmetry_equiv_pos_site_id
 _symmetry_equiv_pos_as_xyz
  1  'x, y, z'
loop_
 _atom_site_type_symbol
 _atom_site_label
 _atom_site_symmetry_multiplicity
 _atom_site_fract_x
 _atom_site_fract_y
 _atom_site_fract_z
 _atom_site_occupancy
  Rb  Rb0  1  0.620184  0.620111  0.620657  1
  Rb  Rb1  1  0.379571  0.380413  0.380378  1
  Re  Re2  1  0.714522  0.881025  0.003002  1
  Re  Re3  1  0.005804  0.714370  0.878535  1
  Te  Te4  1  0.427908  0.805000  0.165407  1
  Te  Te5  1  0.165680  0.429326  0.804253  1
  Te  Te6  1  0.802737  0.167130  0.424690  1
  Te  Te7  1  0.575025  0.190804  0.837450  1
  Te  Te8  1  0.835857  0.577773  0.187512  1
  Te  Te9  1  0.196433  0.830680  0.577324  1
  Te  Te10  1  0.628496  0.977062  0.247795  1
  Te  Te11  1  0.249614  0.629832  0.977932  1
  Te  Te12  1  0.976817  0.248488  0.632516  1
  Te  Te13  1  0.368725  0.022027  0.749530  1
  Te  Te14  1  0.747856  0.367849  0.021770  1
  Te  Te15  1  0.021328  0.750391  0.366770  1
  Te  Te16  1  0.776571  0.774040  0.781787  1
  Te  Te17  1  0.224534  0.222426  0.228188  1
  Mo  Mo18  1  0.879272  0.002114  0.709178  1
  Mo  Mo19  1  0.285686  0.122040  0.999204  1
  Mo  Mo20  1  0.997265  0.286881  0.120070  1
  Mo  Mo21  1  0.120611  0.998685  0.288727  1
  Mo  Mo22  1  0.944324  0.810550  0.108560  1
  Mo  Mo23  1  0.109966  0.943732  0.812323  1
  Mo  Mo24  1  0.811132  0.110557  0.945133  1
  Mo  Mo25  1  0.055449  0.189010  0.890935  1
  Mo  Mo26  1  0.890936  0.055189  0.186319  1
  Mo  Mo27  1  0.187699  0.892496  0.054057  1
