# generated using pymatgen
data_Nd2Er4Co17P12Ru
_symmetry_space_group_name_H-M   'P 1'
_cell_length_a   3.70493300
_cell_length_b   10.54792600
_cell_length_c   12.23361100
_cell_angle_alpha   90.00000000
_cell_angle_beta   90.00000000
_cell_angle_gamma   90.00000000
_symmetry_Int_Tables_number   1
_chemical_formula_structural   Nd2Er4Co17P12Ru
_chemical_formula_sum   'Nd2 Er4 Co17 P12 Ru1'
_cell_volume   478.08167759
_cell_formula_units_Z   1
loop_
 _symmetry_equiv_pos_site_id
 _symmetry_equiv_pos_as_xyz
  1  'x, y, z'
loop_
 _atom_site_type_symbol
 _atom_site_label
 _atom_site_symmetry_multiplicity
 _atom_site_fract_x
 _atom_site_fract_y
 _atom_site_fract_z
 _atom_site_occupancy
  Nd  Nd0  1  0.750000  0.250000  0.474356  1
  Nd  Nd1  1  0.250000  0.750000  0.522391  1
  Er  Er2  1  0.250000  0.932249  0.794449  1
  Er  Er3  1  0.250000  0.567751  0.794449  1
  Er  Er4  1  0.750000  0.067149  0.204872  1
  Er  Er5  1  0.750000  0.432851  0.204872  1
  Co  Co6  1  0.750000  0.750000  0.158501  1
  Co  Co7  1  0.250000  0.250000  0.292777  1
  Co  Co8  1  0.750000  0.750000  0.708073  1
  Co  Co9  1  0.750000  0.250000  0.012574  1
  Co  Co10  1  0.250000  0.750000  0.986052  1
  Co  Co11  1  0.250000  0.418067  0.008797  1
  Co  Co12  1  0.250000  0.081933  0.008797  1
  Co  Co13  1  0.750000  0.583423  0.994638  1
  Co  Co14  1  0.750000  0.916577  0.994638  1
  Co  Co15  1  0.250000  0.453417  0.571277  1
  Co  Co16  1  0.250000  0.046583  0.571277  1
  Co  Co17  1  0.750000  0.546367  0.429221  1
  Co  Co18  1  0.750000  0.953633  0.429221  1
  Co  Co19  1  0.250000  0.870786  0.287778  1
  Co  Co20  1  0.250000  0.629214  0.287778  1
  Co  Co21  1  0.750000  0.129290  0.711196  1
  Co  Co22  1  0.750000  0.370710  0.711196  1
  P  P23  1  0.250000  0.250000  0.116862  1
  P  P24  1  0.750000  0.750000  0.884482  1
  P  P25  1  0.250000  0.250000  0.653644  1
  P  P26  1  0.750000  0.750000  0.340059  1
  P  P27  1  0.250000  0.442323  0.381277  1
  P  P28  1  0.250000  0.057677  0.381277  1
  P  P29  1  0.750000  0.558783  0.618206  1
  P  P30  1  0.750000  0.941217  0.618206  1
  P  P31  1  0.250000  0.901421  0.107197  1
  P  P32  1  0.250000  0.598579  0.107197  1
  P  P33  1  0.750000  0.093986  0.894808  1
  P  P34  1  0.750000  0.406014  0.894808  1
  Ru  Ru35  1  0.250000  0.250000  0.842799  1
