# generated using pymatgen
data_ErHgPt4
_symmetry_space_group_name_H-M   'P 1'
_cell_length_a   5.38944004
_cell_length_b   5.38943964
_cell_length_c   5.38944000
_cell_angle_alpha   59.99999777
_cell_angle_beta   60.00000025
_cell_angle_gamma   60.00000123
_symmetry_Int_Tables_number   1
_chemical_formula_structural   ErHgPt4
_chemical_formula_sum   'Er1 Hg1 Pt4'
_cell_volume   110.69191419
_cell_formula_units_Z   1
loop_
 _symmetry_equiv_pos_site_id
 _symmetry_equiv_pos_as_xyz
  1  'x, y, z'
loop_
 _atom_site_type_symbol
 _atom_site_label
 _atom_site_symmetry_multiplicity
 _atom_site_fract_x
 _atom_site_fract_y
 _atom_site_fract_z
 _atom_site_occupancy
  Er  Er0  1  0.250000  0.250000  0.250000  1
  Hg  Hg1  1  0.000000  0.000000  0.000000  1
  Pt  Pt2  1  0.625299  0.625299  0.625299  1
  Pt  Pt3  1  0.124104  0.625299  0.625299  1
  Pt  Pt4  1  0.625299  0.124104  0.625299  1
  Pt  Pt5  1  0.625299  0.625299  0.124104  1
