# generated using pymatgen
data_Ac4Zn4InSn3
_symmetry_space_group_name_H-M   'P 1'
_cell_length_a   4.60939000
_cell_length_b   9.43675814
_cell_length_c   7.98926121
_cell_angle_alpha   89.79162773
_cell_angle_beta   90.00000000
_cell_angle_gamma   90.00000000
_symmetry_Int_Tables_number   1
_chemical_formula_structural   Ac4Zn4InSn3
_chemical_formula_sum   'Ac4 Zn4 In1 Sn3'
_cell_volume   347.51217812
_cell_formula_units_Z   1
loop_
 _symmetry_equiv_pos_site_id
 _symmetry_equiv_pos_as_xyz
  1  'x, y, z'
loop_
 _atom_site_type_symbol
 _atom_site_label
 _atom_site_symmetry_multiplicity
 _atom_site_fract_x
 _atom_site_fract_y
 _atom_site_fract_z
 _atom_site_occupancy
  Ac  Ac0  1  0.250000  0.504020  0.246390  1
  Ac  Ac1  1  0.750000  0.503483  0.756378  1
  Ac  Ac2  1  0.250000  0.005487  0.244005  1
  Ac  Ac3  1  0.750000  0.005988  0.754227  1
  Zn  Zn4  1  0.750000  0.236980  0.419279  1
  Zn  Zn5  1  0.250000  0.232386  0.911598  1
  Zn  Zn6  1  0.750000  0.745009  0.086551  1
  Zn  Zn7  1  0.250000  0.718429  0.581541  1
  In  In8  1  0.250000  0.265317  0.581362  1
  Sn  Sn9  1  0.750000  0.259602  0.084853  1
  Sn  Sn10  1  0.250000  0.758110  0.915437  1
  Sn  Sn11  1  0.750000  0.765190  0.418381  1
