# generated using pymatgen
data_Ti3Al2Tc3
_symmetry_space_group_name_H-M   'P 1'
_cell_length_a   3.20900500
_cell_length_b   3.20900500
_cell_length_c   11.76559000
_cell_angle_alpha   90.00000000
_cell_angle_beta   90.00000000
_cell_angle_gamma   90.00000000
_symmetry_Int_Tables_number   1
_chemical_formula_structural   Ti3Al2Tc3
_chemical_formula_sum   'Ti3 Al2 Tc3'
_cell_volume   121.15867015
_cell_formula_units_Z   1
loop_
 _symmetry_equiv_pos_site_id
 _symmetry_equiv_pos_as_xyz
  1  'x, y, z'
loop_
 _atom_site_type_symbol
 _atom_site_label
 _atom_site_symmetry_multiplicity
 _atom_site_fract_x
 _atom_site_fract_y
 _atom_site_fract_z
 _atom_site_occupancy
  Ti  Ti0  1  0.499999  0.499999  0.000000  1
  Ti  Ti1  1  0.499999  0.499999  0.246693  1
  Ti  Ti2  1  0.499999  0.499999  0.753307  1
  Al  Al3  1  0.000000  0.000000  0.387066  1
  Al  Al4  1  0.000000  0.000000  0.612934  1
  Tc  Tc5  1  0.000000  0.000000  0.134378  1
  Tc  Tc6  1  0.499999  0.499999  0.500000  1
  Tc  Tc7  1  0.000000  0.000000  0.865622  1
