# generated using pymatgen
data_Lu3Pa(ReN3)4
_symmetry_space_group_name_H-M   'P 1'
_cell_length_a   5.30854316
_cell_length_b   5.65554792
_cell_length_c   7.69396400
_cell_angle_alpha   90.00000000
_cell_angle_beta   90.00000000
_cell_angle_gamma   89.73975118
_symmetry_Int_Tables_number   1
_chemical_formula_structural   Lu3Pa(ReN3)4
_chemical_formula_sum   'Lu3 Pa1 Re4 N12'
_cell_volume   230.99134590
_cell_formula_units_Z   1
loop_
 _symmetry_equiv_pos_site_id
 _symmetry_equiv_pos_as_xyz
  1  'x, y, z'
loop_
 _atom_site_type_symbol
 _atom_site_label
 _atom_site_symmetry_multiplicity
 _atom_site_fract_x
 _atom_site_fract_y
 _atom_site_fract_z
 _atom_site_occupancy
  Lu  Lu0  1  0.020020  0.927668  0.250000  1
  Lu  Lu1  1  0.516083  0.572083  0.750000  1
  Lu  Lu2  1  0.983973  0.069896  0.750000  1
  Pa  Pa3  1  0.478434  0.428065  0.250000  1
  Re  Re4  1  0.498826  0.000352  0.506185  1
  Re  Re5  1  0.991223  0.500174  0.994488  1
  Re  Re6  1  0.991223  0.500174  0.505512  1
  Re  Re7  1  0.498826  0.000352  0.993815  1
  N  N8  1  0.691829  0.298812  0.550946  1
  N  N9  1  0.314566  0.694730  0.055740  1
  N  N10  1  0.192611  0.199212  0.054053  1
  N  N11  1  0.404519  0.976345  0.750000  1
  N  N12  1  0.898033  0.532733  0.250000  1
  N  N13  1  0.314566  0.694730  0.444260  1
  N  N14  1  0.807358  0.797627  0.946526  1
  N  N15  1  0.691829  0.298812  0.949054  1
  N  N16  1  0.807358  0.797627  0.553474  1
  N  N17  1  0.097715  0.475175  0.750000  1
  N  N18  1  0.192611  0.199212  0.445947  1
  N  N19  1  0.608395  0.036224  0.250000  1
