# generated using pymatgen
data_Ti12PbS16
_symmetry_space_group_name_H-M   'P 1'
_cell_length_a   6.80741622
_cell_length_b   9.47885057
_cell_length_c   10.06815240
_cell_angle_alpha   118.17325485
_cell_angle_beta   109.69977611
_cell_angle_gamma   90.02662452
_symmetry_Int_Tables_number   1
_chemical_formula_structural   Ti12PbS16
_chemical_formula_sum   'Ti12 Pb1 S16'
_cell_volume   529.10832210
_cell_formula_units_Z   1
loop_
 _symmetry_equiv_pos_site_id
 _symmetry_equiv_pos_as_xyz
  1  'x, y, z'
loop_
 _atom_site_type_symbol
 _atom_site_label
 _atom_site_symmetry_multiplicity
 _atom_site_fract_x
 _atom_site_fract_y
 _atom_site_fract_z
 _atom_site_occupancy
  Ti  Ti0  1  0.942923  0.488284  0.132876  1
  Ti  Ti1  1  0.439396  0.488852  0.131235  1
  Ti  Ti2  1  0.130532  0.643898  0.512739  1
  Ti  Ti3  1  0.632648  0.643411  0.510866  1
  Ti  Ti4  1  0.056073  0.867067  0.356318  1
  Ti  Ti5  1  0.551574  0.868946  0.356761  1
  Ti  Ti6  1  0.560604  0.511148  0.868765  1
  Ti  Ti7  1  0.057077  0.511716  0.867124  1
  Ti  Ti8  1  0.367352  0.356589  0.489134  1
  Ti  Ti9  1  0.869468  0.356102  0.487261  1
  Ti  Ti10  1  0.448426  0.131054  0.643239  1
  Ti  Ti11  1  0.943927  0.132933  0.643682  1
  Pb  Pb12  1  0.500000  0.000000  0.000000  1
  S  S13  1  0.524443  0.351782  0.302786  1
  S  S14  1  0.028277  0.355529  0.305277  1
  S  S15  1  0.697571  0.949196  0.644483  1
  S  S16  1  0.197099  0.951799  0.648012  1
  S  S17  1  0.397411  0.697262  0.048569  1
  S  S18  1  0.900523  0.694854  0.051094  1
  S  S19  1  0.971723  0.644471  0.694723  1
  S  S20  1  0.475557  0.648218  0.697214  1
  S  S21  1  0.802901  0.048201  0.351988  1
  S  S22  1  0.302429  0.050804  0.355517  1
  S  S23  1  0.099477  0.305146  0.948906  1
  S  S24  1  0.602589  0.302738  0.951431  1
  S  S25  1  0.707267  0.333586  0.666066  1
  S  S26  1  0.208211  0.332841  0.666603  1
  S  S27  1  0.791789  0.667159  0.333397  1
  S  S28  1  0.292733  0.666414  0.333934  1
