# generated using pymatgen
data_SmTmAl2(Fe3B)2
_symmetry_space_group_name_H-M   'P 1'
_cell_length_a   5.20333800
_cell_length_b   5.20485371
_cell_length_c   6.86379300
_cell_angle_alpha   90.00000000
_cell_angle_beta   90.00000000
_cell_angle_gamma   119.99036728
_symmetry_Int_Tables_number   1
_chemical_formula_structural   SmTmAl2(Fe3B)2
_chemical_formula_sum   'Sm1 Tm1 Al2 Fe6 B2'
_cell_volume   161.00061002
_cell_formula_units_Z   1
loop_
 _symmetry_equiv_pos_site_id
 _symmetry_equiv_pos_as_xyz
  1  'x, y, z'
loop_
 _atom_site_type_symbol
 _atom_site_label
 _atom_site_symmetry_multiplicity
 _atom_site_fract_x
 _atom_site_fract_y
 _atom_site_fract_z
 _atom_site_occupancy
  Sm  Sm0  1  0.999982  0.000000  0.000000  1
  Tm  Tm1  1  0.999988  0.000000  0.500000  1
  Al  Al2  1  0.333238  0.666507  0.000000  1
  Al  Al3  1  0.666731  0.333493  0.000000  1
  Fe  Fe4  1  0.499985  0.000000  0.296951  1
  Fe  Fe5  1  0.499982  0.500000  0.296929  1
  Fe  Fe6  1  0.999982  0.500000  0.296929  1
  Fe  Fe7  1  0.499985  0.000000  0.703049  1
  Fe  Fe8  1  0.499982  0.500000  0.703071  1
  Fe  Fe9  1  0.999982  0.500000  0.703071  1
  B  B10  1  0.333268  0.666573  0.500000  1
  B  B11  1  0.666694  0.333427  0.500000  1
