# generated using pymatgen
data_PrLu3(MoO6)2
_symmetry_space_group_name_H-M   'P 1'
_cell_length_a   5.36440200
_cell_length_b   7.68808544
_cell_length_c   11.41084599
_cell_angle_alpha   75.49163253
_cell_angle_beta   90.00000000
_cell_angle_gamma   90.00000000
_symmetry_Int_Tables_number   1
_chemical_formula_structural   PrLu3(MoO6)2
_chemical_formula_sum   'Pr2 Lu6 Mo4 O24'
_cell_volume   455.59877134
_cell_formula_units_Z   2
loop_
 _symmetry_equiv_pos_site_id
 _symmetry_equiv_pos_as_xyz
  1  'x, y, z'
loop_
 _atom_site_type_symbol
 _atom_site_label
 _atom_site_symmetry_multiplicity
 _atom_site_fract_x
 _atom_site_fract_y
 _atom_site_fract_z
 _atom_site_occupancy
  Pr  Pr0  1  0.315200  0.500000  0.750000  1
  Pr  Pr1  1  0.684800  0.500000  0.250000  1
  Lu  Lu2  1  0.257346  0.000000  0.750000  1
  Lu  Lu3  1  0.184097  0.801714  0.077785  1
  Lu  Lu4  1  0.184097  0.198286  0.422215  1
  Lu  Lu5  1  0.742654  0.000000  0.250000  1
  Lu  Lu6  1  0.815903  0.198286  0.922215  1
  Lu  Lu7  1  0.815903  0.801714  0.577785  1
  Mo  Mo8  1  0.746749  0.728390  0.885031  1
  Mo  Mo9  1  0.253251  0.728390  0.385031  1
  Mo  Mo10  1  0.746749  0.271610  0.614969  1
  Mo  Mo11  1  0.253251  0.271610  0.114969  1
  O  O12  1  0.538191  0.155855  0.070260  1
  O  O13  1  0.035539  0.056621  0.102769  1
  O  O14  1  0.011577  0.726159  0.765790  1
  O  O15  1  0.461809  0.155855  0.570260  1
  O  O16  1  0.338577  0.492787  0.387716  1
  O  O17  1  0.964461  0.056621  0.602769  1
  O  O18  1  0.539156  0.798693  0.722421  1
  O  O19  1  0.460844  0.798693  0.222421  1
  O  O20  1  0.143118  0.643328  0.546064  1
  O  O21  1  0.035539  0.943379  0.397231  1
  O  O22  1  0.461809  0.844145  0.929740  1
  O  O23  1  0.460844  0.201307  0.277579  1
  O  O24  1  0.856882  0.356672  0.453936  1
  O  O25  1  0.661423  0.492787  0.887716  1
  O  O26  1  0.338577  0.507213  0.112284  1
  O  O27  1  0.964461  0.943379  0.897231  1
  O  O28  1  0.538191  0.844145  0.429740  1
  O  O29  1  0.988423  0.273841  0.234210  1
  O  O30  1  0.539156  0.201307  0.777579  1
  O  O31  1  0.856882  0.643328  0.046064  1
  O  O32  1  0.011577  0.273841  0.734210  1
  O  O33  1  0.143118  0.356672  0.953936  1
  O  O34  1  0.988423  0.726159  0.265790  1
  O  O35  1  0.661423  0.507213  0.612284  1
