# generated using pymatgen
data_Th5Fe3(P3Ru4)4
_symmetry_space_group_name_H-M   'P 1'
_cell_length_a   12.63749000
_cell_length_b   12.63749054
_cell_length_c   3.94100000
_cell_angle_alpha   90.00000000
_cell_angle_beta   90.00000000
_cell_angle_gamma   119.99999859
_symmetry_Int_Tables_number   1
_chemical_formula_structural   Th5Fe3(P3Ru4)4
_chemical_formula_sum   'Th5 Fe3 P12 Ru16'
_cell_volume   545.07810958
_cell_formula_units_Z   1
loop_
 _symmetry_equiv_pos_site_id
 _symmetry_equiv_pos_as_xyz
  1  'x, y, z'
loop_
 _atom_site_type_symbol
 _atom_site_label
 _atom_site_symmetry_multiplicity
 _atom_site_fract_x
 _atom_site_fract_y
 _atom_site_fract_z
 _atom_site_occupancy
  Th  Th0  1  0.184332  0.184332  0.500000  1
  Th  Th1  1  0.815668  0.000000  0.500000  1
  Th  Th2  1  0.000000  0.815668  0.500000  1
  Th  Th3  1  0.333333  0.666667  0.000000  1
  Th  Th4  1  0.666667  0.333333  0.000000  1
  Fe  Fe5  1  0.716408  0.716408  0.500000  1
  Fe  Fe6  1  0.283592  0.000000  0.500000  1
  Fe  Fe7  1  0.000000  0.283592  0.500000  1
  P  P8  1  0.810387  0.810387  0.000000  1
  P  P9  1  0.189613  0.000000  0.000000  1
  P  P10  1  0.000000  0.189613  0.000000  1
  P  P11  1  0.161376  0.469927  0.500000  1
  P  P12  1  0.530073  0.691449  0.500000  1
  P  P13  1  0.308551  0.838624  0.500000  1
  P  P14  1  0.691449  0.530073  0.500000  1
  P  P15  1  0.838624  0.308551  0.500000  1
  P  P16  1  0.469927  0.161376  0.500000  1
  P  P17  1  0.375755  0.375755  0.000000  1
  P  P18  1  0.624245  0.000000  0.000000  1
  P  P19  1  0.000000  0.624245  0.000000  1
  Ru  Ru20  1  0.557897  0.557897  0.000000  1
  Ru  Ru21  1  0.442103  0.000000  0.000000  1
  Ru  Ru22  1  0.000000  0.442103  0.000000  1
  Ru  Ru23  1  0.181047  0.375063  0.000000  1
  Ru  Ru24  1  0.624937  0.805984  0.000000  1
  Ru  Ru25  1  0.194016  0.818953  0.000000  1
  Ru  Ru26  1  0.805984  0.624937  0.000000  1
  Ru  Ru27  1  0.818953  0.194016  0.000000  1
  Ru  Ru28  1  0.375063  0.181047  0.000000  1
  Ru  Ru29  1  0.364677  0.491076  0.500000  1
  Ru  Ru30  1  0.508924  0.873601  0.500000  1
  Ru  Ru31  1  0.126399  0.635323  0.500000  1
  Ru  Ru32  1  0.873601  0.508924  0.500000  1
  Ru  Ru33  1  0.635323  0.126399  0.500000  1
  Ru  Ru34  1  0.491076  0.364677  0.500000  1
  Ru  Ru35  1  0.000000  0.000000  0.000000  1
