# generated using pymatgen
data_Tb2Yb2Sn2Sb4Rh7
_symmetry_space_group_name_H-M   'P 1'
_cell_length_a   7.60997367
_cell_length_b   7.60997516
_cell_length_c   7.58466275
_cell_angle_alpha   109.42609660
_cell_angle_beta   109.42609811
_cell_angle_gamma   109.69607328
_symmetry_Int_Tables_number   1
_chemical_formula_structural   Tb2Yb2Sn2Sb4Rh7
_chemical_formula_sum   'Tb2 Yb2 Sn2 Sb4 Rh7'
_cell_volume   337.56297428
_cell_formula_units_Z   1
loop_
 _symmetry_equiv_pos_site_id
 _symmetry_equiv_pos_as_xyz
  1  'x, y, z'
loop_
 _atom_site_type_symbol
 _atom_site_label
 _atom_site_symmetry_multiplicity
 _atom_site_fract_x
 _atom_site_fract_y
 _atom_site_fract_z
 _atom_site_occupancy
  Tb  Tb0  1  0.998931  0.001069  0.500000  1
  Tb  Tb1  1  0.498931  0.501069  0.500000  1
  Yb  Yb2  1  0.495147  0.000594  0.000000  1
  Yb  Yb3  1  0.999406  0.504853  0.000000  1
  Sn  Sn4  1  0.993468  0.311986  0.305454  1
  Sn  Sn5  1  0.688014  0.006532  0.694546  1
  Sb  Sb6  1  0.681990  0.685897  0.000000  1
  Sb  Sb7  1  0.000721  0.676904  0.677624  1
  Sb  Sb8  1  0.323096  0.999279  0.322376  1
  Sb  Sb9  1  0.314103  0.318010  0.000000  1
  Rh  Rh10  1  0.005589  0.994411  0.000000  1
  Rh  Rh11  1  0.503011  0.750841  0.253853  1
  Rh  Rh12  1  0.747049  0.500644  0.247693  1
  Rh  Rh13  1  0.251014  0.748986  0.500000  1
  Rh  Rh14  1  0.249159  0.496989  0.746147  1
  Rh  Rh15  1  0.499356  0.252951  0.752307  1
  Rh  Rh16  1  0.751014  0.248986  0.500000  1
