# generated using pymatgen
data_Ta4CoOsN
_symmetry_space_group_name_H-M   'P 1'
_cell_length_a   8.31123034
_cell_length_b   8.31056455
_cell_length_c   8.30955511
_cell_angle_alpha   59.98865390
_cell_angle_beta   59.99144187
_cell_angle_gamma   59.99528750
_symmetry_Int_Tables_number   1
_chemical_formula_structural   Ta4CoOsN
_chemical_formula_sum   'Ta16 Co4 Os4 N4'
_cell_volume   405.76801381
_cell_formula_units_Z   4
loop_
 _symmetry_equiv_pos_site_id
 _symmetry_equiv_pos_as_xyz
  1  'x, y, z'
loop_
 _atom_site_type_symbol
 _atom_site_label
 _atom_site_symmetry_multiplicity
 _atom_site_fract_x
 _atom_site_fract_y
 _atom_site_fract_z
 _atom_site_occupancy
  Ta  Ta0  1  0.086994  0.637660  0.637723  1
  Ta  Ta1  1  0.637655  0.086958  0.637744  1
  Ta  Ta2  1  0.637692  0.637718  0.086909  1
  Ta  Ta3  1  0.637625  0.637653  0.637714  1
  Ta  Ta4  1  0.809303  0.809294  0.190669  1
  Ta  Ta5  1  0.190700  0.190704  0.809292  1
  Ta  Ta6  1  0.809305  0.190693  0.809298  1
  Ta  Ta7  1  0.190731  0.809289  0.190678  1
  Ta  Ta8  1  0.190689  0.809303  0.809304  1
  Ta  Ta9  1  0.809290  0.190735  0.190680  1
  Ta  Ta10  1  0.436114  0.436105  0.063895  1
  Ta  Ta11  1  0.063887  0.063886  0.436117  1
  Ta  Ta12  1  0.436113  0.063887  0.436121  1
  Ta  Ta13  1  0.063893  0.436101  0.063894  1
  Ta  Ta14  1  0.063858  0.436137  0.436155  1
  Ta  Ta15  1  0.436078  0.063921  0.063922  1
  Co  Co16  1  0.453764  0.848737  0.848729  1
  Co  Co17  1  0.848764  0.453727  0.848731  1
  Co  Co18  1  0.848774  0.848748  0.453695  1
  Co  Co19  1  0.848763  0.848742  0.848732  1
  Os  Os20  1  0.749360  0.416877  0.416872  1
  Os  Os21  1  0.416879  0.749376  0.416862  1
  Os  Os22  1  0.416874  0.416864  0.749387  1
  Os  Os23  1  0.416893  0.416881  0.416874  1
  N  N24  1  0.628235  0.123922  0.123919  1
  N  N25  1  0.123922  0.628246  0.123914  1
  N  N26  1  0.123919  0.123914  0.628253  1
  N  N27  1  0.123927  0.123922  0.123918  1
