# generated using pymatgen
data_Rb4Al11GaSe20
_symmetry_space_group_name_H-M   'P 1'
_cell_length_a   13.49553053
_cell_length_b   7.58230875
_cell_length_c   11.10453538
_cell_angle_alpha   76.29630187
_cell_angle_beta   89.91955254
_cell_angle_gamma   89.93547309
_symmetry_Int_Tables_number   1
_chemical_formula_structural   Rb4Al11GaSe20
_chemical_formula_sum   'Rb4 Al11 Ga1 Se20'
_cell_volume   1103.94941749
_cell_formula_units_Z   1
loop_
 _symmetry_equiv_pos_site_id
 _symmetry_equiv_pos_as_xyz
  1  'x, y, z'
loop_
 _atom_site_type_symbol
 _atom_site_label
 _atom_site_symmetry_multiplicity
 _atom_site_fract_x
 _atom_site_fract_y
 _atom_site_fract_z
 _atom_site_occupancy
  Rb  Rb0  1  0.618356  0.835530  0.390069  1
  Rb  Rb1  1  0.118590  0.164749  0.109917  1
  Rb  Rb2  1  0.381152  0.164384  0.610199  1
  Rb  Rb3  1  0.881875  0.834388  0.890314  1
  Al  Al4  1  0.924170  0.794642  0.399732  1
  Al  Al5  1  0.576481  0.796139  0.899448  1
  Al  Al6  1  0.423724  0.203781  0.100370  1
  Al  Al7  1  0.399803  0.563266  0.806586  1
  Al  Al8  1  0.100859  0.564233  0.306422  1
  Al  Al9  1  0.336917  0.709797  0.124356  1
  Al  Al10  1  0.599511  0.437256  0.192893  1
  Al  Al11  1  0.076568  0.204730  0.600868  1
  Al  Al12  1  0.663216  0.290692  0.875516  1
  Al  Al13  1  0.899813  0.436622  0.693945  1
  Al  Al14  1  0.163471  0.709608  0.624952  1
  Ga  Ga15  1  0.835814  0.289473  0.374560  1
  Se  Se16  1  0.832452  0.716026  0.585917  1
  Se  Se17  1  0.105375  0.814475  0.410773  1
  Se  Se18  1  0.667568  0.716410  0.085974  1
  Se  Se19  1  0.395117  0.814264  0.910167  1
  Se  Se20  1  0.332517  0.283530  0.914031  1
  Se  Se21  1  0.660911  0.343476  0.399678  1
  Se  Se22  1  0.580689  0.574339  0.765909  1
  Se  Se23  1  0.605077  0.186111  0.089665  1
  Se  Se24  1  0.895568  0.185474  0.591016  1
  Se  Se25  1  0.633371  0.066188  0.760354  1
  Se  Se26  1  0.366961  0.933975  0.239738  1
  Se  Se27  1  0.167481  0.283884  0.413938  1
  Se  Se28  1  0.080683  0.426300  0.734855  1
  Se  Se29  1  0.920476  0.576379  0.264524  1
  Se  Se30  1  0.865951  0.062193  0.258367  1
  Se  Se31  1  0.133615  0.934606  0.740058  1
  Se  Se32  1  0.836397  0.343269  0.899848  1
  Se  Se33  1  0.336831  0.656475  0.600625  1
  Se  Se34  1  0.418878  0.425495  0.234160  1
  Se  Se35  1  0.163760  0.657841  0.100257  1
