# generated using pymatgen
data_Pa4Ni4SnHg
_symmetry_space_group_name_H-M   'P 1'
_cell_length_a   7.40467700
_cell_length_b   7.40467700
_cell_length_c   7.10566000
_cell_angle_alpha   90.00000000
_cell_angle_beta   90.00000000
_cell_angle_gamma   90.00000000
_symmetry_Int_Tables_number   1
_chemical_formula_structural   Pa4Ni4SnHg
_chemical_formula_sum   'Pa8 Ni8 Sn2 Hg2'
_cell_volume   389.59794797
_cell_formula_units_Z   2
loop_
 _symmetry_equiv_pos_site_id
 _symmetry_equiv_pos_as_xyz
  1  'x, y, z'
loop_
 _atom_site_type_symbol
 _atom_site_label
 _atom_site_symmetry_multiplicity
 _atom_site_fract_x
 _atom_site_fract_y
 _atom_site_fract_z
 _atom_site_occupancy
  Pa  Pa0  1  0.183861  0.179939  0.000000  1
  Pa  Pa1  1  0.679939  0.316139  0.500000  1
  Pa  Pa2  1  0.320061  0.683861  0.500000  1
  Pa  Pa3  1  0.816139  0.820061  0.000000  1
  Pa  Pa4  1  0.642125  0.360216  0.000000  1
  Pa  Pa5  1  0.860216  0.857875  0.500000  1
  Pa  Pa6  1  0.139784  0.142125  0.500000  1
  Pa  Pa7  1  0.357875  0.639784  0.000000  1
  Ni  Ni8  1  0.365445  0.371331  0.295763  1
  Ni  Ni9  1  0.871331  0.134555  0.795763  1
  Ni  Ni10  1  0.128669  0.865445  0.795763  1
  Ni  Ni11  1  0.634555  0.628669  0.295763  1
  Ni  Ni12  1  0.128669  0.865445  0.204237  1
  Ni  Ni13  1  0.871331  0.134555  0.204237  1
  Ni  Ni14  1  0.365445  0.371331  0.704237  1
  Ni  Ni15  1  0.634555  0.628669  0.704237  1
  Sn  Sn16  1  0.000000  0.500000  0.250000  1
  Sn  Sn17  1  0.000000  0.500000  0.750000  1
  Hg  Hg18  1  0.500000  0.000000  0.250000  1
  Hg  Hg19  1  0.500000  0.000000  0.750000  1
