# generated using pymatgen
data_Ti4V4SiP3
_symmetry_space_group_name_H-M   'P 1'
_cell_length_a   3.33385800
_cell_length_b   6.43046816
_cell_length_c   7.74863384
_cell_angle_alpha   89.81738636
_cell_angle_beta   90.00000000
_cell_angle_gamma   90.00000000
_symmetry_Int_Tables_number   1
_chemical_formula_structural   Ti4V4SiP3
_chemical_formula_sum   'Ti4 V4 Si1 P3'
_cell_volume   166.11644310
_cell_formula_units_Z   1
loop_
 _symmetry_equiv_pos_site_id
 _symmetry_equiv_pos_as_xyz
  1  'x, y, z'
loop_
 _atom_site_type_symbol
 _atom_site_label
 _atom_site_symmetry_multiplicity
 _atom_site_fract_x
 _atom_site_fract_y
 _atom_site_fract_z
 _atom_site_occupancy
  Ti  Ti0  1  0.250000  0.542631  0.169033  1
  Ti  Ti1  1  0.750000  0.451040  0.832055  1
  Ti  Ti2  1  0.750000  0.960423  0.663500  1
  Ti  Ti3  1  0.250000  0.041631  0.331724  1
  V  V4  1  0.250000  0.630673  0.556779  1
  V  V5  1  0.750000  0.365972  0.439345  1
  V  V6  1  0.750000  0.871092  0.064869  1
  V  V7  1  0.250000  0.136146  0.941125  1
  Si  Si8  1  0.250000  0.754383  0.860637  1
  P  P9  1  0.750000  0.246622  0.140516  1
  P  P10  1  0.750000  0.744244  0.360567  1
  P  P11  1  0.250000  0.255144  0.639851  1
