# generated using pymatgen
data_Eu2GaPdRh2
_symmetry_space_group_name_H-M   'P 1'
_cell_length_a   5.26499883
_cell_length_b   5.24925095
_cell_length_c   5.26499777
_cell_angle_alpha   65.55631014
_cell_angle_beta   65.27830631
_cell_angle_gamma   65.55630134
_symmetry_Int_Tables_number   1
_chemical_formula_structural   Eu2GaPdRh2
_chemical_formula_sum   'Eu2 Ga1 Pd1 Rh2'
_cell_volume   115.11519533
_cell_formula_units_Z   1
loop_
 _symmetry_equiv_pos_site_id
 _symmetry_equiv_pos_as_xyz
  1  'x, y, z'
loop_
 _atom_site_type_symbol
 _atom_site_label
 _atom_site_symmetry_multiplicity
 _atom_site_fract_x
 _atom_site_fract_y
 _atom_site_fract_z
 _atom_site_occupancy
  Eu  Eu0  1  0.123671  0.134499  0.123671  1
  Eu  Eu1  1  0.876329  0.865501  0.876329  1
  Ga  Ga2  1  0.500000  0.500000  0.500000  1
  Pd  Pd3  1  0.500000  0.000000  0.500000  1
  Rh  Rh4  1  0.000000  0.500000  0.500000  1
  Rh  Rh5  1  0.500000  0.500000  0.000000  1
