# generated using pymatgen
data_Tb15Ho(Ga3Fe)2
_symmetry_space_group_name_H-M   'P 1'
_cell_length_a   10.05758500
_cell_length_b   10.05758379
_cell_length_c   6.94121000
_cell_angle_alpha   90.00000000
_cell_angle_beta   90.00000000
_cell_angle_gamma   120.00000070
_symmetry_Int_Tables_number   1
_chemical_formula_structural   Tb15Ho(Ga3Fe)2
_chemical_formula_sum   'Tb15 Ho1 Ga6 Fe2'
_cell_volume   608.06944828
_cell_formula_units_Z   1
loop_
 _symmetry_equiv_pos_site_id
 _symmetry_equiv_pos_as_xyz
  1  'x, y, z'
loop_
 _atom_site_type_symbol
 _atom_site_label
 _atom_site_symmetry_multiplicity
 _atom_site_fract_x
 _atom_site_fract_y
 _atom_site_fract_z
 _atom_site_occupancy
  Tb  Tb0  1  0.172552  0.827448  0.510643  1
  Tb  Tb1  1  0.654895  0.827448  0.510643  1
  Tb  Tb2  1  0.172552  0.345105  0.510643  1
  Tb  Tb3  1  0.827380  0.172620  0.009743  1
  Tb  Tb4  1  0.345240  0.172620  0.009743  1
  Tb  Tb5  1  0.827380  0.654760  0.009743  1
  Tb  Tb6  1  0.333333  0.666667  0.829418  1
  Tb  Tb7  1  0.666667  0.333333  0.329891  1
  Tb  Tb8  1  0.462653  0.537347  0.207505  1
  Tb  Tb9  1  0.074693  0.537347  0.207505  1
  Tb  Tb10  1  0.462653  0.925307  0.207505  1
  Tb  Tb11  1  0.537350  0.462650  0.707638  1
  Tb  Tb12  1  0.925301  0.462650  0.707638  1
  Tb  Tb13  1  0.537350  0.074699  0.707638  1
  Tb  Tb14  1  0.000000  0.000000  0.229840  1
  Ho  Ho15  1  0.000000  0.000000  0.730720  1
  Ga  Ga16  1  0.163583  0.836417  0.958510  1
  Ga  Ga17  1  0.672832  0.836417  0.958510  1
  Ga  Ga18  1  0.163583  0.327168  0.958510  1
  Ga  Ga19  1  0.836406  0.163594  0.459545  1
  Ga  Ga20  1  0.327189  0.163594  0.459545  1
  Ga  Ga21  1  0.836406  0.672811  0.459545  1
  Fe  Fe22  1  0.333333  0.666667  0.446525  1
  Fe  Fe23  1  0.666667  0.333333  0.946889  1
