# generated using pymatgen
data_Tb6Sm2Re(B8Ru)3
_symmetry_space_group_name_H-M   'P 1'
_cell_length_a   3.70132700
_cell_length_b   9.20091405
_cell_length_c   11.59381729
_cell_angle_alpha   90.11551726
_cell_angle_beta   90.00000000
_cell_angle_gamma   90.00000000
_symmetry_Int_Tables_number   1
_chemical_formula_structural   Tb6Sm2Re(B8Ru)3
_chemical_formula_sum   'Tb6 Sm2 Re1 B24 Ru3'
_cell_volume   394.83350396
_cell_formula_units_Z   1
loop_
 _symmetry_equiv_pos_site_id
 _symmetry_equiv_pos_as_xyz
  1  'x, y, z'
loop_
 _atom_site_type_symbol
 _atom_site_label
 _atom_site_symmetry_multiplicity
 _atom_site_fract_x
 _atom_site_fract_y
 _atom_site_fract_z
 _atom_site_occupancy
  Tb  Tb0  1  0.000000  0.823510  0.083374  1
  Tb  Tb1  1  0.000000  0.175578  0.913608  1
  Tb  Tb2  1  0.000000  0.943049  0.370191  1
  Tb  Tb3  1  0.000000  0.056572  0.628435  1
  Tb  Tb4  1  0.000000  0.442490  0.128261  1
  Tb  Tb5  1  0.000000  0.556040  0.872893  1
  Sm  Sm6  1  0.000000  0.324135  0.414464  1
  Sm  Sm7  1  0.000000  0.678856  0.588107  1
  Re  Re8  1  0.000000  0.862980  0.822136  1
  B  B9  1  0.500000  0.555262  0.431586  1
  B  B10  1  0.500000  0.445118  0.568926  1
  B  B11  1  0.500000  0.053767  0.067647  1
  B  B12  1  0.500000  0.947035  0.933033  1
  B  B13  1  0.500000  0.748324  0.417983  1
  B  B14  1  0.500000  0.252087  0.581749  1
  B  B15  1  0.500000  0.247278  0.080659  1
  B  B16  1  0.500000  0.752219  0.919458  1
  B  B17  1  0.500000  0.790046  0.265818  1
  B  B18  1  0.500000  0.209394  0.733260  1
  B  B19  1  0.500000  0.289422  0.232460  1
  B  B20  1  0.500000  0.709604  0.767703  1
  B  B21  1  0.500000  0.631737  0.185270  1
  B  B22  1  0.500000  0.367399  0.814500  1
  B  B23  1  0.500000  0.131451  0.313539  1
  B  B24  1  0.500000  0.868983  0.686816  1
  B  B25  1  0.500000  0.984433  0.211947  1
  B  B26  1  0.500000  0.016906  0.787766  1
  B  B27  1  0.500000  0.485631  0.287182  1
  B  B28  1  0.500000  0.514457  0.713768  1
  B  B29  1  0.500000  0.607549  0.030651  1
  B  B30  1  0.500000  0.390176  0.970275  1
  B  B31  1  0.500000  0.106582  0.469841  1
  B  B32  1  0.500000  0.894303  0.528596  1
  Ru  Ru33  1  0.000000  0.638875  0.320000  1
  Ru  Ru34  1  0.000000  0.361341  0.679619  1
  Ru  Ru35  1  0.000000  0.137411  0.178481  1
