# generated using pymatgen
data_Dy4Mn8Fe9(P4W)3
_symmetry_space_group_name_H-M   'P 1'
_cell_length_a   3.67717900
_cell_length_b   10.49007346
_cell_length_c   12.20227824
_cell_angle_alpha   89.96222049
_cell_angle_beta   90.00000000
_cell_angle_gamma   90.00000000
_symmetry_Int_Tables_number   1
_chemical_formula_structural   Dy4Mn8Fe9(P4W)3
_chemical_formula_sum   'Dy4 Mn8 Fe9 P12 W3'
_cell_volume   470.68908761
_cell_formula_units_Z   1
loop_
 _symmetry_equiv_pos_site_id
 _symmetry_equiv_pos_as_xyz
  1  'x, y, z'
loop_
 _atom_site_type_symbol
 _atom_site_label
 _atom_site_symmetry_multiplicity
 _atom_site_fract_x
 _atom_site_fract_y
 _atom_site_fract_z
 _atom_site_occupancy
  Dy  Dy0  1  0.250000  0.578000  0.708593  1
  Dy  Dy1  1  0.250000  0.917779  0.211369  1
  Dy  Dy2  1  0.750000  0.418593  0.289556  1
  Dy  Dy3  1  0.750000  0.085660  0.789014  1
  Mn  Mn4  1  0.750000  0.204429  0.508027  1
  Mn  Mn5  1  0.250000  0.403046  0.493516  1
  Mn  Mn6  1  0.250000  0.094155  0.992219  1
  Mn  Mn7  1  0.750000  0.585571  0.508788  1
  Mn  Mn8  1  0.750000  0.908722  0.007454  1
  Mn  Mn9  1  0.250000  0.217664  0.176325  1
  Mn  Mn10  1  0.750000  0.783260  0.822377  1
  Mn  Mn11  1  0.750000  0.717884  0.324877  1
  Fe  Fe12  1  0.250000  0.277590  0.672695  1
  Fe  Fe13  1  0.250000  0.876840  0.698932  1
  Fe  Fe14  1  0.250000  0.623841  0.199131  1
  Fe  Fe15  1  0.750000  0.124771  0.302597  1
  Fe  Fe16  1  0.750000  0.378786  0.803027  1
  Fe  Fe17  1  0.250000  0.464390  0.935487  1
  Fe  Fe18  1  0.250000  0.040369  0.437031  1
  Fe  Fe19  1  0.750000  0.537618  0.065624  1
  Fe  Fe20  1  0.750000  0.965972  0.566256  1
  P  P21  1  0.250000  0.428362  0.113786  1
  P  P22  1  0.250000  0.076881  0.613449  1
  P  P23  1  0.750000  0.572136  0.886040  1
  P  P24  1  0.750000  0.929922  0.388155  1
  P  P25  1  0.250000  0.272050  0.859382  1
  P  P26  1  0.250000  0.233485  0.367755  1
  P  P27  1  0.750000  0.732909  0.134308  1
  P  P28  1  0.750000  0.767351  0.632402  1
  P  P29  1  0.250000  0.590260  0.385436  1
  P  P30  1  0.250000  0.909822  0.884120  1
  P  P31  1  0.750000  0.394489  0.618620  1
  P  P32  1  0.750000  0.092321  0.116865  1
  W  W33  1  0.250000  0.705611  0.988364  1
  W  W34  1  0.250000  0.794001  0.487536  1
  W  W35  1  0.750000  0.295463  0.010881  1
