# generated using pymatgen
data_U4Re5Si6MoRu
_symmetry_space_group_name_H-M   'P 1'
_cell_length_a   7.15828370
_cell_length_b   7.15828234
_cell_length_c   7.15828268
_cell_angle_alpha   109.32405404
_cell_angle_beta   109.32404840
_cell_angle_gamma   109.76595632
_symmetry_Int_Tables_number   1
_chemical_formula_structural   U4Re5Si6MoRu
_chemical_formula_sum   'U4 Re5 Si6 Mo1 Ru1'
_cell_volume   282.35539537
_cell_formula_units_Z   1
loop_
 _symmetry_equiv_pos_site_id
 _symmetry_equiv_pos_as_xyz
  1  'x, y, z'
loop_
 _atom_site_type_symbol
 _atom_site_label
 _atom_site_symmetry_multiplicity
 _atom_site_fract_x
 _atom_site_fract_y
 _atom_site_fract_z
 _atom_site_occupancy
  U  U0  1  0.498901  0.501099  0.500000  1
  U  U1  1  0.001099  0.998901  0.500000  1
  U  U2  1  0.498901  0.998901  0.997803  1
  U  U3  1  0.001099  0.501099  0.002197  1
  Re  Re4  1  0.500255  0.250311  0.750056  1
  Re  Re5  1  0.500255  0.750200  0.249944  1
  Re  Re6  1  0.249800  0.499745  0.750056  1
  Re  Re7  1  0.749689  0.499745  0.249944  1
  Re  Re8  1  0.250000  0.750000  0.500000  1
  Si  Si9  1  0.310904  0.310904  0.000000  1
  Si  Si10  1  0.999146  0.310788  0.311642  1
  Si  Si11  1  0.999146  0.687504  0.688358  1
  Si  Si12  1  0.689212  0.000854  0.688358  1
  Si  Si13  1  0.312496  0.000854  0.311642  1
  Si  Si14  1  0.689096  0.689096  0.000000  1
  Mo  Mo15  1  0.000000  0.000000  0.000000  1
  Ru  Ru16  1  0.750000  0.250000  0.500000  1
