# generated using pymatgen
data_Hf18TiRe6Si2Mo
_symmetry_space_group_name_H-M   'P 1'
_cell_length_a   8.59211004
_cell_length_b   8.59210954
_cell_length_c   8.65789505
_cell_angle_alpha   90.01048783
_cell_angle_beta   89.98951103
_cell_angle_gamma   120.05566194
_symmetry_Int_Tables_number   1
_chemical_formula_structural   Hf18TiRe6Si2Mo
_chemical_formula_sum   'Hf18 Ti1 Re6 Si2 Mo1'
_cell_volume   553.22106858
_cell_formula_units_Z   1
loop_
 _symmetry_equiv_pos_site_id
 _symmetry_equiv_pos_as_xyz
  1  'x, y, z'
loop_
 _atom_site_type_symbol
 _atom_site_label
 _atom_site_symmetry_multiplicity
 _atom_site_fract_x
 _atom_site_fract_y
 _atom_site_fract_z
 _atom_site_occupancy
  Hf  Hf0  1  0.196069  0.803931  0.453340  1
  Hf  Hf1  1  0.197145  0.393501  0.454245  1
  Hf  Hf2  1  0.606499  0.802855  0.454245  1
  Hf  Hf3  1  0.803547  0.196453  0.548122  1
  Hf  Hf4  1  0.804072  0.608414  0.547788  1
  Hf  Hf5  1  0.391586  0.195928  0.547788  1
  Hf  Hf6  1  0.805186  0.194814  0.950839  1
  Hf  Hf7  1  0.805323  0.610822  0.951561  1
  Hf  Hf8  1  0.389178  0.194677  0.951561  1
  Hf  Hf9  1  0.194932  0.805068  0.047527  1
  Hf  Hf10  1  0.195439  0.390262  0.046482  1
  Hf  Hf11  1  0.609738  0.804561  0.046482  1
  Hf  Hf12  1  0.539524  0.460476  0.249165  1
  Hf  Hf13  1  0.538494  0.078399  0.249095  1
  Hf  Hf14  1  0.921601  0.461506  0.249095  1
  Hf  Hf15  1  0.460515  0.539485  0.750831  1
  Hf  Hf16  1  0.460215  0.920860  0.750797  1
  Hf  Hf17  1  0.079140  0.539785  0.750797  1
  Ti  Ti18  1  0.000037  0.999963  0.500386  1
  Re  Re19  1  0.889741  0.778820  0.252079  1
  Re  Re20  1  0.221180  0.110259  0.252079  1
  Re  Re21  1  0.110185  0.889815  0.748143  1
  Re  Re22  1  0.110484  0.220382  0.748143  1
  Re  Re23  1  0.779618  0.889516  0.748143  1
  Re  Re24  1  0.000462  0.999538  0.999687  1
  Si  Si25  1  0.333086  0.666914  0.249211  1
  Si  Si26  1  0.666407  0.333593  0.750734  1
  Mo  Mo27  1  0.890597  0.109403  0.251634  1
