# generated using pymatgen
data_Sc8SiBBr12
_symmetry_space_group_name_H-M   'P 1'
_cell_length_a   3.77883200
_cell_length_b   12.50291250
_cell_length_c   13.20773324
_cell_angle_alpha   90.56579657
_cell_angle_beta   90.00000000
_cell_angle_gamma   90.00000000
_symmetry_Int_Tables_number   1
_chemical_formula_structural   Sc8SiBBr12
_chemical_formula_sum   'Sc8 Si1 B1 Br12'
_cell_volume   623.98749931
_cell_formula_units_Z   1
loop_
 _symmetry_equiv_pos_site_id
 _symmetry_equiv_pos_as_xyz
  1  'x, y, z'
loop_
 _atom_site_type_symbol
 _atom_site_label
 _atom_site_symmetry_multiplicity
 _atom_site_fract_x
 _atom_site_fract_y
 _atom_site_fract_z
 _atom_site_occupancy
  Sc  Sc0  1  0.500000  0.107840  0.356019  1
  Sc  Sc1  1  0.500000  0.892160  0.643981  1
  Sc  Sc2  1  0.500000  0.620217  0.160529  1
  Sc  Sc3  1  0.500000  0.379783  0.839471  1
  Sc  Sc4  1  0.000000  0.104345  0.570310  1
  Sc  Sc5  1  0.000000  0.895655  0.429690  1
  Sc  Sc6  1  0.000000  0.619747  0.919560  1
  Sc  Sc7  1  0.000000  0.380253  0.080440  1
  Si  Si8  1  0.500000  0.500000  0.000000  1
  B  B9  1  0.500000  0.000000  0.500000  1
  Br  Br10  1  0.500000  0.244869  0.165013  1
  Br  Br11  1  0.500000  0.755131  0.834987  1
  Br  Br12  1  0.500000  0.753054  0.339008  1
  Br  Br13  1  0.500000  0.246946  0.660992  1
  Br  Br14  1  0.000000  0.252275  0.416273  1
  Br  Br15  1  0.000000  0.747725  0.583727  1
  Br  Br16  1  0.000000  0.757241  0.087236  1
  Br  Br17  1  0.000000  0.242759  0.912764  1
  Br  Br18  1  0.000000  0.000306  0.246503  1
  Br  Br19  1  0.000000  0.999694  0.753497  1
  Br  Br20  1  0.000000  0.502506  0.259852  1
  Br  Br21  1  0.000000  0.497494  0.740148  1
