# generated using pymatgen
data_NaMn7AlO16
_symmetry_space_group_name_H-M   'P 1'
_cell_length_a   5.85637212
_cell_length_b   6.98223678
_cell_length_c   7.09199400
_cell_angle_alpha   88.70743102
_cell_angle_beta   78.31152810
_cell_angle_gamma   77.73370543
_symmetry_Int_Tables_number   1
_chemical_formula_structural   NaMn7AlO16
_chemical_formula_sum   'Na1 Mn7 Al1 O16'
_cell_volume   277.43556100
_cell_formula_units_Z   1
loop_
 _symmetry_equiv_pos_site_id
 _symmetry_equiv_pos_as_xyz
  1  'x, y, z'
loop_
 _atom_site_type_symbol
 _atom_site_label
 _atom_site_symmetry_multiplicity
 _atom_site_fract_x
 _atom_site_fract_y
 _atom_site_fract_z
 _atom_site_occupancy
  Na  Na0  1  0.993500  0.979050  0.997638  1
  Mn  Mn1  1  0.081738  0.509577  0.181424  1
  Mn  Mn2  1  0.173379  0.817296  0.517173  1
  Mn  Mn3  1  0.668041  0.818805  0.521224  1
  Mn  Mn4  1  0.339482  0.185397  0.474002  1
  Mn  Mn5  1  0.839516  0.184705  0.478755  1
  Mn  Mn6  1  0.429086  0.485768  0.822751  1
  Mn  Mn7  1  0.925490  0.489899  0.822268  1
  Al  Al8  1  0.580430  0.516360  0.183913  1
  O  O9  1  0.833202  0.647024  0.054440  1
  O  O10  1  0.325584  0.644434  0.054370  1
  O  O11  1  0.981664  0.701007  0.385734  1
  O  O12  1  0.485358  0.699419  0.385964  1
  O  O13  1  0.857242  0.958691  0.646336  1
  O  O14  1  0.351381  0.960601  0.644444  1
  O  O15  1  0.346233  0.373502  0.284340  1
  O  O16  1  0.837068  0.369694  0.282590  1
  O  O17  1  0.167279  0.634285  0.719801  1
  O  O18  1  0.664548  0.632964  0.720463  1
  O  O19  1  0.154013  0.042008  0.350179  1
  O  O20  1  0.658618  0.040880  0.352152  1
  O  O21  1  0.027663  0.300483  0.612887  1
  O  O22  1  0.526000  0.299752  0.612420  1
  O  O23  1  0.178319  0.351006  0.946954  1
  O  O24  1  0.682266  0.357395  0.947774  1
