# generated using pymatgen
data_Tm2TaB2Ru5
_symmetry_space_group_name_H-M   'P 1'
_cell_length_a   9.62851200
_cell_length_b   9.62851200
_cell_length_c   3.11617400
_cell_angle_alpha   90.00000000
_cell_angle_beta   90.00000000
_cell_angle_gamma   90.00000000
_symmetry_Int_Tables_number   1
_chemical_formula_structural   Tm2TaB2Ru5
_chemical_formula_sum   'Tm4 Ta2 B4 Ru10'
_cell_volume   288.89501746
_cell_formula_units_Z   2
loop_
 _symmetry_equiv_pos_site_id
 _symmetry_equiv_pos_as_xyz
  1  'x, y, z'
loop_
 _atom_site_type_symbol
 _atom_site_label
 _atom_site_symmetry_multiplicity
 _atom_site_fract_x
 _atom_site_fract_y
 _atom_site_fract_z
 _atom_site_occupancy
  Tm  Tm0  1  0.825282  0.674718  0.000000  1
  Tm  Tm1  1  0.174718  0.325282  0.000000  1
  Tm  Tm2  1  0.325282  0.825282  0.000000  1
  Tm  Tm3  1  0.674718  0.174718  0.000000  1
  Ta  Ta4  1  0.500000  0.500000  0.000000  1
  Ta  Ta5  1  0.000000  0.000000  0.000000  1
  B  B6  1  0.620090  0.879910  0.000000  1
  B  B7  1  0.379910  0.120090  0.000000  1
  B  B8  1  0.120090  0.620090  0.000000  1
  B  B9  1  0.879910  0.379910  0.000000  1
  Ru  Ru10  1  0.571126  0.718078  0.500000  1
  Ru  Ru11  1  0.428874  0.281922  0.500000  1
  Ru  Ru12  1  0.071126  0.781922  0.500000  1
  Ru  Ru13  1  0.928874  0.218078  0.500000  1
  Ru  Ru14  1  0.281922  0.571126  0.500000  1
  Ru  Ru15  1  0.718078  0.428874  0.500000  1
  Ru  Ru16  1  0.218078  0.071126  0.500000  1
  Ru  Ru17  1  0.781922  0.928874  0.500000  1
  Ru  Ru18  1  0.500000  0.000000  0.500000  1
  Ru  Ru19  1  0.000000  0.500000  0.500000  1
