# generated using pymatgen
data_HoPu3(Co5P3)4
_symmetry_space_group_name_H-M   'P 1'
_cell_length_a   3.64070700
_cell_length_b   10.30475245
_cell_length_c   11.73550832
_cell_angle_alpha   90.08257196
_cell_angle_beta   90.00000000
_cell_angle_gamma   90.00000000
_symmetry_Int_Tables_number   1
_chemical_formula_structural   HoPu3(Co5P3)4
_chemical_formula_sum   'Ho1 Pu3 Co20 P12'
_cell_volume   440.27573071
_cell_formula_units_Z   1
loop_
 _symmetry_equiv_pos_site_id
 _symmetry_equiv_pos_as_xyz
  1  'x, y, z'
loop_
 _atom_site_type_symbol
 _atom_site_label
 _atom_site_symmetry_multiplicity
 _atom_site_fract_x
 _atom_site_fract_y
 _atom_site_fract_z
 _atom_site_occupancy
  Ho  Ho0  1  0.750000  0.082530  0.797149  1
  Pu  Pu1  1  0.250000  0.585288  0.703011  1
  Pu  Pu2  1  0.250000  0.915845  0.202583  1
  Pu  Pu3  1  0.750000  0.415347  0.297148  1
  Co  Co4  1  0.250000  0.715663  0.989036  1
  Co  Co5  1  0.250000  0.785132  0.488944  1
  Co  Co6  1  0.750000  0.284916  0.011088  1
  Co  Co7  1  0.750000  0.214724  0.510318  1
  Co  Co8  1  0.250000  0.407997  0.489102  1
  Co  Co9  1  0.250000  0.091935  0.986507  1
  Co  Co10  1  0.750000  0.592444  0.511360  1
  Co  Co11  1  0.750000  0.907754  0.013629  1
  Co  Co12  1  0.250000  0.217789  0.176226  1
  Co  Co13  1  0.250000  0.278651  0.677121  1
  Co  Co14  1  0.750000  0.781949  0.824178  1
  Co  Co15  1  0.750000  0.720454  0.324130  1
  Co  Co16  1  0.250000  0.883675  0.698102  1
  Co  Co17  1  0.250000  0.620641  0.197774  1
  Co  Co18  1  0.750000  0.116980  0.301517  1
  Co  Co19  1  0.750000  0.379222  0.803236  1
  Co  Co20  1  0.250000  0.465967  0.931912  1
  Co  Co21  1  0.250000  0.032714  0.431664  1
  Co  Co22  1  0.750000  0.533764  0.066899  1
  Co  Co23  1  0.750000  0.968194  0.567550  1
  P  P24  1  0.250000  0.418315  0.112925  1
  P  P25  1  0.250000  0.081914  0.612738  1
  P  P26  1  0.750000  0.581219  0.886651  1
  P  P27  1  0.750000  0.918398  0.386967  1
  P  P28  1  0.250000  0.269451  0.870695  1
  P  P29  1  0.250000  0.229633  0.370384  1
  P  P30  1  0.750000  0.729629  0.130540  1
  P  P31  1  0.750000  0.772513  0.629348  1
  P  P32  1  0.250000  0.602207  0.390154  1
  P  P33  1  0.250000  0.898014  0.890545  1
  P  P34  1  0.750000  0.396496  0.609940  1
  P  P35  1  0.750000  0.102637  0.108929  1
