# generated using pymatgen
data_Ba2NaSrBi5Sb
_symmetry_space_group_name_H-M   'P 1'
_cell_length_a   6.99088805
_cell_length_b   7.00181363
_cell_length_c   14.96979622
_cell_angle_alpha   89.88424049
_cell_angle_beta   89.89287316
_cell_angle_gamma   86.74547568
_symmetry_Int_Tables_number   1
_chemical_formula_structural   Ba2NaSrBi5Sb
_chemical_formula_sum   'Ba4 Na2 Sr2 Bi10 Sb2'
_cell_volume   731.57057023
_cell_formula_units_Z   2
loop_
 _symmetry_equiv_pos_site_id
 _symmetry_equiv_pos_as_xyz
  1  'x, y, z'
loop_
 _atom_site_type_symbol
 _atom_site_label
 _atom_site_symmetry_multiplicity
 _atom_site_fract_x
 _atom_site_fract_y
 _atom_site_fract_z
 _atom_site_occupancy
  Ba  Ba0  1  0.515299  0.515429  0.225239  1
  Ba  Ba1  1  0.484701  0.484571  0.774761  1
  Ba  Ba2  1  0.981819  0.981678  0.225969  1
  Ba  Ba3  1  0.018181  0.018322  0.774031  1
  Na  Na4  1  0.755685  0.744514  0.001165  1
  Na  Na5  1  0.244315  0.255486  0.998835  1
  Sr  Sr6  1  0.750040  0.251091  0.501342  1
  Sr  Sr7  1  0.249960  0.748909  0.498658  1
  Bi  Bi8  1  0.747771  0.751786  0.438588  1
  Bi  Bi9  1  0.252229  0.248214  0.561412  1
  Bi  Bi10  1  0.753254  0.252663  0.011313  1
  Bi  Bi11  1  0.246746  0.747337  0.988687  1
  Bi  Bi12  1  0.064984  0.429853  0.346568  1
  Bi  Bi13  1  0.428735  0.073434  0.349085  1
  Bi  Bi14  1  0.935016  0.570147  0.653432  1
  Bi  Bi15  1  0.571265  0.926566  0.650915  1
  Bi  Bi16  1  0.486194  0.004022  0.141722  1
  Bi  Bi17  1  0.513806  0.995978  0.858278  1
  Sb  Sb18  1  0.009675  0.494915  0.145502  1
  Sb  Sb19  1  0.990325  0.505085  0.854498  1
