# generated using pymatgen
data_Mg3(P3Pd10)2
_symmetry_space_group_name_H-M   'P 1'
_cell_length_a   8.57621024
_cell_length_b   8.57621001
_cell_length_c   8.57621000
_cell_angle_alpha   60.00000002
_cell_angle_beta   60.00000091
_cell_angle_gamma   59.99999749
_symmetry_Int_Tables_number   1
_chemical_formula_structural   Mg3(P3Pd10)2
_chemical_formula_sum   'Mg3 P6 Pd20'
_cell_volume   446.03735267
_cell_formula_units_Z   1
loop_
 _symmetry_equiv_pos_site_id
 _symmetry_equiv_pos_as_xyz
  1  'x, y, z'
loop_
 _atom_site_type_symbol
 _atom_site_label
 _atom_site_symmetry_multiplicity
 _atom_site_fract_x
 _atom_site_fract_y
 _atom_site_fract_z
 _atom_site_occupancy
  Mg  Mg0  1  0.250000  0.250000  0.250000  1
  Mg  Mg1  1  0.750000  0.750000  0.750000  1
  Mg  Mg2  1  0.000000  0.000000  0.000000  1
  P  P3  1  0.734201  0.734201  0.265799  1
  P  P4  1  0.265799  0.265799  0.734201  1
  P  P5  1  0.265799  0.734201  0.734201  1
  P  P6  1  0.734201  0.265799  0.734201  1
  P  P7  1  0.265799  0.734201  0.265799  1
  P  P8  1  0.734201  0.265799  0.265799  1
  Pd  Pd9  1  0.617978  0.617978  0.617978  1
  Pd  Pd10  1  0.382022  0.853934  0.382022  1
  Pd  Pd11  1  0.657574  0.342426  0.000000  1
  Pd  Pd12  1  0.000000  0.342426  0.657574  1
  Pd  Pd13  1  0.657574  0.000000  0.000000  1
  Pd  Pd14  1  0.617978  0.617978  0.146066  1
  Pd  Pd15  1  0.000000  0.000000  0.657574  1
  Pd  Pd16  1  0.000000  0.342426  0.000000  1
  Pd  Pd17  1  0.657574  0.000000  0.342426  1
  Pd  Pd18  1  0.342426  0.000000  0.000000  1
  Pd  Pd19  1  0.000000  0.657574  0.000000  1
  Pd  Pd20  1  0.342426  0.000000  0.657574  1
  Pd  Pd21  1  0.000000  0.657574  0.342426  1
  Pd  Pd22  1  0.342426  0.657574  0.000000  1
  Pd  Pd23  1  0.146066  0.617978  0.617978  1
  Pd  Pd24  1  0.382022  0.382022  0.382022  1
  Pd  Pd25  1  0.853934  0.382022  0.382022  1
  Pd  Pd26  1  0.382022  0.382022  0.853934  1
  Pd  Pd27  1  0.617978  0.146066  0.617978  1
  Pd  Pd28  1  0.000000  0.000000  0.342426  1
