# generated using pymatgen
data_NaIrRh3Se8
_symmetry_space_group_name_H-M   'P 1'
_cell_length_a   3.79842944
_cell_length_b   8.18948705
_cell_length_c   9.42100531
_cell_angle_alpha   77.93813752
_cell_angle_beta   78.36983673
_cell_angle_gamma   76.59051790
_symmetry_Int_Tables_number   1
_chemical_formula_structural   NaIrRh3Se8
_chemical_formula_sum   'Na1 Ir1 Rh3 Se8'
_cell_volume   275.14195206
_cell_formula_units_Z   1
loop_
 _symmetry_equiv_pos_site_id
 _symmetry_equiv_pos_as_xyz
  1  'x, y, z'
loop_
 _atom_site_type_symbol
 _atom_site_label
 _atom_site_symmetry_multiplicity
 _atom_site_fract_x
 _atom_site_fract_y
 _atom_site_fract_z
 _atom_site_occupancy
  Na  Na0  1  0.500752  0.999288  0.999206  1
  Ir  Ir1  1  0.632712  0.193176  0.541400  1
  Rh  Rh2  1  0.841368  0.493958  0.823303  1
  Rh  Rh3  1  0.159162  0.504834  0.176842  1
  Rh  Rh4  1  0.367240  0.808916  0.456603  1
  Se  Se5  1  0.459284  0.302219  0.779214  1
  Se  Se6  1  0.541660  0.696866  0.219813  1
  Se  Se7  1  0.900431  0.632569  0.566569  1
  Se  Se8  1  0.098551  0.368267  0.434632  1
  Se  Se9  1  0.215701  0.657330  0.911268  1
  Se  Se10  1  0.784309  0.340912  0.090471  1
  Se  Se11  1  0.822198  0.003495  0.352109  1
  Se  Se12  1  0.176631  0.998170  0.648567  1
