# generated using pymatgen
data_Nd2YAlC3
_symmetry_space_group_name_H-M   'P 1'
_cell_length_a   3.70649900
_cell_length_b   7.39826376
_cell_length_c   10.06526154
_cell_angle_alpha   89.32284483
_cell_angle_beta   90.00000000
_cell_angle_gamma   90.00000000
_symmetry_Int_Tables_number   1
_chemical_formula_structural   Nd2YAlC3
_chemical_formula_sum   'Nd4 Y2 Al2 C6'
_cell_volume   275.98687599
_cell_formula_units_Z   2
loop_
 _symmetry_equiv_pos_site_id
 _symmetry_equiv_pos_as_xyz
  1  'x, y, z'
loop_
 _atom_site_type_symbol
 _atom_site_label
 _atom_site_symmetry_multiplicity
 _atom_site_fract_x
 _atom_site_fract_y
 _atom_site_fract_z
 _atom_site_occupancy
  Nd  Nd0  1  0.500000  0.515147  0.190960  1
  Nd  Nd1  1  0.500000  0.484853  0.809040  1
  Nd  Nd2  1  0.000000  0.750582  0.461546  1
  Nd  Nd3  1  0.000000  0.249418  0.538454  1
  Y  Y4  1  0.500000  0.986816  0.200178  1
  Y  Y5  1  0.500000  0.013184  0.799822  1
  Al  Al6  1  0.000000  0.778230  0.006178  1
  Al  Al7  1  0.000000  0.221770  0.993822  1
  C  C8  1  0.500000  0.506021  0.565331  1
  C  C9  1  0.500000  0.493979  0.434669  1
  C  C10  1  0.500000  0.992686  0.565319  1
  C  C11  1  0.500000  0.007314  0.434681  1
  C  C12  1  0.000000  0.759357  0.206552  1
  C  C13  1  0.000000  0.240643  0.793448  1
