# generated using pymatgen
data_Er11Tm5(ScBi3)4
_symmetry_space_group_name_H-M   'P 1'
_cell_length_a   8.06326825
_cell_length_b   9.33918451
_cell_length_c   11.86708600
_cell_angle_alpha   89.99420857
_cell_angle_beta   89.93462684
_cell_angle_gamma   89.98188292
_symmetry_Int_Tables_number   1
_chemical_formula_structural   Er11Tm5(ScBi3)4
_chemical_formula_sum   'Er11 Tm5 Sc4 Bi12'
_cell_volume   893.64256626
_cell_formula_units_Z   1
loop_
 _symmetry_equiv_pos_site_id
 _symmetry_equiv_pos_as_xyz
  1  'x, y, z'
loop_
 _atom_site_type_symbol
 _atom_site_label
 _atom_site_symmetry_multiplicity
 _atom_site_fract_x
 _atom_site_fract_y
 _atom_site_fract_z
 _atom_site_occupancy
  Er  Er0  1  0.355138  0.249918  0.283651  1
  Er  Er1  1  0.644856  0.749631  0.716353  1
  Er  Er2  1  0.144838  0.749735  0.783471  1
  Er  Er3  1  0.854955  0.250051  0.216528  1
  Er  Er4  1  0.185832  0.250028  0.781217  1
  Er  Er5  1  0.814213  0.749768  0.218826  1
  Er  Er6  1  0.314055  0.749838  0.281314  1
  Er  Er7  1  0.685810  0.249942  0.718657  1
  Er  Er8  1  0.194524  0.065856  0.058684  1
  Er  Er9  1  0.805410  0.934189  0.941312  1
  Er  Er10  1  0.305053  0.934075  0.558653  1
  Tm  Tm11  1  0.804055  0.567076  0.941119  1
  Tm  Tm12  1  0.695296  0.066843  0.441228  1
  Tm  Tm13  1  0.195834  0.432864  0.058997  1
  Tm  Tm14  1  0.695887  0.433282  0.441145  1
  Tm  Tm15  1  0.304314  0.567204  0.558785  1
  Sc  Sc16  1  0.023821  0.249495  0.512282  1
  Sc  Sc17  1  0.975930  0.750228  0.487765  1
  Sc  Sc18  1  0.476051  0.750315  0.012528  1
  Sc  Sc19  1  0.523802  0.249496  0.987666  1
  Bi  Bi20  1  0.401217  0.251367  0.542866  1
  Bi  Bi21  1  0.599454  0.749724  0.456771  1
  Bi  Bi22  1  0.098931  0.748312  0.042868  1
  Bi  Bi23  1  0.900915  0.251737  0.957086  1
  Bi  Bi24  1  0.065756  0.003838  0.330586  1
  Bi  Bi25  1  0.933896  0.995770  0.669375  1
  Bi  Bi26  1  0.434022  0.996047  0.830205  1
  Bi  Bi27  1  0.934182  0.503995  0.669409  1
  Bi  Bi28  1  0.566161  0.003853  0.169802  1
  Bi  Bi29  1  0.065692  0.495780  0.330701  1
  Bi  Bi30  1  0.565734  0.495889  0.169688  1
  Bi  Bi31  1  0.434366  0.503853  0.830465  1
