# generated using pymatgen
data_La19YbInSi11
_symmetry_space_group_name_H-M   'P 1'
_cell_length_a   7.89577800
_cell_length_b   7.89577800
_cell_length_c   14.56166100
_cell_angle_alpha   90.00000000
_cell_angle_beta   90.00000000
_cell_angle_gamma   90.00000000
_symmetry_Int_Tables_number   1
_chemical_formula_structural   La19YbInSi11
_chemical_formula_sum   'La19 Yb1 In1 Si11'
_cell_volume   907.82214912
_cell_formula_units_Z   1
loop_
 _symmetry_equiv_pos_site_id
 _symmetry_equiv_pos_as_xyz
  1  'x, y, z'
loop_
 _atom_site_type_symbol
 _atom_site_label
 _atom_site_symmetry_multiplicity
 _atom_site_fract_x
 _atom_site_fract_y
 _atom_site_fract_z
 _atom_site_occupancy
  La  La0  1  0.500000  0.000000  0.781119  1
  La  La1  1  0.324168  0.315829  0.103658  1
  La  La2  1  0.828482  0.812756  0.895789  1
  La  La3  1  0.821579  0.175950  0.389530  1
  La  La4  1  0.171518  0.187244  0.895789  1
  La  La5  1  0.675832  0.684171  0.103658  1
  La  La6  1  0.000000  0.500000  0.727228  1
  La  La7  1  0.809310  0.836363  0.609451  1
  La  La8  1  0.324050  0.321579  0.389530  1
  La  La9  1  0.184171  0.824168  0.103658  1
  La  La10  1  0.190690  0.163637  0.609451  1
  La  La11  1  0.815829  0.175832  0.103658  1
  La  La12  1  0.336363  0.690690  0.609451  1
  La  La13  1  0.500000  0.000000  0.268930  1
  La  La14  1  0.687244  0.328482  0.895789  1
  La  La15  1  0.663637  0.309310  0.609451  1
  La  La16  1  0.312756  0.671518  0.895789  1
  La  La17  1  0.178421  0.824050  0.389530  1
  La  La18  1  0.675950  0.678421  0.389530  1
  Yb  Yb19  1  0.000000  0.500000  0.239637  1
  In  In20  1  0.000000  0.500000  0.499174  1
  Si  Si21  1  0.611169  0.387576  0.245502  1
  Si  Si22  1  0.887244  0.113278  0.752820  1
  Si  Si23  1  0.500000  0.000000  0.490743  1
  Si  Si24  1  0.887576  0.888831  0.245502  1
  Si  Si25  1  0.000000  0.500000  0.008871  1
  Si  Si26  1  0.112756  0.886722  0.752820  1
  Si  Si27  1  0.386722  0.387244  0.752820  1
  Si  Si28  1  0.112424  0.111169  0.245502  1
  Si  Si29  1  0.388831  0.612424  0.245502  1
  Si  Si30  1  0.613278  0.612756  0.752820  1
  Si  Si31  1  0.500000  0.000000  0.997288  1
