# generated using pymatgen
data_TbHo(ZrSn)3
_symmetry_space_group_name_H-M   'P 1'
_cell_length_a   8.70844291
_cell_length_b   8.81804284
_cell_length_c   6.01161800
_cell_angle_alpha   90.00000000
_cell_angle_beta   90.00000000
_cell_angle_gamma   120.41720700
_symmetry_Int_Tables_number   1
_chemical_formula_structural   TbHo(ZrSn)3
_chemical_formula_sum   'Tb2 Ho2 Zr6 Sn6'
_cell_volume   398.10123879
_cell_formula_units_Z   2
loop_
 _symmetry_equiv_pos_site_id
 _symmetry_equiv_pos_as_xyz
  1  'x, y, z'
loop_
 _atom_site_type_symbol
 _atom_site_label
 _atom_site_symmetry_multiplicity
 _atom_site_fract_x
 _atom_site_fract_y
 _atom_site_fract_z
 _atom_site_occupancy
  Tb  Tb0  1  0.761772  0.761558  0.250000  1
  Tb  Tb1  1  0.761772  0.000214  0.750000  1
  Ho  Ho2  1  0.238558  0.238732  0.750000  1
  Ho  Ho3  1  0.238558  0.999826  0.250000  1
  Zr  Zr4  1  0.000266  0.745345  0.750000  1
  Zr  Zr5  1  0.000266  0.254921  0.250000  1
  Zr  Zr6  1  0.333037  0.666519  0.500000  1
  Zr  Zr7  1  0.666825  0.333412  0.000000  1
  Zr  Zr8  1  0.666825  0.333412  0.500000  1
  Zr  Zr9  1  0.333037  0.666519  0.000000  1
  Sn  Sn10  1  0.392422  0.995864  0.750000  1
  Sn  Sn11  1  0.392422  0.396559  0.250000  1
  Sn  Sn12  1  0.000243  0.600614  0.250000  1
  Sn  Sn13  1  0.000243  0.399628  0.750000  1
  Sn  Sn14  1  0.606877  0.602133  0.750000  1
  Sn  Sn15  1  0.606877  0.004744  0.250000  1
