# generated using pymatgen
data_Y16HoTm3Pb16
_symmetry_space_group_name_H-M   'P 1'
_cell_length_a   8.20218301
_cell_length_b   8.27498226
_cell_length_c   15.66914000
_cell_angle_alpha   90.00000000
_cell_angle_beta   90.00000000
_cell_angle_gamma   90.01728673
_symmetry_Int_Tables_number   1
_chemical_formula_structural   Y16HoTm3Pb16
_chemical_formula_sum   'Y16 Ho1 Tm3 Pb16'
_cell_volume   1063.51022035
_cell_formula_units_Z   1
loop_
 _symmetry_equiv_pos_site_id
 _symmetry_equiv_pos_as_xyz
  1  'x, y, z'
loop_
 _atom_site_type_symbol
 _atom_site_label
 _atom_site_symmetry_multiplicity
 _atom_site_fract_x
 _atom_site_fract_y
 _atom_site_fract_z
 _atom_site_occupancy
  Y  Y0  1  0.377369  0.841275  0.879001  1
  Y  Y1  1  0.877007  0.658978  0.620984  1
  Y  Y2  1  0.622780  0.158826  0.378982  1
  Y  Y3  1  0.122765  0.341182  0.121076  1
  Y  Y4  1  0.622780  0.158826  0.121018  1
  Y  Y5  1  0.122765  0.341182  0.378924  1
  Y  Y6  1  0.377369  0.841275  0.620999  1
  Y  Y7  1  0.877007  0.658978  0.879016  1
  Y  Y8  1  0.536664  0.323443  0.900054  1
  Y  Y9  1  0.036467  0.176314  0.599958  1
  Y  Y10  1  0.463422  0.676466  0.399997  1
  Y  Y11  1  0.963446  0.823542  0.099953  1
  Y  Y12  1  0.463422  0.676466  0.100003  1
  Y  Y13  1  0.963446  0.823542  0.400047  1
  Y  Y14  1  0.536664  0.323443  0.599946  1
  Y  Y15  1  0.036467  0.176314  0.900042  1
  Ho  Ho16  1  0.208770  0.504009  0.750000  1
  Tm  Tm17  1  0.708903  0.995828  0.750000  1
  Tm  Tm18  1  0.791129  0.495855  0.250000  1
  Tm  Tm19  1  0.291134  0.004103  0.250000  1
  Pb  Pb20  1  0.280732  0.032432  0.042973  1
  Pb  Pb21  1  0.780760  0.467612  0.457026  1
  Pb  Pb22  1  0.719238  0.967582  0.542925  1
  Pb  Pb23  1  0.219264  0.532484  0.957304  1
  Pb  Pb24  1  0.719238  0.967582  0.957075  1
  Pb  Pb25  1  0.219264  0.532484  0.542696  1
  Pb  Pb26  1  0.280732  0.032432  0.457027  1
  Pb  Pb27  1  0.780760  0.467612  0.042974  1
  Pb  Pb28  1  0.572032  0.626418  0.750000  1
  Pb  Pb29  1  0.071340  0.874159  0.750000  1
  Pb  Pb30  1  0.428576  0.373778  0.250000  1
  Pb  Pb31  1  0.928562  0.126186  0.250000  1
  Pb  Pb32  1  0.348446  0.153627  0.750000  1
  Pb  Pb33  1  0.848029  0.345610  0.750000  1
  Pb  Pb34  1  0.651635  0.845755  0.250000  1
  Pb  Pb35  1  0.151620  0.654396  0.250000  1
