# generated using pymatgen
data_Tb3Sm3Mg2(Co4P3)4
_symmetry_space_group_name_H-M   'P 1'
_cell_length_a   3.75507800
_cell_length_b   10.67494811
_cell_length_c   12.35646012
_cell_angle_alpha   90.01623070
_cell_angle_beta   90.00000000
_cell_angle_gamma   90.00000000
_symmetry_Int_Tables_number   1
_chemical_formula_structural   Tb3Sm3Mg2(Co4P3)4
_chemical_formula_sum   'Tb3 Sm3 Mg2 Co16 P12'
_cell_volume   495.31193132
_cell_formula_units_Z   1
loop_
 _symmetry_equiv_pos_site_id
 _symmetry_equiv_pos_as_xyz
  1  'x, y, z'
loop_
 _atom_site_type_symbol
 _atom_site_label
 _atom_site_symmetry_multiplicity
 _atom_site_fract_x
 _atom_site_fract_y
 _atom_site_fract_z
 _atom_site_occupancy
  Tb  Tb0  1  0.500000  0.178565  0.205992  1
  Tb  Tb1  1  0.000000  0.677980  0.794091  1
  Tb  Tb2  1  0.000000  0.321937  0.793817  1
  Sm  Sm3  1  0.000000  0.499901  0.526315  1
  Sm  Sm4  1  0.500000  0.000225  0.474059  1
  Sm  Sm5  1  0.500000  0.821988  0.206233  1
  Mg  Mg6  1  0.500000  0.499701  0.155394  1
  Mg  Mg7  1  0.000000  0.000026  0.844528  1
  Co  Co8  1  0.500000  0.499855  0.707300  1
  Co  Co9  1  0.000000  0.001691  0.293114  1
  Co  Co10  1  0.000000  0.499368  0.988533  1
  Co  Co11  1  0.500000  0.000642  0.010339  1
  Co  Co12  1  0.500000  0.332468  0.996733  1
  Co  Co13  1  0.500000  0.666933  0.996122  1
  Co  Co14  1  0.000000  0.168114  0.002747  1
  Co  Co15  1  0.000000  0.832493  0.002376  1
  Co  Co16  1  0.500000  0.296261  0.431581  1
  Co  Co17  1  0.500000  0.703397  0.432479  1
  Co  Co18  1  0.000000  0.203933  0.568560  1
  Co  Co19  1  0.000000  0.796149  0.569201  1
  Co  Co20  1  0.500000  0.878280  0.706390  1
  Co  Co21  1  0.500000  0.121740  0.706265  1
  Co  Co22  1  0.000000  0.620580  0.294663  1
  Co  Co23  1  0.000000  0.378058  0.293630  1
  P  P24  1  0.500000  0.499656  0.886058  1
  P  P25  1  0.000000  0.001346  0.112834  1
  P  P26  1  0.500000  0.500009  0.353268  1
  P  P27  1  0.000000  0.000045  0.646904  1
  P  P28  1  0.500000  0.307190  0.615591  1
  P  P29  1  0.500000  0.692572  0.616085  1
  P  P30  1  0.000000  0.193057  0.384476  1
  P  P31  1  0.000000  0.806648  0.386103  1
  P  P32  1  0.500000  0.839142  0.893772  1
  P  P33  1  0.500000  0.161105  0.893498  1
  P  P34  1  0.000000  0.659749  0.104789  1
  P  P35  1  0.000000  0.339198  0.106159  1
