# generated using pymatgen
data_Ba3LuRhO6
_symmetry_space_group_name_H-M   'P 1'
_cell_length_a   7.13157622
_cell_length_b   7.13157620
_cell_length_c   7.13157595
_cell_angle_alpha   93.53161692
_cell_angle_beta   93.53161677
_cell_angle_gamma   93.53161211
_symmetry_Int_Tables_number   1
_chemical_formula_structural   Ba3LuRhO6
_chemical_formula_sum   'Ba6 Lu2 Rh2 O12'
_cell_volume   360.55191638
_cell_formula_units_Z   2
loop_
 _symmetry_equiv_pos_site_id
 _symmetry_equiv_pos_as_xyz
  1  'x, y, z'
loop_
 _atom_site_type_symbol
 _atom_site_label
 _atom_site_symmetry_multiplicity
 _atom_site_fract_x
 _atom_site_fract_y
 _atom_site_fract_z
 _atom_site_occupancy
  Ba  Ba0  1  0.617097  0.250000  0.882903  1
  Ba  Ba1  1  0.882903  0.617097  0.250000  1
  Ba  Ba2  1  0.750000  0.117097  0.382903  1
  Ba  Ba3  1  0.382903  0.750000  0.117097  1
  Ba  Ba4  1  0.117097  0.382903  0.750000  1
  Ba  Ba5  1  0.250000  0.882903  0.617097  1
  Lu  Lu6  1  0.250000  0.250000  0.250000  1
  Lu  Lu7  1  0.750000  0.750000  0.750000  1
  Rh  Rh8  1  0.000000  0.000000  0.000000  1
  Rh  Rh9  1  0.500000  0.500000  0.500000  1
  O  O10  1  0.597358  0.783772  0.470109  1
  O  O11  1  0.470109  0.597358  0.783772  1
  O  O12  1  0.783772  0.470109  0.597358  1
  O  O13  1  0.902642  0.029891  0.716228  1
  O  O14  1  0.716228  0.902642  0.029891  1
  O  O15  1  0.029891  0.716228  0.902642  1
  O  O16  1  0.402642  0.216228  0.529891  1
  O  O17  1  0.529891  0.402642  0.216228  1
  O  O18  1  0.216228  0.529891  0.402642  1
  O  O19  1  0.097358  0.970109  0.283772  1
  O  O20  1  0.970109  0.283772  0.097358  1
  O  O21  1  0.283772  0.097358  0.970109  1
