# generated using pymatgen
data_V5Sb(OF11)2
_symmetry_space_group_name_H-M   'P 1'
_cell_length_a   5.29625894
_cell_length_b   5.49898023
_cell_length_c   15.35764907
_cell_angle_alpha   79.70359837
_cell_angle_beta   90.28219654
_cell_angle_gamma   90.15806645
_symmetry_Int_Tables_number   1
_chemical_formula_structural   V5Sb(OF11)2
_chemical_formula_sum   'V5 Sb1 O2 F22'
_cell_volume   440.06756550
_cell_formula_units_Z   1
loop_
 _symmetry_equiv_pos_site_id
 _symmetry_equiv_pos_as_xyz
  1  'x, y, z'
loop_
 _atom_site_type_symbol
 _atom_site_label
 _atom_site_symmetry_multiplicity
 _atom_site_fract_x
 _atom_site_fract_y
 _atom_site_fract_z
 _atom_site_occupancy
  V  V0  1  0.500285  0.084112  0.333759  1
  V  V1  1  0.000437  0.915778  0.666208  1
  V  V2  1  0.488510  0.813427  0.000340  1
  V  V3  1  0.000406  0.584241  0.333699  1
  V  V4  1  0.500775  0.415903  0.666115  1
  Sb  Sb5  1  0.998009  0.251071  0.000182  1
  O  O6  1  0.698540  0.053436  0.973254  1
  O  O7  1  0.214653  0.950763  0.027398  1
  F  F8  1  0.797127  0.220294  0.644189  1
  F  F9  1  0.297838  0.111084  0.688119  1
  F  F10  1  0.897315  0.204151  0.119701  1
  F  F11  1  0.579114  0.041591  0.447209  1
  F  F12  1  0.922660  0.872637  0.779549  1
  F  F13  1  0.418853  0.122364  0.220482  1
  F  F14  1  0.077129  0.959899  0.552699  1
  F  F15  1  0.413555  0.760941  0.893110  1
  F  F16  1  0.796647  0.888164  0.312447  1
  F  F17  1  0.703107  0.720632  0.644256  1
  F  F18  1  0.802946  0.552252  0.970777  1
  F  F19  1  0.297144  0.778942  0.356567  1
  F  F20  1  0.204566  0.611929  0.687790  1
  F  F21  1  0.597352  0.680054  0.106855  1
  F  F22  1  0.922114  0.538284  0.447011  1
  F  F23  1  0.581747  0.371112  0.779423  1
  F  F24  1  0.078887  0.630605  0.220305  1
  F  F25  1  0.420946  0.458998  0.552662  1
  F  F26  1  0.097682  0.293484  0.880558  1
  F  F27  1  0.703082  0.388575  0.311113  1
  F  F28  1  0.284709  0.445123  0.029389  1
  F  F29  1  0.203866  0.280155  0.354833  1
