# generated using pymatgen
data_La8GeP13Ir16
_symmetry_space_group_name_H-M   'P 1'
_cell_length_a   4.03985000
_cell_length_b   12.98835556
_cell_length_c   13.35437949
_cell_angle_alpha   80.74305144
_cell_angle_beta   90.00000000
_cell_angle_gamma   90.00000000
_symmetry_Int_Tables_number   1
_chemical_formula_structural   La8GeP13Ir16
_chemical_formula_sum   'La8 Ge1 P13 Ir16'
_cell_volume   691.59221413
_cell_formula_units_Z   1
loop_
 _symmetry_equiv_pos_site_id
 _symmetry_equiv_pos_as_xyz
  1  'x, y, z'
loop_
 _atom_site_type_symbol
 _atom_site_label
 _atom_site_symmetry_multiplicity
 _atom_site_fract_x
 _atom_site_fract_y
 _atom_site_fract_z
 _atom_site_occupancy
  La  La0  1  0.750000  0.786350  0.564876  1
  La  La1  1  0.250000  0.211460  0.438864  1
  La  La2  1  0.750000  0.482165  0.707697  1
  La  La3  1  0.250000  0.514883  0.292054  1
  La  La4  1  0.750000  0.718670  0.894182  1
  La  La5  1  0.250000  0.104166  0.789039  1
  La  La6  1  0.750000  0.896456  0.209065  1
  La  La7  1  0.250000  0.283389  0.104279  1
  Ge  Ge8  1  0.250000  0.908198  0.407666  1
  P  P9  1  0.750000  0.475067  0.125176  1
  P  P10  1  0.250000  0.525455  0.873582  1
  P  P11  1  0.750000  0.089686  0.590849  1
  P  P12  1  0.250000  0.742111  0.080734  1
  P  P13  1  0.750000  0.258384  0.918246  1
  P  P14  1  0.750000  0.155652  0.280810  1
  P  P15  1  0.250000  0.845439  0.719578  1
  P  P16  1  0.250000  0.055351  0.095860  1
  P  P17  1  0.750000  0.946361  0.903646  1
  P  P18  1  0.250000  0.312874  0.688475  1
  P  P19  1  0.750000  0.684967  0.311396  1
  P  P20  1  0.250000  0.604985  0.559733  1
  P  P21  1  0.750000  0.392371  0.440555  1
  Ir  Ir22  1  0.250000  0.989370  0.580634  1
  Ir  Ir23  1  0.750000  0.022460  0.426350  1
  Ir  Ir24  1  0.250000  0.662899  0.730860  1
  Ir  Ir25  1  0.750000  0.338294  0.267700  1
  Ir  Ir26  1  0.250000  0.552117  0.047095  1
  Ir  Ir27  1  0.750000  0.449074  0.951831  1
  Ir  Ir28  1  0.250000  0.066948  0.267997  1
  Ir  Ir29  1  0.750000  0.937046  0.730648  1
  Ir  Ir30  1  0.250000  0.422462  0.529459  1
  Ir  Ir31  1  0.750000  0.573089  0.472271  1
  Ir  Ir32  1  0.250000  0.916747  0.998849  1
  Ir  Ir33  1  0.750000  0.084333  0.000402  1
  Ir  Ir34  1  0.250000  0.719066  0.394094  1
  Ir  Ir35  1  0.750000  0.271032  0.605976  1
  Ir  Ir36  1  0.250000  0.341425  0.860291  1
  Ir  Ir37  1  0.750000  0.659199  0.139179  1
