# generated using pymatgen
data_LaBi3Pt4F28
_symmetry_space_group_name_H-M   'P 1'
_cell_length_a   5.66677241
_cell_length_b   9.22853233
_cell_length_c   12.30363163
_cell_angle_alpha   61.69348206
_cell_angle_beta   90.11347915
_cell_angle_gamma   89.94793892
_symmetry_Int_Tables_number   1
_chemical_formula_structural   LaBi3Pt4F28
_chemical_formula_sum   'La1 Bi3 Pt4 F28'
_cell_volume   566.48903044
_cell_formula_units_Z   1
loop_
 _symmetry_equiv_pos_site_id
 _symmetry_equiv_pos_as_xyz
  1  'x, y, z'
loop_
 _atom_site_type_symbol
 _atom_site_label
 _atom_site_symmetry_multiplicity
 _atom_site_fract_x
 _atom_site_fract_y
 _atom_site_fract_z
 _atom_site_occupancy
  La  La0  1  0.739939  0.809332  0.264250  1
  Bi  Bi1  1  0.763187  0.814789  0.762454  1
  Bi  Bi2  1  0.262451  0.184789  0.738256  1
  Bi  Bi3  1  0.235095  0.184887  0.237379  1
  Pt  Pt4  1  0.758876  0.273757  0.956772  1
  Pt  Pt5  1  0.257312  0.727755  0.544043  1
  Pt  Pt6  1  0.243240  0.728108  0.038847  1
  Pt  Pt7  1  0.742437  0.269470  0.460003  1
  F  F8  1  0.431246  0.707001  0.912600  1
  F  F9  1  0.932262  0.291753  0.586306  1
  F  F10  1  0.570187  0.293109  0.083757  1
  F  F11  1  0.070971  0.706519  0.416874  1
  F  F12  1  0.445723  0.278405  0.542226  1
  F  F13  1  0.944194  0.720654  0.958018  1
  F  F14  1  0.550978  0.718461  0.461972  1
  F  F15  1  0.055613  0.280848  0.040059  1
  F  F16  1  0.768252  0.515537  0.860331  1
  F  F17  1  0.266501  0.486286  0.640329  1
  F  F18  1  0.233298  0.487859  0.137085  1
  F  F19  1  0.731969  0.510808  0.362998  1
  F  F20  1  0.757771  0.031027  0.048898  1
  F  F21  1  0.258301  0.972014  0.450003  1
  F  F22  1  0.243463  0.972928  0.947076  1
  F  F23  1  0.743234  0.026139  0.551854  1
  F  F24  1  0.965487  0.729405  0.630477  1
  F  F25  1  0.468037  0.272523  0.868587  1
  F  F26  1  0.032294  0.271248  0.371258  1
  F  F27  1  0.532220  0.727710  0.127544  1
  F  F28  1  0.062249  0.742404  0.170252  1
  F  F29  1  0.558633  0.255927  0.328636  1
  F  F30  1  0.942675  0.257980  0.825736  1
  F  F31  1  0.440657  0.743279  0.674699  1
  F  F32  1  0.393896  0.971586  0.229555  1
  F  F33  1  0.909803  0.036511  0.270253  1
  F  F34  1  0.593715  0.029678  0.770123  1
  F  F35  1  0.093836  0.969511  0.730489  1
