# generated using pymatgen
data_Pr5Se2I3O10
_symmetry_space_group_name_H-M   'P 1'
_cell_length_a   5.71572600
_cell_length_b   7.03890208
_cell_length_c   10.93280800
_cell_angle_alpha   92.64127463
_cell_angle_beta   90.00000000
_cell_angle_gamma   113.95441990
_symmetry_Int_Tables_number   1
_chemical_formula_structural   Pr5Se2I3O10
_chemical_formula_sum   'Pr5 Se2 I3 O10'
_cell_volume   401.45697558
_cell_formula_units_Z   1
loop_
 _symmetry_equiv_pos_site_id
 _symmetry_equiv_pos_as_xyz
  1  'x, y, z'
loop_
 _atom_site_type_symbol
 _atom_site_label
 _atom_site_symmetry_multiplicity
 _atom_site_fract_x
 _atom_site_fract_y
 _atom_site_fract_z
 _atom_site_occupancy
  Pr  Pr0  1  0.499999  0.000000  0.000000  1
  Pr  Pr1  1  0.793633  0.587250  0.098171  1
  Pr  Pr2  1  0.110565  0.221057  0.223635  1
  Pr  Pr3  1  0.889434  0.778942  0.776364  1
  Pr  Pr4  1  0.206368  0.412750  0.901829  1
  Se  Se5  1  0.421095  0.841834  0.289910  1
  Se  Se6  1  0.578904  0.158166  0.710090  1
  I  I7  1  0.685357  0.370461  0.369939  1
  I  I8  1  0.000000  0.000001  0.500000  1
  I  I9  1  0.314642  0.629540  0.630064  1
  O  O10  1  0.394108  0.294913  0.056810  1
  O  O11  1  0.900823  0.294867  0.056795  1
  O  O12  1  0.222986  0.912140  0.193006  1
  O  O13  1  0.689303  0.912114  0.192945  1
  O  O14  1  0.292435  0.584798  0.246328  1
  O  O15  1  0.707564  0.415202  0.753673  1
  O  O16  1  0.310696  0.087887  0.807056  1
  O  O17  1  0.777015  0.087861  0.806994  1
  O  O18  1  0.099178  0.705132  0.943204  1
  O  O19  1  0.605894  0.705086  0.943190  1
