# generated using pymatgen
data_BiPtF7
_symmetry_space_group_name_H-M   'P 1'
_cell_length_a   5.63012300
_cell_length_b   9.19383333
_cell_length_c   12.24499971
_cell_angle_alpha   61.71780845
_cell_angle_beta   90.00000000
_cell_angle_gamma   90.00000000
_symmetry_Int_Tables_number   1
_chemical_formula_structural   BiPtF7
_chemical_formula_sum   'Bi4 Pt4 F28'
_cell_volume   558.16697106
_cell_formula_units_Z   4
loop_
 _symmetry_equiv_pos_site_id
 _symmetry_equiv_pos_as_xyz
  1  'x, y, z'
loop_
 _atom_site_type_symbol
 _atom_site_label
 _atom_site_symmetry_multiplicity
 _atom_site_fract_x
 _atom_site_fract_y
 _atom_site_fract_z
 _atom_site_occupancy
  Bi  Bi0  1  0.763798  0.814602  0.762294  1
  Bi  Bi1  1  0.263798  0.185398  0.737706  1
  Bi  Bi2  1  0.236202  0.185398  0.237706  1
  Bi  Bi3  1  0.736202  0.814602  0.262294  1
  Pt  Pt4  1  0.757976  0.270748  0.958945  1
  Pt  Pt5  1  0.257976  0.729252  0.541055  1
  Pt  Pt6  1  0.242024  0.729252  0.041055  1
  Pt  Pt7  1  0.742024  0.270748  0.458945  1
  F  F8  1  0.429620  0.707183  0.913554  1
  F  F9  1  0.929620  0.292817  0.586446  1
  F  F10  1  0.570380  0.292817  0.086446  1
  F  F11  1  0.070380  0.707183  0.413554  1
  F  F12  1  0.442605  0.277638  0.541406  1
  F  F13  1  0.942605  0.722362  0.958594  1
  F  F14  1  0.557395  0.722362  0.458594  1
  F  F15  1  0.057395  0.277638  0.041406  1
  F  F16  1  0.770031  0.512472  0.860814  1
  F  F17  1  0.270031  0.487528  0.639186  1
  F  F18  1  0.229969  0.487528  0.139186  1
  F  F19  1  0.729969  0.512472  0.360814  1
  F  F20  1  0.756339  0.025702  0.051909  1
  F  F21  1  0.256339  0.974298  0.448091  1
  F  F22  1  0.243661  0.974298  0.948091  1
  F  F23  1  0.743661  0.025702  0.551909  1
  F  F24  1  0.965482  0.728210  0.629602  1
  F  F25  1  0.465482  0.271790  0.870398  1
  F  F26  1  0.034518  0.271790  0.370398  1
  F  F27  1  0.534518  0.728210  0.129602  1
  F  F28  1  0.060507  0.744951  0.173309  1
  F  F29  1  0.560507  0.255049  0.326691  1
  F  F30  1  0.939493  0.255049  0.826691  1
  F  F31  1  0.439493  0.744951  0.673309  1
  F  F32  1  0.403661  0.970303  0.229069  1
  F  F33  1  0.903661  0.029697  0.270931  1
  F  F34  1  0.596339  0.029697  0.770931  1
  F  F35  1  0.096339  0.970303  0.729069  1
