# generated using pymatgen
data_Gd3Dy4ZrSb20
_symmetry_space_group_name_H-M   'P 1'
_cell_length_a   4.20618000
_cell_length_b   13.19538838
_cell_length_c   14.60580898
_cell_angle_alpha   78.27339791
_cell_angle_beta   90.00000000
_cell_angle_gamma   90.00000000
_symmetry_Int_Tables_number   1
_chemical_formula_structural   Gd3Dy4ZrSb20
_chemical_formula_sum   'Gd3 Dy4 Zr1 Sb20'
_cell_volume   793.73469286
_cell_formula_units_Z   1
loop_
 _symmetry_equiv_pos_site_id
 _symmetry_equiv_pos_as_xyz
  1  'x, y, z'
loop_
 _atom_site_type_symbol
 _atom_site_label
 _atom_site_symmetry_multiplicity
 _atom_site_fract_x
 _atom_site_fract_y
 _atom_site_fract_z
 _atom_site_occupancy
  Gd  Gd0  1  0.250000  0.662813  0.855898  1
  Gd  Gd1  1  0.250000  0.668314  0.576368  1
  Gd  Gd2  1  0.250000  0.953443  0.359874  1
  Dy  Dy3  1  0.750000  0.605812  0.227967  1
  Dy  Dy4  1  0.750000  0.337574  0.141308  1
  Dy  Dy5  1  0.750000  0.330747  0.426425  1
  Dy  Dy6  1  0.750000  0.049232  0.641748  1
  Zr  Zr7  1  0.250000  0.388873  0.770974  1
  Sb  Sb8  1  0.250000  0.146114  0.779043  1
  Sb  Sb9  1  0.750000  0.855930  0.223050  1
  Sb  Sb10  1  0.250000  0.144207  0.483628  1
  Sb  Sb11  1  0.750000  0.856404  0.518810  1
  Sb  Sb12  1  0.250000  0.152300  0.169421  1
  Sb  Sb13  1  0.750000  0.852035  0.830195  1
  Sb  Sb14  1  0.250000  0.421272  0.970206  1
  Sb  Sb15  1  0.750000  0.578374  0.022221  1
  Sb  Sb16  1  0.750000  0.032395  0.912743  1
  Sb  Sb17  1  0.250000  0.968556  0.092192  1
  Sb  Sb18  1  0.750000  0.141730  0.320484  1
  Sb  Sb19  1  0.250000  0.862602  0.679066  1
  Sb  Sb20  1  0.750000  0.280278  0.926363  1
  Sb  Sb21  1  0.250000  0.721178  0.062269  1
  Sb  Sb22  1  0.750000  0.289379  0.659389  1
  Sb  Sb23  1  0.250000  0.714070  0.344819  1
  Sb  Sb24  1  0.750000  0.562436  0.737401  1
  Sb  Sb25  1  0.250000  0.422321  0.265246  1
  Sb  Sb26  1  0.750000  0.572373  0.447340  1
  Sb  Sb27  1  0.250000  0.429240  0.555551  1
