# generated using pymatgen
data_Zr6AlSi(Ir2N)2
_symmetry_space_group_name_H-M   'P 1'
_cell_length_a   8.54787937
_cell_length_b   8.54788015
_cell_length_c   8.52794200
_cell_angle_alpha   60.07712937
_cell_angle_beta   60.07712638
_cell_angle_gamma   60.12297340
_symmetry_Int_Tables_number   1
_chemical_formula_structural   Zr6AlSi(Ir2N)2
_chemical_formula_sum   'Zr12 Al2 Si2 Ir8 N4'
_cell_volume   441.52398219
_cell_formula_units_Z   2
loop_
 _symmetry_equiv_pos_site_id
 _symmetry_equiv_pos_as_xyz
  1  'x, y, z'
loop_
 _atom_site_type_symbol
 _atom_site_label
 _atom_site_symmetry_multiplicity
 _atom_site_fract_x
 _atom_site_fract_y
 _atom_site_fract_z
 _atom_site_occupancy
  Zr  Zr0  1  0.806912  0.806912  0.193088  1
  Zr  Zr1  1  0.192256  0.192256  0.807744  1
  Zr  Zr2  1  0.807235  0.192854  0.807898  1
  Zr  Zr3  1  0.192854  0.807235  0.192013  1
  Zr  Zr4  1  0.192854  0.807235  0.807898  1
  Zr  Zr5  1  0.807235  0.192854  0.192013  1
  Zr  Zr6  1  0.443088  0.443088  0.056912  1
  Zr  Zr7  1  0.057744  0.057744  0.442256  1
  Zr  Zr8  1  0.442765  0.057146  0.442102  1
  Zr  Zr9  1  0.057146  0.442765  0.057987  1
  Zr  Zr10  1  0.057146  0.442765  0.442102  1
  Zr  Zr11  1  0.442765  0.057146  0.057987  1
  Al  Al12  1  0.125000  0.625000  0.625000  1
  Al  Al13  1  0.625000  0.125000  0.625000  1
  Si  Si14  1  0.625000  0.625000  0.125000  1
  Si  Si15  1  0.625000  0.625000  0.625000  1
  Ir  Ir16  1  0.751179  0.420116  0.414353  1
  Ir  Ir17  1  0.420116  0.751179  0.414353  1
  Ir  Ir18  1  0.417846  0.417846  0.752011  1
  Ir  Ir19  1  0.417846  0.417846  0.412300  1
  Ir  Ir20  1  0.498821  0.829884  0.835647  1
  Ir  Ir21  1  0.829884  0.498821  0.835647  1
  Ir  Ir22  1  0.832154  0.832154  0.497989  1
  Ir  Ir23  1  0.832154  0.832154  0.837700  1
  N  N24  1  0.625000  0.125000  0.125000  1
  N  N25  1  0.125000  0.625000  0.125000  1
  N  N26  1  0.125000  0.125000  0.625000  1
  N  N27  1  0.125000  0.125000  0.125000  1
