# generated using pymatgen
data_YTh(GaPd2)2
_symmetry_space_group_name_H-M   'P 1'
_cell_length_a   5.76513000
_cell_length_b   7.16076000
_cell_length_c   7.47043100
_cell_angle_alpha   90.00000000
_cell_angle_beta   90.00000000
_cell_angle_gamma   90.00000000
_symmetry_Int_Tables_number   1
_chemical_formula_structural   YTh(GaPd2)2
_chemical_formula_sum   'Y2 Th2 Ga4 Pd8'
_cell_volume   308.39965372
_cell_formula_units_Z   2
loop_
 _symmetry_equiv_pos_site_id
 _symmetry_equiv_pos_as_xyz
  1  'x, y, z'
loop_
 _atom_site_type_symbol
 _atom_site_label
 _atom_site_symmetry_multiplicity
 _atom_site_fract_x
 _atom_site_fract_y
 _atom_site_fract_z
 _atom_site_occupancy
  Y  Y0  1  0.653439  0.250000  0.967494  1
  Y  Y1  1  0.846561  0.250000  0.467494  1
  Th  Th2  1  0.350161  0.750000  0.031990  1
  Th  Th3  1  0.149839  0.750000  0.531990  1
  Ga  Ga4  1  0.650542  0.750000  0.386284  1
  Ga  Ga5  1  0.849458  0.750000  0.886284  1
  Ga  Ga6  1  0.352183  0.250000  0.616429  1
  Ga  Ga7  1  0.147817  0.250000  0.116429  1
  Pd  Pd8  1  0.915080  0.551637  0.184423  1
  Pd  Pd9  1  0.584920  0.948363  0.684423  1
  Pd  Pd10  1  0.086012  0.050420  0.814479  1
  Pd  Pd11  1  0.413988  0.449580  0.314479  1
  Pd  Pd12  1  0.086012  0.449580  0.814479  1
  Pd  Pd13  1  0.413988  0.050420  0.314479  1
  Pd  Pd14  1  0.915080  0.948363  0.184423  1
  Pd  Pd15  1  0.584920  0.551637  0.684423  1
