# generated using pymatgen
data_DyTm2In3Cu2Pt
_symmetry_space_group_name_H-M   'P 1'
_cell_length_a   7.57590167
_cell_length_b   7.60289672
_cell_length_c   3.79127700
_cell_angle_alpha   90.00000000
_cell_angle_beta   90.00000000
_cell_angle_gamma   120.07431116
_symmetry_Int_Tables_number   1
_chemical_formula_structural   DyTm2In3Cu2Pt
_chemical_formula_sum   'Dy1 Tm2 In3 Cu2 Pt1'
_cell_volume   188.97479264
_cell_formula_units_Z   1
loop_
 _symmetry_equiv_pos_site_id
 _symmetry_equiv_pos_as_xyz
  1  'x, y, z'
loop_
 _atom_site_type_symbol
 _atom_site_label
 _atom_site_symmetry_multiplicity
 _atom_site_fract_x
 _atom_site_fract_y
 _atom_site_fract_z
 _atom_site_occupancy
  Dy  Dy0  1  0.404471  0.413421  0.500000  1
  Tm  Tm1  1  0.586066  0.989331  0.500000  1
  Tm  Tm2  1  0.010824  0.597524  0.500000  1
  In  In3  1  0.987864  0.249825  0.000000  1
  In  In4  1  0.750304  0.739587  0.000000  1
  In  In5  1  0.260876  0.009852  0.000000  1
  Cu  Cu6  1  0.668198  0.332957  0.000000  1
  Cu  Cu7  1  0.999319  0.999235  0.500000  1
  Pt  Pt8  1  0.332078  0.668269  0.000000  1
