# generated using pymatgen
data_Ho8ErTmRu4
_symmetry_space_group_name_H-M   'P 1'
_cell_length_a   6.29455588
_cell_length_b   7.26151614
_cell_length_c   8.41735153
_cell_angle_alpha   96.74820469
_cell_angle_beta   111.95656849
_cell_angle_gamma   90.00000590
_symmetry_Int_Tables_number   1
_chemical_formula_structural   Ho8ErTmRu4
_chemical_formula_sum   'Ho8 Er1 Tm1 Ru4'
_cell_volume   353.95878489
_cell_formula_units_Z   1
loop_
 _symmetry_equiv_pos_site_id
 _symmetry_equiv_pos_as_xyz
  1  'x, y, z'
loop_
 _atom_site_type_symbol
 _atom_site_label
 _atom_site_symmetry_multiplicity
 _atom_site_fract_x
 _atom_site_fract_y
 _atom_site_fract_z
 _atom_site_occupancy
  Ho  Ho0  1  0.791561  0.084103  0.813911  1
  Ho  Ho1  1  0.977651  0.415897  0.186089  1
  Ho  Ho2  1  0.208289  0.915515  0.186066  1
  Ho  Ho3  1  0.022223  0.584485  0.813934  1
  Ho  Ho4  1  0.206205  0.184528  0.565569  1
  Ho  Ho5  1  0.640635  0.315472  0.434431  1
  Ho  Ho6  1  0.793726  0.815329  0.434200  1
  Ho  Ho7  1  0.359526  0.684671  0.565800  1
  Er  Er8  1  0.419767  0.250000  0.000000  1
  Tm  Tm9  1  0.579717  0.750000  0.000000  1
  Ru  Ru10  1  0.603311  0.424094  0.780435  1
  Ru  Ru11  1  0.822875  0.075906  0.219565  1
  Ru  Ru12  1  0.397100  0.576451  0.219688  1
  Ru  Ru13  1  0.177413  0.923549  0.780312  1
