# generated using pymatgen
data_Tb9Y8Ho3Pb16
_symmetry_space_group_name_H-M   'P 1'
_cell_length_a   8.22932241
_cell_length_b   15.70971702
_cell_length_c   8.31419802
_cell_angle_alpha   90.00411049
_cell_angle_beta   90.02178056
_cell_angle_gamma   90.00338714
_symmetry_Int_Tables_number   1
_chemical_formula_structural   Tb9Y8Ho3Pb16
_chemical_formula_sum   'Tb9 Y8 Ho3 Pb16'
_cell_volume   1074.86215083
_cell_formula_units_Z   1
loop_
 _symmetry_equiv_pos_site_id
 _symmetry_equiv_pos_as_xyz
  1  'x, y, z'
loop_
 _atom_site_type_symbol
 _atom_site_label
 _atom_site_symmetry_multiplicity
 _atom_site_fract_x
 _atom_site_fract_y
 _atom_site_fract_z
 _atom_site_occupancy
  Tb  Tb0  1  0.123011  0.620298  0.340345  1
  Tb  Tb1  1  0.466131  0.600142  0.677014  1
  Tb  Tb2  1  0.966311  0.899881  0.823292  1
  Tb  Tb3  1  0.533792  0.100233  0.323124  1
  Tb  Tb4  1  0.033773  0.399748  0.176871  1
  Tb  Tb5  1  0.533785  0.399775  0.323192  1
  Tb  Tb6  1  0.033832  0.100217  0.176857  1
  Tb  Tb7  1  0.466078  0.899861  0.676997  1
  Tb  Tb8  1  0.966294  0.600169  0.823403  1
  Y  Y9  1  0.622924  0.620431  0.159167  1
  Y  Y10  1  0.123212  0.879609  0.340554  1
  Y  Y11  1  0.377002  0.120519  0.840736  1
  Y  Y12  1  0.877063  0.379451  0.659235  1
  Y  Y13  1  0.377064  0.379431  0.840717  1
  Y  Y14  1  0.877053  0.120580  0.659334  1
  Y  Y15  1  0.622797  0.879595  0.159148  1
  Y  Y16  1  0.791139  0.749996  0.496595  1
  Ho  Ho17  1  0.291105  0.750103  0.003529  1
  Ho  Ho18  1  0.208913  0.249999  0.503513  1
  Ho  Ho19  1  0.708916  0.250035  0.996472  1
  Pb  Pb20  1  0.718847  0.457131  0.967121  1
  Pb  Pb21  1  0.218813  0.042887  0.532842  1
  Pb  Pb22  1  0.281186  0.957156  0.032823  1
  Pb  Pb23  1  0.780914  0.542547  0.467091  1
  Pb  Pb24  1  0.281342  0.542855  0.032701  1
  Pb  Pb25  1  0.781161  0.957414  0.467016  1
  Pb  Pb26  1  0.718832  0.042894  0.967113  1
  Pb  Pb27  1  0.218848  0.457008  0.532982  1
  Pb  Pb28  1  0.427378  0.750010  0.373152  1
  Pb  Pb29  1  0.927970  0.749968  0.126180  1
  Pb  Pb30  1  0.572077  0.250007  0.626719  1
  Pb  Pb31  1  0.072088  0.250002  0.873317  1
  Pb  Pb32  1  0.654359  0.750021  0.848737  1
  Pb  Pb33  1  0.155065  0.750018  0.652120  1
  Pb  Pb34  1  0.345427  0.250008  0.151984  1
  Pb  Pb35  1  0.845499  0.250002  0.348008  1
