# generated using pymatgen
data_Th2CuP4Os3
_symmetry_space_group_name_H-M   'P 1'
_cell_length_a   4.19462700
_cell_length_b   4.19462700
_cell_length_c   9.47286400
_cell_angle_alpha   90.00000000
_cell_angle_beta   90.00000000
_cell_angle_gamma   90.00000000
_symmetry_Int_Tables_number   1
_chemical_formula_structural   Th2CuP4Os3
_chemical_formula_sum   'Th2 Cu1 P4 Os3'
_cell_volume   166.67405377
_cell_formula_units_Z   1
loop_
 _symmetry_equiv_pos_site_id
 _symmetry_equiv_pos_as_xyz
  1  'x, y, z'
loop_
 _atom_site_type_symbol
 _atom_site_label
 _atom_site_symmetry_multiplicity
 _atom_site_fract_x
 _atom_site_fract_y
 _atom_site_fract_z
 _atom_site_occupancy
  Th  Th0  1  0.000000  0.500000  0.739636  1
  Th  Th1  1  0.500000  0.000000  0.252143  1
  Cu  Cu2  1  0.500000  0.000000  0.625349  1
  P  P3  1  0.500000  0.000000  0.872392  1
  P  P4  1  0.000000  0.500000  0.130620  1
  P  P5  1  0.000000  0.000000  0.500980  1
  P  P6  1  0.500000  0.500000  0.500980  1
  Os  Os7  1  0.000000  0.500000  0.388403  1
  Os  Os8  1  0.500000  0.500000  0.994749  1
  Os  Os9  1  0.000000  0.000000  0.994749  1
