# generated using pymatgen
data_OsRu(Rh2W)2
_symmetry_space_group_name_H-M   'P 1'
_cell_length_a   5.51277886
_cell_length_b   5.53708190
_cell_length_c   4.39635200
_cell_angle_alpha   90.00000000
_cell_angle_beta   90.00000000
_cell_angle_gamma   120.04759593
_symmetry_Int_Tables_number   1
_chemical_formula_structural   OsRu(Rh2W)2
_chemical_formula_sum   'Os1 Ru1 Rh4 W2'
_cell_volume   116.16254457
_cell_formula_units_Z   1
loop_
 _symmetry_equiv_pos_site_id
 _symmetry_equiv_pos_as_xyz
  1  'x, y, z'
loop_
 _atom_site_type_symbol
 _atom_site_label
 _atom_site_symmetry_multiplicity
 _atom_site_fract_x
 _atom_site_fract_y
 _atom_site_fract_z
 _atom_site_occupancy
  Os  Os0  1  0.165396  0.334249  0.250000  1
  Ru  Ru1  1  0.833599  0.167963  0.750000  1
  Rh  Rh2  1  0.667552  0.833095  0.250000  1
  Rh  Rh3  1  0.166883  0.834890  0.250000  1
  Rh  Rh4  1  0.833129  0.667315  0.750000  1
  Rh  Rh5  1  0.332850  0.165072  0.750000  1
  W  W6  1  0.329764  0.662868  0.750000  1
  W  W7  1  0.670827  0.334546  0.250000  1
