# generated using pymatgen
data_Rb6Li4TiSnSb6
_symmetry_space_group_name_H-M   'P 1'
_cell_length_a   11.03094039
_cell_length_b   11.03094098
_cell_length_c   16.84430900
_cell_angle_alpha   90.00000000
_cell_angle_beta   90.00000000
_cell_angle_gamma   143.03693892
_symmetry_Int_Tables_number   1
_chemical_formula_structural   Rb6Li4TiSnSb6
_chemical_formula_sum   'Rb12 Li8 Ti2 Sn2 Sb12'
_cell_volume   1232.45057509
_cell_formula_units_Z   2
loop_
 _symmetry_equiv_pos_site_id
 _symmetry_equiv_pos_as_xyz
  1  'x, y, z'
loop_
 _atom_site_type_symbol
 _atom_site_label
 _atom_site_symmetry_multiplicity
 _atom_site_fract_x
 _atom_site_fract_y
 _atom_site_fract_z
 _atom_site_occupancy
  Rb  Rb0  1  0.595844  0.934027  0.828600  1
  Rb  Rb1  1  0.277073  0.274936  0.323673  1
  Rb  Rb2  1  0.222927  0.225064  0.823673  1
  Rb  Rb3  1  0.725064  0.722927  0.676327  1
  Rb  Rb4  1  0.434027  0.095844  0.671400  1
  Rb  Rb5  1  0.904156  0.565973  0.328600  1
  Rb  Rb6  1  0.065973  0.404156  0.171400  1
  Rb  Rb7  1  0.394872  0.053950  0.168982  1
  Rb  Rb8  1  0.553950  0.894872  0.331018  1
  Rb  Rb9  1  0.105128  0.446050  0.668982  1
  Rb  Rb10  1  0.946050  0.605128  0.831018  1
  Rb  Rb11  1  0.774936  0.777073  0.176327  1
  Li  Li12  1  0.082831  0.917169  0.000000  1
  Li  Li13  1  0.584390  0.415610  0.500000  1
  Li  Li14  1  0.915610  0.084390  0.000000  1
  Li  Li15  1  0.750724  0.249276  0.000000  1
  Li  Li16  1  0.749276  0.250724  0.500000  1
  Li  Li17  1  0.248212  0.751788  0.000000  1
  Li  Li18  1  0.251788  0.748212  0.500000  1
  Li  Li19  1  0.417169  0.582831  0.500000  1
  Ti  Ti20  1  0.915058  0.084942  0.500000  1
  Ti  Ti21  1  0.584942  0.415058  0.000000  1
  Sn  Sn22  1  0.085698  0.914302  0.500000  1
  Sn  Sn23  1  0.414302  0.585698  0.000000  1
  Sb  Sb24  1  0.064883  0.385422  0.410362  1
  Sb  Sb25  1  0.885422  0.564883  0.089638  1
  Sb  Sb26  1  0.435117  0.114578  0.910362  1
  Sb  Sb27  1  0.614578  0.935117  0.589638  1
  Sb  Sb28  1  0.923210  0.595573  0.596614  1
  Sb  Sb29  1  0.095573  0.423210  0.903386  1
  Sb  Sb30  1  0.576790  0.904427  0.096614  1
  Sb  Sb31  1  0.404427  0.076790  0.403386  1
  Sb  Sb32  1  0.223079  0.232241  0.591427  1
  Sb  Sb33  1  0.732241  0.723079  0.908573  1
  Sb  Sb34  1  0.276921  0.267759  0.091427  1
  Sb  Sb35  1  0.767759  0.776921  0.408573  1
