# generated using pymatgen
data_LaNdYTaO7
_symmetry_space_group_name_H-M   'P 1'
_cell_length_a   6.61892912
_cell_length_b   6.61892787
_cell_length_c   7.72298500
_cell_angle_alpha   90.00000000
_cell_angle_beta   90.00000000
_cell_angle_gamma   109.12125354
_symmetry_Int_Tables_number   1
_chemical_formula_structural   LaNdYTaO7
_chemical_formula_sum   'La2 Nd2 Y2 Ta2 O14'
_cell_volume   319.67824331
_cell_formula_units_Z   2
loop_
 _symmetry_equiv_pos_site_id
 _symmetry_equiv_pos_as_xyz
  1  'x, y, z'
loop_
 _atom_site_type_symbol
 _atom_site_label
 _atom_site_symmetry_multiplicity
 _atom_site_fract_x
 _atom_site_fract_y
 _atom_site_fract_z
 _atom_site_occupancy
  La  La0  1  0.491947  0.491947  0.500000  1
  La  La1  1  0.491947  0.491947  0.000000  1
  Nd  Nd2  1  0.535521  0.998225  0.750000  1
  Nd  Nd3  1  0.998225  0.535521  0.250000  1
  Y  Y4  1  0.468521  0.998588  0.250000  1
  Y  Y5  1  0.998588  0.468521  0.750000  1
  Ta  Ta6  1  0.999698  0.999698  0.500000  1
  Ta  Ta7  1  0.999698  0.999698  0.000000  1
  O  O8  1  0.688690  0.937806  0.462490  1
  O  O9  1  0.937806  0.688690  0.537510  1
  O  O10  1  0.688690  0.937806  0.037510  1
  O  O11  1  0.937806  0.688690  0.962490  1
  O  O12  1  0.318296  0.068719  0.523905  1
  O  O13  1  0.068719  0.318296  0.476095  1
  O  O14  1  0.318296  0.068719  0.976095  1
  O  O15  1  0.068719  0.318296  0.023905  1
  O  O16  1  0.940033  0.058267  0.750000  1
  O  O17  1  0.058267  0.940033  0.250000  1
  O  O18  1  0.357411  0.625447  0.750000  1
  O  O19  1  0.625447  0.357411  0.250000  1
  O  O20  1  0.644283  0.363390  0.750000  1
  O  O21  1  0.363390  0.644283  0.250000  1
