# generated using pymatgen
data_Tb2ErMn3O9
_symmetry_space_group_name_H-M   'P 1'
_cell_length_a   6.22934600
_cell_length_b   6.22934610
_cell_length_c   11.55441500
_cell_angle_alpha   90.00000000
_cell_angle_beta   90.00000000
_cell_angle_gamma   119.99999947
_symmetry_Int_Tables_number   1
_chemical_formula_structural   Tb2ErMn3O9
_chemical_formula_sum   'Tb4 Er2 Mn6 O18'
_cell_volume   388.29653098
_cell_formula_units_Z   2
loop_
 _symmetry_equiv_pos_site_id
 _symmetry_equiv_pos_as_xyz
  1  'x, y, z'
loop_
 _atom_site_type_symbol
 _atom_site_label
 _atom_site_symmetry_multiplicity
 _atom_site_fract_x
 _atom_site_fract_y
 _atom_site_fract_z
 _atom_site_occupancy
  Tb  Tb0  1  0.666667  0.333333  0.229233  1
  Tb  Tb1  1  0.333333  0.666667  0.729233  1
  Tb  Tb2  1  0.666667  0.333333  0.729233  1
  Tb  Tb3  1  0.333333  0.666667  0.229233  1
  Er  Er4  1  0.000000  0.000000  0.772663  1
  Er  Er5  1  0.000000  0.000000  0.272663  1
  Mn  Mn6  1  0.668752  0.000000  0.497880  1
  Mn  Mn7  1  0.668752  0.668752  0.997880  1
  Mn  Mn8  1  0.000000  0.331248  0.997880  1
  Mn  Mn9  1  0.000000  0.668752  0.497880  1
  Mn  Mn10  1  0.331248  0.331248  0.497880  1
  Mn  Mn11  1  0.331248  0.000000  0.997880  1
  O  O12  1  0.666667  0.333333  0.018179  1
  O  O13  1  0.333333  0.666667  0.518179  1
  O  O14  1  0.666667  0.333333  0.518179  1
  O  O15  1  0.333333  0.666667  0.018179  1
  O  O16  1  0.000000  0.000000  0.972186  1
  O  O17  1  0.000000  0.000000  0.472186  1
  O  O18  1  0.355712  0.000000  0.833720  1
  O  O19  1  0.355712  0.355712  0.333720  1
  O  O20  1  0.000000  0.644288  0.333720  1
  O  O21  1  0.000000  0.355712  0.833720  1
  O  O22  1  0.644288  0.644288  0.833720  1
  O  O23  1  0.644288  0.000000  0.333720  1
  O  O24  1  0.302888  0.000000  0.162510  1
  O  O25  1  0.302888  0.302888  0.662510  1
  O  O26  1  0.000000  0.697112  0.662510  1
  O  O27  1  0.000000  0.302888  0.162510  1
  O  O28  1  0.697112  0.697112  0.162510  1
  O  O29  1  0.697112  0.000000  0.662510  1
