# generated using pymatgen
data_Yb5TmSi24Ir3Ru5
_symmetry_space_group_name_H-M   'P 1'
_cell_length_a   10.12436168
_cell_length_b   10.12497645
_cell_length_c   8.14967703
_cell_angle_alpha   89.96474519
_cell_angle_beta   90.05007554
_cell_angle_gamma   132.52995968
_symmetry_Int_Tables_number   1
_chemical_formula_structural   Yb5TmSi24Ir3Ru5
_chemical_formula_sum   'Yb5 Tm1 Si24 Ir3 Ru5'
_cell_volume   615.63682531
_cell_formula_units_Z   1
loop_
 _symmetry_equiv_pos_site_id
 _symmetry_equiv_pos_as_xyz
  1  'x, y, z'
loop_
 _atom_site_type_symbol
 _atom_site_label
 _atom_site_symmetry_multiplicity
 _atom_site_fract_x
 _atom_site_fract_y
 _atom_site_fract_z
 _atom_site_occupancy
  Yb  Yb0  1  0.499397  0.499881  0.499693  1
  Yb  Yb1  1  0.999408  0.999806  0.000225  1
  Yb  Yb2  1  0.502390  0.001622  0.750360  1
  Yb  Yb3  1  0.998819  0.498055  0.249602  1
  Yb  Yb4  1  0.497283  0.996563  0.248989  1
  Tm  Tm5  1  0.002744  0.501441  0.751986  1
  Si  Si6  1  0.796031  0.202179  0.498705  1
  Si  Si7  1  0.297063  0.704542  0.000080  1
  Si  Si8  1  0.205232  0.795896  0.500007  1
  Si  Si9  1  0.704055  0.293849  0.001210  1
  Si  Si10  1  0.329591  0.334784  0.832900  1
  Si  Si11  1  0.663788  0.670263  0.167322  1
  Si  Si12  1  0.168210  0.165778  0.332202  1
  Si  Si13  1  0.832821  0.831588  0.667444  1
  Si  Si14  1  0.119400  0.887137  0.726178  1
  Si  Si15  1  0.112652  0.879716  0.273225  1
  Si  Si16  1  0.610028  0.378224  0.227059  1
  Si  Si17  1  0.622850  0.391874  0.773670  1
  Si  Si18  1  0.875456  0.107970  0.267910  1
  Si  Si19  1  0.893758  0.125363  0.730989  1
  Si  Si20  1  0.387267  0.619701  0.774716  1
  Si  Si21  1  0.379375  0.612552  0.225794  1
  Si  Si22  1  0.343830  0.111042  0.501869  1
  Si  Si23  1  0.889396  0.658304  0.498755  1
  Si  Si24  1  0.388623  0.157210  0.005154  1
  Si  Si25  1  0.841445  0.610843  0.994008  1
  Si  Si26  1  0.657377  0.888878  0.494898  1
  Si  Si27  1  0.110493  0.341152  0.506021  1
  Si  Si28  1  0.614792  0.848307  0.996844  1
  Si  Si29  1  0.153914  0.385681  0.002657  1
  Ir  Ir30  1  0.672681  0.331988  0.501757  1
  Ir  Ir31  1  0.167569  0.829039  0.998530  1
  Ir  Ir32  1  0.329304  0.667276  0.501413  1
  Ru  Ru33  1  0.831680  0.173374  0.997980  1
  Ru  Ru34  1  0.127171  0.124976  0.625891  1
  Ru  Ru35  1  0.874320  0.873230  0.373661  1
  Ru  Ru36  1  0.374282  0.373783  0.126340  1
  Ru  Ru37  1  0.625503  0.626131  0.873955  1
