# generated using pymatgen
data_LuTi7Bi9
_symmetry_space_group_name_H-M   'P 1'
_cell_length_a   10.40017400
_cell_length_b   10.40017400
_cell_length_c   7.46769100
_cell_angle_alpha   90.00000000
_cell_angle_beta   90.00000000
_cell_angle_gamma   90.00000000
_symmetry_Int_Tables_number   1
_chemical_formula_structural   LuTi7Bi9
_chemical_formula_sum   'Lu2 Ti14 Bi18'
_cell_volume   807.73248585
_cell_formula_units_Z   2
loop_
 _symmetry_equiv_pos_site_id
 _symmetry_equiv_pos_as_xyz
  1  'x, y, z'
loop_
 _atom_site_type_symbol
 _atom_site_label
 _atom_site_symmetry_multiplicity
 _atom_site_fract_x
 _atom_site_fract_y
 _atom_site_fract_z
 _atom_site_occupancy
  Lu  Lu0  1  0.750000  0.750000  0.925339  1
  Lu  Lu1  1  0.250000  0.250000  0.074661  1
  Ti  Ti2  1  0.000000  0.500000  0.000000  1
  Ti  Ti3  1  0.500000  0.000000  0.000000  1
  Ti  Ti4  1  0.500000  0.500000  0.000000  1
  Ti  Ti5  1  0.000000  0.000000  0.000000  1
  Ti  Ti6  1  0.892426  0.250000  0.146924  1
  Ti  Ti7  1  0.607574  0.250000  0.146924  1
  Ti  Ti8  1  0.107574  0.750000  0.853078  1
  Ti  Ti9  1  0.392426  0.750000  0.853078  1
  Ti  Ti10  1  0.750000  0.107574  0.853078  1
  Ti  Ti11  1  0.750000  0.392426  0.853078  1
  Ti  Ti12  1  0.250000  0.892426  0.146924  1
  Ti  Ti13  1  0.250000  0.607574  0.146924  1
  Ti  Ti14  1  0.750000  0.750000  0.427921  1
  Ti  Ti15  1  0.250000  0.250000  0.572079  1
  Bi  Bi16  1  0.418660  0.081340  0.352091  1
  Bi  Bi17  1  0.081340  0.418660  0.352091  1
  Bi  Bi18  1  0.581340  0.581340  0.647909  1
  Bi  Bi19  1  0.918660  0.918660  0.647909  1
  Bi  Bi20  1  0.918660  0.581340  0.647909  1
  Bi  Bi21  1  0.581340  0.918660  0.647909  1
  Bi  Bi22  1  0.418660  0.418660  0.352091  1
  Bi  Bi23  1  0.081340  0.081340  0.352091  1
  Bi  Bi24  1  0.250000  0.750000  0.499999  1
  Bi  Bi25  1  0.750000  0.250000  0.499999  1
  Bi  Bi26  1  0.491926  0.250000  0.802489  1
  Bi  Bi27  1  0.008073  0.250000  0.802489  1
  Bi  Bi28  1  0.508073  0.750000  0.197510  1
  Bi  Bi29  1  0.991927  0.750000  0.197510  1
  Bi  Bi30  1  0.750000  0.508073  0.197510  1
  Bi  Bi31  1  0.750000  0.991927  0.197510  1
  Bi  Bi32  1  0.250000  0.491926  0.802489  1
  Bi  Bi33  1  0.250000  0.008073  0.802489  1
