# generated using pymatgen
data_Pr2Si2PtRh3
_symmetry_space_group_name_H-M   'P 1'
_cell_length_a   9.18193828
_cell_length_b   9.18193882
_cell_length_c   4.15937100
_cell_angle_alpha   90.00000000
_cell_angle_beta   90.00000000
_cell_angle_gamma   154.07693013
_symmetry_Int_Tables_number   1
_chemical_formula_structural   Pr2Si2PtRh3
_chemical_formula_sum   'Pr2 Si2 Pt1 Rh3'
_cell_volume   153.29951118
_cell_formula_units_Z   1
loop_
 _symmetry_equiv_pos_site_id
 _symmetry_equiv_pos_as_xyz
  1  'x, y, z'
loop_
 _atom_site_type_symbol
 _atom_site_label
 _atom_site_symmetry_multiplicity
 _atom_site_fract_x
 _atom_site_fract_y
 _atom_site_fract_z
 _atom_site_occupancy
  Pr  Pr0  1  0.101850  0.898150  0.750000  1
  Pr  Pr1  1  0.900458  0.099542  0.250000  1
  Si  Si2  1  0.319973  0.680027  0.750000  1
  Si  Si3  1  0.680797  0.319203  0.250000  1
  Pt  Pt4  1  0.546898  0.453102  0.250000  1
  Rh  Rh5  1  0.450835  0.549165  0.750000  1
  Rh  Rh6  1  0.249149  0.750851  0.250000  1
  Rh  Rh7  1  0.750041  0.249959  0.750000  1
