# generated using pymatgen
data_Tm3LuNb2(B2Ru5)2
_symmetry_space_group_name_H-M   'P 1'
_cell_length_a   9.63701492
_cell_length_b   9.63701492
_cell_length_c   3.11674000
_cell_angle_alpha   90.00000000
_cell_angle_beta   90.00000000
_cell_angle_gamma   90.05017906
_symmetry_Int_Tables_number   1
_chemical_formula_structural   Tm3LuNb2(B2Ru5)2
_chemical_formula_sum   'Tm3 Lu1 Nb2 B4 Ru10'
_cell_volume   289.45794282
_cell_formula_units_Z   1
loop_
 _symmetry_equiv_pos_site_id
 _symmetry_equiv_pos_as_xyz
  1  'x, y, z'
loop_
 _atom_site_type_symbol
 _atom_site_label
 _atom_site_symmetry_multiplicity
 _atom_site_fract_x
 _atom_site_fract_y
 _atom_site_fract_z
 _atom_site_occupancy
  Tm  Tm0  1  0.825313  0.674716  0.000000  1
  Tm  Tm1  1  0.174716  0.325313  0.000000  1
  Tm  Tm2  1  0.325285  0.825285  0.000000  1
  Lu  Lu3  1  0.674778  0.174778  0.000000  1
  Nb  Nb4  1  0.500047  0.499863  0.000000  1
  Nb  Nb5  1  0.999863  0.000047  0.000000  1
  B  B6  1  0.620183  0.879906  0.000000  1
  B  B7  1  0.379906  0.120183  0.000000  1
  B  B8  1  0.120191  0.620191  0.000000  1
  B  B9  1  0.879651  0.379651  0.000000  1
  Ru  Ru10  1  0.571278  0.718217  0.500000  1
  Ru  Ru11  1  0.429139  0.281692  0.500000  1
  Ru  Ru12  1  0.071307  0.781875  0.500000  1
  Ru  Ru13  1  0.928172  0.218010  0.500000  1
  Ru  Ru14  1  0.281875  0.571307  0.500000  1
  Ru  Ru15  1  0.718010  0.428172  0.500000  1
  Ru  Ru16  1  0.218217  0.071278  0.500000  1
  Ru  Ru17  1  0.781692  0.929139  0.500000  1
  Ru  Ru18  1  0.500437  0.000437  0.500000  1
  Ru  Ru19  1  0.999939  0.499939  0.500000  1
