# generated using pymatgen
data_Sc22TcOs5Rh2
_symmetry_space_group_name_H-M   'P 1'
_cell_length_a   9.48260593
_cell_length_b   9.48260625
_cell_length_c   9.49001700
_cell_angle_alpha   59.97414799
_cell_angle_beta   59.97414686
_cell_angle_gamma   60.05171201
_symmetry_Int_Tables_number   1
_chemical_formula_structural   Sc22TcOs5Rh2
_chemical_formula_sum   'Sc22 Tc1 Os5 Rh2'
_cell_volume   603.40222126
_cell_formula_units_Z   1
loop_
 _symmetry_equiv_pos_site_id
 _symmetry_equiv_pos_as_xyz
  1  'x, y, z'
loop_
 _atom_site_type_symbol
 _atom_site_label
 _atom_site_symmetry_multiplicity
 _atom_site_fract_x
 _atom_site_fract_y
 _atom_site_fract_z
 _atom_site_occupancy
  Sc  Sc0  1  0.842907  0.842907  0.844506  1
  Sc  Sc1  1  0.530320  0.155494  0.157093  1
  Sc  Sc2  1  0.157093  0.157093  0.530320  1
  Sc  Sc3  1  0.155494  0.530320  0.157093  1
  Sc  Sc4  1  0.842907  0.842907  0.469680  1
  Sc  Sc5  1  0.844506  0.469680  0.842907  1
  Sc  Sc6  1  0.469680  0.844506  0.842907  1
  Sc  Sc7  1  0.157093  0.157093  0.155494  1
  Sc  Sc8  1  0.197117  0.802883  0.197117  1
  Sc  Sc9  1  0.197117  0.802883  0.802883  1
  Sc  Sc10  1  0.802883  0.197117  0.197117  1
  Sc  Sc11  1  0.802062  0.802062  0.197938  1
  Sc  Sc12  1  0.197938  0.197938  0.802062  1
  Sc  Sc13  1  0.802883  0.197117  0.802883  1
  Sc  Sc14  1  0.381438  0.381438  0.387184  1
  Sc  Sc15  1  0.150061  0.612816  0.618562  1
  Sc  Sc16  1  0.612816  0.150061  0.618562  1
  Sc  Sc17  1  0.618562  0.618562  0.150061  1
  Sc  Sc18  1  0.387184  0.849939  0.381438  1
  Sc  Sc19  1  0.381438  0.381438  0.849939  1
  Sc  Sc20  1  0.849939  0.387184  0.381438  1
  Sc  Sc21  1  0.618562  0.618562  0.612816  1
  Tc  Tc22  1  0.000000  0.000000  0.000000  1
  Os  Os23  1  0.500000  0.000000  0.500000  1
  Os  Os24  1  0.000000  0.500000  0.500000  1
  Os  Os25  1  0.500000  0.000000  0.000000  1
  Os  Os26  1  0.000000  0.500000  0.000000  1
  Os  Os27  1  0.500000  0.500000  0.500000  1
  Rh  Rh28  1  0.500000  0.500000  0.000000  1
  Rh  Rh29  1  0.000000  0.000000  0.500000  1
