# generated using pymatgen
data_Yb3Sn2HgPt3
_symmetry_space_group_name_H-M   'P 1'
_cell_length_a   7.46194010
_cell_length_b   7.65594624
_cell_length_c   4.08627700
_cell_angle_alpha   90.00000000
_cell_angle_beta   90.00000000
_cell_angle_gamma   120.86385198
_symmetry_Int_Tables_number   1
_chemical_formula_structural   Yb3Sn2HgPt3
_chemical_formula_sum   'Yb3 Sn2 Hg1 Pt3'
_cell_volume   200.38372396
_cell_formula_units_Z   1
loop_
 _symmetry_equiv_pos_site_id
 _symmetry_equiv_pos_as_xyz
  1  'x, y, z'
loop_
 _atom_site_type_symbol
 _atom_site_label
 _atom_site_symmetry_multiplicity
 _atom_site_fract_x
 _atom_site_fract_y
 _atom_site_fract_z
 _atom_site_occupancy
  Yb  Yb0  1  0.393151  0.400622  0.000000  1
  Yb  Yb1  1  0.606849  0.007471  0.000000  1
  Yb  Yb2  1  0.000000  0.585846  0.000000  1
  Sn  Sn3  1  0.742652  0.738761  0.500000  1
  Sn  Sn4  1  0.257348  0.996109  0.500000  1
  Hg  Hg5  1  0.000000  0.264566  0.500000  1
  Pt  Pt6  1  0.647818  0.339734  0.500000  1
  Pt  Pt7  1  0.000000  0.974974  0.000000  1
  Pt  Pt8  1  0.352182  0.691917  0.500000  1
