# generated using pymatgen
data_Sr4W(IN2)2
_symmetry_space_group_name_H-M   'P 1'
_cell_length_a   6.23941100
_cell_length_b   8.10984590
_cell_length_c   11.23361326
_cell_angle_alpha   82.15728108
_cell_angle_beta   90.00000000
_cell_angle_gamma   90.00000000
_symmetry_Int_Tables_number   1
_chemical_formula_structural   Sr4W(IN2)2
_chemical_formula_sum   'Sr8 W2 I4 N8'
_cell_volume   563.11140099
_cell_formula_units_Z   2
loop_
 _symmetry_equiv_pos_site_id
 _symmetry_equiv_pos_as_xyz
  1  'x, y, z'
loop_
 _atom_site_type_symbol
 _atom_site_label
 _atom_site_symmetry_multiplicity
 _atom_site_fract_x
 _atom_site_fract_y
 _atom_site_fract_z
 _atom_site_occupancy
  Sr  Sr0  1  0.750000  0.280123  0.316475  1
  Sr  Sr1  1  0.750000  0.005732  0.612056  1
  Sr  Sr2  1  0.750000  0.447251  0.604233  1
  Sr  Sr3  1  0.750000  0.807152  0.117009  1
  Sr  Sr4  1  0.250000  0.994268  0.387944  1
  Sr  Sr5  1  0.250000  0.552749  0.395767  1
  Sr  Sr6  1  0.250000  0.192848  0.882991  1
  Sr  Sr7  1  0.250000  0.719877  0.683525  1
  W  W8  1  0.750000  0.770950  0.400167  1
  W  W9  1  0.250000  0.229050  0.599833  1
  I  I10  1  0.250000  0.328160  0.162185  1
  I  I11  1  0.750000  0.671840  0.837815  1
  I  I12  1  0.250000  0.836379  0.095951  1
  I  I13  1  0.750000  0.163621  0.904049  1
  N  N14  1  0.250000  0.030595  0.705941  1
  N  N15  1  0.001729  0.244118  0.499789  1
  N  N16  1  0.501729  0.755882  0.500211  1
  N  N17  1  0.998271  0.755882  0.500211  1
  N  N18  1  0.750000  0.599319  0.304054  1
  N  N19  1  0.750000  0.969405  0.294059  1
  N  N20  1  0.498271  0.244118  0.499789  1
  N  N21  1  0.250000  0.400681  0.695946  1
