# generated using pymatgen
data_Er3LuGa2Ir3
_symmetry_space_group_name_H-M   'P 1'
_cell_length_a   7.26663817
_cell_length_b   7.26663758
_cell_length_c   3.99084400
_cell_angle_alpha   90.00000000
_cell_angle_beta   90.00000000
_cell_angle_gamma   120.01243373
_symmetry_Int_Tables_number   1
_chemical_formula_structural   Er3LuGa2Ir3
_chemical_formula_sum   'Er3 Lu1 Ga2 Ir3'
_cell_volume   182.47694144
_cell_formula_units_Z   1
loop_
 _symmetry_equiv_pos_site_id
 _symmetry_equiv_pos_as_xyz
  1  'x, y, z'
loop_
 _atom_site_type_symbol
 _atom_site_label
 _atom_site_symmetry_multiplicity
 _atom_site_fract_x
 _atom_site_fract_y
 _atom_site_fract_z
 _atom_site_occupancy
  Er  Er0  1  0.386125  0.386125  0.500000  1
  Er  Er1  1  0.581851  0.019221  0.500000  1
  Er  Er2  1  0.019221  0.581851  0.500000  1
  Lu  Lu3  1  0.759579  0.759579  0.000000  1
  Ga  Ga4  1  0.250393  0.993972  0.000000  1
  Ga  Ga5  1  0.993972  0.250393  0.000000  1
  Ir  Ir6  1  0.663578  0.331140  0.000000  1
  Ir  Ir7  1  0.331140  0.663578  0.000000  1
  Ir  Ir8  1  0.014145  0.014145  0.500000  1
