# generated using pymatgen
data_Y16Sc4(RuPt3)3
_symmetry_space_group_name_H-M   'P 1'
_cell_length_a   10.90426000
_cell_length_b   10.90426000
_cell_length_c   6.22815400
_cell_angle_alpha   90.00000000
_cell_angle_beta   90.00000000
_cell_angle_gamma   90.00000000
_symmetry_Int_Tables_number   1
_chemical_formula_structural   Y16Sc4(RuPt3)3
_chemical_formula_sum   'Y16 Sc4 Ru3 Pt9'
_cell_volume   740.54548597
_cell_formula_units_Z   1
loop_
 _symmetry_equiv_pos_site_id
 _symmetry_equiv_pos_as_xyz
  1  'x, y, z'
loop_
 _atom_site_type_symbol
 _atom_site_label
 _atom_site_symmetry_multiplicity
 _atom_site_fract_x
 _atom_site_fract_y
 _atom_site_fract_z
 _atom_site_occupancy
  Y  Y0  1  0.289835  0.086731  0.376318  1
  Y  Y1  1  0.288929  0.912965  0.868388  1
  Y  Y2  1  0.711071  0.087035  0.868388  1
  Y  Y3  1  0.710165  0.913269  0.376318  1
  Y  Y4  1  0.587035  0.788929  0.868388  1
  Y  Y5  1  0.586731  0.210165  0.376318  1
  Y  Y6  1  0.413269  0.789835  0.376318  1
  Y  Y7  1  0.412965  0.211071  0.868388  1
  Y  Y8  1  0.207397  0.415373  0.626296  1
  Y  Y9  1  0.207572  0.585063  0.127147  1
  Y  Y10  1  0.792428  0.414937  0.127147  1
  Y  Y11  1  0.792603  0.584627  0.626296  1
  Y  Y12  1  0.914937  0.707572  0.127147  1
  Y  Y13  1  0.915373  0.292603  0.626296  1
  Y  Y14  1  0.084627  0.707397  0.626296  1
  Y  Y15  1  0.085063  0.292428  0.127147  1
  Sc  Sc16  1  0.000000  0.000000  0.501680  1
  Sc  Sc17  1  0.000000  0.000000  0.001972  1
  Sc  Sc18  1  0.500000  0.500000  0.001972  1
  Sc  Sc19  1  0.500000  0.500000  0.501680  1
  Ru  Ru20  1  0.500000  0.000000  0.620674  1
  Ru  Ru21  1  0.000000  0.500000  0.876762  1
  Ru  Ru22  1  0.000000  0.500000  0.376012  1
  Pt  Pt23  1  0.852143  0.145623  0.250769  1
  Pt  Pt24  1  0.853304  0.853107  0.751309  1
  Pt  Pt25  1  0.146696  0.146893  0.751309  1
  Pt  Pt26  1  0.147857  0.854377  0.250769  1
  Pt  Pt27  1  0.646893  0.353304  0.751309  1
  Pt  Pt28  1  0.645623  0.647857  0.250769  1
  Pt  Pt29  1  0.354377  0.352143  0.250769  1
  Pt  Pt30  1  0.353107  0.646696  0.751309  1
  Pt  Pt31  1  0.500000  0.000000  0.118334  1
