# generated using pymatgen
data_CsGa4BiO8
_symmetry_space_group_name_H-M   'P 1'
_cell_length_a   6.99545275
_cell_length_b   6.99545263
_cell_length_c   6.99545354
_cell_angle_alpha   102.37903664
_cell_angle_beta   93.72515883
_cell_angle_gamma   136.10829799
_symmetry_Int_Tables_number   1
_chemical_formula_structural   CsGa4BiO8
_chemical_formula_sum   'Cs1 Ga4 Bi1 O8'
_cell_volume   219.30834528
_cell_formula_units_Z   1
loop_
 _symmetry_equiv_pos_site_id
 _symmetry_equiv_pos_as_xyz
  1  'x, y, z'
loop_
 _atom_site_type_symbol
 _atom_site_label
 _atom_site_symmetry_multiplicity
 _atom_site_fract_x
 _atom_site_fract_y
 _atom_site_fract_z
 _atom_site_occupancy
  Cs  Cs0  1  0.991562  0.991562  0.000000  1
  Ga  Ga1  1  0.373061  0.842930  0.127947  1
  Ga  Ga2  1  0.714983  0.842930  0.469870  1
  Ga  Ga3  1  0.373060  0.245113  0.530130  1
  Ga  Ga4  1  0.714982  0.245113  0.872052  1
  Bi  Bi5  1  0.109094  0.609094  0.500000  1
  O  O6  1  0.717673  0.201005  0.125437  1
  O  O7  1  0.400212  0.645527  0.245316  1
  O  O8  1  0.234227  0.908425  0.325802  1
  O  O9  1  0.075568  0.201004  0.483332  1
  O  O10  1  0.717673  0.592237  0.516667  1
  O  O11  1  0.582623  0.908425  0.674198  1
  O  O12  1  0.400211  0.154895  0.754684  1
  O  O13  1  0.075568  0.592236  0.874563  1
