# generated using pymatgen
data_La5TcHg2
_symmetry_space_group_name_H-M   'P 1'
_cell_length_a   9.06721000
_cell_length_b   8.74470400
_cell_length_c   12.55205300
_cell_angle_alpha   90.00000000
_cell_angle_beta   90.00000000
_cell_angle_gamma   90.00000000
_symmetry_Int_Tables_number   1
_chemical_formula_structural   La5TcHg2
_chemical_formula_sum   'La20 Tc4 Hg8'
_cell_volume   995.25313033
_cell_formula_units_Z   4
loop_
 _symmetry_equiv_pos_site_id
 _symmetry_equiv_pos_as_xyz
  1  'x, y, z'
loop_
 _atom_site_type_symbol
 _atom_site_label
 _atom_site_symmetry_multiplicity
 _atom_site_fract_x
 _atom_site_fract_y
 _atom_site_fract_z
 _atom_site_occupancy
  La  La0  1  0.333591  0.750000  0.706544  1
  La  La1  1  0.666409  0.250000  0.293456  1
  La  La2  1  0.833591  0.250000  0.793456  1
  La  La3  1  0.166409  0.750000  0.206544  1
  La  La4  1  0.895942  0.750000  0.800885  1
  La  La5  1  0.104058  0.250000  0.199115  1
  La  La6  1  0.395942  0.250000  0.699115  1
  La  La7  1  0.604058  0.750000  0.300885  1
  La  La8  1  0.673387  0.538997  0.566858  1
  La  La9  1  0.326613  0.461003  0.433142  1
  La  La10  1  0.173387  0.461003  0.933142  1
  La  La11  1  0.326613  0.038997  0.433142  1
  La  La12  1  0.826613  0.538997  0.066858  1
  La  La13  1  0.673387  0.961003  0.566858  1
  La  La14  1  0.826613  0.961003  0.066858  1
  La  La15  1  0.173387  0.038997  0.933142  1
  La  La16  1  0.059712  0.750000  0.513043  1
  La  La17  1  0.940288  0.250000  0.486957  1
  La  La18  1  0.559712  0.250000  0.986957  1
  La  La19  1  0.440288  0.750000  0.013043  1
  Tc  Tc20  1  0.078272  0.750000  0.981101  1
  Tc  Tc21  1  0.921728  0.250000  0.018899  1
  Tc  Tc22  1  0.578272  0.250000  0.518899  1
  Tc  Tc23  1  0.421728  0.750000  0.481101  1
  Hg  Hg24  1  0.582074  0.541095  0.828121  1
  Hg  Hg25  1  0.417926  0.458905  0.171879  1
  Hg  Hg26  1  0.082074  0.458905  0.671879  1
  Hg  Hg27  1  0.417926  0.041095  0.171879  1
  Hg  Hg28  1  0.917926  0.541095  0.328121  1
  Hg  Hg29  1  0.582074  0.958905  0.828121  1
  Hg  Hg30  1  0.917926  0.958905  0.328121  1
  Hg  Hg31  1  0.082074  0.041095  0.671879  1
