# generated using pymatgen
data_Pr4Al18CuPtRh4
_symmetry_space_group_name_H-M   'P 1'
_cell_length_a   7.67002490
_cell_length_b   7.67000967
_cell_length_c   9.62405646
_cell_angle_alpha   90.01069890
_cell_angle_beta   90.01076614
_cell_angle_gamma   119.45796010
_symmetry_Int_Tables_number   1
_chemical_formula_structural   Pr4Al18CuPtRh4
_chemical_formula_sum   'Pr4 Al18 Cu1 Pt1 Rh4'
_cell_volume   492.97821308
_cell_formula_units_Z   1
loop_
 _symmetry_equiv_pos_site_id
 _symmetry_equiv_pos_as_xyz
  1  'x, y, z'
loop_
 _atom_site_type_symbol
 _atom_site_label
 _atom_site_symmetry_multiplicity
 _atom_site_fract_x
 _atom_site_fract_y
 _atom_site_fract_z
 _atom_site_occupancy
  Pr  Pr0  1  0.994929  0.673630  0.748697  1
  Pr  Pr1  1  0.005071  0.326370  0.251303  1
  Pr  Pr2  1  0.673631  0.994930  0.748696  1
  Pr  Pr3  1  0.326369  0.005070  0.251304  1
  Al  Al4  1  0.135959  0.135959  0.749907  1
  Al  Al5  1  0.864041  0.864041  0.250093  1
  Al  Al6  1  0.003351  0.339725  0.574339  1
  Al  Al7  1  0.996649  0.660275  0.425661  1
  Al  Al8  1  0.998347  0.661460  0.072412  1
  Al  Al9  1  0.338540  0.001653  0.927588  1
  Al  Al10  1  0.001653  0.338540  0.927588  1
  Al  Al11  1  0.661460  0.998347  0.072412  1
  Al  Al12  1  0.660275  0.996648  0.425661  1
  Al  Al13  1  0.339725  0.003352  0.574339  1
  Al  Al14  1  0.337402  0.337402  0.047382  1
  Al  Al15  1  0.662598  0.662598  0.952618  1
  Al  Al16  1  0.661562  0.661563  0.548928  1
  Al  Al17  1  0.338438  0.338437  0.451072  1
  Al  Al18  1  0.339581  0.548339  0.750394  1
  Al  Al19  1  0.660419  0.451661  0.249606  1
  Al  Al20  1  0.548339  0.339581  0.750393  1
  Al  Al21  1  0.451661  0.660419  0.249607  1
  Cu  Cu22  1  0.000000  0.000000  0.500000  1
  Pt  Pt23  1  0.000000  0.000000  0.000000  1
  Rh  Rh24  1  0.670871  0.329128  0.499999  1
  Rh  Rh25  1  0.329129  0.670872  0.500001  1
  Rh  Rh26  1  0.329348  0.670652  0.000000  1
  Rh  Rh27  1  0.670652  0.329348  0.000000  1
