# generated using pymatgen
data_Pr15Si9O
_symmetry_space_group_name_H-M   'P 1'
_cell_length_a   15.16215400
_cell_length_b   15.16215440
_cell_length_c   6.72303800
_cell_angle_alpha   90.00000000
_cell_angle_beta   90.00000000
_cell_angle_gamma   119.99999913
_symmetry_Int_Tables_number   1
_chemical_formula_structural   Pr15Si9O
_chemical_formula_sum   'Pr30 Si18 O2'
_cell_volume   1338.49890331
_cell_formula_units_Z   2
loop_
 _symmetry_equiv_pos_site_id
 _symmetry_equiv_pos_as_xyz
  1  'x, y, z'
loop_
 _atom_site_type_symbol
 _atom_site_label
 _atom_site_symmetry_multiplicity
 _atom_site_fract_x
 _atom_site_fract_y
 _atom_site_fract_z
 _atom_site_occupancy
  Pr  Pr0  1  0.345772  0.023961  0.519482  1
  Pr  Pr1  1  0.976039  0.321811  0.519482  1
  Pr  Pr2  1  0.654228  0.976039  0.019482  1
  Pr  Pr3  1  0.976039  0.654228  0.519482  1
  Pr  Pr4  1  0.678189  0.654228  0.519482  1
  Pr  Pr5  1  0.023961  0.678189  0.019482  1
  Pr  Pr6  1  0.678189  0.023961  0.519482  1
  Pr  Pr7  1  0.023961  0.345772  0.019482  1
  Pr  Pr8  1  0.321811  0.345772  0.019482  1
  Pr  Pr9  1  0.321811  0.976039  0.019482  1
  Pr  Pr10  1  0.345772  0.321811  0.519482  1
  Pr  Pr11  1  0.654228  0.678189  0.019482  1
  Pr  Pr12  1  0.586161  0.413839  0.780886  1
  Pr  Pr13  1  0.586161  0.172322  0.780886  1
  Pr  Pr14  1  0.413839  0.586161  0.280886  1
  Pr  Pr15  1  0.827678  0.413839  0.780886  1
  Pr  Pr16  1  0.413839  0.827678  0.280886  1
  Pr  Pr17  1  0.172322  0.586161  0.280886  1
  Pr  Pr18  1  0.920232  0.079768  0.792553  1
  Pr  Pr19  1  0.920232  0.840465  0.792553  1
  Pr  Pr20  1  0.079768  0.920232  0.292553  1
  Pr  Pr21  1  0.159535  0.079768  0.792553  1
  Pr  Pr22  1  0.079768  0.159535  0.292553  1
  Pr  Pr23  1  0.840465  0.920232  0.292553  1
  Pr  Pr24  1  0.255193  0.744807  0.736417  1
  Pr  Pr25  1  0.255193  0.510385  0.736417  1
  Pr  Pr26  1  0.744807  0.255193  0.236417  1
  Pr  Pr27  1  0.489615  0.744807  0.736417  1
  Pr  Pr28  1  0.744807  0.489615  0.236417  1
  Pr  Pr29  1  0.510385  0.255193  0.236417  1
  Si  Si30  1  0.136397  0.863603  0.705097  1
  Si  Si31  1  0.136397  0.272793  0.705097  1
  Si  Si32  1  0.863603  0.136397  0.205097  1
  Si  Si33  1  0.727207  0.863603  0.705097  1
  Si  Si34  1  0.863603  0.727207  0.205097  1
  Si  Si35  1  0.272793  0.136397  0.205097  1
  Si  Si36  1  0.804283  0.195717  0.838779  1
  Si  Si37  1  0.804283  0.608564  0.838779  1
  Si  Si38  1  0.195717  0.804283  0.338779  1
  Si  Si39  1  0.391436  0.195717  0.838779  1
  Si  Si40  1  0.195717  0.391436  0.338779  1
  Si  Si41  1  0.608564  0.804283  0.338779  1
  Si  Si42  1  0.468434  0.531566  0.746371  1
  Si  Si43  1  0.468434  0.936867  0.746371  1
  Si  Si44  1  0.531566  0.468434  0.246371  1
  Si  Si45  1  0.063133  0.531566  0.746371  1
  Si  Si46  1  0.531566  0.063133  0.246371  1
  Si  Si47  1  0.936867  0.468434  0.246371  1
  O  O48  1  0.333333  0.666667  0.507043  1
  O  O49  1  0.666667  0.333333  0.007043  1
