# generated using pymatgen
data_Y20Si15Ir
_symmetry_space_group_name_H-M   'P 1'
_cell_length_a   7.40887512
_cell_length_b   7.76238580
_cell_length_c   14.62221000
_cell_angle_alpha   90.00000000
_cell_angle_beta   90.00000000
_cell_angle_gamma   89.95075411
_symmetry_Int_Tables_number   1
_chemical_formula_structural   Y20Si15Ir
_chemical_formula_sum   'Y20 Si15 Ir1'
_cell_volume   840.93098535
_cell_formula_units_Z   1
loop_
 _symmetry_equiv_pos_site_id
 _symmetry_equiv_pos_as_xyz
  1  'x, y, z'
loop_
 _atom_site_type_symbol
 _atom_site_label
 _atom_site_symmetry_multiplicity
 _atom_site_fract_x
 _atom_site_fract_y
 _atom_site_fract_z
 _atom_site_occupancy
  Y  Y0  1  0.674187  0.183733  0.625105  1
  Y  Y1  1  0.191338  0.324707  0.873905  1
  Y  Y2  1  0.317975  0.819706  0.123565  1
  Y  Y3  1  0.817382  0.677928  0.377052  1
  Y  Y4  1  0.317975  0.819706  0.376435  1
  Y  Y5  1  0.817382  0.677928  0.122948  1
  Y  Y6  1  0.674187  0.183733  0.874895  1
  Y  Y7  1  0.191338  0.324707  0.626095  1
  Y  Y8  1  0.522651  0.675597  0.594050  1
  Y  Y9  1  0.025938  0.816844  0.904237  1
  Y  Y10  1  0.472974  0.314467  0.097434  1
  Y  Y11  1  0.973398  0.182727  0.403556  1
  Y  Y12  1  0.472974  0.314467  0.402566  1
  Y  Y13  1  0.973398  0.182727  0.096444  1
  Y  Y14  1  0.522651  0.675597  0.905950  1
  Y  Y15  1  0.025938  0.816844  0.595763  1
  Y  Y16  1  0.841343  0.514722  0.750000  1
  Y  Y17  1  0.354799  0.980678  0.750000  1
  Y  Y18  1  0.149749  0.483921  0.250000  1
  Y  Y19  1  0.648774  0.014295  0.250000  1
  Si  Si20  1  0.645624  0.971612  0.460293  1
  Si  Si21  1  0.149212  0.527983  0.039284  1
  Si  Si22  1  0.349981  0.025997  0.960755  1
  Si  Si23  1  0.856457  0.470386  0.539490  1
  Si  Si24  1  0.349981  0.025997  0.539245  1
  Si  Si25  1  0.856457  0.470386  0.960510  1
  Si  Si26  1  0.645624  0.971612  0.039707  1
  Si  Si27  1  0.149212  0.527983  0.460716  1
  Si  Si28  1  0.980491  0.101700  0.750000  1
  Si  Si29  1  0.522970  0.602230  0.250000  1
  Si  Si30  1  0.019721  0.895558  0.250000  1
  Si  Si31  1  0.742134  0.878528  0.750000  1
  Si  Si32  1  0.228525  0.632432  0.750000  1
  Si  Si33  1  0.265817  0.126264  0.250000  1
  Si  Si34  1  0.767959  0.372905  0.250000  1
  Ir  Ir35  1  0.483487  0.413393  0.750000  1
