# generated using pymatgen
data_Pa4Re3TcB16
_symmetry_space_group_name_H-M   'P 1'
_cell_length_a   3.66785600
_cell_length_b   5.97220905
_cell_length_c   11.58625309
_cell_angle_alpha   89.98585785
_cell_angle_beta   90.00000000
_cell_angle_gamma   90.00000000
_symmetry_Int_Tables_number   1
_chemical_formula_structural   Pa4Re3TcB16
_chemical_formula_sum   'Pa4 Re3 Tc1 B16'
_cell_volume   253.79921564
_cell_formula_units_Z   1
loop_
 _symmetry_equiv_pos_site_id
 _symmetry_equiv_pos_as_xyz
  1  'x, y, z'
loop_
 _atom_site_type_symbol
 _atom_site_label
 _atom_site_symmetry_multiplicity
 _atom_site_fract_x
 _atom_site_fract_y
 _atom_site_fract_z
 _atom_site_occupancy
  Pa  Pa0  1  0.000000  0.627728  0.350422  1
  Pa  Pa1  1  0.000000  0.372577  0.649697  1
  Pa  Pa2  1  0.000000  0.127758  0.149908  1
  Pa  Pa3  1  0.000000  0.872397  0.849738  1
  Re  Re4  1  0.000000  0.638932  0.094229  1
  Re  Re5  1  0.000000  0.361046  0.905864  1
  Re  Re6  1  0.000000  0.138434  0.406017  1
  Tc  Tc7  1  0.000000  0.861062  0.594346  1
  B  B8  1  0.500000  0.788655  0.187575  1
  B  B9  1  0.500000  0.211241  0.812323  1
  B  B10  1  0.500000  0.288517  0.312548  1
  B  B11  1  0.500000  0.711405  0.687414  1
  B  B12  1  0.500000  0.864408  0.031939  1
  B  B13  1  0.500000  0.135575  0.967977  1
  B  B14  1  0.500000  0.364520  0.468007  1
  B  B15  1  0.500000  0.635479  0.532099  1
  B  B16  1  0.500000  0.887178  0.454007  1
  B  B17  1  0.500000  0.112845  0.545958  1
  B  B18  1  0.500000  0.386897  0.046029  1
  B  B19  1  0.500000  0.613125  0.953931  1
  B  B20  1  0.500000  0.972596  0.308676  1
  B  B21  1  0.500000  0.027407  0.691424  1
  B  B22  1  0.500000  0.472505  0.191297  1
  B  B23  1  0.500000  0.527716  0.808576  1
