# generated using pymatgen
data_Y4Al3GaPdRh3
_symmetry_space_group_name_H-M   'P 1'
_cell_length_a   4.29279400
_cell_length_b   6.92370522
_cell_length_c   7.89250177
_cell_angle_alpha   90.12665163
_cell_angle_beta   90.00000000
_cell_angle_gamma   90.00000000
_symmetry_Int_Tables_number   1
_chemical_formula_structural   Y4Al3GaPdRh3
_chemical_formula_sum   'Y4 Al3 Ga1 Pd1 Rh3'
_cell_volume   234.58068205
_cell_formula_units_Z   1
loop_
 _symmetry_equiv_pos_site_id
 _symmetry_equiv_pos_as_xyz
  1  'x, y, z'
loop_
 _atom_site_type_symbol
 _atom_site_label
 _atom_site_symmetry_multiplicity
 _atom_site_fract_x
 _atom_site_fract_y
 _atom_site_fract_z
 _atom_site_occupancy
  Y  Y0  1  0.250000  0.030784  0.320330  1
  Y  Y1  1  0.250000  0.535652  0.180150  1
  Y  Y2  1  0.750000  0.969171  0.682787  1
  Y  Y3  1  0.750000  0.469566  0.817313  1
  Al  Al4  1  0.250000  0.638861  0.562513  1
  Al  Al5  1  0.750000  0.854254  0.062773  1
  Al  Al6  1  0.750000  0.362507  0.439354  1
  Ga  Ga7  1  0.250000  0.142470  0.934459  1
  Pd  Pd8  1  0.750000  0.228816  0.122521  1
  Rh  Rh9  1  0.250000  0.269597  0.614053  1
  Rh  Rh10  1  0.250000  0.765901  0.882470  1
  Rh  Rh11  1  0.750000  0.732421  0.381278  1
