# generated using pymatgen
data_Nd3AlC3
_symmetry_space_group_name_H-M   'P 1'
_cell_length_a   3.76416700
_cell_length_b   7.39901300
_cell_length_c   10.24397300
_cell_angle_alpha   90.00000000
_cell_angle_beta   90.00000000
_cell_angle_gamma   90.00000000
_symmetry_Int_Tables_number   1
_chemical_formula_structural   Nd3AlC3
_chemical_formula_sum   'Nd6 Al2 C6'
_cell_volume   285.30612711
_cell_formula_units_Z   2
loop_
 _symmetry_equiv_pos_site_id
 _symmetry_equiv_pos_as_xyz
  1  'x, y, z'
loop_
 _atom_site_type_symbol
 _atom_site_label
 _atom_site_symmetry_multiplicity
 _atom_site_fract_x
 _atom_site_fract_y
 _atom_site_fract_z
 _atom_site_occupancy
  Nd  Nd0  1  0.500000  0.509365  0.195005  1
  Nd  Nd1  1  0.500000  0.490635  0.804995  1
  Nd  Nd2  1  0.500000  0.990635  0.195005  1
  Nd  Nd3  1  0.500000  0.009365  0.804995  1
  Nd  Nd4  1  0.000000  0.750000  0.458439  1
  Nd  Nd5  1  0.000000  0.250000  0.541561  1
  Al  Al6  1  0.000000  0.750000  0.011201  1
  Al  Al7  1  0.000000  0.250000  0.988799  1
  C  C8  1  0.500000  0.507663  0.563989  1
  C  C9  1  0.500000  0.492337  0.436011  1
  C  C10  1  0.500000  0.992337  0.563989  1
  C  C11  1  0.500000  0.007663  0.436011  1
  C  C12  1  0.000000  0.750000  0.208836  1
  C  C13  1  0.000000  0.250000  0.791164  1
