# generated using pymatgen
data_La5Pr3SbPd24
_symmetry_space_group_name_H-M   'P 1'
_cell_length_a   8.58079573
_cell_length_b   8.58079547
_cell_length_c   8.58079600
_cell_angle_alpha   90.05341769
_cell_angle_beta   90.05341769
_cell_angle_gamma   90.05342129
_symmetry_Int_Tables_number   1
_chemical_formula_structural   La5Pr3SbPd24
_chemical_formula_sum   'La5 Pr3 Sb1 Pd24'
_cell_volume   631.80364071
_cell_formula_units_Z   1
loop_
 _symmetry_equiv_pos_site_id
 _symmetry_equiv_pos_as_xyz
  1  'x, y, z'
loop_
 _atom_site_type_symbol
 _atom_site_label
 _atom_site_symmetry_multiplicity
 _atom_site_fract_x
 _atom_site_fract_y
 _atom_site_fract_z
 _atom_site_occupancy
  La  La0  1  0.747585  0.747585  0.747585  1
  La  La1  1  0.747690  0.252416  0.252416  1
  La  La2  1  0.252416  0.252416  0.747690  1
  La  La3  1  0.252416  0.747690  0.252416  1
  La  La4  1  0.252060  0.252060  0.252060  1
  Pr  Pr5  1  0.748132  0.748132  0.251800  1
  Pr  Pr6  1  0.748132  0.251800  0.748132  1
  Pr  Pr7  1  0.251800  0.748132  0.748132  1
  Sb  Sb8  1  0.999917  0.999917  0.999917  1
  Pd  Pd9  1  0.999567  0.999567  0.313321  1
  Pd  Pd10  1  0.732879  0.000113  0.500116  1
  Pd  Pd11  1  0.732879  0.500116  0.000113  1
  Pd  Pd12  1  0.500116  0.000113  0.732879  1
  Pd  Pd13  1  0.000113  0.732879  0.500116  1
  Pd  Pd14  1  0.500003  0.999736  0.267070  1
  Pd  Pd15  1  0.999736  0.267070  0.500003  1
  Pd  Pd16  1  0.500116  0.732879  0.000113  1
  Pd  Pd17  1  0.255331  0.500179  0.500179  1
  Pd  Pd18  1  0.500012  0.500012  0.744707  1
  Pd  Pd19  1  0.500179  0.500179  0.255331  1
  Pd  Pd20  1  0.500179  0.255331  0.500179  1
  Pd  Pd21  1  0.500012  0.744707  0.500012  1
  Pd  Pd22  1  0.744707  0.500012  0.500012  1
  Pd  Pd23  1  0.313321  0.999567  0.999567  1
  Pd  Pd24  1  0.000119  0.000119  0.686907  1
  Pd  Pd25  1  0.999736  0.500003  0.267070  1
  Pd  Pd26  1  0.999567  0.313321  0.999567  1
  Pd  Pd27  1  0.000119  0.686907  0.000119  1
  Pd  Pd28  1  0.686907  0.000119  0.000119  1
  Pd  Pd29  1  0.267070  0.500003  0.999736  1
  Pd  Pd30  1  0.267070  0.999736  0.500003  1
  Pd  Pd31  1  0.000113  0.500116  0.732879  1
  Pd  Pd32  1  0.500003  0.267070  0.999736  1
