# generated using pymatgen
data_Ac5Tl2Co
_symmetry_space_group_name_H-M   'P 1'
_cell_length_a   8.54619800
_cell_length_b   9.95942500
_cell_length_c   13.37665800
_cell_angle_alpha   90.00000000
_cell_angle_beta   90.00000000
_cell_angle_gamma   90.00000000
_symmetry_Int_Tables_number   1
_chemical_formula_structural   Ac5Tl2Co
_chemical_formula_sum   'Ac20 Tl8 Co4'
_cell_volume   1138.55716200
_cell_formula_units_Z   4
loop_
 _symmetry_equiv_pos_site_id
 _symmetry_equiv_pos_as_xyz
  1  'x, y, z'
loop_
 _atom_site_type_symbol
 _atom_site_label
 _atom_site_symmetry_multiplicity
 _atom_site_fract_x
 _atom_site_fract_y
 _atom_site_fract_z
 _atom_site_occupancy
  Ac  Ac0  1  0.344753  0.750000  0.709524  1
  Ac  Ac1  1  0.655247  0.250000  0.290476  1
  Ac  Ac2  1  0.844753  0.250000  0.790476  1
  Ac  Ac3  1  0.155247  0.750000  0.209524  1
  Ac  Ac4  1  0.882827  0.750000  0.814553  1
  Ac  Ac5  1  0.117173  0.250000  0.185447  1
  Ac  Ac6  1  0.382827  0.250000  0.685447  1
  Ac  Ac7  1  0.617173  0.750000  0.314553  1
  Ac  Ac8  1  0.673586  0.533424  0.579436  1
  Ac  Ac9  1  0.326414  0.466576  0.420564  1
  Ac  Ac10  1  0.173586  0.466576  0.920564  1
  Ac  Ac11  1  0.326414  0.033424  0.420564  1
  Ac  Ac12  1  0.826414  0.533424  0.079436  1
  Ac  Ac13  1  0.673586  0.966576  0.579436  1
  Ac  Ac14  1  0.826414  0.966576  0.079436  1
  Ac  Ac15  1  0.173586  0.033424  0.920564  1
  Ac  Ac16  1  0.060115  0.750000  0.498807  1
  Ac  Ac17  1  0.939885  0.250000  0.501193  1
  Ac  Ac18  1  0.560115  0.250000  0.001193  1
  Ac  Ac19  1  0.439885  0.750000  0.998807  1
  Tl  Tl20  1  0.571451  0.508502  0.833714  1
  Tl  Tl21  1  0.428549  0.491498  0.166286  1
  Tl  Tl22  1  0.071451  0.491498  0.666286  1
  Tl  Tl23  1  0.428549  0.008502  0.166286  1
  Tl  Tl24  1  0.928549  0.508502  0.333714  1
  Tl  Tl25  1  0.571451  0.991498  0.833714  1
  Tl  Tl26  1  0.928549  0.991498  0.333714  1
  Tl  Tl27  1  0.071451  0.008502  0.666286  1
  Co  Co28  1  0.075490  0.750000  0.996119  1
  Co  Co29  1  0.924510  0.250000  0.003881  1
  Co  Co30  1  0.575490  0.250000  0.503881  1
  Co  Co31  1  0.424510  0.750000  0.496119  1
