# generated using pymatgen
data_Li8CdAu9
_symmetry_space_group_name_H-M   'P 1'
_cell_length_a   7.76746500
_cell_length_b   7.76746560
_cell_length_c   5.52033000
_cell_angle_alpha   90.00000000
_cell_angle_beta   90.00000000
_cell_angle_gamma   119.99999317
_symmetry_Int_Tables_number   1
_chemical_formula_structural   Li8CdAu9
_chemical_formula_sum   'Li8 Cd1 Au9'
_cell_volume   288.43924204
_cell_formula_units_Z   1
loop_
 _symmetry_equiv_pos_site_id
 _symmetry_equiv_pos_as_xyz
  1  'x, y, z'
loop_
 _atom_site_type_symbol
 _atom_site_label
 _atom_site_symmetry_multiplicity
 _atom_site_fract_x
 _atom_site_fract_y
 _atom_site_fract_z
 _atom_site_occupancy
  Li  Li0  1  0.989090  0.654997  0.231812  1
  Li  Li1  1  0.665906  0.010910  0.231812  1
  Li  Li2  1  0.345003  0.334094  0.231812  1
  Li  Li3  1  0.334835  0.003097  0.886183  1
  Li  Li4  1  0.668262  0.665165  0.886183  1
  Li  Li5  1  0.996903  0.331738  0.886183  1
  Li  Li6  1  0.333333  0.666667  0.564802  1
  Li  Li7  1  0.000000  0.000000  0.570223  1
  Cd  Cd8  1  0.666667  0.333333  0.537063  1
  Au  Au9  1  0.013814  0.679029  0.741352  1
  Au  Au10  1  0.665215  0.986186  0.741352  1
  Au  Au11  1  0.320971  0.334785  0.741352  1
  Au  Au12  1  0.309640  0.977266  0.380650  1
  Au  Au13  1  0.667626  0.690360  0.380650  1
  Au  Au14  1  0.022734  0.332374  0.380650  1
  Au  Au15  1  0.333333  0.666667  0.062722  1
  Au  Au16  1  0.000000  0.000000  0.066031  1
  Au  Au17  1  0.666667  0.333333  0.037532  1
