# generated using pymatgen
data_Zr6Ti7Al9CoRh7
_symmetry_space_group_name_H-M   'P 1'
_cell_length_a   8.91123194
_cell_length_b   8.91137147
_cell_length_c   8.91229121
_cell_angle_alpha   59.85403405
_cell_angle_beta   59.85492396
_cell_angle_gamma   59.84873058
_symmetry_Int_Tables_number   1
_chemical_formula_structural   Zr6Ti7Al9CoRh7
_chemical_formula_sum   'Zr6 Ti7 Al9 Co1 Rh7'
_cell_volume   498.77093786
_cell_formula_units_Z   1
loop_
 _symmetry_equiv_pos_site_id
 _symmetry_equiv_pos_as_xyz
  1  'x, y, z'
loop_
 _atom_site_type_symbol
 _atom_site_label
 _atom_site_symmetry_multiplicity
 _atom_site_fract_x
 _atom_site_fract_y
 _atom_site_fract_z
 _atom_site_occupancy
  Zr  Zr0  1  0.202797  0.202828  0.795316  1
  Zr  Zr1  1  0.795308  0.202835  0.202821  1
  Zr  Zr2  1  0.202811  0.795314  0.202828  1
  Zr  Zr3  1  0.800646  0.800643  0.191568  1
  Zr  Zr4  1  0.191551  0.800657  0.800654  1
  Zr  Zr5  1  0.800652  0.191568  0.800644  1
  Ti  Ti6  1  0.378669  0.378668  0.378667  1
  Ti  Ti7  1  0.379277  0.863347  0.379263  1
  Ti  Ti8  1  0.863339  0.379260  0.379272  1
  Ti  Ti9  1  0.379284  0.379260  0.863344  1
  Ti  Ti10  1  0.834354  0.501619  0.834365  1
  Ti  Ti11  1  0.501620  0.834357  0.834361  1
  Ti  Ti12  1  0.834354  0.834360  0.501621  1
  Al  Al13  1  0.163446  0.163462  0.163481  1
  Al  Al14  1  0.166646  0.501457  0.166718  1
  Al  Al15  1  0.501462  0.166669  0.166693  1
  Al  Al16  1  0.166657  0.166705  0.501444  1
  Al  Al17  1  0.618890  0.618877  0.618874  1
  Al  Al18  1  0.618166  0.146262  0.618139  1
  Al  Al19  1  0.146224  0.618168  0.618160  1
  Al  Al20  1  0.618163  0.618143  0.146261  1
  Al  Al21  1  0.828899  0.828890  0.828894  1
  Co  Co22  1  0.002013  0.002024  0.002024  1
  Rh  Rh23  1  0.003162  0.003184  0.496917  1
  Rh  Rh24  1  0.497031  0.003125  0.003085  1
  Rh  Rh25  1  0.003202  0.496889  0.003192  1
  Rh  Rh26  1  0.499623  0.499632  0.001383  1
  Rh  Rh27  1  0.001364  0.499604  0.499614  1
  Rh  Rh28  1  0.499609  0.001384  0.499627  1
  Rh  Rh29  1  0.500783  0.500810  0.500771  1
