# generated using pymatgen
data_Ho2ZnIrRu
_symmetry_space_group_name_H-M   'P 1'
_cell_length_a   5.44289659
_cell_length_b   5.44289658
_cell_length_c   5.44289659
_cell_angle_alpha   134.79297127
_cell_angle_beta   115.08459035
_cell_angle_gamma   82.61690768
_symmetry_Int_Tables_number   1
_chemical_formula_structural   Ho2ZnIrRu
_chemical_formula_sum   'Ho2 Zn1 Ir1 Ru1'
_cell_volume   99.93751953
_cell_formula_units_Z   1
loop_
 _symmetry_equiv_pos_site_id
 _symmetry_equiv_pos_as_xyz
  1  'x, y, z'
loop_
 _atom_site_type_symbol
 _atom_site_label
 _atom_site_symmetry_multiplicity
 _atom_site_fract_x
 _atom_site_fract_y
 _atom_site_fract_z
 _atom_site_occupancy
  Ho  Ho0  1  0.705950  0.206422  0.499528  1
  Ho  Ho1  1  0.293107  0.793577  0.499528  1
  Zn  Zn2  1  0.002572  0.000000  0.002572  1
  Ir  Ir3  1  0.723711  0.500000  0.223711  1
  Ru  Ru4  1  0.274658  0.499999  0.774657  1
