# generated using pymatgen
data_SrCaLa2Os6O19
_symmetry_space_group_name_H-M   'P 1'
_cell_length_a   7.95117376
_cell_length_b   8.02579676
_cell_length_c   7.90933451
_cell_angle_alpha   109.42934129
_cell_angle_beta   109.28901249
_cell_angle_gamma   109.79819390
_symmetry_Int_Tables_number   1
_chemical_formula_structural   SrCaLa2Os6O19
_chemical_formula_sum   'Sr1 Ca1 La2 Os6 O19'
_cell_volume   388.04126889
_cell_formula_units_Z   1
loop_
 _symmetry_equiv_pos_site_id
 _symmetry_equiv_pos_as_xyz
  1  'x, y, z'
loop_
 _atom_site_type_symbol
 _atom_site_label
 _atom_site_symmetry_multiplicity
 _atom_site_fract_x
 _atom_site_fract_y
 _atom_site_fract_z
 _atom_site_occupancy
  Sr  Sr0  1  0.999173  0.001069  0.314792  1
  Ca  Ca1  1  0.999210  0.287583  0.997463  1
  La  La2  1  0.697412  0.696093  0.694733  1
  La  La3  1  0.305287  0.003145  0.999989  1
  Os  Os4  1  0.362022  0.500075  0.863814  1
  Os  Os5  1  0.864096  0.362700  0.500473  1
  Os  Os6  1  0.501947  0.139038  0.640027  1
  Os  Os7  1  0.135217  0.634317  0.495362  1
  Os  Os8  1  0.499934  0.865332  0.364003  1
  Os  Os9  1  0.636748  0.501330  0.138033  1
  O  O10  1  0.329340  0.001828  0.327838  1
  O  O11  1  0.326888  0.330056  0.004154  1
  O  O12  1  0.002654  0.671113  0.674593  1
  O  O13  1  0.671359  0.669921  0.995587  1
  O  O14  1  0.997566  0.328732  0.322770  1
  O  O15  1  0.672712  0.001965  0.675679  1
  O  O16  1  0.000365  0.986198  0.976925  1
  O  O17  1  0.355654  0.290989  0.640439  1
  O  O18  1  0.062197  0.347346  0.713464  1
  O  O19  1  0.716469  0.366990  0.654870  1
  O  O20  1  0.367072  0.652599  0.713314  1
  O  O21  1  0.283377  0.936217  0.649876  1
  O  O22  1  0.630817  0.355649  0.294321  1
  O  O23  1  0.287013  0.634327  0.346526  1
  O  O24  1  0.706613  0.065857  0.343521  1
  O  O25  1  0.934187  0.647143  0.286249  1
  O  O26  1  0.657169  0.721736  0.369042  1
  O  O27  1  0.646797  0.283000  0.940693  1
  O  O28  1  0.350706  0.717654  0.061450  1
