# generated using pymatgen
data_La9Nd7(InIr)4
_symmetry_space_group_name_H-M   'P 1'
_cell_length_a   10.05856439
_cell_length_b   10.05856501
_cell_length_c   10.04503800
_cell_angle_alpha   60.04447650
_cell_angle_beta   60.04447447
_cell_angle_gamma   60.46720671
_symmetry_Int_Tables_number   1
_chemical_formula_structural   La9Nd7(InIr)4
_chemical_formula_sum   'La9 Nd7 In4 Ir4'
_cell_volume   721.62628611
_cell_formula_units_Z   1
loop_
 _symmetry_equiv_pos_site_id
 _symmetry_equiv_pos_as_xyz
  1  'x, y, z'
loop_
 _atom_site_type_symbol
 _atom_site_label
 _atom_site_symmetry_multiplicity
 _atom_site_fract_x
 _atom_site_fract_y
 _atom_site_fract_z
 _atom_site_occupancy
  La  La0  1  0.347802  0.347802  0.347815  1
  La  La1  1  0.347802  0.347802  0.956579  1
  La  La2  1  0.349832  0.957191  0.346488  1
  La  La3  1  0.957191  0.349832  0.346488  1
  La  La4  1  0.807580  0.189488  0.192895  1
  La  La5  1  0.189488  0.807580  0.810038  1
  La  La6  1  0.189488  0.807580  0.192895  1
  La  La7  1  0.807580  0.189488  0.810038  1
  La  La8  1  0.191204  0.191204  0.808796  1
  Nd  Nd9  1  0.805136  0.805136  0.194864  1
  Nd  Nd10  1  0.936846  0.563947  0.562877  1
  Nd  Nd11  1  0.563947  0.936846  0.936330  1
  Nd  Nd12  1  0.563947  0.936846  0.562877  1
  Nd  Nd13  1  0.936846  0.563947  0.936330  1
  Nd  Nd14  1  0.562414  0.562414  0.937586  1
  Nd  Nd15  1  0.937609  0.937609  0.562391  1
  In  In16  1  0.581765  0.581765  0.579611  1
  In  In17  1  0.581765  0.581765  0.256858  1
  In  In18  1  0.580946  0.256834  0.581110  1
  In  In19  1  0.256834  0.580946  0.581110  1
  Ir  Ir20  1  0.140457  0.140457  0.140464  1
  Ir  Ir21  1  0.140457  0.140457  0.578622  1
  Ir  Ir22  1  0.144899  0.578162  0.138469  1
  Ir  Ir23  1  0.578162  0.144899  0.138469  1
