# generated using pymatgen
data_Tb2Si(PRu2)6
_symmetry_space_group_name_H-M   'P 1'
_cell_length_a   9.43693800
_cell_length_b   9.43693746
_cell_length_c   3.96258600
_cell_angle_alpha   90.00000000
_cell_angle_beta   90.00000000
_cell_angle_gamma   119.99999487
_symmetry_Int_Tables_number   1
_chemical_formula_structural   Tb2Si(PRu2)6
_chemical_formula_sum   'Tb2 Si1 P6 Ru12'
_cell_volume   305.61279576
_cell_formula_units_Z   1
loop_
 _symmetry_equiv_pos_site_id
 _symmetry_equiv_pos_as_xyz
  1  'x, y, z'
loop_
 _atom_site_type_symbol
 _atom_site_label
 _atom_site_symmetry_multiplicity
 _atom_site_fract_x
 _atom_site_fract_y
 _atom_site_fract_z
 _atom_site_occupancy
  Tb  Tb0  1  0.666667  0.333333  0.500000  1
  Tb  Tb1  1  0.333333  0.666667  0.000000  1
  Si  Si2  1  0.000000  0.000000  0.000000  1
  P  P3  1  0.602742  0.719118  0.500000  1
  P  P4  1  0.280882  0.883624  0.500000  1
  P  P5  1  0.116376  0.397258  0.500000  1
  P  P6  1  0.886959  0.575595  0.000000  1
  P  P7  1  0.424405  0.311363  0.000000  1
  P  P8  1  0.688637  0.113041  0.000000  1
  Ru  Ru9  1  0.555684  0.950857  0.500000  1
  Ru  Ru10  1  0.395174  0.444316  0.500000  1
  Ru  Ru11  1  0.912436  0.120583  0.500000  1
  Ru  Ru12  1  0.208147  0.087564  0.500000  1
  Ru  Ru13  1  0.879417  0.791853  0.500000  1
  Ru  Ru14  1  0.721017  0.887126  0.000000  1
  Ru  Ru15  1  0.112874  0.833889  0.000000  1
  Ru  Ru16  1  0.166111  0.278983  0.000000  1
  Ru  Ru17  1  0.423940  0.067076  0.000000  1
  Ru  Ru18  1  0.932924  0.356865  0.000000  1
  Ru  Ru19  1  0.643135  0.576060  0.000000  1
  Ru  Ru20  1  0.049143  0.604826  0.500000  1
