# generated using pymatgen
data_Dy4Y4Ir3WO24
_symmetry_space_group_name_H-M   'P 1'
_cell_length_a   5.29418117
_cell_length_b   9.17789641
_cell_length_c   9.92803409
_cell_angle_alpha   90.07316312
_cell_angle_beta   90.03100540
_cell_angle_gamma   90.09250694
_symmetry_Int_Tables_number   1
_chemical_formula_structural   Dy4Y4Ir3WO24
_chemical_formula_sum   'Dy4 Y4 Ir3 W1 O24'
_cell_volume   482.39658612
_cell_formula_units_Z   1
loop_
 _symmetry_equiv_pos_site_id
 _symmetry_equiv_pos_as_xyz
  1  'x, y, z'
loop_
 _atom_site_type_symbol
 _atom_site_label
 _atom_site_symmetry_multiplicity
 _atom_site_fract_x
 _atom_site_fract_y
 _atom_site_fract_z
 _atom_site_occupancy
  Dy  Dy0  1  0.983445  0.601152  0.534277  1
  Dy  Dy1  1  0.483775  0.895981  0.467485  1
  Dy  Dy2  1  0.020422  0.102195  0.962511  1
  Dy  Dy3  1  0.516881  0.398602  0.034009  1
  Y  Y4  1  0.461164  0.781023  0.869527  1
  Y  Y5  1  0.960570  0.719332  0.129871  1
  Y  Y6  1  0.040726  0.218350  0.369673  1
  Y  Y7  1  0.540340  0.281560  0.629805  1
  Ir  Ir8  1  0.958902  0.996340  0.647352  1
  Ir  Ir9  1  0.458618  0.503584  0.351842  1
  Ir  Ir10  1  0.041496  0.496268  0.851853  1
  W  W11  1  0.540364  0.005071  0.151245  1
  O  O12  1  0.751857  0.087948  0.501914  1
  O  O13  1  0.251335  0.410804  0.497020  1
  O  O14  1  0.247883  0.588406  0.997804  1
  O  O15  1  0.746920  0.911912  0.004334  1
  O  O16  1  0.234298  0.115631  0.570121  1
  O  O17  1  0.734235  0.384040  0.429725  1
  O  O18  1  0.764945  0.614490  0.930744  1
  O  O19  1  0.268083  0.886216  0.067621  1
  O  O20  1  0.083756  0.843845  0.527435  1
  O  O21  1  0.583583  0.654213  0.474448  1
  O  O22  1  0.915236  0.344193  0.971721  1
  O  O23  1  0.413194  0.157259  0.030006  1
  O  O24  1  0.692321  0.859700  0.265393  1
  O  O25  1  0.187732  0.643155  0.735803  1
  O  O26  1  0.311834  0.357125  0.235862  1
  O  O27  1  0.811952  0.142920  0.763543  1
  O  O28  1  0.328573  0.047741  0.299739  1
  O  O29  1  0.834039  0.446673  0.701303  1
  O  O30  1  0.674540  0.864824  0.681956  1
  O  O31  1  0.167862  0.946808  0.797168  1
  O  O32  1  0.822136  0.137401  0.178964  1
  O  O33  1  0.325541  0.365234  0.817722  1
  O  O34  1  0.175672  0.635786  0.318354  1
  O  O35  1  0.665769  0.554217  0.201853  1
