# generated using pymatgen
data_Nd5Dy11Cd4(IrPt)2
_symmetry_space_group_name_H-M   'P 1'
_cell_length_a   9.74834444
_cell_length_b   9.75380431
_cell_length_c   9.72520592
_cell_angle_alpha   60.18368152
_cell_angle_beta   59.89855576
_cell_angle_gamma   60.29255883
_symmetry_Int_Tables_number   1
_chemical_formula_structural   Nd5Dy11Cd4(IrPt)2
_chemical_formula_sum   'Nd5 Dy11 Cd4 Ir2 Pt2'
_cell_volume   655.70011066
_cell_formula_units_Z   1
loop_
 _symmetry_equiv_pos_site_id
 _symmetry_equiv_pos_as_xyz
  1  'x, y, z'
loop_
 _atom_site_type_symbol
 _atom_site_label
 _atom_site_symmetry_multiplicity
 _atom_site_fract_x
 _atom_site_fract_y
 _atom_site_fract_z
 _atom_site_occupancy
  Nd  Nd0  1  0.558869  0.942249  0.940823  1
  Nd  Nd1  1  0.565344  0.938734  0.559406  1
  Nd  Nd2  1  0.941132  0.559392  0.937226  1
  Nd  Nd3  1  0.563464  0.559940  0.938453  1
  Nd  Nd4  1  0.940062  0.937545  0.558910  1
  Dy  Dy5  1  0.350465  0.348235  0.346213  1
  Dy  Dy6  1  0.349076  0.353051  0.953828  1
  Dy  Dy7  1  0.354863  0.946764  0.352472  1
  Dy  Dy8  1  0.945789  0.355495  0.350078  1
  Dy  Dy9  1  0.808244  0.189702  0.186656  1
  Dy  Dy10  1  0.186007  0.809167  0.815531  1
  Dy  Dy11  1  0.188569  0.808028  0.189240  1
  Dy  Dy12  1  0.808864  0.187750  0.814098  1
  Dy  Dy13  1  0.187510  0.190841  0.811137  1
  Dy  Dy14  1  0.813023  0.812640  0.184443  1
  Dy  Dy15  1  0.944112  0.558764  0.555433  1
  Cd  Cd16  1  0.582353  0.579334  0.578939  1
  Cd  Cd17  1  0.579060  0.580302  0.259859  1
  Cd  Cd18  1  0.578957  0.260752  0.579896  1
  Cd  Cd19  1  0.258490  0.579360  0.579611  1
  Ir  Ir20  1  0.139263  0.573780  0.147322  1
  Ir  Ir21  1  0.573552  0.141054  0.142891  1
  Pt  Pt22  1  0.142550  0.142480  0.145101  1
  Pt  Pt23  1  0.140378  0.144640  0.572435  1
