# generated using pymatgen
data_LiSm2As2(PPd5)4
_symmetry_space_group_name_H-M   'P 1'
_cell_length_a   8.67479402
_cell_length_b   8.76199844
_cell_length_c   8.76199869
_cell_angle_alpha   59.34263450
_cell_angle_beta   60.32868331
_cell_angle_gamma   60.32868167
_symmetry_Int_Tables_number   1
_chemical_formula_structural   LiSm2As2(PPd5)4
_chemical_formula_sum   'Li1 Sm2 As2 P4 Pd20'
_cell_volume   470.83130361
_cell_formula_units_Z   1
loop_
 _symmetry_equiv_pos_site_id
 _symmetry_equiv_pos_as_xyz
  1  'x, y, z'
loop_
 _atom_site_type_symbol
 _atom_site_label
 _atom_site_symmetry_multiplicity
 _atom_site_fract_x
 _atom_site_fract_y
 _atom_site_fract_z
 _atom_site_occupancy
  Li  Li0  1  0.000000  0.000000  0.000000  1
  Sm  Sm1  1  0.250000  0.250000  0.250000  1
  Sm  Sm2  1  0.750000  0.750000  0.750000  1
  As  As3  1  0.740645  0.259355  0.259355  1
  As  As4  1  0.259355  0.740645  0.740645  1
  P  P5  1  0.260701  0.739299  0.260701  1
  P  P6  1  0.739299  0.260701  0.739299  1
  P  P7  1  0.260701  0.260701  0.739299  1
  P  P8  1  0.739299  0.739299  0.260701  1
  Pd  Pd9  1  0.379504  0.388391  0.388391  1
  Pd  Pd10  1  0.620496  0.611609  0.611609  1
  Pd  Pd11  1  0.388391  0.379504  0.843713  1
  Pd  Pd12  1  0.388391  0.843713  0.379504  1
  Pd  Pd13  1  0.611609  0.620496  0.156287  1
  Pd  Pd14  1  0.611609  0.156287  0.620496  1
  Pd  Pd15  1  0.843713  0.388391  0.388391  1
  Pd  Pd16  1  0.156287  0.611609  0.611609  1
  Pd  Pd17  1  0.344881  0.000000  0.000000  1
  Pd  Pd18  1  0.655119  0.000000  0.000000  1
  Pd  Pd19  1  0.000000  0.344881  0.655119  1
  Pd  Pd20  1  0.000000  0.655119  0.344881  1
  Pd  Pd21  1  0.009831  0.347638  0.990169  1
  Pd  Pd22  1  0.652362  0.990169  0.347638  1
  Pd  Pd23  1  0.990169  0.652362  0.009831  1
  Pd  Pd24  1  0.347638  0.009831  0.652362  1
  Pd  Pd25  1  0.009831  0.990169  0.347638  1
  Pd  Pd26  1  0.990169  0.009831  0.652362  1
  Pd  Pd27  1  0.652362  0.347638  0.990169  1
  Pd  Pd28  1  0.347638  0.652362  0.009831  1
