# generated using pymatgen
data_La7Pr5Ir2(AuI6)2
_symmetry_space_group_name_H-M   'P 1'
_cell_length_a   11.18056533
_cell_length_b   11.17991542
_cell_length_c   10.97251374
_cell_angle_alpha   109.76969877
_cell_angle_beta   109.12865101
_cell_angle_gamma   110.27907716
_symmetry_Int_Tables_number   1
_chemical_formula_structural   La7Pr5Ir2(AuI6)2
_chemical_formula_sum   'La7 Pr5 Ir2 Au2 I12'
_cell_volume   1045.66241106
_cell_formula_units_Z   1
loop_
 _symmetry_equiv_pos_site_id
 _symmetry_equiv_pos_as_xyz
  1  'x, y, z'
loop_
 _atom_site_type_symbol
 _atom_site_label
 _atom_site_symmetry_multiplicity
 _atom_site_fract_x
 _atom_site_fract_y
 _atom_site_fract_z
 _atom_site_occupancy
  La  La0  1  0.043608  0.282753  0.010036  1
  La  La1  1  0.009766  0.043275  0.281422  1
  La  La2  1  0.466315  0.727294  0.008120  1
  La  La3  1  0.485347  0.235418  0.470614  1
  La  La4  1  0.013778  0.473389  0.737552  1
  La  La5  1  0.267904  0.017826  0.036333  1
  La  La6  1  0.229996  0.268963  0.747793  1
  Pr  Pr7  1  0.463517  0.488518  0.228787  1
  Pr  Pr8  1  0.764178  0.235266  0.277119  1
  Pr  Pr9  1  0.755741  0.021509  0.484526  1
  Pr  Pr10  1  0.230626  0.465661  0.486182  1
  Pr  Pr11  1  0.264443  0.737224  0.226146  1
  Ir  Ir12  1  0.002946  0.251315  0.503135  1
  Ir  Ir13  1  0.247711  0.497681  0.994748  1
  Au  Au14  1  0.251966  0.253275  0.252931  1
  Au  Au15  1  0.500543  0.998941  0.251237  1
  I  I16  1  0.251137  0.760136  0.740567  1
  I  I17  1  0.520992  0.511365  0.757568  1
  I  I18  1  0.989040  0.744483  0.997625  1
  I  I19  1  0.737487  0.247012  0.757284  1
  I  I20  1  0.989509  0.980651  0.740793  1
  I  I21  1  0.248414  0.989726  0.503599  1
  I  I22  1  0.754624  0.513029  0.501047  1
  I  I23  1  0.510446  0.251706  0.999039  1
  I  I24  1  0.755945  0.739395  0.251133  1
  I  I25  1  0.743087  0.995430  0.987366  1
  I  I26  1  0.993785  0.510348  0.252377  1
  I  I27  1  0.507148  0.758411  0.514921  1
