# generated using pymatgen
data_Dy2Si6AsRh12
_symmetry_space_group_name_H-M   'P 1'
_cell_length_a   9.79428100
_cell_length_b   9.79428198
_cell_length_c   3.84987300
_cell_angle_alpha   90.00000000
_cell_angle_beta   90.00000000
_cell_angle_gamma   120.00000007
_symmetry_Int_Tables_number   1
_chemical_formula_structural   Dy2Si6AsRh12
_chemical_formula_sum   'Dy2 Si6 As1 Rh12'
_cell_volume   319.83220907
_cell_formula_units_Z   1
loop_
 _symmetry_equiv_pos_site_id
 _symmetry_equiv_pos_as_xyz
  1  'x, y, z'
loop_
 _atom_site_type_symbol
 _atom_site_label
 _atom_site_symmetry_multiplicity
 _atom_site_fract_x
 _atom_site_fract_y
 _atom_site_fract_z
 _atom_site_occupancy
  Dy  Dy0  1  0.333333  0.666667  0.249409  1
  Dy  Dy1  1  0.666667  0.333333  0.750591  1
  Si  Si2  1  0.402699  0.111960  0.248880  1
  Si  Si3  1  0.709262  0.597301  0.248880  1
  Si  Si4  1  0.888040  0.290738  0.248880  1
  Si  Si5  1  0.597301  0.888040  0.751120  1
  Si  Si6  1  0.290738  0.402699  0.751120  1
  Si  Si7  1  0.111960  0.709262  0.751120  1
  As  As8  1  0.000000  0.000000  0.500000  1
  Rh  Rh9  1  0.444603  0.381136  0.249270  1
  Rh  Rh10  1  0.936533  0.555397  0.249270  1
  Rh  Rh11  1  0.618864  0.063467  0.249270  1
  Rh  Rh12  1  0.555397  0.618864  0.750730  1
  Rh  Rh13  1  0.063467  0.444603  0.750730  1
  Rh  Rh14  1  0.381136  0.936533  0.750730  1
  Rh  Rh15  1  0.146155  0.880075  0.249857  1
  Rh  Rh16  1  0.733920  0.853845  0.249857  1
  Rh  Rh17  1  0.119925  0.266080  0.249857  1
  Rh  Rh18  1  0.853845  0.119925  0.750143  1
  Rh  Rh19  1  0.266080  0.146155  0.750143  1
  Rh  Rh20  1  0.880075  0.733920  0.750143  1
