# generated using pymatgen
data_Ta4Nb(CuSi)4
_symmetry_space_group_name_H-M   'P 1'
_cell_length_a   7.42332418
_cell_length_b   7.42332355
_cell_length_c   7.42930561
_cell_angle_alpha   93.44508980
_cell_angle_beta   93.38868378
_cell_angle_gamma   151.72726338
_symmetry_Int_Tables_number   1
_chemical_formula_structural   Ta4Nb(CuSi)4
_chemical_formula_sum   'Ta4 Nb1 Cu4 Si4'
_cell_volume   188.05607747
_cell_formula_units_Z   1
loop_
 _symmetry_equiv_pos_site_id
 _symmetry_equiv_pos_as_xyz
  1  'x, y, z'
loop_
 _atom_site_type_symbol
 _atom_site_label
 _atom_site_symmetry_multiplicity
 _atom_site_fract_x
 _atom_site_fract_y
 _atom_site_fract_z
 _atom_site_occupancy
  Ta  Ta0  1  0.500076  0.499657  0.999733  1
  Ta  Ta1  1  0.127806  0.805177  0.932983  1
  Ta  Ta2  1  0.195817  0.128955  0.324772  1
  Ta  Ta3  1  0.804544  0.870653  0.675196  1
  Nb  Nb4  1  0.871189  0.195319  0.066508  1
  Cu  Cu5  1  0.396042  0.918371  0.314412  1
  Cu  Cu6  1  0.603946  0.081991  0.685937  1
  Cu  Cu7  1  0.917476  0.604100  0.521577  1
  Cu  Cu8  1  0.083159  0.395738  0.478897  1
  Si  Si9  1  0.247820  0.559799  0.807619  1
  Si  Si10  1  0.440403  0.247568  0.687970  1
  Si  Si11  1  0.559538  0.752112  0.311650  1
  Si  Si12  1  0.752185  0.440562  0.192746  1
