# generated using pymatgen
data_Dy3GaGeRu2
_symmetry_space_group_name_H-M   'P 1'
_cell_length_a   5.58540200
_cell_length_b   7.69566400
_cell_length_c   13.64574900
_cell_angle_alpha   90.00000000
_cell_angle_beta   90.00000000
_cell_angle_gamma   90.00000000
_symmetry_Int_Tables_number   1
_chemical_formula_structural   Dy3GaGeRu2
_chemical_formula_sum   'Dy12 Ga4 Ge4 Ru8'
_cell_volume   586.54037504
_cell_formula_units_Z   4
loop_
 _symmetry_equiv_pos_site_id
 _symmetry_equiv_pos_as_xyz
  1  'x, y, z'
loop_
 _atom_site_type_symbol
 _atom_site_label
 _atom_site_symmetry_multiplicity
 _atom_site_fract_x
 _atom_site_fract_y
 _atom_site_fract_z
 _atom_site_occupancy
  Dy  Dy0  1  0.151085  0.403880  0.597488  1
  Dy  Dy1  1  0.848915  0.596120  0.097488  1
  Dy  Dy2  1  0.151085  0.096120  0.402512  1
  Dy  Dy3  1  0.848915  0.903880  0.902512  1
  Dy  Dy4  1  0.848915  0.596120  0.402512  1
  Dy  Dy5  1  0.151085  0.403880  0.902512  1
  Dy  Dy6  1  0.848915  0.903880  0.597488  1
  Dy  Dy7  1  0.151085  0.096120  0.097488  1
  Dy  Dy8  1  0.625800  0.269389  0.750000  1
  Dy  Dy9  1  0.374200  0.730611  0.250000  1
  Dy  Dy10  1  0.625800  0.230611  0.250000  1
  Dy  Dy11  1  0.374200  0.769389  0.750000  1
  Ga  Ga12  1  0.633494  0.250000  0.500000  1
  Ga  Ga13  1  0.366506  0.750000  0.000000  1
  Ga  Ga14  1  0.366506  0.750000  0.500000  1
  Ga  Ga15  1  0.633494  0.250000  0.000000  1
  Ge  Ge16  1  0.121246  0.116307  0.750000  1
  Ge  Ge17  1  0.878754  0.883693  0.250000  1
  Ge  Ge18  1  0.121246  0.383693  0.250000  1
  Ge  Ge19  1  0.878754  0.616307  0.750000  1
  Ru  Ru20  1  0.352426  0.035186  0.594710  1
  Ru  Ru21  1  0.647574  0.964814  0.094710  1
  Ru  Ru22  1  0.352426  0.464814  0.405290  1
  Ru  Ru23  1  0.647574  0.535186  0.905290  1
  Ru  Ru24  1  0.647574  0.964814  0.405290  1
  Ru  Ru25  1  0.352426  0.035186  0.905290  1
  Ru  Ru26  1  0.647574  0.535186  0.594710  1
  Ru  Ru27  1  0.352426  0.464814  0.094710  1
