# generated using pymatgen
data_Er8Ti9Si16Mo2W
_symmetry_space_group_name_H-M   'P 1'
_cell_length_a   6.97507562
_cell_length_b   6.97507606
_cell_length_c   12.82154000
_cell_angle_alpha   90.00691116
_cell_angle_beta   89.99308919
_cell_angle_gamma   90.03754880
_symmetry_Int_Tables_number   1
_chemical_formula_structural   Er8Ti9Si16Mo2W
_chemical_formula_sum   'Er8 Ti9 Si16 Mo2 W1'
_cell_volume   623.78935623
_cell_formula_units_Z   1
loop_
 _symmetry_equiv_pos_site_id
 _symmetry_equiv_pos_as_xyz
  1  'x, y, z'
loop_
 _atom_site_type_symbol
 _atom_site_label
 _atom_site_symmetry_multiplicity
 _atom_site_fract_x
 _atom_site_fract_y
 _atom_site_fract_z
 _atom_site_occupancy
  Er  Er0  1  0.340701  0.002016  0.466672  1
  Er  Er1  1  0.498687  0.842209  0.718141  1
  Er  Er2  1  0.500205  0.158207  0.216703  1
  Er  Er3  1  0.842209  0.498687  0.281859  1
  Er  Er4  1  0.158207  0.500205  0.783297  1
  Er  Er5  1  0.659064  0.999635  0.967089  1
  Er  Er6  1  0.002016  0.340701  0.533328  1
  Er  Er7  1  0.999635  0.659064  0.032911  1
  Ti  Ti8  1  0.672536  0.672536  0.500000  1
  Ti  Ti9  1  0.152193  0.008327  0.875780  1
  Ti  Ti10  1  0.491695  0.652243  0.124722  1
  Ti  Ti11  1  0.507124  0.347176  0.626682  1
  Ti  Ti12  1  0.652243  0.491695  0.875278  1
  Ti  Ti13  1  0.347176  0.507124  0.373318  1
  Ti  Ti14  1  0.848922  0.992268  0.374428  1
  Ti  Ti15  1  0.008327  0.152193  0.124220  1
  Ti  Ti16  1  0.992268  0.848922  0.625572  1
  Si  Si17  1  0.202602  0.131039  0.683640  1
  Si  Si18  1  0.368306  0.701481  0.933554  1
  Si  Si19  1  0.631579  0.296976  0.433617  1
  Si  Si20  1  0.701481  0.368306  0.066446  1
  Si  Si21  1  0.296976  0.631579  0.566383  1
  Si  Si22  1  0.797996  0.868805  0.183960  1
  Si  Si23  1  0.131039  0.202602  0.316360  1
  Si  Si24  1  0.868805  0.797996  0.816040  1
  Si  Si25  1  0.292216  0.953581  0.064868  1
  Si  Si26  1  0.546272  0.791530  0.314948  1
  Si  Si27  1  0.452661  0.207971  0.815306  1
  Si  Si28  1  0.791530  0.546272  0.685052  1
  Si  Si29  1  0.207971  0.452661  0.184694  1
  Si  Si30  1  0.707558  0.047961  0.565775  1
  Si  Si31  1  0.953581  0.292216  0.935132  1
  Si  Si32  1  0.047961  0.707558  0.434225  1
  Mo  Mo33  1  0.173523  0.827527  0.249265  1
  Mo  Mo34  1  0.827527  0.173523  0.750735  1
  W  W35  1  0.327207  0.327207  0.000000  1
