# generated using pymatgen
data_Th10Ga2BiPb5
_symmetry_space_group_name_H-M   'P 1'
_cell_length_a   9.71034269
_cell_length_b   9.71034282
_cell_length_c   6.62706400
_cell_angle_alpha   90.00000000
_cell_angle_beta   90.00000000
_cell_angle_gamma   120.10090790
_symmetry_Int_Tables_number   1
_chemical_formula_structural   Th10Ga2BiPb5
_chemical_formula_sum   'Th10 Ga2 Bi1 Pb5'
_cell_volume   540.60296127
_cell_formula_units_Z   1
loop_
 _symmetry_equiv_pos_site_id
 _symmetry_equiv_pos_as_xyz
  1  'x, y, z'
loop_
 _atom_site_type_symbol
 _atom_site_label
 _atom_site_symmetry_multiplicity
 _atom_site_fract_x
 _atom_site_fract_y
 _atom_site_fract_z
 _atom_site_occupancy
  Th  Th0  1  0.667767  0.333175  0.500627  1
  Th  Th1  1  0.333175  0.667767  0.500627  1
  Th  Th2  1  0.333175  0.667767  0.999373  1
  Th  Th3  1  0.667767  0.333175  0.999373  1
  Th  Th4  1  0.735760  0.735760  0.250000  1
  Th  Th5  1  0.263124  0.999506  0.250000  1
  Th  Th6  1  0.999506  0.263124  0.250000  1
  Th  Th7  1  0.263950  0.263950  0.750000  1
  Th  Th8  1  0.735864  0.999756  0.750000  1
  Th  Th9  1  0.999756  0.735864  0.750000  1
  Ga  Ga10  1  0.999752  0.999752  0.500310  1
  Ga  Ga11  1  0.999752  0.999752  0.999690  1
  Bi  Bi12  1  0.385308  0.385308  0.250000  1
  Pb  Pb13  1  0.616306  0.999639  0.250000  1
  Pb  Pb14  1  0.999639  0.616306  0.250000  1
  Pb  Pb15  1  0.616262  0.616262  0.750000  1
  Pb  Pb16  1  0.383299  0.999837  0.750000  1
  Pb  Pb17  1  0.999837  0.383299  0.750000  1
