# generated using pymatgen
data_ErTiFe3P7Ru9
_symmetry_space_group_name_H-M   'P 1'
_cell_length_a   9.26274200
_cell_length_b   9.26274074
_cell_length_c   3.80992800
_cell_angle_alpha   90.00000000
_cell_angle_beta   90.00000000
_cell_angle_gamma   119.99999737
_symmetry_Int_Tables_number   1
_chemical_formula_structural   ErTiFe3P7Ru9
_chemical_formula_sum   'Er1 Ti1 Fe3 P7 Ru9'
_cell_volume   283.09127711
_cell_formula_units_Z   1
loop_
 _symmetry_equiv_pos_site_id
 _symmetry_equiv_pos_as_xyz
  1  'x, y, z'
loop_
 _atom_site_type_symbol
 _atom_site_label
 _atom_site_symmetry_multiplicity
 _atom_site_fract_x
 _atom_site_fract_y
 _atom_site_fract_z
 _atom_site_occupancy
  Er  Er0  1  0.333333  0.666667  0.000000  1
  Ti  Ti1  1  0.666667  0.333333  0.500000  1
  Fe  Fe2  1  0.729634  0.887762  0.000000  1
  Fe  Fe3  1  0.112238  0.841871  0.000000  1
  Fe  Fe4  1  0.158129  0.270366  0.000000  1
  P  P5  1  0.602936  0.721479  0.500000  1
  P  P6  1  0.000000  0.000000  0.000000  1
  P  P7  1  0.278521  0.881457  0.500000  1
  P  P8  1  0.118543  0.397064  0.500000  1
  P  P9  1  0.889446  0.582657  0.000000  1
  P  P10  1  0.417343  0.306789  0.000000  1
  P  P11  1  0.693211  0.110554  0.000000  1
  Ru  Ru12  1  0.561441  0.951926  0.500000  1
  Ru  Ru13  1  0.390486  0.438559  0.500000  1
  Ru  Ru14  1  0.912047  0.116656  0.500000  1
  Ru  Ru15  1  0.204610  0.087953  0.500000  1
  Ru  Ru16  1  0.883344  0.795390  0.500000  1
  Ru  Ru17  1  0.426706  0.070561  0.000000  1
  Ru  Ru18  1  0.929439  0.356146  0.000000  1
  Ru  Ru19  1  0.643854  0.573294  0.000000  1
  Ru  Ru20  1  0.048074  0.609514  0.500000  1
