# generated using pymatgen
data_TcNiI6
_symmetry_space_group_name_H-M   'P 1'
_cell_length_a   6.99820684
_cell_length_b   6.99820681
_cell_length_c   7.38397292
_cell_angle_alpha   80.93947911
_cell_angle_beta   80.93948580
_cell_angle_gamma   119.98415771
_symmetry_Int_Tables_number   1
_chemical_formula_structural   TcNiI6
_chemical_formula_sum   'Tc1 Ni1 I6'
_cell_volume   297.29663420
_cell_formula_units_Z   1
loop_
 _symmetry_equiv_pos_site_id
 _symmetry_equiv_pos_as_xyz
  1  'x, y, z'
loop_
 _atom_site_type_symbol
 _atom_site_label
 _atom_site_symmetry_multiplicity
 _atom_site_fract_x
 _atom_site_fract_y
 _atom_site_fract_z
 _atom_site_occupancy
  Tc  Tc0  1  0.833306  0.166694  0.000000  1
  Ni  Ni1  1  0.166669  0.833331  0.000000  1
  I  I2  1  0.425888  0.066516  0.220492  1
  I  I3  1  0.572595  0.932885  0.779208  1
  I  I4  1  0.933484  0.574112  0.779508  1
  I  I5  1  0.067115  0.427405  0.220792  1
  I  I6  1  0.786437  0.785494  0.220545  1
  I  I7  1  0.214506  0.213563  0.779455  1
