# generated using pymatgen
data_La2Si2Te
_symmetry_space_group_name_H-M   'P 1'
_cell_length_a   4.23576300
_cell_length_b   4.23576380
_cell_length_c   16.57128200
_cell_angle_alpha   90.00000000
_cell_angle_beta   90.00000000
_cell_angle_gamma   120.00000154
_symmetry_Int_Tables_number   1
_chemical_formula_structural   La2Si2Te
_chemical_formula_sum   'La4 Si4 Te2'
_cell_volume   257.48392452
_cell_formula_units_Z   2
loop_
 _symmetry_equiv_pos_site_id
 _symmetry_equiv_pos_as_xyz
  1  'x, y, z'
loop_
 _atom_site_type_symbol
 _atom_site_label
 _atom_site_symmetry_multiplicity
 _atom_site_fract_x
 _atom_site_fract_y
 _atom_site_fract_z
 _atom_site_occupancy
  La  La0  1  0.000000  0.000000  0.621302  1
  La  La1  1  0.000000  0.000000  0.378699  1
  La  La2  1  0.000000  0.000000  0.121302  1
  La  La3  1  0.000000  0.000000  0.878699  1
  Si  Si4  1  0.666667  0.333333  0.504173  1
  Si  Si5  1  0.333333  0.666667  0.004173  1
  Si  Si6  1  0.666667  0.333333  0.995828  1
  Si  Si7  1  0.333333  0.666667  0.495828  1
  Te  Te8  1  0.666667  0.333333  0.249999  1
  Te  Te9  1  0.333333  0.666667  0.749999  1
