# generated using pymatgen
data_Ta6Al3Cr2SiC2
_symmetry_space_group_name_H-M   'P 1'
_cell_length_a   8.23046624
_cell_length_b   8.23165279
_cell_length_c   8.23165324
_cell_angle_alpha   60.01828063
_cell_angle_beta   60.00477614
_cell_angle_gamma   60.00477066
_symmetry_Int_Tables_number   1
_chemical_formula_structural   Ta6Al3Cr2SiC2
_chemical_formula_sum   'Ta12 Al6 Cr4 Si2 C4'
_cell_volume   394.43446382
_cell_formula_units_Z   2
loop_
 _symmetry_equiv_pos_site_id
 _symmetry_equiv_pos_as_xyz
  1  'x, y, z'
loop_
 _atom_site_type_symbol
 _atom_site_label
 _atom_site_symmetry_multiplicity
 _atom_site_fract_x
 _atom_site_fract_y
 _atom_site_fract_z
 _atom_site_occupancy
  Ta  Ta0  1  0.554345  0.945128  0.555078  1
  Ta  Ta1  1  0.304170  0.695691  0.695691  1
  Ta  Ta2  1  0.697533  0.305399  0.305399  1
  Ta  Ta3  1  0.304552  0.694922  0.304872  1
  Ta  Ta4  1  0.697854  0.691944  0.305186  1
  Ta  Ta5  1  0.304552  0.304872  0.694922  1
  Ta  Ta6  1  0.554345  0.555078  0.945128  1
  Ta  Ta7  1  0.945552  0.554309  0.554309  1
  Ta  Ta8  1  0.558332  0.944601  0.944601  1
  Ta  Ta9  1  0.944984  0.944814  0.558056  1
  Ta  Ta10  1  0.697854  0.305186  0.691944  1
  Ta  Ta11  1  0.944984  0.558056  0.944814  1
  Al  Al12  1  0.336029  0.996942  0.334164  1
  Al  Al13  1  0.336029  0.334164  0.996942  1
  Al  Al14  1  0.917136  0.253058  0.915836  1
  Al  Al15  1  0.917136  0.915836  0.253058  1
  Al  Al16  1  0.250938  0.917000  0.917000  1
  Al  Al17  1  0.334937  0.333000  0.333000  1
  Cr  Cr18  1  0.121456  0.128792  0.128792  1
  Cr  Cr19  1  0.629041  0.121208  0.121208  1
  Cr  Cr20  1  0.117906  0.625000  0.125000  1
  Cr  Cr21  1  0.117906  0.125000  0.625000  1
  Si  Si22  1  0.916513  0.914772  0.914772  1
  Si  Si23  1  0.996056  0.335228  0.335228  1
  C  C24  1  0.624994  0.624671  0.624671  1
  C  C25  1  0.124335  0.625329  0.625329  1
  C  C26  1  0.625262  0.125000  0.625000  1
  C  C27  1  0.625262  0.625000  0.125000  1
