# generated using pymatgen
data_Ac(Cd2Pd)2
_symmetry_space_group_name_H-M   'P 1'
_cell_length_a   8.36451900
_cell_length_b   8.36451900
_cell_length_c   4.56544900
_cell_angle_alpha   90.00000000
_cell_angle_beta   90.00000000
_cell_angle_gamma   90.00000000
_symmetry_Int_Tables_number   1
_chemical_formula_structural   Ac(Cd2Pd)2
_chemical_formula_sum   'Ac2 Cd8 Pd4'
_cell_volume   319.42245240
_cell_formula_units_Z   2
loop_
 _symmetry_equiv_pos_site_id
 _symmetry_equiv_pos_as_xyz
  1  'x, y, z'
loop_
 _atom_site_type_symbol
 _atom_site_label
 _atom_site_symmetry_multiplicity
 _atom_site_fract_x
 _atom_site_fract_y
 _atom_site_fract_z
 _atom_site_occupancy
  Ac  Ac0  1  0.500000  0.500000  0.500000  1
  Ac  Ac1  1  0.000000  0.000000  0.000000  1
  Cd  Cd2  1  0.342115  0.091421  0.500000  1
  Cd  Cd3  1  0.657885  0.908579  0.500000  1
  Cd  Cd4  1  0.842115  0.408579  0.000000  1
  Cd  Cd5  1  0.157885  0.591421  0.000000  1
  Cd  Cd6  1  0.091421  0.342115  0.500000  1
  Cd  Cd7  1  0.908579  0.657885  0.500000  1
  Cd  Cd8  1  0.408579  0.842115  0.000000  1
  Cd  Cd9  1  0.591421  0.157885  0.000000  1
  Pd  Pd10  1  0.779563  0.220437  0.500000  1
  Pd  Pd11  1  0.220437  0.779563  0.500000  1
  Pd  Pd12  1  0.279563  0.279563  0.000000  1
  Pd  Pd13  1  0.720437  0.720437  0.000000  1
