# generated using pymatgen
data_Ho3Si2OsRh
_symmetry_space_group_name_H-M   'P 1'
_cell_length_a   5.54837786
_cell_length_b   7.76997604
_cell_length_c   13.11288791
_cell_angle_alpha   90.05916397
_cell_angle_beta   90.04700879
_cell_angle_gamma   90.45882042
_symmetry_Int_Tables_number   1
_chemical_formula_structural   Ho3Si2OsRh
_chemical_formula_sum   'Ho12 Si8 Os4 Rh4'
_cell_volume   565.28798171
_cell_formula_units_Z   4
loop_
 _symmetry_equiv_pos_site_id
 _symmetry_equiv_pos_as_xyz
  1  'x, y, z'
loop_
 _atom_site_type_symbol
 _atom_site_label
 _atom_site_symmetry_multiplicity
 _atom_site_fract_x
 _atom_site_fract_y
 _atom_site_fract_z
 _atom_site_occupancy
  Ho  Ho0  1  0.626994  0.253265  0.251101  1
  Ho  Ho1  1  0.371722  0.750814  0.749510  1
  Ho  Ho2  1  0.372229  0.756596  0.249345  1
  Ho  Ho3  1  0.625974  0.240151  0.750718  1
  Ho  Ho4  1  0.143718  0.393015  0.102927  1
  Ho  Ho5  1  0.854002  0.607615  0.896535  1
  Ho  Ho6  1  0.859485  0.608093  0.601865  1
  Ho  Ho7  1  0.860458  0.891121  0.398109  1
  Ho  Ho8  1  0.142673  0.398695  0.396653  1
  Ho  Ho9  1  0.143983  0.101479  0.603475  1
  Ho  Ho10  1  0.137690  0.103088  0.898104  1
  Ho  Ho11  1  0.859613  0.897459  0.102322  1
  Si  Si12  1  0.134577  0.106790  0.250397  1
  Si  Si13  1  0.860502  0.895862  0.748592  1
  Si  Si14  1  0.860814  0.604701  0.249202  1
  Si  Si15  1  0.134956  0.393069  0.750853  1
  Si  Si16  1  0.599756  0.246351  0.997749  1
  Si  Si17  1  0.397747  0.752787  0.003297  1
  Si  Si18  1  0.407931  0.748758  0.499855  1
  Si  Si19  1  0.606453  0.251084  0.500396  1
  Os  Os20  1  0.350690  0.030412  0.091807  1
  Os  Os21  1  0.648061  0.967910  0.909196  1
  Os  Os22  1  0.651719  0.976521  0.588057  1
  Os  Os23  1  0.649431  0.521725  0.409518  1
  Rh  Rh24  1  0.348753  0.027871  0.409467  1
  Rh  Rh25  1  0.350116  0.473725  0.591986  1
  Rh  Rh26  1  0.349073  0.480646  0.910074  1
  Rh  Rh27  1  0.650882  0.520397  0.088890  1
