# generated using pymatgen
data_NpI2Cl
_symmetry_space_group_name_H-M   'P 1'
_cell_length_a   7.62759282
_cell_length_b   7.77956002
_cell_length_c   8.90994577
_cell_angle_alpha   90.15508424
_cell_angle_beta   114.93010564
_cell_angle_gamma   119.37937961
_symmetry_Int_Tables_number   1
_chemical_formula_structural   NpI2Cl
_chemical_formula_sum   'Np2 I4 Cl2'
_cell_volume   402.83470499
_cell_formula_units_Z   2
loop_
 _symmetry_equiv_pos_site_id
 _symmetry_equiv_pos_as_xyz
  1  'x, y, z'
loop_
 _atom_site_type_symbol
 _atom_site_label
 _atom_site_symmetry_multiplicity
 _atom_site_fract_x
 _atom_site_fract_y
 _atom_site_fract_z
 _atom_site_occupancy
  Np  Np0  1  0.593294  0.298496  0.879428  1
  Np  Np1  1  0.253019  0.620444  0.880381  1
  I  I2  1  0.448635  0.037800  0.119503  1
  I  I3  1  0.112007  0.229156  0.642218  1
  I  I4  1  0.768649  0.541767  0.640041  1
  I  I5  1  0.435304  0.890395  0.655314  1
  Cl  Cl6  1  0.641492  0.614285  0.066583  1
  Cl  Cl7  1  0.046598  0.417155  0.065032  1
