# generated using pymatgen
data_TmNp3Ga12Cu
_symmetry_space_group_name_H-M   'P 1'
_cell_length_a   7.43108138
_cell_length_b   7.43108042
_cell_length_c   7.50723600
_cell_angle_alpha   109.67895426
_cell_angle_beta   109.67895162
_cell_angle_gamma   109.26269579
_symmetry_Int_Tables_number   1
_chemical_formula_structural   TmNp3Ga12Cu
_chemical_formula_sum   'Tm1 Np3 Ga12 Cu1'
_cell_volume   318.30415570
_cell_formula_units_Z   1
loop_
 _symmetry_equiv_pos_site_id
 _symmetry_equiv_pos_as_xyz
  1  'x, y, z'
loop_
 _atom_site_type_symbol
 _atom_site_label
 _atom_site_symmetry_multiplicity
 _atom_site_fract_x
 _atom_site_fract_y
 _atom_site_fract_z
 _atom_site_occupancy
  Tm  Tm0  1  0.000000  0.000000  0.500000  1
  Np  Np1  1  0.500000  0.500000  0.500000  1
  Np  Np2  1  0.000000  0.500000  0.000000  1
  Np  Np3  1  0.500000  0.000000  0.000000  1
  Ga  Ga4  1  0.500413  0.750207  0.250207  1
  Ga  Ga5  1  0.499587  0.249793  0.749793  1
  Ga  Ga6  1  0.249793  0.499587  0.749793  1
  Ga  Ga7  1  0.750207  0.500413  0.250207  1
  Ga  Ga8  1  0.750207  0.249793  0.500000  1
  Ga  Ga9  1  0.249793  0.750207  0.500000  1
  Ga  Ga10  1  0.000000  0.292527  0.291411  1
  Ga  Ga11  1  0.000000  0.707473  0.708589  1
  Ga  Ga12  1  0.292527  0.000000  0.291411  1
  Ga  Ga13  1  0.707473  0.000000  0.708589  1
  Ga  Ga14  1  0.292527  0.292527  0.001115  1
  Ga  Ga15  1  0.707473  0.707473  0.998885  1
  Cu  Cu16  1  0.000000  0.000000  0.000000  1
