# generated using pymatgen
data_YEr3Ga4(NiRh)2
_symmetry_space_group_name_H-M   'P 1'
_cell_length_a   4.26659500
_cell_length_b   6.75203416
_cell_length_c   7.62112188
_cell_angle_alpha   89.78592803
_cell_angle_beta   90.00000000
_cell_angle_gamma   90.00000000
_symmetry_Int_Tables_number   1
_chemical_formula_structural   YEr3Ga4(NiRh)2
_chemical_formula_sum   'Y1 Er3 Ga4 Ni2 Rh2'
_cell_volume   219.54923420
_cell_formula_units_Z   1
loop_
 _symmetry_equiv_pos_site_id
 _symmetry_equiv_pos_as_xyz
  1  'x, y, z'
loop_
 _atom_site_type_symbol
 _atom_site_label
 _atom_site_symmetry_multiplicity
 _atom_site_fract_x
 _atom_site_fract_y
 _atom_site_fract_z
 _atom_site_occupancy
  Y  Y0  1  0.750000  0.025334  0.686056  1
  Er  Er1  1  0.250000  0.974370  0.312652  1
  Er  Er2  1  0.250000  0.475100  0.187181  1
  Er  Er3  1  0.750000  0.525887  0.815054  1
  Ga  Ga4  1  0.250000  0.347868  0.575506  1
  Ga  Ga5  1  0.250000  0.846902  0.924575  1
  Ga  Ga6  1  0.750000  0.657754  0.441555  1
  Ga  Ga7  1  0.750000  0.158936  0.058888  1
  Ni  Ni8  1  0.250000  0.226965  0.887050  1
  Ni  Ni9  1  0.250000  0.720503  0.614373  1
  Rh  Rh10  1  0.750000  0.769574  0.112216  1
  Rh  Rh11  1  0.750000  0.270807  0.384893  1
