# generated using pymatgen
data_ScPaMnB6
_symmetry_space_group_name_H-M   'P 1'
_cell_length_a   3.51483100
_cell_length_b   8.93754500
_cell_length_c   11.29520000
_cell_angle_alpha   90.00000000
_cell_angle_beta   90.00000000
_cell_angle_gamma   90.00000000
_symmetry_Int_Tables_number   1
_chemical_formula_structural   ScPaMnB6
_chemical_formula_sum   'Sc4 Pa4 Mn4 B24'
_cell_volume   354.82696359
_cell_formula_units_Z   4
loop_
 _symmetry_equiv_pos_site_id
 _symmetry_equiv_pos_as_xyz
  1  'x, y, z'
loop_
 _atom_site_type_symbol
 _atom_site_label
 _atom_site_symmetry_multiplicity
 _atom_site_fract_x
 _atom_site_fract_y
 _atom_site_fract_z
 _atom_site_occupancy
  Sc  Sc0  1  0.000000  0.444250  0.127472  1
  Sc  Sc1  1  0.000000  0.555750  0.872528  1
  Sc  Sc2  1  0.000000  0.944250  0.372528  1
  Sc  Sc3  1  0.000000  0.055750  0.627472  1
  Pa  Pa4  1  0.000000  0.822044  0.085885  1
  Pa  Pa5  1  0.000000  0.177956  0.914115  1
  Pa  Pa6  1  0.000000  0.322044  0.414115  1
  Pa  Pa7  1  0.000000  0.677956  0.585885  1
  Mn  Mn8  1  0.000000  0.140785  0.181055  1
  Mn  Mn9  1  0.000000  0.859215  0.818945  1
  Mn  Mn10  1  0.000000  0.640785  0.318945  1
  Mn  Mn11  1  0.000000  0.359215  0.681055  1
  B  B12  1  0.500000  0.055765  0.068628  1
  B  B13  1  0.500000  0.944235  0.931372  1
  B  B14  1  0.500000  0.555765  0.431372  1
  B  B15  1  0.500000  0.444235  0.568628  1
  B  B16  1  0.500000  0.251968  0.082702  1
  B  B17  1  0.500000  0.748032  0.917298  1
  B  B18  1  0.500000  0.751968  0.417298  1
  B  B19  1  0.500000  0.248032  0.582702  1
  B  B20  1  0.500000  0.293162  0.234529  1
  B  B21  1  0.500000  0.706838  0.765471  1
  B  B22  1  0.500000  0.793162  0.265471  1
  B  B23  1  0.500000  0.206838  0.734529  1
  B  B24  1  0.500000  0.130052  0.315972  1
  B  B25  1  0.500000  0.869948  0.684028  1
  B  B26  1  0.500000  0.630052  0.184028  1
  B  B27  1  0.500000  0.369948  0.815972  1
  B  B28  1  0.500000  0.483896  0.285737  1
  B  B29  1  0.500000  0.516104  0.714263  1
  B  B30  1  0.500000  0.983896  0.214263  1
  B  B31  1  0.500000  0.016104  0.785737  1
  B  B32  1  0.500000  0.100115  0.472854  1
  B  B33  1  0.500000  0.899885  0.527146  1
  B  B34  1  0.500000  0.600115  0.027146  1
  B  B35  1  0.500000  0.399885  0.972854  1
