# generated using pymatgen
data_Sc2Sb2IrPt
_symmetry_space_group_name_H-M   'P 1'
_cell_length_a   7.82202194
_cell_length_b   7.82202190
_cell_length_c   7.82202053
_cell_angle_alpha   33.47331450
_cell_angle_beta   33.47331528
_cell_angle_gamma   33.47331115
_symmetry_Int_Tables_number   1
_chemical_formula_structural   Sc2Sb2IrPt
_chemical_formula_sum   'Sc2 Sb2 Ir1 Pt1'
_cell_volume   129.66043788
_cell_formula_units_Z   1
loop_
 _symmetry_equiv_pos_site_id
 _symmetry_equiv_pos_as_xyz
  1  'x, y, z'
loop_
 _atom_site_type_symbol
 _atom_site_label
 _atom_site_symmetry_multiplicity
 _atom_site_fract_x
 _atom_site_fract_y
 _atom_site_fract_z
 _atom_site_occupancy
  Sc  Sc0  1  0.249013  0.249013  0.249013  1
  Sc  Sc1  1  0.751241  0.751241  0.751241  1
  Sb  Sb2  1  0.997884  0.997884  0.997884  1
  Sb  Sb3  1  0.501351  0.501351  0.501351  1
  Ir  Ir4  1  0.874408  0.874408  0.874408  1
  Pt  Pt5  1  0.376101  0.376101  0.376101  1
