# generated using pymatgen
data_Tb4Er4GaPd24
_symmetry_space_group_name_H-M   'P 1'
_cell_length_a   8.34429366
_cell_length_b   8.34349567
_cell_length_c   8.34349500
_cell_angle_alpha   90.00271938
_cell_angle_beta   89.97715528
_cell_angle_gamma   89.97715418
_symmetry_Int_Tables_number   1
_chemical_formula_structural   Tb4Er4GaPd24
_chemical_formula_sum   'Tb4 Er4 Ga1 Pd24'
_cell_volume   580.87885203
_cell_formula_units_Z   1
loop_
 _symmetry_equiv_pos_site_id
 _symmetry_equiv_pos_as_xyz
  1  'x, y, z'
loop_
 _atom_site_type_symbol
 _atom_site_label
 _atom_site_symmetry_multiplicity
 _atom_site_fract_x
 _atom_site_fract_y
 _atom_site_fract_z
 _atom_site_occupancy
  Tb  Tb0  1  0.251562  0.251649  0.748493  1
  Tb  Tb1  1  0.251562  0.748493  0.251649  1
  Tb  Tb2  1  0.251634  0.748303  0.748303  1
  Tb  Tb3  1  0.748456  0.251609  0.251609  1
  Er  Er4  1  0.251759  0.251604  0.251604  1
  Er  Er5  1  0.748366  0.748518  0.748518  1
  Er  Er6  1  0.748240  0.748279  0.251586  1
  Er  Er7  1  0.748240  0.251586  0.748279  1
  Ga  Ga8  1  0.000026  0.999988  0.999988  1
  Pd  Pd9  1  0.259531  0.499429  0.000919  1
  Pd  Pd10  1  0.740321  0.500555  0.999088  1
  Pd  Pd11  1  0.999950  0.259668  0.500040  1
  Pd  Pd12  1  0.500276  0.259711  0.999955  1
  Pd  Pd13  1  0.998071  0.740303  0.499966  1
  Pd  Pd14  1  0.501424  0.740272  0.000045  1
  Pd  Pd15  1  0.500276  0.999955  0.259711  1
  Pd  Pd16  1  0.259531  0.000919  0.499429  1
  Pd  Pd17  1  0.501424  0.000045  0.740272  1
  Pd  Pd18  1  0.740321  0.999088  0.500555  1
  Pd  Pd19  1  0.999950  0.500040  0.259668  1
  Pd  Pd20  1  0.998071  0.499966  0.740303  1
  Pd  Pd21  1  0.252602  0.499147  0.499147  1
  Pd  Pd22  1  0.747361  0.500838  0.500838  1
  Pd  Pd23  1  0.500157  0.252714  0.499978  1
  Pd  Pd24  1  0.501779  0.747282  0.500046  1
  Pd  Pd25  1  0.500157  0.499978  0.252714  1
  Pd  Pd26  1  0.501779  0.500046  0.747282  1
  Pd  Pd27  1  0.290964  0.000806  0.000806  1
  Pd  Pd28  1  0.709558  0.999218  0.999218  1
  Pd  Pd29  1  0.999951  0.290829  0.000015  1
  Pd  Pd30  1  0.998378  0.709175  0.999976  1
  Pd  Pd31  1  0.999951  0.000015  0.290829  1
  Pd  Pd32  1  0.998378  0.999976  0.709175  1
