# generated using pymatgen
data_Eu4NiSb3O14
_symmetry_space_group_name_H-M   'P 1'
_cell_length_a   7.39783141
_cell_length_b   7.39783178
_cell_length_c   7.39783163
_cell_angle_alpha   60.94629763
_cell_angle_beta   60.94629801
_cell_angle_gamma   60.94629647
_symmetry_Int_Tables_number   1
_chemical_formula_structural   Eu4NiSb3O14
_chemical_formula_sum   'Eu4 Ni1 Sb3 O14'
_cell_volume   292.38926529
_cell_formula_units_Z   1
loop_
 _symmetry_equiv_pos_site_id
 _symmetry_equiv_pos_as_xyz
  1  'x, y, z'
loop_
 _atom_site_type_symbol
 _atom_site_label
 _atom_site_symmetry_multiplicity
 _atom_site_fract_x
 _atom_site_fract_y
 _atom_site_fract_z
 _atom_site_occupancy
  Eu  Eu0  1  0.500000  0.000000  0.500000  1
  Eu  Eu1  1  0.000000  0.500000  0.500000  1
  Eu  Eu2  1  0.500000  0.500000  0.000000  1
  Eu  Eu3  1  0.500000  0.500000  0.500000  1
  Ni  Ni4  1  0.000000  0.000000  0.000000  1
  Sb  Sb5  1  0.000000  0.000000  0.500000  1
  Sb  Sb6  1  0.500000  0.000000  0.000000  1
  Sb  Sb7  1  0.000000  0.500000  0.000000  1
  O  O8  1  0.083729  0.083729  0.656933  1
  O  O9  1  0.916271  0.916271  0.343067  1
  O  O10  1  0.343067  0.916271  0.916271  1
  O  O11  1  0.656933  0.083729  0.083729  1
  O  O12  1  0.916567  0.325057  0.325057  1
  O  O13  1  0.083433  0.674943  0.674943  1
  O  O14  1  0.674943  0.674943  0.083433  1
  O  O15  1  0.325057  0.325057  0.916567  1
  O  O16  1  0.375538  0.375538  0.375538  1
  O  O17  1  0.624462  0.624462  0.624462  1
  O  O18  1  0.916271  0.343067  0.916271  1
  O  O19  1  0.083729  0.656933  0.083729  1
  O  O20  1  0.674943  0.083433  0.674943  1
  O  O21  1  0.325057  0.916567  0.325057  1
