# generated using pymatgen
data_Hf5(Re3Tc)6
_symmetry_space_group_name_H-M   'P 1'
_cell_length_a   8.46848214
_cell_length_b   8.46848277
_cell_length_c   8.45452528
_cell_angle_alpha   109.46933601
_cell_angle_beta   109.46933876
_cell_angle_gamma   109.54176948
_symmetry_Int_Tables_number   1
_chemical_formula_structural   Hf5(Re3Tc)6
_chemical_formula_sum   'Hf5 Re18 Tc6'
_cell_volume   466.35849459
_cell_formula_units_Z   1
loop_
 _symmetry_equiv_pos_site_id
 _symmetry_equiv_pos_as_xyz
  1  'x, y, z'
loop_
 _atom_site_type_symbol
 _atom_site_label
 _atom_site_symmetry_multiplicity
 _atom_site_fract_x
 _atom_site_fract_y
 _atom_site_fract_z
 _atom_site_occupancy
  Hf  Hf0  1  0.999717  0.999717  0.000000  1
  Hf  Hf1  1  0.626198  0.999861  0.000000  1
  Hf  Hf2  1  0.999861  0.626198  0.000000  1
  Hf  Hf3  1  0.999852  0.999852  0.627946  1
  Hf  Hf4  1  0.371906  0.371906  0.372054  1
  Re  Re5  1  0.323924  0.323924  0.720266  1
  Re  Re6  1  0.000899  0.676437  0.396158  1
  Re  Re7  1  0.676437  0.000899  0.396158  1
  Re  Re8  1  0.603659  0.603659  0.279734  1
  Re  Re9  1  0.280278  0.604741  0.603842  1
  Re  Re10  1  0.604741  0.280278  0.603842  1
  Re  Re11  1  0.375828  0.194627  0.000000  1
  Re  Re12  1  0.180634  0.806165  0.805819  1
  Re  Re13  1  0.374814  0.000345  0.194181  1
  Re  Re14  1  0.194627  0.375828  0.000000  1
  Re  Re15  1  0.000345  0.374814  0.194181  1
  Re  Re16  1  0.806165  0.180634  0.805819  1
  Re  Re17  1  0.806887  0.806887  0.182194  1
  Re  Re18  1  0.000443  0.193943  0.376776  1
  Re  Re19  1  0.193943  0.000443  0.376776  1
  Re  Re20  1  0.624694  0.624694  0.817806  1
  Re  Re21  1  0.817167  0.623666  0.623224  1
  Re  Re22  1  0.623666  0.817167  0.623224  1
  Tc  Tc23  1  0.396233  0.677320  0.000000  1
  Tc  Tc24  1  0.719193  0.322720  0.322031  1
  Tc  Tc25  1  0.397161  0.000689  0.677969  1
  Tc  Tc26  1  0.677320  0.396233  0.000000  1
  Tc  Tc27  1  0.000689  0.397161  0.677969  1
  Tc  Tc28  1  0.322720  0.719193  0.322031  1
