# generated using pymatgen
data_TaPd3(SeO3)8
_symmetry_space_group_name_H-M   'P 1'
_cell_length_a   8.17841387
_cell_length_b   8.17841345
_cell_length_c   8.17841446
_cell_angle_alpha   90.45839500
_cell_angle_beta   89.54160981
_cell_angle_gamma   90.45839445
_symmetry_Int_Tables_number   1
_chemical_formula_structural   TaPd3(SeO3)8
_chemical_formula_sum   'Ta1 Pd3 Se8 O24'
_cell_volume   546.97286739
_cell_formula_units_Z   1
loop_
 _symmetry_equiv_pos_site_id
 _symmetry_equiv_pos_as_xyz
  1  'x, y, z'
loop_
 _atom_site_type_symbol
 _atom_site_label
 _atom_site_symmetry_multiplicity
 _atom_site_fract_x
 _atom_site_fract_y
 _atom_site_fract_z
 _atom_site_occupancy
  Ta  Ta0  1  0.000000  0.500000  0.500000  1
  Pd  Pd1  1  0.500000  0.500000  0.000000  1
  Pd  Pd2  1  0.500000  0.000000  0.500000  1
  Pd  Pd3  1  0.000000  0.000000  0.000000  1
  Se  Se4  1  0.821955  0.146125  0.682039  1
  Se  Se5  1  0.178045  0.853875  0.317961  1
  Se  Se6  1  0.646125  0.682039  0.678045  1
  Se  Se7  1  0.182039  0.678045  0.853875  1
  Se  Se8  1  0.338453  0.161547  0.838453  1
  Se  Se9  1  0.817961  0.321955  0.146125  1
  Se  Se10  1  0.661547  0.838453  0.161547  1
  Se  Se11  1  0.353875  0.317961  0.321955  1
  O  O12  1  0.230631  0.440685  0.449590  1
  O  O13  1  0.970868  0.248094  0.016045  1
  O  O14  1  0.050410  0.730631  0.440685  1
  O  O15  1  0.472807  0.250358  0.979097  1
  O  O16  1  0.251906  0.983955  0.470868  1
  O  O17  1  0.516045  0.529132  0.751906  1
  O  O18  1  0.971834  0.014974  0.752835  1
  O  O19  1  0.527193  0.749642  0.020903  1
  O  O20  1  0.520903  0.972807  0.250358  1
  O  O21  1  0.479097  0.027193  0.749642  1
  O  O22  1  0.750358  0.979097  0.027193  1
  O  O23  1  0.252835  0.528166  0.985026  1
  O  O24  1  0.059315  0.550410  0.730631  1
  O  O25  1  0.028166  0.985026  0.247165  1
  O  O26  1  0.249642  0.020903  0.972807  1
  O  O27  1  0.483955  0.470868  0.248094  1
  O  O28  1  0.769369  0.559315  0.550410  1
  O  O29  1  0.940685  0.449590  0.269369  1
  O  O30  1  0.029132  0.751906  0.983955  1
  O  O31  1  0.485026  0.247165  0.471834  1
  O  O32  1  0.514974  0.752835  0.528166  1
  O  O33  1  0.949590  0.269369  0.559315  1
  O  O34  1  0.748094  0.016045  0.529132  1
  O  O35  1  0.747165  0.471834  0.014974  1
