# generated using pymatgen
data_Lu3Al3NiPt2
_symmetry_space_group_name_H-M   'P 1'
_cell_length_a   7.06268801
_cell_length_b   7.06365498
_cell_length_c   3.85222100
_cell_angle_alpha   90.00000000
_cell_angle_beta   90.00000000
_cell_angle_gamma   119.99979183
_symmetry_Int_Tables_number   1
_chemical_formula_structural   Lu3Al3NiPt2
_chemical_formula_sum   'Lu3 Al3 Ni1 Pt2'
_cell_volume   166.43407128
_cell_formula_units_Z   1
loop_
 _symmetry_equiv_pos_site_id
 _symmetry_equiv_pos_as_xyz
  1  'x, y, z'
loop_
 _atom_site_type_symbol
 _atom_site_label
 _atom_site_symmetry_multiplicity
 _atom_site_fract_x
 _atom_site_fract_y
 _atom_site_fract_z
 _atom_site_occupancy
  Lu  Lu0  1  0.999989  0.410650  0.500000  1
  Lu  Lu1  1  0.589328  0.589352  0.500000  1
  Lu  Lu2  1  0.410666  0.000008  0.500000  1
  Al  Al3  1  0.999992  0.765451  0.000000  1
  Al  Al4  1  0.234539  0.234552  0.000000  1
  Al  Al5  1  0.765459  0.000005  0.000000  1
  Ni  Ni6  1  0.000008  0.000000  0.500000  1
  Pt  Pt7  1  0.333335  0.666653  0.000000  1
  Pt  Pt8  1  0.666684  0.333328  0.000000  1
