# generated using pymatgen
data_Ho9Th3Ru4
_symmetry_space_group_name_H-M   'P 1'
_cell_length_a   6.33563879
_cell_length_b   7.20957898
_cell_length_c   9.46979600
_cell_angle_alpha   90.00000000
_cell_angle_beta   90.00000000
_cell_angle_gamma   90.49895430
_symmetry_Int_Tables_number   1
_chemical_formula_structural   Ho9Th3Ru4
_chemical_formula_sum   'Ho9 Th3 Ru4'
_cell_volume   432.53819966
_cell_formula_units_Z   1
loop_
 _symmetry_equiv_pos_site_id
 _symmetry_equiv_pos_as_xyz
  1  'x, y, z'
loop_
 _atom_site_type_symbol
 _atom_site_label
 _atom_site_symmetry_multiplicity
 _atom_site_fract_x
 _atom_site_fract_y
 _atom_site_fract_z
 _atom_site_occupancy
  Ho  Ho0  1  0.334757  0.677603  0.063963  1
  Ho  Ho1  1  0.164746  0.175542  0.435305  1
  Ho  Ho2  1  0.667987  0.323326  0.566853  1
  Ho  Ho3  1  0.829308  0.823849  0.931179  1
  Ho  Ho4  1  0.667987  0.323326  0.933147  1
  Ho  Ho5  1  0.829308  0.823849  0.568821  1
  Ho  Ho6  1  0.334757  0.677603  0.436037  1
  Ho  Ho7  1  0.164746  0.175542  0.064695  1
  Ho  Ho8  1  0.361919  0.963690  0.750000  1
  Th  Th9  1  0.850506  0.546878  0.250000  1
  Th  Th10  1  0.647304  0.045300  0.250000  1
  Th  Th11  1  0.151418  0.453065  0.750000  1
  Ru  Ru12  1  0.033819  0.871515  0.250000  1
  Ru  Ru13  1  0.467070  0.369794  0.250000  1
  Ru  Ru14  1  0.962345  0.132328  0.750000  1
  Ru  Ru15  1  0.532023  0.616790  0.750000  1
