# generated using pymatgen
data_Y16MgHg3Ir4
_symmetry_space_group_name_H-M   'P 1'
_cell_length_a   9.66154636
_cell_length_b   9.66249381
_cell_length_c   9.66249400
_cell_angle_alpha   59.99999936
_cell_angle_beta   59.99675536
_cell_angle_gamma   59.99675262
_symmetry_Int_Tables_number   1
_chemical_formula_structural   Y16MgHg3Ir4
_chemical_formula_sum   'Y16 Mg1 Hg3 Ir4'
_cell_volume   637.80629103
_cell_formula_units_Z   1
loop_
 _symmetry_equiv_pos_site_id
 _symmetry_equiv_pos_as_xyz
  1  'x, y, z'
loop_
 _atom_site_type_symbol
 _atom_site_label
 _atom_site_symmetry_multiplicity
 _atom_site_fract_x
 _atom_site_fract_y
 _atom_site_fract_z
 _atom_site_occupancy
  Y  Y0  1  0.600578  0.598588  0.598588  1
  Y  Y1  1  0.600578  0.598588  0.202245  1
  Y  Y2  1  0.600578  0.202245  0.598588  1
  Y  Y3  1  0.193081  0.602306  0.602306  1
  Y  Y4  1  0.059576  0.440329  0.440329  1
  Y  Y5  1  0.436918  0.062272  0.062272  1
  Y  Y6  1  0.436918  0.062272  0.438538  1
  Y  Y7  1  0.059576  0.440329  0.059765  1
  Y  Y8  1  0.436918  0.438538  0.062272  1
  Y  Y9  1  0.059576  0.059765  0.440329  1
  Y  Y10  1  0.185451  0.812979  0.812979  1
  Y  Y11  1  0.811846  0.187431  0.187431  1
  Y  Y12  1  0.811846  0.187431  0.813292  1
  Y  Y13  1  0.185451  0.812979  0.188592  1
  Y  Y14  1  0.811846  0.813292  0.187431  1
  Y  Y15  1  0.185451  0.188592  0.812979  1
  Mg  Mg16  1  0.535825  0.821392  0.821392  1
  Hg  Hg17  1  0.830796  0.836260  0.836260  1
  Hg  Hg18  1  0.830796  0.836260  0.496685  1
  Hg  Hg19  1  0.830796  0.496685  0.836260  1
  Ir  Ir20  1  0.390363  0.392963  0.392963  1
  Ir  Ir21  1  0.390363  0.392963  0.823710  1
  Ir  Ir22  1  0.390363  0.823710  0.392963  1
  Ir  Ir23  1  0.824510  0.391830  0.391830  1
