# generated using pymatgen
data_Ho2Mn5(NiP)7
_symmetry_space_group_name_H-M   'P 1'
_cell_length_a   9.15750818
_cell_length_b   9.14475912
_cell_length_c   3.65165100
_cell_angle_alpha   90.00000000
_cell_angle_beta   90.00000000
_cell_angle_gamma   119.92527554
_symmetry_Int_Tables_number   1
_chemical_formula_structural   Ho2Mn5(NiP)7
_chemical_formula_sum   'Ho2 Mn5 Ni7 P7'
_cell_volume   265.03058857
_cell_formula_units_Z   1
loop_
 _symmetry_equiv_pos_site_id
 _symmetry_equiv_pos_as_xyz
  1  'x, y, z'
loop_
 _atom_site_type_symbol
 _atom_site_label
 _atom_site_symmetry_multiplicity
 _atom_site_fract_x
 _atom_site_fract_y
 _atom_site_fract_z
 _atom_site_occupancy
  Ho  Ho0  1  0.662896  0.330776  0.000000  1
  Ho  Ho1  1  0.335651  0.667145  0.500000  1
  Mn  Mn2  1  0.878538  0.721540  0.000000  1
  Mn  Mn3  1  0.953255  0.570268  0.500000  1
  Mn  Mn4  1  0.098254  0.220378  0.500000  1
  Mn  Mn5  1  0.779051  0.878398  0.500000  1
  Mn  Mn6  1  0.119526  0.904741  0.500000  1
  Ni  Ni7  1  0.061975  0.432536  0.000000  1
  Ni  Ni8  1  0.564996  0.626994  0.000000  1
  Ni  Ni9  1  0.371006  0.937511  0.000000  1
  Ni  Ni10  1  0.276842  0.155041  0.000000  1
  Ni  Ni11  1  0.844647  0.122793  0.000000  1
  Ni  Ni12  1  0.436632  0.383752  0.500000  1
  Ni  Ni13  1  0.614386  0.050496  0.500000  1
  P  P14  1  0.295944  0.408820  0.000000  1
  P  P15  1  0.591809  0.886645  0.000000  1
  P  P16  1  0.113794  0.702682  0.000000  1
  P  P17  1  0.404815  0.112953  0.500000  1
  P  P18  1  0.884696  0.294985  0.500000  1
  P  P19  1  0.713418  0.593894  0.500000  1
  P  P20  1  0.997867  0.997654  0.000000  1
