# generated using pymatgen
data_Hf3(ZrSi2)2
_symmetry_space_group_name_H-M   'P 1'
_cell_length_a   7.10737200
_cell_length_b   7.10737200
_cell_length_c   12.95884700
_cell_angle_alpha   90.00000000
_cell_angle_beta   90.00000000
_cell_angle_gamma   90.00000000
_symmetry_Int_Tables_number   1
_chemical_formula_structural   Hf3(ZrSi2)2
_chemical_formula_sum   'Hf12 Zr8 Si16'
_cell_volume   654.61274474
_cell_formula_units_Z   4
loop_
 _symmetry_equiv_pos_site_id
 _symmetry_equiv_pos_as_xyz
  1  'x, y, z'
loop_
 _atom_site_type_symbol
 _atom_site_label
 _atom_site_symmetry_multiplicity
 _atom_site_fract_x
 _atom_site_fract_y
 _atom_site_fract_z
 _atom_site_occupancy
  Hf  Hf0  1  0.174683  0.174683  0.000000  1
  Hf  Hf1  1  0.825317  0.825317  0.500000  1
  Hf  Hf2  1  0.325317  0.674683  0.250000  1
  Hf  Hf3  1  0.674683  0.325317  0.750000  1
  Hf  Hf4  1  0.147616  0.999119  0.376142  1
  Hf  Hf5  1  0.852384  0.000881  0.876142  1
  Hf  Hf6  1  0.500881  0.647616  0.626142  1
  Hf  Hf7  1  0.352384  0.499119  0.873858  1
  Hf  Hf8  1  0.499119  0.352384  0.126142  1
  Hf  Hf9  1  0.647616  0.500881  0.373858  1
  Hf  Hf10  1  0.999119  0.147616  0.623858  1
  Hf  Hf11  1  0.000881  0.852384  0.123858  1
  Zr  Zr12  1  0.997483  0.347789  0.215521  1
  Zr  Zr13  1  0.002517  0.652211  0.715521  1
  Zr  Zr14  1  0.152211  0.497483  0.465521  1
  Zr  Zr15  1  0.502517  0.847789  0.034479  1
  Zr  Zr16  1  0.847789  0.502517  0.965521  1
  Zr  Zr17  1  0.497483  0.152211  0.534479  1
  Zr  Zr18  1  0.347789  0.997483  0.784479  1
  Zr  Zr19  1  0.652211  0.002517  0.284479  1
  Si  Si20  1  0.356195  0.294922  0.321911  1
  Si  Si21  1  0.643805  0.705078  0.821911  1
  Si  Si22  1  0.205078  0.856195  0.571911  1
  Si  Si23  1  0.143805  0.794922  0.928089  1
  Si  Si24  1  0.794922  0.143805  0.071911  1
  Si  Si25  1  0.856195  0.205078  0.428089  1
  Si  Si26  1  0.294922  0.356195  0.678089  1
  Si  Si27  1  0.705078  0.643805  0.178089  1
  Si  Si28  1  0.300459  0.048596  0.186027  1
  Si  Si29  1  0.699541  0.951404  0.686027  1
  Si  Si30  1  0.451404  0.800459  0.436027  1
  Si  Si31  1  0.199541  0.548596  0.063973  1
  Si  Si32  1  0.548596  0.199541  0.936027  1
  Si  Si33  1  0.800459  0.451404  0.563973  1
  Si  Si34  1  0.048596  0.300459  0.813973  1
  Si  Si35  1  0.951404  0.699541  0.313973  1
