# generated using pymatgen
data_LaTiSbO6
_symmetry_space_group_name_H-M   'P 1'
_cell_length_a   5.26840733
_cell_length_b   5.26835527
_cell_length_c   5.21885270
_cell_angle_alpha   90.07809973
_cell_angle_beta   90.07845760
_cell_angle_gamma   119.90083281
_symmetry_Int_Tables_number   1
_chemical_formula_structural   LaTiSbO6
_chemical_formula_sum   'La1 Ti1 Sb1 O6'
_cell_volume   125.57163999
_cell_formula_units_Z   1
loop_
 _symmetry_equiv_pos_site_id
 _symmetry_equiv_pos_as_xyz
  1  'x, y, z'
loop_
 _atom_site_type_symbol
 _atom_site_label
 _atom_site_symmetry_multiplicity
 _atom_site_fract_x
 _atom_site_fract_y
 _atom_site_fract_z
 _atom_site_occupancy
  La  La0  1  0.517582  0.482426  0.500005  1
  Ti  Ti1  1  0.850476  0.149526  0.000002  1
  Sb  Sb2  1  0.184284  0.815718  0.000005  1
  O  O3  1  0.144737  0.112649  0.211620  1
  O  O4  1  0.521092  0.857413  0.212562  1
  O  O5  1  0.889493  0.480897  0.212425  1
  O  O6  1  0.519106  0.110508  0.787582  1
  O  O7  1  0.142586  0.478907  0.787444  1
  O  O8  1  0.887358  0.855264  0.788384  1
