# generated using pymatgen
data_Pr4EuSn3O
_symmetry_space_group_name_H-M   'P 1'
_cell_length_a   9.53778625
_cell_length_b   9.53778686
_cell_length_c   9.53778800
_cell_angle_alpha   128.00450604
_cell_angle_beta   128.00450893
_cell_angle_gamma   76.61772854
_symmetry_Int_Tables_number   1
_chemical_formula_structural   Pr4EuSn3O
_chemical_formula_sum   'Pr8 Eu2 Sn6 O2'
_cell_volume   523.25040024
_cell_formula_units_Z   2
loop_
 _symmetry_equiv_pos_site_id
 _symmetry_equiv_pos_as_xyz
  1  'x, y, z'
loop_
 _atom_site_type_symbol
 _atom_site_label
 _atom_site_symmetry_multiplicity
 _atom_site_fract_x
 _atom_site_fract_y
 _atom_site_fract_z
 _atom_site_occupancy
  Pr  Pr0  1  0.503709  0.003709  0.810880  1
  Pr  Pr1  1  0.192829  0.692829  0.189120  1
  Pr  Pr2  1  0.003709  0.192829  0.500000  1
  Pr  Pr3  1  0.692829  0.503709  0.500000  1
  Pr  Pr4  1  0.496291  0.996291  0.189120  1
  Pr  Pr5  1  0.807171  0.307171  0.810880  1
  Pr  Pr6  1  0.996291  0.807171  0.500000  1
  Pr  Pr7  1  0.307171  0.496291  0.500000  1
  Eu  Eu8  1  0.500000  0.500000  0.000000  1
  Eu  Eu9  1  0.000000  0.000000  0.000000  1
  Sn  Sn10  1  0.250000  0.250000  0.000000  1
  Sn  Sn11  1  0.750000  0.750000  0.000000  1
  Sn  Sn12  1  0.868932  0.368932  0.237866  1
  Sn  Sn13  1  0.131068  0.631068  0.762134  1
  Sn  Sn14  1  0.368932  0.131068  0.500000  1
  Sn  Sn15  1  0.631068  0.868932  0.500000  1
  O  O16  1  0.250000  0.750000  0.500000  1
  O  O17  1  0.750000  0.250000  0.500000  1
