# generated using pymatgen
data_Li2TbEu(WO4)4
_symmetry_space_group_name_H-M   'P 1'
_cell_length_a   6.09790000
_cell_length_b   5.06982680
_cell_length_c   11.11552036
_cell_angle_alpha   65.39240770
_cell_angle_beta   90.00000000
_cell_angle_gamma   90.00000000
_symmetry_Int_Tables_number   1
_chemical_formula_structural   Li2TbEu(WO4)4
_chemical_formula_sum   'Li2 Tb1 Eu1 W4 O16'
_cell_volume   312.43058498
_cell_formula_units_Z   1
loop_
 _symmetry_equiv_pos_site_id
 _symmetry_equiv_pos_as_xyz
  1  'x, y, z'
loop_
 _atom_site_type_symbol
 _atom_site_label
 _atom_site_symmetry_multiplicity
 _atom_site_fract_x
 _atom_site_fract_y
 _atom_site_fract_z
 _atom_site_occupancy
  Li  Li0  1  0.759713  0.000000  0.750000  1
  Li  Li1  1  0.246867  0.000000  0.250000  1
  Tb  Tb2  1  0.661625  0.500000  0.250000  1
  Eu  Eu3  1  0.337133  0.500000  0.750000  1
  W  W4  1  0.832172  0.739568  0.510638  1
  W  W5  1  0.166352  0.266836  0.485787  1
  W  W6  1  0.832172  0.260432  0.989362  1
  W  W7  1  0.166352  0.733164  0.014213  1
  O  O8  1  0.889535  0.837643  0.099796  1
  O  O9  1  0.107079  0.152478  0.905317  1
  O  O10  1  0.889535  0.162357  0.400204  1
  O  O11  1  0.107079  0.847522  0.594683  1
  O  O12  1  0.361233  0.715244  0.891959  1
  O  O13  1  0.638189  0.278028  0.111266  1
  O  O14  1  0.361233  0.284756  0.608041  1
  O  O15  1  0.638189  0.721972  0.388734  1
  O  O16  1  0.911002  0.658181  0.892946  1
  O  O17  1  0.089127  0.335628  0.110039  1
  O  O18  1  0.911002  0.341819  0.607054  1
  O  O19  1  0.089127  0.664372  0.389961  1
  O  O20  1  0.647500  0.772500  0.633288  1
  O  O21  1  0.355143  0.233761  0.364715  1
  O  O22  1  0.647500  0.227500  0.866712  1
  O  O23  1  0.355143  0.766239  0.135285  1
