# generated using pymatgen
data_Yb2HoTm(Ga8Pt3)3
_symmetry_space_group_name_H-M   'P 1'
_cell_length_a   7.48864927
_cell_length_b   7.57116362
_cell_length_c   13.39202893
_cell_angle_alpha   84.51778092
_cell_angle_beta   79.45619613
_cell_angle_gamma   60.76515633
_symmetry_Int_Tables_number   1
_chemical_formula_structural   Yb2HoTm(Ga8Pt3)3
_chemical_formula_sum   'Yb2 Ho1 Tm1 Ga24 Pt9'
_cell_volume   651.37861601
_cell_formula_units_Z   1
loop_
 _symmetry_equiv_pos_site_id
 _symmetry_equiv_pos_as_xyz
  1  'x, y, z'
loop_
 _atom_site_type_symbol
 _atom_site_label
 _atom_site_symmetry_multiplicity
 _atom_site_fract_x
 _atom_site_fract_y
 _atom_site_fract_z
 _atom_site_occupancy
  Yb  Yb0  1  0.600044  0.833026  0.191637  1
  Yb  Yb1  1  0.735626  0.497046  0.809086  1
  Ho  Ho2  1  0.400387  0.166556  0.809673  1
  Tm  Tm3  1  0.265490  0.505209  0.190255  1
  Ga  Ga4  1  0.689301  0.830363  0.938569  1
  Ga  Ga5  1  0.312303  0.166670  0.062035  1
  Ga  Ga6  1  0.144738  0.833206  0.559270  1
  Ga  Ga7  1  0.855546  0.166834  0.440179  1
  Ga  Ga8  1  0.476994  0.167773  0.556365  1
  Ga  Ga9  1  0.522776  0.832484  0.443276  1
  Ga  Ga10  1  0.220941  0.164757  0.322524  1
  Ga  Ga11  1  0.779069  0.834111  0.678049  1
  Ga  Ga12  1  0.438085  0.504220  0.675917  1
  Ga  Ga13  1  0.561883  0.496909  0.323912  1
  Ga  Ga14  1  0.107697  0.162414  0.673799  1
  Ga  Ga15  1  0.891782  0.837603  0.324311  1
  Ga  Ga16  1  0.361864  0.495340  0.939706  1
  Ga  Ga17  1  0.639296  0.503298  0.059915  1
  Ga  Ga18  1  0.021021  0.168451  0.945440  1
  Ga  Ga19  1  0.976399  0.830635  0.056800  1
  Ga  Ga20  1  0.188580  0.496812  0.443324  1
  Ga  Ga21  1  0.810930  0.503496  0.556683  1
  Ga  Ga22  1  0.728676  0.171028  0.181804  1
  Ga  Ga23  1  0.266550  0.838447  0.818479  1
  Ga  Ga24  1  0.066437  0.627771  0.817170  1
  Ga  Ga25  1  0.941184  0.369641  0.182578  1
  Ga  Ga26  1  0.858546  0.039310  0.816041  1
  Ga  Ga27  1  0.139312  0.959596  0.183782  1
  Pt  Pt28  1  0.114986  0.495840  0.639795  1
  Pt  Pt29  1  0.884349  0.504603  0.360234  1
  Pt  Pt30  1  0.661534  0.166955  0.998978  1
  Pt  Pt31  1  0.338531  0.830434  0.001642  1
  Pt  Pt32  1  0.542136  0.165253  0.360365  1
  Pt  Pt33  1  0.457985  0.834005  0.639241  1
  Pt  Pt34  1  0.777004  0.174847  0.636841  1
  Pt  Pt35  1  0.222102  0.825312  0.362760  1
  Pt  Pt36  1  0.999921  0.499744  0.999565  1
