# generated using pymatgen
data_TbTh2In3Ru2Rh
_symmetry_space_group_name_H-M   'P 1'
_cell_length_a   7.33423200
_cell_length_b   7.72375057
_cell_length_c   4.02494700
_cell_angle_alpha   90.00000000
_cell_angle_beta   90.00000000
_cell_angle_gamma   118.34531934
_symmetry_Int_Tables_number   1
_chemical_formula_structural   TbTh2In3Ru2Rh
_chemical_formula_sum   'Tb1 Th2 In3 Ru2 Rh1'
_cell_volume   200.66706611
_cell_formula_units_Z   1
loop_
 _symmetry_equiv_pos_site_id
 _symmetry_equiv_pos_as_xyz
  1  'x, y, z'
loop_
 _atom_site_type_symbol
 _atom_site_label
 _atom_site_symmetry_multiplicity
 _atom_site_fract_x
 _atom_site_fract_y
 _atom_site_fract_z
 _atom_site_occupancy
  Tb  Tb0  1  0.594227  0.000000  0.500000  1
  Th  Th1  1  0.002609  0.582983  0.500000  1
  Th  Th2  1  0.419625  0.417017  0.500000  1
  In  In3  1  0.748794  0.762718  0.000000  1
  In  In4  1  0.986076  0.237282  0.000000  1
  In  In5  1  0.267077  0.000000  0.000000  1
  Ru  Ru6  1  0.305294  0.636806  0.000000  1
  Ru  Ru7  1  0.668488  0.363194  0.000000  1
  Rh  Rh8  1  0.007809  0.000000  0.500000  1
