# generated using pymatgen
data_Pr11Y(OsPd)2
_symmetry_space_group_name_H-M   'P 1'
_cell_length_a   6.57543550
_cell_length_b   7.51104502
_cell_length_c   9.94464929
_cell_angle_alpha   89.87380887
_cell_angle_beta   92.29607326
_cell_angle_gamma   90.45358285
_symmetry_Int_Tables_number   1
_chemical_formula_structural   Pr11Y(OsPd)2
_chemical_formula_sum   'Pr11 Y1 Os2 Pd2'
_cell_volume   490.73966260
_cell_formula_units_Z   1
loop_
 _symmetry_equiv_pos_site_id
 _symmetry_equiv_pos_as_xyz
  1  'x, y, z'
loop_
 _atom_site_type_symbol
 _atom_site_label
 _atom_site_symmetry_multiplicity
 _atom_site_fract_x
 _atom_site_fract_y
 _atom_site_fract_z
 _atom_site_occupancy
  Pr  Pr0  1  0.633943  0.038811  0.251236  1
  Pr  Pr1  1  0.368322  0.962794  0.749390  1
  Pr  Pr2  1  0.148902  0.470521  0.754089  1
  Pr  Pr3  1  0.851639  0.525082  0.246288  1
  Pr  Pr4  1  0.172594  0.192243  0.069305  1
  Pr  Pr5  1  0.833047  0.810339  0.932065  1
  Pr  Pr6  1  0.658887  0.329133  0.928492  1
  Pr  Pr7  1  0.833811  0.812337  0.564538  1
  Pr  Pr8  1  0.347107  0.668328  0.069095  1
  Pr  Pr9  1  0.164085  0.184098  0.437067  1
  Pr  Pr10  1  0.331952  0.676538  0.443029  1
  Y  Y11  1  0.659719  0.328433  0.558631  1
  Os  Os12  1  0.441428  0.379894  0.272683  1
  Os  Os13  1  0.562376  0.619527  0.733752  1
  Pd  Pd14  1  0.924832  0.118872  0.749335  1
  Pd  Pd15  1  0.067358  0.883050  0.241005  1
