# generated using pymatgen
data_Dy19MgIr12
_symmetry_space_group_name_H-M   'P 1'
_cell_length_a   10.86375700
_cell_length_b   10.86375700
_cell_length_c   6.31756200
_cell_angle_alpha   90.00000000
_cell_angle_beta   90.00000000
_cell_angle_gamma   90.00000000
_symmetry_Int_Tables_number   1
_chemical_formula_structural   Dy19MgIr12
_chemical_formula_sum   'Dy19 Mg1 Ir12'
_cell_volume   745.60635037
_cell_formula_units_Z   1
loop_
 _symmetry_equiv_pos_site_id
 _symmetry_equiv_pos_as_xyz
  1  'x, y, z'
loop_
 _atom_site_type_symbol
 _atom_site_label
 _atom_site_symmetry_multiplicity
 _atom_site_fract_x
 _atom_site_fract_y
 _atom_site_fract_z
 _atom_site_occupancy
  Dy  Dy0  1  0.284360  0.084798  0.379915  1
  Dy  Dy1  1  0.290661  0.911846  0.880030  1
  Dy  Dy2  1  0.709339  0.088154  0.880030  1
  Dy  Dy3  1  0.715640  0.915202  0.379915  1
  Dy  Dy4  1  0.588952  0.792240  0.880729  1
  Dy  Dy5  1  0.587859  0.207606  0.378768  1
  Dy  Dy6  1  0.412141  0.792394  0.378768  1
  Dy  Dy7  1  0.411048  0.207760  0.880729  1
  Dy  Dy8  1  0.207606  0.412141  0.621232  1
  Dy  Dy9  1  0.207760  0.588952  0.119271  1
  Dy  Dy10  1  0.792240  0.411048  0.119271  1
  Dy  Dy11  1  0.792394  0.587859  0.621232  1
  Dy  Dy12  1  0.911846  0.709339  0.119970  1
  Dy  Dy13  1  0.915202  0.284360  0.620085  1
  Dy  Dy14  1  0.084798  0.715640  0.620085  1
  Dy  Dy15  1  0.088154  0.290661  0.119970  1
  Dy  Dy16  1  0.000000  0.000000  0.000000  1
  Dy  Dy17  1  0.500000  0.500000  0.000000  1
  Dy  Dy18  1  0.500000  0.500000  0.500000  1
  Mg  Mg19  1  0.000000  0.000000  0.500000  1
  Ir  Ir20  1  0.846679  0.153840  0.247923  1
  Ir  Ir21  1  0.846160  0.846679  0.752077  1
  Ir  Ir22  1  0.153840  0.153321  0.752077  1
  Ir  Ir23  1  0.153321  0.846160  0.247923  1
  Ir  Ir24  1  0.654592  0.345906  0.748138  1
  Ir  Ir25  1  0.654094  0.654592  0.251862  1
  Ir  Ir26  1  0.345906  0.345408  0.251862  1
  Ir  Ir27  1  0.345408  0.654094  0.748138  1
  Ir  Ir28  1  0.500000  0.000000  0.125076  1
  Ir  Ir29  1  0.500000  0.000000  0.621192  1
  Ir  Ir30  1  0.000000  0.500000  0.874924  1
  Ir  Ir31  1  0.000000  0.500000  0.378808  1
