# generated using pymatgen
data_LaPr4P12Ru9Rh10
_symmetry_space_group_name_H-M   'P 1'
_cell_length_a   12.75754200
_cell_length_b   12.76057108
_cell_length_c   4.00041300
_cell_angle_alpha   90.00000000
_cell_angle_beta   90.00000000
_cell_angle_gamma   119.99214792
_symmetry_Int_Tables_number   1
_chemical_formula_structural   LaPr4P12Ru9Rh10
_chemical_formula_sum   'La1 Pr4 P12 Ru9 Rh10'
_cell_volume   564.03614602
_cell_formula_units_Z   1
loop_
 _symmetry_equiv_pos_site_id
 _symmetry_equiv_pos_as_xyz
  1  'x, y, z'
loop_
 _atom_site_type_symbol
 _atom_site_label
 _atom_site_symmetry_multiplicity
 _atom_site_fract_x
 _atom_site_fract_y
 _atom_site_fract_z
 _atom_site_occupancy
  La  La0  1  0.814433  0.000000  0.500000  1
  Pr  Pr1  1  0.000147  0.813669  0.500000  1
  Pr  Pr2  1  0.186478  0.186331  0.500000  1
  Pr  Pr3  1  0.333279  0.666641  0.000000  1
  Pr  Pr4  1  0.666639  0.333359  0.000000  1
  P  P5  1  0.185397  0.000000  0.000000  1
  P  P6  1  0.000662  0.186030  0.000000  1
  P  P7  1  0.814633  0.813970  0.000000  1
  P  P8  1  0.519145  0.690539  0.500000  1
  P  P9  1  0.309246  0.828557  0.500000  1
  P  P10  1  0.171520  0.481004  0.500000  1
  P  P11  1  0.480688  0.171443  0.500000  1
  P  P12  1  0.690516  0.518996  0.500000  1
  P  P13  1  0.828606  0.309461  0.500000  1
  P  P14  1  0.626235  0.000000  0.000000  1
  P  P15  1  0.999996  0.626871  0.000000  1
  P  P16  1  0.373124  0.373129  0.000000  1
  Ru  Ru17  1  0.287424  0.000000  0.500000  1
  Ru  Ru18  1  0.000304  0.287963  0.500000  1
  Ru  Ru19  1  0.712342  0.712037  0.500000  1
  Ru  Ru20  1  0.511777  0.875106  0.500000  1
  Ru  Ru21  1  0.124732  0.636927  0.500000  1
  Ru  Ru22  1  0.363093  0.487962  0.500000  1
  Ru  Ru23  1  0.487804  0.363073  0.500000  1
  Ru  Ru24  1  0.875131  0.512038  0.500000  1
  Ru  Ru25  1  0.636671  0.124894  0.500000  1
  Rh  Rh26  1  0.448241  0.000000  0.000000  1
  Rh  Rh27  1  0.000045  0.448618  0.000000  1
  Rh  Rh28  1  0.551427  0.551382  0.000000  1
  Rh  Rh29  1  0.622588  0.804801  0.000000  1
  Rh  Rh30  1  0.194884  0.817719  0.000000  1
  Rh  Rh31  1  0.182423  0.377208  0.000000  1
  Rh  Rh32  1  0.377165  0.182281  0.000000  1
  Rh  Rh33  1  0.805216  0.622792  0.000000  1
  Rh  Rh34  1  0.817787  0.195199  0.000000  1
  Rh  Rh35  1  0.000204  0.000000  0.000000  1
