# generated using pymatgen
data_Pr4BeSi5
_symmetry_space_group_name_H-M   'P 1'
_cell_length_a   3.95850500
_cell_length_b   4.42234080
_cell_length_c   12.65850427
_cell_angle_alpha   100.05996042
_cell_angle_beta   90.00000000
_cell_angle_gamma   90.00000000
_symmetry_Int_Tables_number   1
_chemical_formula_structural   Pr4BeSi5
_chemical_formula_sum   'Pr4 Be1 Si5'
_cell_volume   218.19102006
_cell_formula_units_Z   1
loop_
 _symmetry_equiv_pos_site_id
 _symmetry_equiv_pos_as_xyz
  1  'x, y, z'
loop_
 _atom_site_type_symbol
 _atom_site_label
 _atom_site_symmetry_multiplicity
 _atom_site_fract_x
 _atom_site_fract_y
 _atom_site_fract_z
 _atom_site_occupancy
  Pr  Pr0  1  0.750000  0.431322  0.862643  1
  Pr  Pr1  1  0.250000  0.569516  0.139033  1
  Pr  Pr2  1  0.750000  0.702042  0.404085  1
  Pr  Pr3  1  0.250000  0.298302  0.596602  1
  Be  Be4  1  0.750000  0.021845  0.043689  1
  Si  Si5  1  0.250000  0.981162  0.962322  1
  Si  Si6  1  0.750000  0.111646  0.223293  1
  Si  Si7  1  0.250000  0.885815  0.771628  1
  Si  Si8  1  0.750000  0.828562  0.657125  1
  Si  Si9  1  0.250000  0.169790  0.339579  1
