# generated using pymatgen
data_TlCdMoF7
_symmetry_space_group_name_H-M   'P 1'
_cell_length_a   6.57447600
_cell_length_b   6.57447611
_cell_length_c   8.61514500
_cell_angle_alpha   90.00000000
_cell_angle_beta   90.00000000
_cell_angle_gamma   117.05636514
_symmetry_Int_Tables_number   1
_chemical_formula_structural   TlCdMoF7
_chemical_formula_sum   'Tl2 Cd2 Mo2 F14'
_cell_volume   331.62542263
_cell_formula_units_Z   2
loop_
 _symmetry_equiv_pos_site_id
 _symmetry_equiv_pos_as_xyz
  1  'x, y, z'
loop_
 _atom_site_type_symbol
 _atom_site_label
 _atom_site_symmetry_multiplicity
 _atom_site_fract_x
 _atom_site_fract_y
 _atom_site_fract_z
 _atom_site_occupancy
  Tl  Tl0  1  0.000000  0.000000  0.000000  1
  Tl  Tl1  1  0.000000  0.000000  0.500000  1
  Cd  Cd2  1  0.309284  0.690716  0.750000  1
  Cd  Cd3  1  0.690716  0.309284  0.250000  1
  Mo  Mo4  1  0.693853  0.306147  0.750000  1
  Mo  Mo5  1  0.306147  0.693853  0.250000  1
  F  F6  1  0.351780  0.067709  0.750000  1
  F  F7  1  0.648220  0.932291  0.250000  1
  F  F8  1  0.932291  0.648220  0.750000  1
  F  F9  1  0.067709  0.351780  0.250000  1
  F  F10  1  0.513581  0.486419  0.750000  1
  F  F11  1  0.486419  0.513581  0.250000  1
  F  F12  1  0.701505  0.298495  0.987990  1
  F  F13  1  0.298495  0.701505  0.012010  1
  F  F14  1  0.298495  0.701505  0.487990  1
  F  F15  1  0.701505  0.298495  0.512010  1
  F  F16  1  0.672849  0.980191  0.750000  1
  F  F17  1  0.327151  0.019809  0.250000  1
  F  F18  1  0.019809  0.327151  0.750000  1
  F  F19  1  0.980191  0.672849  0.250000  1
