# generated using pymatgen
data_La14Ir2Pd3Rh
_symmetry_space_group_name_H-M   'P 1'
_cell_length_a   6.57842518
_cell_length_b   10.30702297
_cell_length_c   10.30702261
_cell_angle_alpha   119.81621442
_cell_angle_beta   89.98080113
_cell_angle_gamma   90.01919737
_symmetry_Int_Tables_number   1
_chemical_formula_structural   La14Ir2Pd3Rh
_chemical_formula_sum   'La14 Ir2 Pd3 Rh1'
_cell_volume   606.34573265
_cell_formula_units_Z   1
loop_
 _symmetry_equiv_pos_site_id
 _symmetry_equiv_pos_as_xyz
  1  'x, y, z'
loop_
 _atom_site_type_symbol
 _atom_site_label
 _atom_site_symmetry_multiplicity
 _atom_site_fract_x
 _atom_site_fract_y
 _atom_site_fract_z
 _atom_site_occupancy
  La  La0  1  0.468156  0.336172  0.663828  1
  La  La1  1  0.963079  0.669469  0.330531  1
  La  La2  1  0.241540  0.127313  0.872687  1
  La  La3  1  0.250156  0.746202  0.878698  1
  La  La4  1  0.250156  0.121302  0.253798  1
  La  La5  1  0.746268  0.876112  0.123888  1
  La  La6  1  0.739051  0.250692  0.133202  1
  La  La7  1  0.739051  0.866798  0.749308  1
  La  La8  1  0.445013  0.536186  0.463814  1
  La  La9  1  0.442435  0.922607  0.454311  1
  La  La10  1  0.442435  0.545689  0.077393  1
  La  La11  1  0.940075  0.460264  0.539736  1
  La  La12  1  0.938601  0.076364  0.531375  1
  La  La13  1  0.938601  0.468625  0.923636  1
  Ir  Ir14  1  0.691404  0.623320  0.811764  1
  Ir  Ir15  1  0.691404  0.188236  0.376680  1
  Pd  Pd16  1  0.193795  0.376121  0.187993  1
  Pd  Pd17  1  0.193795  0.812007  0.623879  1
  Pd  Pd18  1  0.691688  0.187222  0.812778  1
  Rh  Rh19  1  0.195299  0.809301  0.190699  1
