# generated using pymatgen
data_DyY3B16MoW3
_symmetry_space_group_name_H-M   'P 1'
_cell_length_a   3.62875000
_cell_length_b   6.04481101
_cell_length_c   11.67973502
_cell_angle_alpha   90.00046730
_cell_angle_beta   90.00000000
_cell_angle_gamma   90.00000000
_symmetry_Int_Tables_number   1
_chemical_formula_structural   DyY3B16MoW3
_chemical_formula_sum   'Dy1 Y3 B16 Mo1 W3'
_cell_volume   256.19624860
_cell_formula_units_Z   1
loop_
 _symmetry_equiv_pos_site_id
 _symmetry_equiv_pos_as_xyz
  1  'x, y, z'
loop_
 _atom_site_type_symbol
 _atom_site_label
 _atom_site_symmetry_multiplicity
 _atom_site_fract_x
 _atom_site_fract_y
 _atom_site_fract_z
 _atom_site_occupancy
  Dy  Dy0  1  0.000000  0.372955  0.649911  1
  Y  Y1  1  0.000000  0.127213  0.149632  1
  Y  Y2  1  0.000000  0.873107  0.850237  1
  Y  Y3  1  0.000000  0.626994  0.350306  1
  B  B4  1  0.500000  0.476356  0.193420  1
  B  B5  1  0.500000  0.522986  0.806642  1
  B  B6  1  0.500000  0.976628  0.306673  1
  B  B7  1  0.500000  0.023677  0.693411  1
  B  B8  1  0.500000  0.287273  0.313698  1
  B  B9  1  0.500000  0.712529  0.686418  1
  B  B10  1  0.500000  0.787309  0.186386  1
  B  B11  1  0.500000  0.213310  0.813917  1
  B  B12  1  0.500000  0.366439  0.468120  1
  B  B13  1  0.500000  0.633430  0.531979  1
  B  B14  1  0.500000  0.866851  0.031771  1
  B  B15  1  0.500000  0.133675  0.967910  1
  B  B16  1  0.500000  0.385929  0.047259  1
  B  B17  1  0.500000  0.613577  0.952393  1
  B  B18  1  0.500000  0.886221  0.452591  1
  B  B19  1  0.500000  0.113927  0.547444  1
  Mo  Mo20  1  0.000000  0.369533  0.915967  1
  W  W21  1  0.000000  0.130841  0.415536  1
  W  W22  1  0.000000  0.869076  0.584422  1
  W  W23  1  0.000000  0.630162  0.083957  1
