# generated using pymatgen
data_Ce2Co2GePH4
_symmetry_space_group_name_H-M   'P 1'
_cell_length_a   4.06649900
_cell_length_b   4.06649887
_cell_length_c   8.11672000
_cell_angle_alpha   90.00000000
_cell_angle_beta   90.00000000
_cell_angle_gamma   120.00000919
_symmetry_Int_Tables_number   1
_chemical_formula_structural   Ce2Co2GePH4
_chemical_formula_sum   'Ce2 Co2 Ge1 P1 H4'
_cell_volume   116.23916506
_cell_formula_units_Z   1
loop_
 _symmetry_equiv_pos_site_id
 _symmetry_equiv_pos_as_xyz
  1  'x, y, z'
loop_
 _atom_site_type_symbol
 _atom_site_label
 _atom_site_symmetry_multiplicity
 _atom_site_fract_x
 _atom_site_fract_y
 _atom_site_fract_z
 _atom_site_occupancy
  Ce  Ce0  1  0.000000  0.000000  0.508910  1
  Ce  Ce1  1  0.000000  0.000000  0.991090  1
  Co  Co2  1  0.666667  0.333333  0.750000  1
  Co  Co3  1  0.333333  0.666667  0.250000  1
  Ge  Ge4  1  0.666667  0.333333  0.250000  1
  P  P5  1  0.333333  0.666667  0.750000  1
  H  H6  1  0.333333  0.666667  0.443564  1
  H  H7  1  0.666667  0.333333  0.551000  1
  H  H8  1  0.333333  0.666667  0.056436  1
  H  H9  1  0.666667  0.333333  0.949000  1
