# generated using pymatgen
data_Pr8Be3Si12Os
_symmetry_space_group_name_H-M   'P 1'
_cell_length_a   8.10357800
_cell_length_b   8.10357851
_cell_length_c   8.62242600
_cell_angle_alpha   90.00000000
_cell_angle_beta   90.00000000
_cell_angle_gamma   119.99999791
_symmetry_Int_Tables_number   1
_chemical_formula_structural   Pr8Be3Si12Os
_chemical_formula_sum   'Pr8 Be3 Si12 Os1'
_cell_volume   490.35857862
_cell_formula_units_Z   1
loop_
 _symmetry_equiv_pos_site_id
 _symmetry_equiv_pos_as_xyz
  1  'x, y, z'
loop_
 _atom_site_type_symbol
 _atom_site_label
 _atom_site_symmetry_multiplicity
 _atom_site_fract_x
 _atom_site_fract_y
 _atom_site_fract_z
 _atom_site_occupancy
  Pr  Pr0  1  0.500544  0.499456  0.748763  1
  Pr  Pr1  1  0.500664  0.499336  0.251242  1
  Pr  Pr2  1  0.998913  0.499456  0.748763  1
  Pr  Pr3  1  0.998672  0.499336  0.251242  1
  Pr  Pr4  1  0.500544  0.001087  0.748763  1
  Pr  Pr5  1  0.500664  0.001328  0.251242  1
  Pr  Pr6  1  0.000000  0.000000  0.751890  1
  Pr  Pr7  1  0.000000  0.000000  0.248134  1
  Be  Be8  1  0.666667  0.333333  0.999208  1
  Be  Be9  1  0.333333  0.666667  0.000808  1
  Be  Be10  1  0.333333  0.666667  0.499593  1
  Si  Si11  1  0.827220  0.172780  0.000083  1
  Si  Si12  1  0.171561  0.828439  0.000005  1
  Si  Si13  1  0.345558  0.172780  0.000083  1
  Si  Si14  1  0.169253  0.830747  0.499914  1
  Si  Si15  1  0.656879  0.828439  0.000005  1
  Si  Si16  1  0.831862  0.168138  0.500133  1
  Si  Si17  1  0.827220  0.654442  0.000083  1
  Si  Si18  1  0.661492  0.830747  0.499914  1
  Si  Si19  1  0.171561  0.343121  0.000005  1
  Si  Si20  1  0.336277  0.168138  0.500133  1
  Si  Si21  1  0.169253  0.338508  0.499914  1
  Si  Si22  1  0.831862  0.663723  0.500133  1
  Os  Os23  1  0.666667  0.333333  0.499948  1
