# generated using pymatgen
data_La5Tb2Nd5(Si2Ni)4
_symmetry_space_group_name_H-M   'P 1'
_cell_length_a   4.26762300
_cell_length_b   11.79869613
_cell_length_c   11.57477069
_cell_angle_alpha   89.55856230
_cell_angle_beta   90.00000000
_cell_angle_gamma   90.00000000
_symmetry_Int_Tables_number   1
_chemical_formula_structural   La5Tb2Nd5(Si2Ni)4
_chemical_formula_sum   'La5 Tb2 Nd5 Si8 Ni4'
_cell_volume   582.80003507
_cell_formula_units_Z   1
loop_
 _symmetry_equiv_pos_site_id
 _symmetry_equiv_pos_as_xyz
  1  'x, y, z'
loop_
 _atom_site_type_symbol
 _atom_site_label
 _atom_site_symmetry_multiplicity
 _atom_site_fract_x
 _atom_site_fract_y
 _atom_site_fract_z
 _atom_site_occupancy
  La  La0  1  0.250000  0.059117  0.885052  1
  La  La1  1  0.250000  0.442620  0.386350  1
  La  La2  1  0.750000  0.939506  0.112514  1
  La  La3  1  0.750000  0.561114  0.614419  1
  La  La4  1  0.250000  0.120167  0.564025  1
  Tb  Tb5  1  0.250000  0.690640  0.207355  1
  Tb  Tb6  1  0.750000  0.314100  0.793334  1
  Nd  Nd7  1  0.250000  0.380114  0.062424  1
  Nd  Nd8  1  0.750000  0.879016  0.434273  1
  Nd  Nd9  1  0.750000  0.619121  0.941005  1
  Nd  Nd10  1  0.250000  0.798359  0.708790  1
  Nd  Nd11  1  0.750000  0.196150  0.290971  1
  Si  Si12  1  0.250000  0.805362  0.969875  1
  Si  Si13  1  0.250000  0.692200  0.461640  1
  Si  Si14  1  0.750000  0.193624  0.029514  1
  Si  Si15  1  0.750000  0.312218  0.538673  1
  Si  Si16  1  0.250000  0.485862  0.804160  1
  Si  Si17  1  0.250000  0.015660  0.299383  1
  Si  Si18  1  0.750000  0.517269  0.197523  1
  Si  Si19  1  0.750000  0.976125  0.698865  1
  Ni  Ni20  1  0.250000  0.363076  0.635342  1
  Ni  Ni21  1  0.250000  0.140106  0.128617  1
  Ni  Ni22  1  0.750000  0.642044  0.364381  1
  Ni  Ni23  1  0.750000  0.856428  0.871515  1
