# generated using pymatgen
data_Rb3BaSb3PPt4
_symmetry_space_group_name_H-M   'P 1'
_cell_length_a   7.08807757
_cell_length_b   7.08807637
_cell_length_c   7.08807651
_cell_angle_alpha   90.37792702
_cell_angle_beta   90.37793332
_cell_angle_gamma   90.37792607
_symmetry_Int_Tables_number   1
_chemical_formula_structural   Rb3BaSb3PPt4
_chemical_formula_sum   'Rb3 Ba1 Sb3 P1 Pt4'
_cell_volume   356.08753958
_cell_formula_units_Z   1
loop_
 _symmetry_equiv_pos_site_id
 _symmetry_equiv_pos_as_xyz
  1  'x, y, z'
loop_
 _atom_site_type_symbol
 _atom_site_label
 _atom_site_symmetry_multiplicity
 _atom_site_fract_x
 _atom_site_fract_y
 _atom_site_fract_z
 _atom_site_occupancy
  Rb  Rb0  1  0.613888  0.388442  0.871555  1
  Rb  Rb1  1  0.388442  0.871555  0.613888  1
  Rb  Rb2  1  0.871555  0.613888  0.388442  1
  Ba  Ba3  1  0.121649  0.121649  0.121649  1
  Sb  Sb4  1  0.582573  0.911156  0.097170  1
  Sb  Sb5  1  0.097170  0.582573  0.911156  1
  Sb  Sb6  1  0.911156  0.097170  0.582573  1
  P  P7  1  0.398784  0.398784  0.398784  1
  Pt  Pt8  1  0.177699  0.354554  0.626257  1
  Pt  Pt9  1  0.626257  0.177699  0.354554  1
  Pt  Pt10  1  0.856273  0.856273  0.856273  1
  Pt  Pt11  1  0.354554  0.626257  0.177699  1
