# generated using pymatgen
data_Ac2Pr(HgPd)3
_symmetry_space_group_name_H-M   'P 1'
_cell_length_a   8.02298626
_cell_length_b   8.01945446
_cell_length_c   4.10892200
_cell_angle_alpha   90.00000000
_cell_angle_beta   90.00000000
_cell_angle_gamma   119.98542842
_symmetry_Int_Tables_number   1
_chemical_formula_structural   Ac2Pr(HgPd)3
_chemical_formula_sum   'Ac2 Pr1 Hg3 Pd3'
_cell_volume   228.98295354
_cell_formula_units_Z   1
loop_
 _symmetry_equiv_pos_site_id
 _symmetry_equiv_pos_as_xyz
  1  'x, y, z'
loop_
 _atom_site_type_symbol
 _atom_site_label
 _atom_site_symmetry_multiplicity
 _atom_site_fract_x
 _atom_site_fract_y
 _atom_site_fract_z
 _atom_site_occupancy
  Ac  Ac0  1  0.400734  0.398780  0.500000  1
  Ac  Ac1  1  0.599266  0.998046  0.500000  1
  Pr  Pr2  1  0.000000  0.602744  0.500000  1
  Hg  Hg3  1  0.749534  0.740128  0.000000  1
  Hg  Hg4  1  0.250466  0.990593  0.000000  1
  Hg  Hg5  1  0.000000  0.266554  0.000000  1
  Pd  Pd6  1  0.669475  0.335003  0.000000  1
  Pd  Pd7  1  0.330525  0.665529  0.000000  1
  Pd  Pd8  1  0.000000  0.002624  0.500000  1
