# generated using pymatgen
data_Pr6LuPI12
_symmetry_space_group_name_H-M   'P 1'
_cell_length_a   9.96502845
_cell_length_b   9.96502901
_cell_length_c   9.96502900
_cell_angle_alpha   107.66227724
_cell_angle_beta   107.66228498
_cell_angle_gamma   107.66226740
_symmetry_Int_Tables_number   1
_chemical_formula_structural   Pr6LuPI12
_chemical_formula_sum   'Pr6 Lu1 P1 I12'
_cell_volume   808.75262347
_cell_formula_units_Z   1
loop_
 _symmetry_equiv_pos_site_id
 _symmetry_equiv_pos_as_xyz
  1  'x, y, z'
loop_
 _atom_site_type_symbol
 _atom_site_label
 _atom_site_symmetry_multiplicity
 _atom_site_fract_x
 _atom_site_fract_y
 _atom_site_fract_z
 _atom_site_occupancy
  Pr  Pr0  1  0.805135  0.529830  0.600373  1
  Pr  Pr1  1  0.529830  0.600373  0.805135  1
  Pr  Pr2  1  0.194865  0.470170  0.399627  1
  Pr  Pr3  1  0.470170  0.399627  0.194865  1
  Pr  Pr4  1  0.600373  0.805135  0.529830  1
  Pr  Pr5  1  0.399627  0.194865  0.470170  1
  Lu  Lu6  1  0.000000  0.000000  0.000000  1
  P  P7  1  0.500000  0.500000  0.500000  1
  I  I8  1  0.730426  0.185447  0.576175  1
  I  I9  1  0.972385  0.895346  0.671365  1
  I  I10  1  0.576175  0.730426  0.185447  1
  I  I11  1  0.104654  0.328635  0.027615  1
  I  I12  1  0.671365  0.972385  0.895346  1
  I  I13  1  0.895346  0.671365  0.972385  1
  I  I14  1  0.027615  0.104654  0.328635  1
  I  I15  1  0.814553  0.423825  0.269574  1
  I  I16  1  0.328635  0.027615  0.104654  1
  I  I17  1  0.269574  0.814553  0.423825  1
  I  I18  1  0.185447  0.576175  0.730426  1
  I  I19  1  0.423825  0.269574  0.814553  1
