# generated using pymatgen
data_LiTi2(SnIr)2
_symmetry_space_group_name_H-M   'P 1'
_cell_length_a   7.65243099
_cell_length_b   7.65242988
_cell_length_c   7.65243061
_cell_angle_alpha   33.68357873
_cell_angle_beta   33.68359143
_cell_angle_gamma   33.68358433
_symmetry_Int_Tables_number   1
_chemical_formula_structural   LiTi2(SnIr)2
_chemical_formula_sum   'Li1 Ti2 Sn2 Ir2'
_cell_volume   122.80064806
_cell_formula_units_Z   1
loop_
 _symmetry_equiv_pos_site_id
 _symmetry_equiv_pos_as_xyz
  1  'x, y, z'
loop_
 _atom_site_type_symbol
 _atom_site_label
 _atom_site_symmetry_multiplicity
 _atom_site_fract_x
 _atom_site_fract_y
 _atom_site_fract_z
 _atom_site_occupancy
  Li  Li0  1  0.375283  0.375283  0.375283  1
  Ti  Ti1  1  0.754436  0.754436  0.754436  1
  Ti  Ti2  1  0.246678  0.246678  0.246678  1
  Sn  Sn3  1  0.996054  0.996054  0.996054  1
  Sn  Sn4  1  0.502998  0.502998  0.502998  1
  Ir  Ir5  1  0.122892  0.122892  0.122892  1
  Ir  Ir6  1  0.626660  0.626660  0.626660  1
