# generated using pymatgen
data_Er19Mg(IrRh3)3
_symmetry_space_group_name_H-M   'P 1'
_cell_length_a   10.76554359
_cell_length_b   10.76571237
_cell_length_c   6.29894714
_cell_angle_alpha   90.00636550
_cell_angle_beta   90.02380346
_cell_angle_gamma   89.97051489
_symmetry_Int_Tables_number   1
_chemical_formula_structural   Er19Mg(IrRh3)3
_chemical_formula_sum   'Er19 Mg1 Ir3 Rh9'
_cell_volume   730.03990996
_cell_formula_units_Z   1
loop_
 _symmetry_equiv_pos_site_id
 _symmetry_equiv_pos_as_xyz
  1  'x, y, z'
loop_
 _atom_site_type_symbol
 _atom_site_label
 _atom_site_symmetry_multiplicity
 _atom_site_fract_x
 _atom_site_fract_y
 _atom_site_fract_z
 _atom_site_occupancy
  Er  Er0  1  0.284587  0.086170  0.378085  1
  Er  Er1  1  0.290712  0.910733  0.879009  1
  Er  Er2  1  0.709359  0.088190  0.879252  1
  Er  Er3  1  0.715286  0.913837  0.377994  1
  Er  Er4  1  0.587979  0.790932  0.879256  1
  Er  Er5  1  0.586639  0.208171  0.376792  1
  Er  Er6  1  0.413098  0.791250  0.377182  1
  Er  Er7  1  0.410839  0.208537  0.879391  1
  Er  Er8  1  0.208788  0.413151  0.622309  1
  Er  Er9  1  0.208971  0.588033  0.121253  1
  Er  Er10  1  0.791535  0.412307  0.121607  1
  Er  Er11  1  0.791709  0.588087  0.622242  1
  Er  Er12  1  0.910749  0.709393  0.121052  1
  Er  Er13  1  0.914931  0.284451  0.621668  1
  Er  Er14  1  0.086223  0.715311  0.621833  1
  Er  Er15  1  0.089301  0.290794  0.121133  1
  Er  Er16  1  0.000011  0.000057  0.000077  1
  Er  Er17  1  0.499787  0.500228  0.999966  1
  Er  Er18  1  0.499762  0.500207  0.499881  1
  Mg  Mg19  1  0.999973  0.000051  0.500093  1
  Ir  Ir20  1  0.654610  0.654607  0.251566  1
  Ir  Ir21  1  0.345865  0.344893  0.251413  1
  Ir  Ir22  1  0.344867  0.654650  0.748551  1
  Rh  Rh23  1  0.846055  0.154124  0.248496  1
  Rh  Rh24  1  0.846008  0.846200  0.751517  1
  Rh  Rh25  1  0.153969  0.153753  0.751511  1
  Rh  Rh26  1  0.153793  0.846059  0.248542  1
  Rh  Rh27  1  0.654795  0.345666  0.748389  1
  Rh  Rh28  1  0.500059  0.000136  0.123140  1
  Rh  Rh29  1  0.500050  0.000175  0.620539  1
  Rh  Rh30  1  0.999817  0.499926  0.876757  1
  Rh  Rh31  1  0.999871  0.499921  0.379504  1
