# generated using pymatgen
data_DyTm2ZnCd3Ga2
_symmetry_space_group_name_H-M   'P 1'
_cell_length_a   7.31626039
_cell_length_b   7.29950992
_cell_length_c   4.26220200
_cell_angle_alpha   90.00000000
_cell_angle_beta   90.00000000
_cell_angle_gamma   119.92429524
_symmetry_Int_Tables_number   1
_chemical_formula_structural   DyTm2ZnCd3Ga2
_chemical_formula_sum   'Dy1 Tm2 Zn1 Cd3 Ga2'
_cell_volume   197.27784436
_cell_formula_units_Z   1
loop_
 _symmetry_equiv_pos_site_id
 _symmetry_equiv_pos_as_xyz
  1  'x, y, z'
loop_
 _atom_site_type_symbol
 _atom_site_label
 _atom_site_symmetry_multiplicity
 _atom_site_fract_x
 _atom_site_fract_y
 _atom_site_fract_z
 _atom_site_occupancy
  Dy  Dy0  1  0.000000  0.577813  0.500000  1
  Tm  Tm1  1  0.422243  0.422000  0.500000  1
  Tm  Tm2  1  0.577757  0.999757  0.500000  1
  Zn  Zn3  1  0.000000  0.000657  0.500000  1
  Cd  Cd4  1  0.751389  0.751933  0.000000  1
  Cd  Cd5  1  0.248611  0.000544  0.000000  1
  Cd  Cd6  1  0.000000  0.247701  0.000000  1
  Ga  Ga7  1  0.665562  0.332578  0.000000  1
  Ga  Ga8  1  0.334438  0.667017  0.000000  1
