# generated using pymatgen
data_Ca3Nd17Si15Sn
_symmetry_space_group_name_H-M   'P 1'
_cell_length_a   7.97261126
_cell_length_b   7.95475037
_cell_length_c   15.25177300
_cell_angle_alpha   90.16499996
_cell_angle_beta   89.65413673
_cell_angle_gamma   89.78913881
_symmetry_Int_Tables_number   1
_chemical_formula_structural   Ca3Nd17Si15Sn
_chemical_formula_sum   'Ca3 Nd17 Si15 Sn1'
_cell_volume   967.24121532
_cell_formula_units_Z   1
loop_
 _symmetry_equiv_pos_site_id
 _symmetry_equiv_pos_as_xyz
  1  'x, y, z'
loop_
 _atom_site_type_symbol
 _atom_site_label
 _atom_site_symmetry_multiplicity
 _atom_site_fract_x
 _atom_site_fract_y
 _atom_site_fract_z
 _atom_site_occupancy
  Ca  Ca0  1  0.309699  0.309164  0.000844  1
  Ca  Ca1  1  0.190824  0.809920  0.250395  1
  Ca  Ca2  1  0.803243  0.189642  0.751246  1
  Nd  Nd3  1  0.689802  0.693695  0.497524  1
  Nd  Nd4  1  0.375909  0.012706  0.449273  1
  Nd  Nd5  1  0.496326  0.870262  0.698899  1
  Nd  Nd6  1  0.509548  0.120254  0.197083  1
  Nd  Nd7  1  0.876884  0.490489  0.300460  1
  Nd  Nd8  1  0.118708  0.515573  0.806111  1
  Nd  Nd9  1  0.623202  0.988382  0.949637  1
  Nd  Nd10  1  0.003946  0.383946  0.546541  1
  Nd  Nd11  1  0.989985  0.621326  0.053676  1
  Nd  Nd12  1  0.126127  0.981700  0.879054  1
  Nd  Nd13  1  0.516450  0.627050  0.126246  1
  Nd  Nd14  1  0.491535  0.383548  0.626098  1
  Nd  Nd15  1  0.628760  0.517571  0.876619  1
  Nd  Nd16  1  0.375700  0.482101  0.371907  1
  Nd  Nd17  1  0.872610  0.018143  0.374903  1
  Nd  Nd18  1  0.983364  0.126192  0.124907  1
  Nd  Nd19  1  0.008232  0.860612  0.621305  1
  Si  Si20  1  0.331227  0.697900  0.952871  1
  Si  Si21  1  0.667509  0.304357  0.450526  1
  Si  Si22  1  0.698935  0.330840  0.049980  1
  Si  Si23  1  0.305672  0.670444  0.546577  1
  Si  Si24  1  0.799624  0.833892  0.199705  1
  Si  Si25  1  0.166663  0.200572  0.300013  1
  Si  Si26  1  0.835887  0.799377  0.801046  1
  Si  Si27  1  0.287705  0.919667  0.060784  1
  Si  Si28  1  0.580855  0.788426  0.309775  1
  Si  Si29  1  0.429741  0.212532  0.815043  1
  Si  Si30  1  0.787391  0.580674  0.691112  1
  Si  Si31  1  0.212858  0.418123  0.189609  1
  Si  Si32  1  0.708645  0.078569  0.559250  1
  Si  Si33  1  0.920621  0.287656  0.941339  1
  Si  Si34  1  0.078656  0.711081  0.438233  1
  Sn  Sn35  1  0.197158  0.163619  0.691410  1
