# generated using pymatgen
data_Tb3Pr2Dy(IrO7)2
_symmetry_space_group_name_H-M   'P 1'
_cell_length_a   6.49694222
_cell_length_b   6.49328478
_cell_length_c   7.52599200
_cell_angle_alpha   90.00000000
_cell_angle_beta   90.00000000
_cell_angle_gamma   109.88629711
_symmetry_Int_Tables_number   1
_chemical_formula_structural   Tb3Pr2Dy(IrO7)2
_chemical_formula_sum   'Tb3 Pr2 Dy1 Ir2 O14'
_cell_volume   298.56283407
_cell_formula_units_Z   1
loop_
 _symmetry_equiv_pos_site_id
 _symmetry_equiv_pos_as_xyz
  1  'x, y, z'
loop_
 _atom_site_type_symbol
 _atom_site_label
 _atom_site_symmetry_multiplicity
 _atom_site_fract_x
 _atom_site_fract_y
 _atom_site_fract_z
 _atom_site_occupancy
  Tb  Tb0  1  0.483102  0.933776  0.750000  1
  Tb  Tb1  1  0.516832  0.066136  0.250000  1
  Tb  Tb2  1  0.933963  0.483209  0.750000  1
  Pr  Pr3  1  0.000062  0.000005  0.000119  1
  Pr  Pr4  1  0.000062  0.000005  0.499881  1
  Dy  Dy5  1  0.065116  0.516405  0.250000  1
  Ir  Ir6  1  0.500159  0.500076  0.000150  1
  Ir  Ir7  1  0.500159  0.500076  0.499850  1
  O  O8  1  0.590741  0.590777  0.750000  1
  O  O9  1  0.408594  0.409237  0.250000  1
  O  O10  1  0.839405  0.119302  0.750000  1
  O  O11  1  0.160453  0.879150  0.250000  1
  O  O12  1  0.119513  0.839606  0.750000  1
  O  O13  1  0.881139  0.161747  0.250000  1
  O  O14  1  0.439899  0.181601  0.964989  1
  O  O15  1  0.560212  0.818470  0.464989  1
  O  O16  1  0.181434  0.440167  0.965717  1
  O  O17  1  0.818804  0.560008  0.464609  1
  O  O18  1  0.439899  0.181601  0.535011  1
  O  O19  1  0.560212  0.818470  0.035011  1
  O  O20  1  0.818804  0.560008  0.035391  1
  O  O21  1  0.181434  0.440167  0.534283  1
