# generated using pymatgen
data_HoEr2(SiRh2)3
_symmetry_space_group_name_H-M   'P 1'
_cell_length_a   5.55765600
_cell_length_b   5.55765526
_cell_length_c   15.01108400
_cell_angle_alpha   90.00000000
_cell_angle_beta   90.00000000
_cell_angle_gamma   119.99999252
_symmetry_Int_Tables_number   1
_chemical_formula_structural   HoEr2(SiRh2)3
_chemical_formula_sum   'Ho2 Er4 Si6 Rh12'
_cell_volume   401.53738409
_cell_formula_units_Z   2
loop_
 _symmetry_equiv_pos_site_id
 _symmetry_equiv_pos_as_xyz
  1  'x, y, z'
loop_
 _atom_site_type_symbol
 _atom_site_label
 _atom_site_symmetry_multiplicity
 _atom_site_fract_x
 _atom_site_fract_y
 _atom_site_fract_z
 _atom_site_occupancy
  Ho  Ho0  1  0.333333  0.666667  0.750000  1
  Ho  Ho1  1  0.666667  0.333333  0.250000  1
  Er  Er2  1  0.333333  0.666667  0.537315  1
  Er  Er3  1  0.666667  0.333333  0.462685  1
  Er  Er4  1  0.666667  0.333333  0.037315  1
  Er  Er5  1  0.333333  0.666667  0.962685  1
  Si  Si6  1  0.000000  0.000000  0.250000  1
  Si  Si7  1  0.000000  0.000000  0.750000  1
  Si  Si8  1  0.333333  0.666667  0.250000  1
  Si  Si9  1  0.666667  0.333333  0.750000  1
  Si  Si10  1  0.000000  0.000000  0.000000  1
  Si  Si11  1  0.000000  0.000000  0.500000  1
  Rh  Rh12  1  0.167005  0.334010  0.129940  1
  Rh  Rh13  1  0.832995  0.665990  0.870060  1
  Rh  Rh14  1  0.665990  0.832995  0.129940  1
  Rh  Rh15  1  0.832995  0.665990  0.629940  1
  Rh  Rh16  1  0.334010  0.167005  0.870060  1
  Rh  Rh17  1  0.167005  0.334010  0.370060  1
  Rh  Rh18  1  0.167005  0.832995  0.129940  1
  Rh  Rh19  1  0.334010  0.167005  0.629940  1
  Rh  Rh20  1  0.832995  0.167005  0.870060  1
  Rh  Rh21  1  0.665990  0.832995  0.370060  1
  Rh  Rh22  1  0.832995  0.167005  0.629940  1
  Rh  Rh23  1  0.167005  0.832995  0.370060  1
