# generated using pymatgen
data_Pr2Nd2PtAu3
_symmetry_space_group_name_H-M   'P 1'
_cell_length_a   4.79442400
_cell_length_b   5.87260426
_cell_length_c   7.46714762
_cell_angle_alpha   90.37701636
_cell_angle_beta   90.00000000
_cell_angle_gamma   90.00000000
_symmetry_Int_Tables_number   1
_chemical_formula_structural   Pr2Nd2PtAu3
_chemical_formula_sum   'Pr2 Nd2 Pt1 Au3'
_cell_volume   210.23862596
_cell_formula_units_Z   1
loop_
 _symmetry_equiv_pos_site_id
 _symmetry_equiv_pos_as_xyz
  1  'x, y, z'
loop_
 _atom_site_type_symbol
 _atom_site_label
 _atom_site_symmetry_multiplicity
 _atom_site_fract_x
 _atom_site_fract_y
 _atom_site_fract_z
 _atom_site_occupancy
  Pr  Pr0  1  0.250000  0.357563  0.693901  1
  Pr  Pr1  1  0.750000  0.637122  0.311033  1
  Nd  Nd2  1  0.250000  0.146857  0.175565  1
  Nd  Nd3  1  0.750000  0.863052  0.820404  1
  Pt  Pt4  1  0.750000  0.346073  0.959096  1
  Au  Au5  1  0.250000  0.852624  0.540823  1
  Au  Au6  1  0.250000  0.651351  0.041929  1
  Au  Au7  1  0.750000  0.145357  0.457249  1
