# generated using pymatgen
data_SmThSc2(ReB6)2
_symmetry_space_group_name_H-M   'P 1'
_cell_length_a   3.66058700
_cell_length_b   9.07800258
_cell_length_c   11.51805902
_cell_angle_alpha   89.93225567
_cell_angle_beta   90.00000000
_cell_angle_gamma   90.00000000
_symmetry_Int_Tables_number   1
_chemical_formula_structural   SmThSc2(ReB6)2
_chemical_formula_sum   'Sm2 Th2 Sc4 Re4 B24'
_cell_volume   382.75425815
_cell_formula_units_Z   2
loop_
 _symmetry_equiv_pos_site_id
 _symmetry_equiv_pos_as_xyz
  1  'x, y, z'
loop_
 _atom_site_type_symbol
 _atom_site_label
 _atom_site_symmetry_multiplicity
 _atom_site_fract_x
 _atom_site_fract_y
 _atom_site_fract_z
 _atom_site_occupancy
  Sm  Sm0  1  0.000000  0.322402  0.414963  1
  Sm  Sm1  1  0.000000  0.677598  0.585037  1
  Th  Th2  1  0.000000  0.820395  0.085483  1
  Th  Th3  1  0.000000  0.179605  0.914517  1
  Sc  Sc4  1  0.000000  0.944176  0.372363  1
  Sc  Sc5  1  0.000000  0.055824  0.627637  1
  Sc  Sc6  1  0.000000  0.444643  0.129523  1
  Sc  Sc7  1  0.000000  0.555357  0.870477  1
  Re  Re8  1  0.000000  0.641820  0.317696  1
  Re  Re9  1  0.000000  0.358180  0.682304  1
  Re  Re10  1  0.000000  0.140808  0.182711  1
  Re  Re11  1  0.000000  0.859192  0.817289  1
  B  B12  1  0.500000  0.555499  0.431498  1
  B  B13  1  0.500000  0.444501  0.568502  1
  B  B14  1  0.500000  0.057144  0.071540  1
  B  B15  1  0.500000  0.942856  0.928460  1
  B  B16  1  0.500000  0.753766  0.417327  1
  B  B17  1  0.500000  0.246234  0.582673  1
  B  B18  1  0.500000  0.254890  0.085514  1
  B  B19  1  0.500000  0.745110  0.914486  1
  B  B20  1  0.500000  0.793722  0.266615  1
  B  B21  1  0.500000  0.206278  0.733385  1
  B  B22  1  0.500000  0.294770  0.235784  1
  B  B23  1  0.500000  0.705230  0.764216  1
  B  B24  1  0.500000  0.628033  0.184831  1
  B  B25  1  0.500000  0.371967  0.815169  1
  B  B26  1  0.500000  0.129048  0.317707  1
  B  B27  1  0.500000  0.870952  0.682293  1
  B  B28  1  0.500000  0.983629  0.216606  1
  B  B29  1  0.500000  0.016371  0.783394  1
  B  B30  1  0.500000  0.482732  0.286268  1
  B  B31  1  0.500000  0.517268  0.713732  1
  B  B32  1  0.500000  0.595660  0.025822  1
  B  B33  1  0.500000  0.404340  0.974178  1
  B  B34  1  0.500000  0.095599  0.474331  1
  B  B35  1  0.500000  0.904401  0.525669  1
