# generated using pymatgen
data_DyTm3(B4Ir)4
_symmetry_space_group_name_H-M   'P 1'
_cell_length_a   5.95169301
_cell_length_b   11.54805113
_cell_length_c   3.55787400
_cell_angle_alpha   90.00000000
_cell_angle_beta   90.00000000
_cell_angle_gamma   90.03968565
_symmetry_Int_Tables_number   1
_chemical_formula_structural   DyTm3(B4Ir)4
_chemical_formula_sum   'Dy1 Tm3 B16 Ir4'
_cell_volume   244.53424080
_cell_formula_units_Z   1
loop_
 _symmetry_equiv_pos_site_id
 _symmetry_equiv_pos_as_xyz
  1  'x, y, z'
loop_
 _atom_site_type_symbol
 _atom_site_label
 _atom_site_symmetry_multiplicity
 _atom_site_fract_x
 _atom_site_fract_y
 _atom_site_fract_z
 _atom_site_occupancy
  Dy  Dy0  1  0.868536  0.851498  0.000000  1
  Tm  Tm1  1  0.631255  0.351665  0.000000  1
  Tm  Tm2  1  0.369033  0.648145  0.000000  1
  Tm  Tm3  1  0.131004  0.148717  0.000000  1
  B  B4  1  0.791671  0.188455  0.500000  1
  B  B5  1  0.210258  0.811320  0.500000  1
  B  B6  1  0.291724  0.311867  0.500000  1
  B  B7  1  0.708117  0.687380  0.500000  1
  B  B8  1  0.863976  0.030680  0.500000  1
  B  B9  1  0.136092  0.970756  0.500000  1
  B  B10  1  0.364546  0.469772  0.500000  1
  B  B11  1  0.635290  0.529704  0.500000  1
  B  B12  1  0.886745  0.452961  0.500000  1
  B  B13  1  0.113525  0.546432  0.500000  1
  B  B14  1  0.386463  0.047500  0.500000  1
  B  B15  1  0.611904  0.953811  0.500000  1
  B  B16  1  0.975009  0.307085  0.500000  1
  B  B17  1  0.025615  0.692130  0.500000  1
  B  B18  1  0.475155  0.193468  0.500000  1
  B  B19  1  0.523804  0.806713  0.500000  1
  Ir  Ir20  1  0.643432  0.098002  0.000000  1
  Ir  Ir21  1  0.356277  0.903229  0.000000  1
  Ir  Ir22  1  0.144605  0.402583  0.000000  1
  Ir  Ir23  1  0.855965  0.596129  0.000000  1
