# generated using pymatgen
data_Tb6Yb2Sc12Si15Ir
_symmetry_space_group_name_H-M   'P 1'
_cell_length_a   7.10492198
_cell_length_b   7.45544470
_cell_length_c   14.03868651
_cell_angle_alpha   90.01968741
_cell_angle_beta   89.89127898
_cell_angle_gamma   90.06536688
_symmetry_Int_Tables_number   1
_chemical_formula_structural   Tb6Yb2Sc12Si15Ir
_chemical_formula_sum   'Tb6 Yb2 Sc12 Si15 Ir1'
_cell_volume   743.63231288
_cell_formula_units_Z   1
loop_
 _symmetry_equiv_pos_site_id
 _symmetry_equiv_pos_as_xyz
  1  'x, y, z'
loop_
 _atom_site_type_symbol
 _atom_site_label
 _atom_site_symmetry_multiplicity
 _atom_site_fract_x
 _atom_site_fract_y
 _atom_site_fract_z
 _atom_site_occupancy
  Tb  Tb0  1  0.487703  0.677699  0.903963  1
  Tb  Tb1  1  0.990168  0.826041  0.595609  1
  Tb  Tb2  1  0.511314  0.322966  0.097023  1
  Tb  Tb3  1  0.011849  0.178363  0.404708  1
  Tb  Tb4  1  0.511922  0.323654  0.403674  1
  Tb  Tb5  1  0.487562  0.676126  0.595836  1
  Yb  Yb6  1  0.008821  0.174616  0.094860  1
  Yb  Yb7  1  0.992340  0.829707  0.904330  1
  Sc  Sc8  1  0.155508  0.499632  0.750296  1
  Sc  Sc9  1  0.839387  0.494935  0.249442  1
  Sc  Sc10  1  0.337545  0.006055  0.249790  1
  Sc  Sc11  1  0.670172  0.997493  0.750234  1
  Sc  Sc12  1  0.320687  0.172815  0.626498  1
  Sc  Sc13  1  0.672090  0.825764  0.374392  1
  Sc  Sc14  1  0.170993  0.677957  0.374996  1
  Sc  Sc15  1  0.673341  0.827943  0.126121  1
  Sc  Sc16  1  0.835705  0.318944  0.627211  1
  Sc  Sc17  1  0.319960  0.171113  0.872686  1
  Sc  Sc18  1  0.834859  0.319909  0.873131  1
  Sc  Sc19  1  0.171520  0.677953  0.125235  1
  Si  Si20  1  0.967560  0.881755  0.250906  1
  Si  Si21  1  0.468791  0.616068  0.250173  1
  Si  Si22  1  0.528638  0.388226  0.750015  1
  Si  Si23  1  0.287267  0.870586  0.747721  1
  Si  Si24  1  0.713671  0.126282  0.251950  1
  Si  Si25  1  0.216335  0.375113  0.251346  1
  Si  Si26  1  0.776771  0.622671  0.748790  1
  Si  Si27  1  0.158542  0.467692  0.537585  1
  Si  Si28  1  0.844468  0.536778  0.461810  1
  Si  Si29  1  0.345724  0.965704  0.460105  1
  Si  Si30  1  0.844464  0.536681  0.039401  1
  Si  Si31  1  0.656277  0.033973  0.538615  1
  Si  Si32  1  0.158477  0.467123  0.961685  1
  Si  Si33  1  0.648992  0.034479  0.960307  1
  Si  Si34  1  0.350994  0.965581  0.040450  1
  Ir  Ir35  1  0.029575  0.111604  0.749105  1
