# generated using pymatgen
data_Cs2ZnSiO4
_symmetry_space_group_name_H-M   'P 1'
_cell_length_a   7.07633923
_cell_length_b   10.92451150
_cell_length_c   8.19688400
_cell_angle_alpha   89.99999039
_cell_angle_beta   90.00003418
_cell_angle_gamma   78.47181527
_symmetry_Int_Tables_number   1
_chemical_formula_structural   Cs2ZnSiO4
_chemical_formula_sum   'Cs8 Zn4 Si4 O16'
_cell_volume   620.88139557
_cell_formula_units_Z   4
loop_
 _symmetry_equiv_pos_site_id
 _symmetry_equiv_pos_as_xyz
  1  'x, y, z'
loop_
 _atom_site_type_symbol
 _atom_site_label
 _atom_site_symmetry_multiplicity
 _atom_site_fract_x
 _atom_site_fract_y
 _atom_site_fract_z
 _atom_site_occupancy
  Cs  Cs0  1  0.883989  0.961333  0.274337  1
  Cs  Cs1  1  0.383994  0.461333  0.274338  1
  Cs  Cs2  1  0.116008  0.038667  0.774337  1
  Cs  Cs3  1  0.616009  0.538668  0.774337  1
  Cs  Cs4  1  0.610391  0.203437  0.915099  1
  Cs  Cs5  1  0.110389  0.703438  0.915097  1
  Cs  Cs6  1  0.389609  0.796562  0.415096  1
  Cs  Cs7  1  0.889613  0.296563  0.415099  1
  Zn  Zn8  1  0.812959  0.604380  0.191423  1
  Zn  Zn9  1  0.687040  0.895622  0.691420  1
  Zn  Zn10  1  0.312960  0.104384  0.191423  1
  Zn  Zn11  1  0.187041  0.395616  0.691424  1
  Si  Si12  1  0.451306  0.150408  0.479398  1
  Si  Si13  1  0.951305  0.650409  0.479397  1
  Si  Si14  1  0.548696  0.849593  0.979397  1
  Si  Si15  1  0.048693  0.349591  0.979398  1
  O  O16  1  0.531386  0.177134  0.292900  1
  O  O17  1  0.031386  0.677132  0.292899  1
  O  O18  1  0.468617  0.822867  0.792899  1
  O  O19  1  0.968615  0.322867  0.792899  1
  O  O20  1  0.260431  0.086849  0.439446  1
  O  O21  1  0.760426  0.586849  0.439441  1
  O  O22  1  0.739575  0.913151  0.939439  1
  O  O23  1  0.239571  0.413151  0.939447  1
  O  O24  1  0.623456  0.055901  0.580469  1
  O  O25  1  0.123455  0.555901  0.580470  1
  O  O26  1  0.376544  0.944100  0.080467  1
  O  O27  1  0.876543  0.444099  0.080468  1
  O  O28  1  0.395720  0.283766  0.580432  1
  O  O29  1  0.895719  0.783766  0.580431  1
  O  O30  1  0.604282  0.716235  0.080431  1
  O  O31  1  0.104277  0.216235  0.080434  1
