# generated using pymatgen
data_CeNd3(NiN2)2
_symmetry_space_group_name_H-M   'P 1'
_cell_length_a   3.65021700
_cell_length_b   3.65020200
_cell_length_c   12.06318500
_cell_angle_alpha   90.00000950
_cell_angle_beta   90.00000000
_cell_angle_gamma   90.00000000
_symmetry_Int_Tables_number   1
_chemical_formula_structural   CeNd3(NiN2)2
_chemical_formula_sum   'Ce1 Nd3 Ni2 N4'
_cell_volume   160.73023152
_cell_formula_units_Z   1
loop_
 _symmetry_equiv_pos_site_id
 _symmetry_equiv_pos_as_xyz
  1  'x, y, z'
loop_
 _atom_site_type_symbol
 _atom_site_label
 _atom_site_symmetry_multiplicity
 _atom_site_fract_x
 _atom_site_fract_y
 _atom_site_fract_z
 _atom_site_occupancy
  Ce  Ce0  1  0.250000  0.250139  0.598806  1
  Nd  Nd1  1  0.750000  0.749814  0.101495  1
  Nd  Nd2  1  0.750000  0.749786  0.394931  1
  Nd  Nd3  1  0.250000  0.250105  0.897921  1
  Ni  Ni4  1  0.750000  0.750466  0.749075  1
  Ni  Ni5  1  0.250000  0.249509  0.252293  1
  N  N6  1  0.750000  0.750582  0.593030  1
  N  N7  1  0.750000  0.750359  0.903954  1
  N  N8  1  0.250000  0.249700  0.411213  1
  N  N9  1  0.250000  0.249539  0.097283  1
