# generated using pymatgen
data_K3AgF6
_symmetry_space_group_name_H-M   'P 1'
_cell_length_a   6.49554100
_cell_length_b   6.35865953
_cell_length_c   11.02543216
_cell_angle_alpha   54.78620106
_cell_angle_beta   90.00000000
_cell_angle_gamma   90.00000000
_symmetry_Int_Tables_number   1
_chemical_formula_structural   K3AgF6
_chemical_formula_sum   'K6 Ag2 F12'
_cell_volume   372.05041483
_cell_formula_units_Z   2
loop_
 _symmetry_equiv_pos_site_id
 _symmetry_equiv_pos_as_xyz
  1  'x, y, z'
loop_
 _atom_site_type_symbol
 _atom_site_label
 _atom_site_symmetry_multiplicity
 _atom_site_fract_x
 _atom_site_fract_y
 _atom_site_fract_z
 _atom_site_occupancy
  K  K0  1  0.000000  0.500000  0.500000  1
  K  K1  1  0.500000  0.500000  0.000000  1
  K  K2  1  0.445353  0.757996  0.248028  1
  K  K3  1  0.554647  0.242004  0.751972  1
  K  K4  1  0.945353  0.242004  0.251972  1
  K  K5  1  0.054647  0.757996  0.748028  1
  Ag  Ag6  1  0.000000  0.000000  0.000000  1
  Ag  Ag7  1  0.500000  0.000000  0.500000  1
  F  F8  1  0.165844  0.227845  0.051644  1
  F  F9  1  0.834156  0.772155  0.948356  1
  F  F10  1  0.665844  0.772155  0.448356  1
  F  F11  1  0.334156  0.227845  0.551644  1
  F  F12  1  0.045692  0.673916  0.222719  1
  F  F13  1  0.954308  0.326084  0.777281  1
  F  F14  1  0.545692  0.326084  0.277281  1
  F  F15  1  0.454308  0.673916  0.722719  1
  F  F16  1  0.718592  0.100510  0.054355  1
  F  F17  1  0.281408  0.899490  0.945645  1
  F  F18  1  0.218592  0.899490  0.445645  1
  F  F19  1  0.781408  0.100510  0.554355  1
