# generated using pymatgen
data_La6P5I
_symmetry_space_group_name_H-M   'P 1'
_cell_length_a   4.27642111
_cell_length_b   10.52868689
_cell_length_c   8.55729900
_cell_angle_alpha   90.06009462
_cell_angle_beta   60.01441084
_cell_angle_gamma   89.98625065
_symmetry_Int_Tables_number   1
_chemical_formula_structural   La6P5I
_chemical_formula_sum   'La6 P5 I1'
_cell_volume   333.72185827
_cell_formula_units_Z   1
loop_
 _symmetry_equiv_pos_site_id
 _symmetry_equiv_pos_as_xyz
  1  'x, y, z'
loop_
 _atom_site_type_symbol
 _atom_site_label
 _atom_site_symmetry_multiplicity
 _atom_site_fract_x
 _atom_site_fract_y
 _atom_site_fract_z
 _atom_site_occupancy
  La  La0  1  0.954594  0.887967  0.638975  1
  La  La1  1  0.255762  0.241974  0.339321  1
  La  La2  1  0.605647  0.564984  0.989011  1
  La  La3  1  0.291078  0.253447  0.803772  1
  La  La4  1  0.605594  0.565006  0.488891  1
  La  La5  1  0.919213  0.876514  0.174520  1
  P  P6  1  0.271857  0.725432  0.322093  1
  P  P7  1  0.938781  0.404566  0.656037  1
  P  P8  1  0.605029  0.065043  0.489213  1
  P  P9  1  0.941549  0.395181  0.153482  1
  P  P10  1  0.269404  0.734720  0.824587  1
  I  I11  1  0.605002  0.064897  0.989193  1
