# generated using pymatgen
data_TbHo15In4(IrRu)2
_symmetry_space_group_name_H-M   'P 1'
_cell_length_a   9.62810063
_cell_length_b   9.64939216
_cell_length_c   9.63674308
_cell_angle_alpha   59.80032299
_cell_angle_beta   59.80617180
_cell_angle_gamma   59.74845294
_symmetry_Int_Tables_number   1
_chemical_formula_structural   TbHo15In4(IrRu)2
_chemical_formula_sum   'Tb1 Ho15 In4 Ir2 Ru2'
_cell_volume   629.98524350
_cell_formula_units_Z   1
loop_
 _symmetry_equiv_pos_site_id
 _symmetry_equiv_pos_as_xyz
  1  'x, y, z'
loop_
 _atom_site_type_symbol
 _atom_site_label
 _atom_site_symmetry_multiplicity
 _atom_site_fract_x
 _atom_site_fract_y
 _atom_site_fract_z
 _atom_site_occupancy
  Tb  Tb0  1  0.436784  0.440171  0.062178  1
  Ho  Ho1  1  0.651375  0.652124  0.042058  1
  Ho  Ho2  1  0.194189  0.809537  0.191486  1
  Ho  Ho3  1  0.056996  0.442621  0.058935  1
  Ho  Ho4  1  0.192063  0.809436  0.808912  1
  Ho  Ho5  1  0.059312  0.440568  0.441294  1
  Ho  Ho6  1  0.808584  0.192953  0.192964  1
  Ho  Ho7  1  0.649054  0.651497  0.652244  1
  Ho  Ho8  1  0.808378  0.191433  0.807670  1
  Ho  Ho9  1  0.194732  0.191646  0.808747  1
  Ho  Ho10  1  0.045129  0.652616  0.651658  1
  Ho  Ho11  1  0.442979  0.056791  0.057476  1
  Ho  Ho12  1  0.058496  0.059680  0.441870  1
  Ho  Ho13  1  0.652279  0.042421  0.651865  1
  Ho  Ho14  1  0.807858  0.807683  0.191614  1
  Ho  Ho15  1  0.438381  0.059859  0.442612  1
  In  In16  1  0.420492  0.417013  0.416828  1
  In  In17  1  0.416860  0.416737  0.749027  1
  In  In18  1  0.416769  0.749805  0.416990  1
  In  In19  1  0.747263  0.417403  0.417501  1
  Ir  Ir20  1  0.860805  0.420512  0.857097  1
  Ir  Ir21  1  0.859630  0.857443  0.420547  1
  Ru  Ru22  1  0.419142  0.859613  0.857792  1
  Ru  Ru23  1  0.862453  0.860442  0.860640  1
