# generated using pymatgen
data_BaCuBiS3
_symmetry_space_group_name_H-M   'P 1'
_cell_length_a   7.07716555
_cell_length_b   7.07716581
_cell_length_c   10.55384600
_cell_angle_alpha   90.00000000
_cell_angle_beta   90.00000000
_cell_angle_gamma   146.13621022
_symmetry_Int_Tables_number   1
_chemical_formula_structural   BaCuBiS3
_chemical_formula_sum   'Ba2 Cu2 Bi2 S6'
_cell_volume   294.54829765
_cell_formula_units_Z   2
loop_
 _symmetry_equiv_pos_site_id
 _symmetry_equiv_pos_as_xyz
  1  'x, y, z'
loop_
 _atom_site_type_symbol
 _atom_site_label
 _atom_site_symmetry_multiplicity
 _atom_site_fract_x
 _atom_site_fract_y
 _atom_site_fract_z
 _atom_site_occupancy
  Ba  Ba0  1  0.253841  0.746159  0.250000  1
  Ba  Ba1  1  0.746159  0.253841  0.750000  1
  Cu  Cu2  1  0.533432  0.466568  0.250000  1
  Cu  Cu3  1  0.466568  0.533432  0.750000  1
  Bi  Bi4  1  0.000000  0.000000  0.500000  1
  Bi  Bi5  1  0.000000  0.000000  0.000000  1
  S  S6  1  0.635542  0.364458  0.432624  1
  S  S7  1  0.364458  0.635542  0.567376  1
  S  S8  1  0.635542  0.364458  0.067376  1
  S  S9  1  0.364458  0.635542  0.932624  1
  S  S10  1  0.933114  0.066886  0.250000  1
  S  S11  1  0.066886  0.933114  0.750000  1
