# generated using pymatgen
data_Ce2Nb3Co9As7
_symmetry_space_group_name_H-M   'P 1'
_cell_length_a   3.86930400
_cell_length_b   9.55241470
_cell_length_c   9.55241500
_cell_angle_alpha   119.99999758
_cell_angle_beta   90.00000000
_cell_angle_gamma   90.00000000
_symmetry_Int_Tables_number   1
_chemical_formula_structural   Ce2Nb3Co9As7
_chemical_formula_sum   'Ce2 Nb3 Co9 As7'
_cell_volume   305.76645969
_cell_formula_units_Z   1
loop_
 _symmetry_equiv_pos_site_id
 _symmetry_equiv_pos_as_xyz
  1  'x, y, z'
loop_
 _atom_site_type_symbol
 _atom_site_label
 _atom_site_symmetry_multiplicity
 _atom_site_fract_x
 _atom_site_fract_y
 _atom_site_fract_z
 _atom_site_occupancy
  Ce  Ce0  1  0.000000  0.666667  0.333333  1
  Ce  Ce1  1  0.500000  0.333333  0.666667  1
  Nb  Nb2  1  0.500000  0.777925  0.896689  1
  Nb  Nb3  1  0.500000  0.118765  0.222075  1
  Nb  Nb4  1  0.500000  0.103311  0.881235  1
  Co  Co5  1  0.000000  0.570200  0.936128  1
  Co  Co6  1  0.000000  0.365929  0.429800  1
  Co  Co7  1  0.000000  0.063872  0.634071  1
  Co  Co8  1  0.000000  0.874163  0.157825  1
  Co  Co9  1  0.000000  0.283662  0.125837  1
  Co  Co10  1  0.000000  0.842175  0.716338  1
  Co  Co11  1  0.500000  0.947723  0.383346  1
  Co  Co12  1  0.500000  0.435622  0.052277  1
  Co  Co13  1  0.500000  0.616654  0.564378  1
  As  As14  1  0.000000  0.000000  0.000000  1
  As  As15  1  0.500000  0.707740  0.119565  1
  As  As16  1  0.500000  0.411826  0.292260  1
  As  As17  1  0.500000  0.880435  0.588174  1
  As  As18  1  0.000000  0.584627  0.691879  1
  As  As19  1  0.000000  0.107253  0.415373  1
  As  As20  1  0.000000  0.308121  0.892747  1
