# generated using pymatgen
data_Er16Al3ZnRh4
_symmetry_space_group_name_H-M   'P 1'
_cell_length_a   9.44436611
_cell_length_b   9.43500819
_cell_length_c   9.44436500
_cell_angle_alpha   59.96718551
_cell_angle_beta   60.00000037
_cell_angle_gamma   59.96718944
_symmetry_Int_Tables_number   1
_chemical_formula_structural   Er16Al3ZnRh4
_chemical_formula_sum   'Er16 Al3 Zn1 Rh4'
_cell_volume   594.78127923
_cell_formula_units_Z   1
loop_
 _symmetry_equiv_pos_site_id
 _symmetry_equiv_pos_as_xyz
  1  'x, y, z'
loop_
 _atom_site_type_symbol
 _atom_site_label
 _atom_site_symmetry_multiplicity
 _atom_site_fract_x
 _atom_site_fract_y
 _atom_site_fract_z
 _atom_site_occupancy
  Er  Er0  1  0.190674  0.191149  0.809089  1
  Er  Er1  1  0.435910  0.062284  0.065897  1
  Er  Er2  1  0.435910  0.062284  0.435910  1
  Er  Er3  1  0.064594  0.434607  0.064594  1
  Er  Er4  1  0.646602  0.060192  0.646602  1
  Er  Er5  1  0.189812  0.809437  0.810940  1
  Er  Er6  1  0.065897  0.062284  0.435910  1
  Er  Er7  1  0.809089  0.191149  0.190674  1
  Er  Er8  1  0.810940  0.809437  0.189812  1
  Er  Er9  1  0.646048  0.646059  0.061846  1
  Er  Er10  1  0.646048  0.646059  0.646048  1
  Er  Er11  1  0.064594  0.434607  0.436206  1
  Er  Er12  1  0.061846  0.646059  0.646048  1
  Er  Er13  1  0.809089  0.191149  0.809089  1
  Er  Er14  1  0.436206  0.434607  0.064594  1
  Er  Er15  1  0.189812  0.809437  0.189812  1
  Al  Al16  1  0.421406  0.421932  0.735255  1
  Al  Al17  1  0.735255  0.421932  0.421406  1
  Al  Al18  1  0.421406  0.421932  0.421406  1
  Zn  Zn19  1  0.419773  0.740679  0.419773  1
  Rh  Rh20  1  0.855476  0.433574  0.855476  1
  Rh  Rh21  1  0.856415  0.856386  0.430785  1
  Rh  Rh22  1  0.430785  0.856386  0.856415  1
  Rh  Rh23  1  0.856415  0.856386  0.856415  1
