# generated using pymatgen
data_Tb20Ga3Si12Au
_symmetry_space_group_name_H-M   'P 1'
_cell_length_a   7.51487313
_cell_length_b   7.76775956
_cell_length_c   14.82594480
_cell_angle_alpha   90.14895572
_cell_angle_beta   90.35435147
_cell_angle_gamma   90.15299941
_symmetry_Int_Tables_number   1
_chemical_formula_structural   Tb20Ga3Si12Au
_chemical_formula_sum   'Tb20 Ga3 Si12 Au1'
_cell_volume   865.42306463
_cell_formula_units_Z   1
loop_
 _symmetry_equiv_pos_site_id
 _symmetry_equiv_pos_as_xyz
  1  'x, y, z'
loop_
 _atom_site_type_symbol
 _atom_site_label
 _atom_site_symmetry_multiplicity
 _atom_site_fract_x
 _atom_site_fract_y
 _atom_site_fract_z
 _atom_site_occupancy
  Tb  Tb0  1  0.678143  0.170116  0.624104  1
  Tb  Tb1  1  0.180957  0.324633  0.875609  1
  Tb  Tb2  1  0.321677  0.822865  0.123250  1
  Tb  Tb3  1  0.823828  0.678477  0.377287  1
  Tb  Tb4  1  0.320302  0.826081  0.378285  1
  Tb  Tb5  1  0.818269  0.677617  0.122141  1
  Tb  Tb6  1  0.680173  0.177070  0.877581  1
  Tb  Tb7  1  0.178411  0.322985  0.622864  1
  Tb  Tb8  1  0.522712  0.682828  0.601549  1
  Tb  Tb9  1  0.025933  0.816165  0.899721  1
  Tb  Tb10  1  0.474423  0.316045  0.100494  1
  Tb  Tb11  1  0.976766  0.181539  0.398593  1
  Tb  Tb12  1  0.471500  0.320215  0.398700  1
  Tb  Tb13  1  0.971315  0.180341  0.099857  1
  Tb  Tb14  1  0.528976  0.680112  0.898551  1
  Tb  Tb15  1  0.026306  0.818436  0.602154  1
  Tb  Tb16  1  0.849243  0.507329  0.750949  1
  Tb  Tb17  1  0.348451  0.989470  0.747776  1
  Tb  Tb18  1  0.151514  0.489320  0.251124  1
  Tb  Tb19  1  0.654027  0.011085  0.250770  1
  Ga  Ga20  1  0.151870  0.530723  0.040211  1
  Ga  Ga21  1  0.347222  0.031403  0.959323  1
  Ga  Ga22  1  0.845275  0.469701  0.541067  1
  Si  Si23  1  0.342254  0.027950  0.542476  1
  Si  Si24  1  0.852057  0.470429  0.959488  1
  Si  Si25  1  0.647828  0.971205  0.040155  1
  Si  Si26  1  0.150140  0.530465  0.460479  1
  Si  Si27  1  0.477772  0.395418  0.749040  1
  Si  Si28  1  0.976006  0.103472  0.752046  1
  Si  Si29  1  0.523828  0.605066  0.249419  1
  Si  Si30  1  0.026763  0.895057  0.248438  1
  Si  Si31  1  0.733571  0.872362  0.751674  1
  Si  Si32  1  0.233602  0.626450  0.750316  1
  Si  Si33  1  0.266776  0.125105  0.247744  1
  Si  Si34  1  0.766846  0.376554  0.249081  1
  Au  Au35  1  0.655259  0.975912  0.457684  1
