# generated using pymatgen
data_Os(SeCl)4
_symmetry_space_group_name_H-M   'P 1'
_cell_length_a   9.60471900
_cell_length_b   9.97098738
_cell_length_c   12.11873513
_cell_angle_alpha   73.56258878
_cell_angle_beta   90.00000000
_cell_angle_gamma   90.00000000
_symmetry_Int_Tables_number   1
_chemical_formula_structural   Os(SeCl)4
_chemical_formula_sum   'Os4 Se16 Cl16'
_cell_volume   1113.15933890
_cell_formula_units_Z   4
loop_
 _symmetry_equiv_pos_site_id
 _symmetry_equiv_pos_as_xyz
  1  'x, y, z'
loop_
 _atom_site_type_symbol
 _atom_site_label
 _atom_site_symmetry_multiplicity
 _atom_site_fract_x
 _atom_site_fract_y
 _atom_site_fract_z
 _atom_site_occupancy
  Os  Os0  1  0.807194  0.053935  0.780682  1
  Os  Os1  1  0.307194  0.946065  0.219318  1
  Os  Os2  1  0.673689  0.315477  0.712545  1
  Os  Os3  1  0.173689  0.684523  0.287455  1
  Se  Se4  1  0.795870  0.497876  0.786767  1
  Se  Se5  1  0.295870  0.502124  0.213233  1
  Se  Se6  1  0.394068  0.010327  0.882202  1
  Se  Se7  1  0.894068  0.989673  0.117798  1
  Se  Se8  1  0.969922  0.163036  0.204950  1
  Se  Se9  1  0.469922  0.836964  0.795050  1
  Se  Se10  1  0.301437  0.164541  0.709246  1
  Se  Se11  1  0.801437  0.835459  0.290754  1
  Se  Se12  1  0.508916  0.224356  0.601717  1
  Se  Se13  1  0.008916  0.775644  0.398283  1
  Se  Se14  1  0.871431  0.247520  0.619839  1
  Se  Se15  1  0.371431  0.752480  0.380161  1
  Se  Se16  1  0.645599  0.963478  0.671544  1
  Se  Se17  1  0.145599  0.036522  0.328456  1
  Se  Se18  1  0.642068  0.141087  0.889936  1
  Se  Se19  1  0.142068  0.858913  0.110064  1
  Cl  Cl20  1  0.483318  0.070939  0.295178  1
  Cl  Cl21  1  0.983318  0.929061  0.704822  1
  Cl  Cl22  1  0.003863  0.129819  0.878338  1
  Cl  Cl23  1  0.503863  0.870181  0.121662  1
  Cl  Cl24  1  0.804192  0.202930  0.454353  1
  Cl  Cl25  1  0.304192  0.797070  0.545647  1
  Cl  Cl26  1  0.813928  0.419511  0.977502  1
  Cl  Cl27  1  0.313928  0.580489  0.022498  1
  Cl  Cl28  1  0.503608  0.450085  0.785290  1
  Cl  Cl29  1  0.003608  0.549915  0.214710  1
  Cl  Cl30  1  0.019518  0.507817  0.740483  1
  Cl  Cl31  1  0.519518  0.492183  0.259517  1
  Cl  Cl32  1  0.697815  0.539248  0.560078  1
  Cl  Cl33  1  0.197815  0.460752  0.439922  1
  Cl  Cl34  1  0.806562  0.843054  0.939912  1
  Cl  Cl35  1  0.306562  0.156946  0.060088  1
