# generated using pymatgen
data_PuNp5F18
_symmetry_space_group_name_H-M   'P 1'
_cell_length_a   7.13660528
_cell_length_b   7.11033128
_cell_length_c   7.27720600
_cell_angle_alpha   89.29958033
_cell_angle_beta   89.94507746
_cell_angle_gamma   119.87188634
_symmetry_Int_Tables_number   1
_chemical_formula_structural   PuNp5F18
_chemical_formula_sum   'Pu1 Np5 F18'
_cell_volume   320.17633364
_cell_formula_units_Z   1
loop_
 _symmetry_equiv_pos_site_id
 _symmetry_equiv_pos_as_xyz
  1  'x, y, z'
loop_
 _atom_site_type_symbol
 _atom_site_label
 _atom_site_symmetry_multiplicity
 _atom_site_fract_x
 _atom_site_fract_y
 _atom_site_fract_z
 _atom_site_occupancy
  Pu  Pu0  1  0.346969  0.001249  0.249646  1
  Np  Np1  1  0.653626  0.998719  0.749746  1
  Np  Np2  1  0.342859  0.341735  0.752113  1
  Np  Np3  1  0.999899  0.656344  0.748046  1
  Np  Np4  1  0.658776  0.658531  0.249114  1
  Np  Np5  1  0.001883  0.343756  0.250832  1
  F  F6  1  0.309631  0.941847  0.920328  1
  F  F7  1  0.625443  0.687603  0.918277  1
  F  F8  1  0.062950  0.373235  0.921096  1
  F  F9  1  0.311194  0.378595  0.423604  1
  F  F10  1  0.057698  0.686395  0.416039  1
  F  F11  1  0.633761  0.939822  0.421608  1
  F  F12  1  0.694448  0.059779  0.079749  1
  F  F13  1  0.370643  0.314027  0.083617  1
  F  F14  1  0.932724  0.621807  0.075852  1
  F  F15  1  0.689592  0.626028  0.579640  1
  F  F16  1  0.937964  0.311320  0.581683  1
  F  F17  1  0.369318  0.059221  0.578371  1
  F  F18  1  0.665150  0.331555  0.821484  1
  F  F19  1  0.667996  0.333987  0.320997  1
  F  F20  1  0.334612  0.667909  0.178599  1
  F  F21  1  0.332531  0.666718  0.678929  1
  F  F22  1  0.997411  0.999200  0.750071  1
  F  F23  1  0.002920  0.000619  0.250563  1
