# generated using pymatgen
data_Hf3(Ga2Ni)2
_symmetry_space_group_name_H-M   'P 1'
_cell_length_a   6.51441600
_cell_length_b   6.51441572
_cell_length_c   3.92631400
_cell_angle_alpha   90.00000000
_cell_angle_beta   90.00000000
_cell_angle_gamma   119.99999127
_symmetry_Int_Tables_number   1
_chemical_formula_structural   Hf3(Ga2Ni)2
_chemical_formula_sum   'Hf3 Ga4 Ni2'
_cell_volume   144.30010818
_cell_formula_units_Z   1
loop_
 _symmetry_equiv_pos_site_id
 _symmetry_equiv_pos_as_xyz
  1  'x, y, z'
loop_
 _atom_site_type_symbol
 _atom_site_label
 _atom_site_symmetry_multiplicity
 _atom_site_fract_x
 _atom_site_fract_y
 _atom_site_fract_z
 _atom_site_occupancy
  Hf  Hf0  1  0.408748  0.424277  0.500000  1
  Hf  Hf1  1  0.575723  0.984471  0.500000  1
  Hf  Hf2  1  0.015529  0.591252  0.500000  1
  Ga  Ga3  1  0.747189  0.761255  0.000000  1
  Ga  Ga4  1  0.238745  0.985934  0.000000  1
  Ga  Ga5  1  0.014066  0.252811  0.000000  1
  Ga  Ga6  1  0.666667  0.333333  0.000000  1
  Ni  Ni7  1  0.333333  0.666667  0.000000  1
  Ni  Ni8  1  0.000000  0.000000  0.500000  1
