# generated using pymatgen
data_Ta4Mn3CoP4
_symmetry_space_group_name_H-M   'P 1'
_cell_length_a   3.62910700
_cell_length_b   6.12285037
_cell_length_c   6.99963827
_cell_angle_alpha   90.16517028
_cell_angle_beta   90.00000000
_cell_angle_gamma   90.00000000
_symmetry_Int_Tables_number   1
_chemical_formula_structural   Ta4Mn3CoP4
_chemical_formula_sum   'Ta4 Mn3 Co1 P4'
_cell_volume   155.53466966
_cell_formula_units_Z   1
loop_
 _symmetry_equiv_pos_site_id
 _symmetry_equiv_pos_as_xyz
  1  'x, y, z'
loop_
 _atom_site_type_symbol
 _atom_site_label
 _atom_site_symmetry_multiplicity
 _atom_site_fract_x
 _atom_site_fract_y
 _atom_site_fract_z
 _atom_site_occupancy
  Ta  Ta0  1  0.250000  0.020368  0.823479  1
  Ta  Ta1  1  0.250000  0.527701  0.675965  1
  Ta  Ta2  1  0.750000  0.976964  0.176878  1
  Ta  Ta3  1  0.750000  0.479049  0.324597  1
  Mn  Mn4  1  0.250000  0.146794  0.440896  1
  Mn  Mn5  1  0.250000  0.642558  0.059541  1
  Mn  Mn6  1  0.750000  0.850762  0.562142  1
  Co  Co7  1  0.750000  0.352057  0.935481  1
  P  P8  1  0.250000  0.277924  0.123217  1
  P  P9  1  0.250000  0.780002  0.376279  1
  P  P10  1  0.750000  0.722622  0.880895  1
  P  P11  1  0.750000  0.223199  0.620630  1
