# generated using pymatgen
data_YLu3CdPt
_symmetry_space_group_name_H-M   'P 1'
_cell_length_a   9.54695303
_cell_length_b   9.53629679
_cell_length_c   9.53629637
_cell_angle_alpha   60.07393683
_cell_angle_beta   59.96303397
_cell_angle_gamma   59.96303343
_symmetry_Int_Tables_number   1
_chemical_formula_structural   YLu3CdPt
_chemical_formula_sum   'Y4 Lu12 Cd4 Pt4'
_cell_volume   613.91495758
_cell_formula_units_Z   4
loop_
 _symmetry_equiv_pos_site_id
 _symmetry_equiv_pos_as_xyz
  1  'x, y, z'
loop_
 _atom_site_type_symbol
 _atom_site_label
 _atom_site_symmetry_multiplicity
 _atom_site_fract_x
 _atom_site_fract_y
 _atom_site_fract_z
 _atom_site_occupancy
  Y  Y0  1  0.564739  0.935261  0.564739  1
  Y  Y1  1  0.935261  0.564738  0.935261  1
  Y  Y2  1  0.564739  0.564739  0.935261  1
  Y  Y3  1  0.935261  0.935261  0.564738  1
  Lu  Lu4  1  0.352907  0.352083  0.352083  1
  Lu  Lu5  1  0.352083  0.352907  0.942929  1
  Lu  Lu6  1  0.352083  0.942929  0.352907  1
  Lu  Lu7  1  0.942929  0.352083  0.352083  1
  Lu  Lu8  1  0.811243  0.188757  0.188757  1
  Lu  Lu9  1  0.188757  0.811243  0.811243  1
  Lu  Lu10  1  0.188588  0.811412  0.188588  1
  Lu  Lu11  1  0.811412  0.188588  0.811412  1
  Lu  Lu12  1  0.188588  0.188588  0.811412  1
  Lu  Lu13  1  0.811412  0.811412  0.188588  1
  Lu  Lu14  1  0.939126  0.560874  0.560874  1
  Lu  Lu15  1  0.560874  0.939126  0.939126  1
  Cd  Cd16  1  0.583096  0.581009  0.581009  1
  Cd  Cd17  1  0.581009  0.583096  0.254886  1
  Cd  Cd18  1  0.581009  0.254886  0.583096  1
  Cd  Cd19  1  0.254886  0.581009  0.581009  1
  Pt  Pt20  1  0.144418  0.142633  0.142633  1
  Pt  Pt21  1  0.142633  0.144418  0.570315  1
  Pt  Pt22  1  0.142633  0.570315  0.144418  1
  Pt  Pt23  1  0.570315  0.142633  0.142633  1
