# generated using pymatgen
data_Y4(Al8Pt3)3
_symmetry_space_group_name_H-M   'P 1'
_cell_length_a   7.53141988
_cell_length_b   7.55360460
_cell_length_c   13.19025622
_cell_angle_alpha   84.58231861
_cell_angle_beta   79.13032805
_cell_angle_gamma   59.96731561
_symmetry_Int_Tables_number   1
_chemical_formula_structural   Y4(Al8Pt3)3
_chemical_formula_sum   'Y4 Al24 Pt9'
_cell_volume   637.98324831
_cell_formula_units_Z   1
loop_
 _symmetry_equiv_pos_site_id
 _symmetry_equiv_pos_as_xyz
  1  'x, y, z'
loop_
 _atom_site_type_symbol
 _atom_site_label
 _atom_site_symmetry_multiplicity
 _atom_site_fract_x
 _atom_site_fract_y
 _atom_site_fract_z
 _atom_site_occupancy
  Y  Y0  1  0.393560  0.168441  0.808075  1
  Y  Y1  1  0.606440  0.831559  0.191925  1
  Y  Y2  1  0.733707  0.498566  0.808009  1
  Y  Y3  1  0.266293  0.501434  0.191991  1
  Al  Al4  1  0.684455  0.833774  0.944732  1
  Al  Al5  1  0.315545  0.166226  0.055268  1
  Al  Al6  1  0.146545  0.832526  0.561545  1
  Al  Al7  1  0.853455  0.167474  0.438455  1
  Al  Al8  1  0.479634  0.166868  0.558719  1
  Al  Al9  1  0.520366  0.833132  0.441281  1
  Al  Al10  1  0.217032  0.165324  0.330451  1
  Al  Al11  1  0.782968  0.834676  0.669549  1
  Al  Al12  1  0.437544  0.506433  0.669644  1
  Al  Al13  1  0.562456  0.493567  0.330356  1
  Al  Al14  1  0.109681  0.159899  0.668588  1
  Al  Al15  1  0.890319  0.840101  0.331412  1
  Al  Al16  1  0.352403  0.499704  0.944753  1
  Al  Al17  1  0.647597  0.500296  0.055247  1
  Al  Al18  1  0.015452  0.167189  0.953378  1
  Al  Al19  1  0.984548  0.832811  0.046622  1
  Al  Al20  1  0.186929  0.499218  0.441338  1
  Al  Al21  1  0.813071  0.500782  0.558662  1
  Al  Al22  1  0.734348  0.164087  0.183802  1
  Al  Al23  1  0.265652  0.835913  0.816198  1
  Al  Al24  1  0.061524  0.631399  0.815158  1
  Al  Al25  1  0.938476  0.368601  0.184842  1
  Al  Al26  1  0.855743  0.041473  0.815849  1
  Al  Al27  1  0.144257  0.958527  0.184151  1
  Pt  Pt28  1  0.119901  0.491961  0.638640  1
  Pt  Pt29  1  0.880099  0.508039  0.361360  1
  Pt  Pt30  1  0.657333  0.171387  0.999888  1
  Pt  Pt31  1  0.342667  0.828613  0.000112  1
  Pt  Pt32  1  0.537956  0.166709  0.361415  1
  Pt  Pt33  1  0.462044  0.833291  0.638585  1
  Pt  Pt34  1  0.778670  0.175007  0.637140  1
  Pt  Pt35  1  0.221330  0.824993  0.362860  1
  Pt  Pt36  1  0.000000  0.500000  0.000000  1
