# generated using pymatgen
data_Ta3Be2Co5
_symmetry_space_group_name_H-M   'P 1'
_cell_length_a   8.56282700
_cell_length_b   8.56282700
_cell_length_c   3.27286800
_cell_angle_alpha   90.00000000
_cell_angle_beta   90.00000000
_cell_angle_gamma   90.00000000
_symmetry_Int_Tables_number   1
_chemical_formula_structural   Ta3Be2Co5
_chemical_formula_sum   'Ta6 Be4 Co10'
_cell_volume   239.97324789
_cell_formula_units_Z   2
loop_
 _symmetry_equiv_pos_site_id
 _symmetry_equiv_pos_as_xyz
  1  'x, y, z'
loop_
 _atom_site_type_symbol
 _atom_site_label
 _atom_site_symmetry_multiplicity
 _atom_site_fract_x
 _atom_site_fract_y
 _atom_site_fract_z
 _atom_site_occupancy
  Ta  Ta0  1  0.500000  0.500000  0.000000  1
  Ta  Ta1  1  0.000000  0.000000  0.000000  1
  Ta  Ta2  1  0.824759  0.324759  0.000000  1
  Ta  Ta3  1  0.175241  0.675241  0.000000  1
  Ta  Ta4  1  0.324759  0.175241  0.000000  1
  Ta  Ta5  1  0.675241  0.824759  0.000000  1
  Be  Be6  1  0.618059  0.118059  0.000000  1
  Be  Be7  1  0.381941  0.881941  0.000000  1
  Be  Be8  1  0.118059  0.381941  0.000000  1
  Be  Be9  1  0.881941  0.618059  0.000000  1
  Co  Co10  1  0.500000  0.000000  0.500000  1
  Co  Co11  1  0.000000  0.500000  0.500000  1
  Co  Co12  1  0.715866  0.570287  0.500000  1
  Co  Co13  1  0.284134  0.429713  0.500000  1
  Co  Co14  1  0.215866  0.929713  0.500000  1
  Co  Co15  1  0.784134  0.070287  0.500000  1
  Co  Co16  1  0.429713  0.715866  0.500000  1
  Co  Co17  1  0.570287  0.284134  0.500000  1
  Co  Co18  1  0.070287  0.215866  0.500000  1
  Co  Co19  1  0.929713  0.784134  0.500000  1
