# generated using pymatgen
data_TbEr2AlC3
_symmetry_space_group_name_H-M   'P 1'
_cell_length_a   3.55979500
_cell_length_b   7.04288800
_cell_length_c   9.91867700
_cell_angle_alpha   90.00000000
_cell_angle_beta   90.00000000
_cell_angle_gamma   90.00000000
_symmetry_Int_Tables_number   1
_chemical_formula_structural   TbEr2AlC3
_chemical_formula_sum   'Tb2 Er4 Al2 C6'
_cell_volume   248.67350663
_cell_formula_units_Z   2
loop_
 _symmetry_equiv_pos_site_id
 _symmetry_equiv_pos_as_xyz
  1  'x, y, z'
loop_
 _atom_site_type_symbol
 _atom_site_label
 _atom_site_symmetry_multiplicity
 _atom_site_fract_x
 _atom_site_fract_y
 _atom_site_fract_z
 _atom_site_occupancy
  Tb  Tb0  1  0.000000  0.750000  0.459768  1
  Tb  Tb1  1  0.000000  0.250000  0.540232  1
  Er  Er2  1  0.500000  0.512315  0.199961  1
  Er  Er3  1  0.500000  0.487685  0.800039  1
  Er  Er4  1  0.500000  0.987685  0.199961  1
  Er  Er5  1  0.500000  0.012315  0.800039  1
  Al  Al6  1  0.000000  0.750000  0.003659  1
  Al  Al7  1  0.000000  0.250000  0.996341  1
  C  C8  1  0.500000  0.509109  0.566642  1
  C  C9  1  0.500000  0.490891  0.433358  1
  C  C10  1  0.500000  0.990891  0.566642  1
  C  C11  1  0.500000  0.009109  0.433358  1
  C  C12  1  0.000000  0.750000  0.207405  1
  C  C13  1  0.000000  0.250000  0.792595  1
