# generated using pymatgen
data_ScZnF36
_symmetry_space_group_name_H-M   'P 1'
_cell_length_a   6.46283615
_cell_length_b   9.86331793
_cell_length_c   10.07730000
_cell_angle_alpha   90.55970957
_cell_angle_beta   97.13539677
_cell_angle_gamma   74.20145684
_symmetry_Int_Tables_number   1
_chemical_formula_structural   ScZnF36
_chemical_formula_sum   'Sc1 Zn1 F36'
_cell_volume   613.13006613
_cell_formula_units_Z   1
loop_
 _symmetry_equiv_pos_site_id
 _symmetry_equiv_pos_as_xyz
  1  'x, y, z'
loop_
 _atom_site_type_symbol
 _atom_site_label
 _atom_site_symmetry_multiplicity
 _atom_site_fract_x
 _atom_site_fract_y
 _atom_site_fract_z
 _atom_site_occupancy
  Sc  Sc0  1  0.368724  0.171988  0.168732  1
  Zn  Zn1  1  0.660021  0.819668  0.833939  1
  F  F2  1  0.273597  0.408270  0.877816  1
  F  F3  1  0.747678  0.583384  0.123163  1
  F  F4  1  0.306246  0.271642  0.579915  1
  F  F5  1  0.671818  0.723074  0.432705  1
  F  F6  1  0.888206  0.220325  0.807552  1
  F  F7  1  0.063472  0.794603  0.179204  1
  F  F8  1  0.655458  0.899038  0.007859  1
  F  F9  1  0.277184  0.128149  0.977248  1
  F  F10  1  0.820099  0.625881  0.879389  1
  F  F11  1  0.257434  0.385113  0.135689  1
  F  F12  1  0.461190  0.422917  0.824888  1
  F  F13  1  0.546228  0.582670  0.166689  1
  F  F14  1  0.711217  0.697101  0.686508  1
  F  F15  1  0.243108  0.299030  0.314548  1
  F  F16  1  0.747400  0.982744  0.538020  1
  F  F17  1  0.263457  0.007634  0.463609  1
  F  F18  1  0.259552  0.185769  0.678676  1
  F  F19  1  0.753415  0.789831  0.333976  1
  F  F20  1  0.813300  0.082402  0.625629  1
  F  F21  1  0.183164  0.920310  0.367749  1
  F  F22  1  0.872257  0.933064  0.891611  1
  F  F23  1  0.159701  0.054112  0.130601  1
  F  F24  1  0.871640  0.367427  0.801061  1
  F  F25  1  0.132189  0.644308  0.188587  1
  F  F26  1  0.258269  0.690310  0.937558  1
  F  F27  1  0.747218  0.309161  0.051579  1
  F  F28  1  0.426883  0.947152  0.739313  1
  F  F29  1  0.628117  0.053869  0.260268  1
  F  F30  1  0.116794  0.752582  0.567182  1
  F  F31  1  0.882109  0.252845  0.432922  1
  F  F32  1  0.154087  0.626945  0.645608  1
  F  F33  1  0.797076  0.376106  0.349263  1
  F  F34  1  0.294067  0.800149  0.855599  1
  F  F35  1  0.709496  0.197230  0.136142  1
  F  F36  1  0.518695  0.436713  0.548795  1
  F  F37  1  0.459441  0.556487  0.460409  1
