# generated using pymatgen
data_Ca2DyHo(ReB4)4
_symmetry_space_group_name_H-M   'P 1'
_cell_length_a   3.60461600
_cell_length_b   5.98948280
_cell_length_c   11.58815885
_cell_angle_alpha   90.02242411
_cell_angle_beta   90.00000000
_cell_angle_gamma   90.00000000
_symmetry_Int_Tables_number   1
_chemical_formula_structural   Ca2DyHo(ReB4)4
_chemical_formula_sum   'Ca2 Dy1 Ho1 Re4 B16'
_cell_volume   250.18584500
_cell_formula_units_Z   1
loop_
 _symmetry_equiv_pos_site_id
 _symmetry_equiv_pos_as_xyz
  1  'x, y, z'
loop_
 _atom_site_type_symbol
 _atom_site_label
 _atom_site_symmetry_multiplicity
 _atom_site_fract_x
 _atom_site_fract_y
 _atom_site_fract_z
 _atom_site_occupancy
  Ca  Ca0  1  0.000000  0.373090  0.849573  1
  Ca  Ca1  1  0.000000  0.126647  0.349717  1
  Dy  Dy2  1  0.000000  0.627491  0.150421  1
  Ho  Ho3  1  0.000000  0.872709  0.650332  1
  Re  Re4  1  0.000000  0.631652  0.415658  1
  Re  Re5  1  0.000000  0.369076  0.585095  1
  Re  Re6  1  0.000000  0.130856  0.084946  1
  Re  Re7  1  0.000000  0.868401  0.915044  1
  B  B8  1  0.500000  0.976605  0.192144  1
  B  B9  1  0.500000  0.022362  0.807659  1
  B  B10  1  0.500000  0.477426  0.308069  1
  B  B11  1  0.500000  0.523588  0.692254  1
  B  B12  1  0.500000  0.784752  0.315350  1
  B  B13  1  0.500000  0.214034  0.684397  1
  B  B14  1  0.500000  0.285695  0.184404  1
  B  B15  1  0.500000  0.715201  0.814970  1
  B  B16  1  0.500000  0.863838  0.468501  1
  B  B17  1  0.500000  0.136061  0.532201  1
  B  B18  1  0.500000  0.363836  0.031959  1
  B  B19  1  0.500000  0.636308  0.968106  1
  B  B20  1  0.500000  0.887063  0.047014  1
  B  B21  1  0.500000  0.114503  0.952267  1
  B  B22  1  0.500000  0.385474  0.452566  1
  B  B23  1  0.500000  0.613329  0.547353  1
