# generated using pymatgen
data_DyYMn6Co6P7
_symmetry_space_group_name_H-M   'P 1'
_cell_length_a   9.07998700
_cell_length_b   9.07998690
_cell_length_c   3.63777100
_cell_angle_alpha   90.00000000
_cell_angle_beta   90.00000000
_cell_angle_gamma   120.00000402
_symmetry_Int_Tables_number   1
_chemical_formula_structural   DyYMn6Co6P7
_chemical_formula_sum   'Dy1 Y1 Mn6 Co6 P7'
_cell_volume   259.73855440
_cell_formula_units_Z   1
loop_
 _symmetry_equiv_pos_site_id
 _symmetry_equiv_pos_as_xyz
  1  'x, y, z'
loop_
 _atom_site_type_symbol
 _atom_site_label
 _atom_site_symmetry_multiplicity
 _atom_site_fract_x
 _atom_site_fract_y
 _atom_site_fract_z
 _atom_site_occupancy
  Dy  Dy0  1  0.666667  0.333333  0.000000  1
  Y  Y1  1  0.333333  0.666667  0.500000  1
  Mn  Mn2  1  0.880032  0.723344  0.000000  1
  Mn  Mn3  1  0.276656  0.156688  0.000000  1
  Mn  Mn4  1  0.843312  0.119968  0.000000  1
  Mn  Mn5  1  0.119231  0.895887  0.500000  1
  Mn  Mn6  1  0.104113  0.223343  0.500000  1
  Mn  Mn7  1  0.776657  0.880769  0.500000  1
  Co  Co8  1  0.369131  0.940157  0.000000  1
  Co  Co9  1  0.059843  0.428974  0.000000  1
  Co  Co10  1  0.571026  0.630869  0.000000  1
  Co  Co11  1  0.949586  0.561316  0.500000  1
  Co  Co12  1  0.438684  0.388270  0.500000  1
  Co  Co13  1  0.611730  0.050414  0.500000  1
  P  P14  1  0.110963  0.698789  0.000000  1
  P  P15  1  0.301211  0.412176  0.000000  1
  P  P16  1  0.587824  0.889037  0.000000  1
  P  P17  1  0.712341  0.593990  0.500000  1
  P  P18  1  0.406010  0.118353  0.500000  1
  P  P19  1  0.881647  0.287659  0.500000  1
  P  P20  1  0.000000  0.000000  0.000000  1
