# generated using pymatgen
data_Sr2B8OsRu6
_symmetry_space_group_name_H-M   'P 1'
_cell_length_a   6.47897100
_cell_length_b   6.47897100
_cell_length_c   10.26972200
_cell_angle_alpha   90.00000000
_cell_angle_beta   90.00000000
_cell_angle_gamma   90.00000000
_symmetry_Int_Tables_number   1
_chemical_formula_structural   Sr2B8OsRu6
_chemical_formula_sum   'Sr4 B16 Os2 Ru12'
_cell_volume   431.09279017
_cell_formula_units_Z   2
loop_
 _symmetry_equiv_pos_site_id
 _symmetry_equiv_pos_as_xyz
  1  'x, y, z'
loop_
 _atom_site_type_symbol
 _atom_site_label
 _atom_site_symmetry_multiplicity
 _atom_site_fract_x
 _atom_site_fract_y
 _atom_site_fract_z
 _atom_site_occupancy
  Sr  Sr0  1  0.730921  0.890788  0.000000  1
  Sr  Sr1  1  0.109212  0.730921  0.500000  1
  Sr  Sr2  1  0.890788  0.269079  0.500000  1
  Sr  Sr3  1  0.269079  0.109212  0.000000  1
  B  B4  1  0.500000  0.000000  0.588538  1
  B  B5  1  0.500000  0.000000  0.411462  1
  B  B6  1  0.898203  0.274753  0.167780  1
  B  B7  1  0.101797  0.725247  0.832220  1
  B  B8  1  0.500000  0.500000  0.340915  1
  B  B9  1  0.500000  0.500000  0.840915  1
  B  B10  1  0.274753  0.101797  0.667780  1
  B  B11  1  0.101797  0.725247  0.167780  1
  B  B12  1  0.274753  0.101797  0.332220  1
  B  B13  1  0.898203  0.274753  0.832220  1
  B  B14  1  0.500000  0.500000  0.659085  1
  B  B15  1  0.500000  0.500000  0.159085  1
  B  B16  1  0.000000  0.500000  0.911462  1
  B  B17  1  0.725247  0.898203  0.667780  1
  B  B18  1  0.725247  0.898203  0.332220  1
  B  B19  1  0.000000  0.500000  0.088538  1
  Os  Os20  1  0.000000  0.000000  0.250000  1
  Os  Os21  1  0.000000  0.000000  0.750000  1
  Ru  Ru22  1  0.206818  0.395189  0.756509  1
  Ru  Ru23  1  0.405587  0.286161  0.500000  1
  Ru  Ru24  1  0.395189  0.793182  0.256509  1
  Ru  Ru25  1  0.206818  0.395189  0.243491  1
  Ru  Ru26  1  0.594413  0.713839  0.500000  1
  Ru  Ru27  1  0.604811  0.206818  0.743491  1
  Ru  Ru28  1  0.286161  0.594413  0.000000  1
  Ru  Ru29  1  0.713839  0.405587  0.000000  1
  Ru  Ru30  1  0.793182  0.604811  0.243491  1
  Ru  Ru31  1  0.793182  0.604811  0.756509  1
  Ru  Ru32  1  0.395189  0.793182  0.743491  1
  Ru  Ru33  1  0.604811  0.206818  0.256509  1
