# generated using pymatgen
data_Hf2(MgTc8)3
_symmetry_space_group_name_H-M   'P 1'
_cell_length_a   8.36982696
_cell_length_b   8.36982637
_cell_length_c   8.34974504
_cell_angle_alpha   109.50068670
_cell_angle_beta   109.50067546
_cell_angle_gamma   109.50965729
_symmetry_Int_Tables_number   1
_chemical_formula_structural   Hf2(MgTc8)3
_chemical_formula_sum   'Hf2 Mg3 Tc24'
_cell_volume   449.73981301
_cell_formula_units_Z   1
loop_
 _symmetry_equiv_pos_site_id
 _symmetry_equiv_pos_as_xyz
  1  'x, y, z'
loop_
 _atom_site_type_symbol
 _atom_site_label
 _atom_site_symmetry_multiplicity
 _atom_site_fract_x
 _atom_site_fract_y
 _atom_site_fract_z
 _atom_site_occupancy
  Hf  Hf0  1  0.000652  0.000652  0.633987  1
  Hf  Hf1  1  0.366666  0.366666  0.366013  1
  Mg  Mg2  1  0.997545  0.997545  0.000000  1
  Mg  Mg3  1  0.636510  0.000232  0.000000  1
  Mg  Mg4  1  0.000232  0.636510  0.000000  1
  Tc  Tc5  1  0.394064  0.674248  0.000000  1
  Tc  Tc6  1  0.719491  0.324549  0.328237  1
  Tc  Tc7  1  0.391253  0.996313  0.671763  1
  Tc  Tc8  1  0.674248  0.394064  0.000000  1
  Tc  Tc9  1  0.996313  0.391253  0.671763  1
  Tc  Tc10  1  0.324549  0.719491  0.328237  1
  Tc  Tc11  1  0.324173  0.324173  0.718012  1
  Tc  Tc12  1  0.996977  0.675384  0.392038  1
  Tc  Tc13  1  0.675384  0.996977  0.392038  1
  Tc  Tc14  1  0.606161  0.606161  0.281988  1
  Tc  Tc15  1  0.283346  0.604939  0.607962  1
  Tc  Tc16  1  0.604939  0.283346  0.607962  1
  Tc  Tc17  1  0.375770  0.193250  0.000000  1
  Tc  Tc18  1  0.185051  0.807122  0.809282  1
  Tc  Tc19  1  0.375768  0.997838  0.190718  1
  Tc  Tc20  1  0.193250  0.375770  0.000000  1
  Tc  Tc21  1  0.997838  0.375768  0.190718  1
  Tc  Tc22  1  0.807122  0.185051  0.809282  1
  Tc  Tc23  1  0.809605  0.809605  0.183477  1
  Tc  Tc24  1  0.998161  0.192807  0.372486  1
  Tc  Tc25  1  0.192807  0.998161  0.372486  1
  Tc  Tc26  1  0.626129  0.626129  0.816523  1
  Tc  Tc27  1  0.820321  0.625676  0.627514  1
  Tc  Tc28  1  0.625676  0.820321  0.627514  1
