# generated using pymatgen
data_Ti3CdPt12
_symmetry_space_group_name_H-M   'P 1'
_cell_length_a   5.62287800
_cell_length_b   5.62287784
_cell_length_c   9.14580700
_cell_angle_alpha   90.00000000
_cell_angle_beta   90.00000000
_cell_angle_gamma   120.00000097
_symmetry_Int_Tables_number   1
_chemical_formula_structural   Ti3CdPt12
_chemical_formula_sum   'Ti3 Cd1 Pt12'
_cell_volume   250.42055199
_cell_formula_units_Z   1
loop_
 _symmetry_equiv_pos_site_id
 _symmetry_equiv_pos_as_xyz
  1  'x, y, z'
loop_
 _atom_site_type_symbol
 _atom_site_label
 _atom_site_symmetry_multiplicity
 _atom_site_fract_x
 _atom_site_fract_y
 _atom_site_fract_z
 _atom_site_occupancy
  Ti  Ti0  1  0.000000  0.000000  0.498412  1
  Ti  Ti1  1  0.000000  0.000000  0.001588  1
  Ti  Ti2  1  0.666667  0.333333  0.750000  1
  Cd  Cd3  1  0.333333  0.666667  0.250000  1
  Pt  Pt4  1  0.503129  0.496871  0.506871  1
  Pt  Pt5  1  0.503129  0.006258  0.506871  1
  Pt  Pt6  1  0.993742  0.496871  0.506871  1
  Pt  Pt7  1  0.503129  0.496871  0.993129  1
  Pt  Pt8  1  0.503129  0.006258  0.993129  1
  Pt  Pt9  1  0.993742  0.496871  0.993129  1
  Pt  Pt10  1  0.831952  0.663904  0.250000  1
  Pt  Pt11  1  0.336096  0.168048  0.250000  1
  Pt  Pt12  1  0.831952  0.168048  0.250000  1
  Pt  Pt13  1  0.166772  0.333542  0.750000  1
  Pt  Pt14  1  0.666458  0.833228  0.750000  1
  Pt  Pt15  1  0.166772  0.833228  0.750000  1
