# generated using pymatgen
data_Ho10Zn3Ru
_symmetry_space_group_name_H-M   'P 1'
_cell_length_a   9.36897600
_cell_length_b   9.36891305
_cell_length_c   9.58743600
_cell_angle_alpha   90.00001246
_cell_angle_beta   90.00012092
_cell_angle_gamma   120.00013708
_symmetry_Int_Tables_number   1
_chemical_formula_structural   Ho10Zn3Ru
_chemical_formula_sum   'Ho20 Zn6 Ru2'
_cell_volume   728.80919717
_cell_formula_units_Z   2
loop_
 _symmetry_equiv_pos_site_id
 _symmetry_equiv_pos_as_xyz
  1  'x, y, z'
loop_
 _atom_site_type_symbol
 _atom_site_label
 _atom_site_symmetry_multiplicity
 _atom_site_fract_x
 _atom_site_fract_y
 _atom_site_fract_z
 _atom_site_occupancy
  Ho  Ho0  1  0.000001  0.999996  0.500001  1
  Ho  Ho1  1  0.000001  0.000000  0.000001  1
  Ho  Ho2  1  0.207855  0.792142  0.441862  1
  Ho  Ho3  1  0.207854  0.415713  0.441860  1
  Ho  Ho4  1  0.584288  0.792145  0.441863  1
  Ho  Ho5  1  0.792116  0.207884  0.558191  1
  Ho  Ho6  1  0.792116  0.584231  0.558194  1
  Ho  Ho7  1  0.415769  0.207884  0.558195  1
  Ho  Ho8  1  0.792117  0.207883  0.941809  1
  Ho  Ho9  1  0.792115  0.584231  0.941806  1
  Ho  Ho10  1  0.415771  0.207885  0.941804  1
  Ho  Ho11  1  0.207858  0.792144  0.058138  1
  Ho  Ho12  1  0.207853  0.415712  0.058138  1
  Ho  Ho13  1  0.584289  0.792146  0.058137  1
  Ho  Ho14  1  0.541376  0.458625  0.250001  1
  Ho  Ho15  1  0.541375  0.082749  0.250000  1
  Ho  Ho16  1  0.917249  0.458625  0.250001  1
  Ho  Ho17  1  0.458653  0.541348  0.750000  1
  Ho  Ho18  1  0.458651  0.917304  0.750000  1
  Ho  Ho19  1  0.082697  0.541350  0.750000  1
  Zn  Zn20  1  0.885688  0.114311  0.249999  1
  Zn  Zn21  1  0.885689  0.771380  0.249999  1
  Zn  Zn22  1  0.228618  0.114310  0.250000  1
  Zn  Zn23  1  0.114309  0.885691  0.750000  1
  Zn  Zn24  1  0.114309  0.228618  0.750001  1
  Zn  Zn25  1  0.771380  0.885690  0.750001  1
  Ru  Ru26  1  0.333337  0.666671  0.250000  1
  Ru  Ru27  1  0.666665  0.333332  0.750000  1
