# generated using pymatgen
data_TmMg3Ge6Ir3Pt4
_symmetry_space_group_name_H-M   'P 1'
_cell_length_a   7.19813672
_cell_length_b   7.18680974
_cell_length_c   7.06181413
_cell_angle_alpha   109.24211205
_cell_angle_beta   108.84305610
_cell_angle_gamma   110.00536882
_symmetry_Int_Tables_number   1
_chemical_formula_structural   TmMg3Ge6Ir3Pt4
_chemical_formula_sum   'Tm1 Mg3 Ge6 Ir3 Pt4'
_cell_volume   282.31619612
_cell_formula_units_Z   1
loop_
 _symmetry_equiv_pos_site_id
 _symmetry_equiv_pos_as_xyz
  1  'x, y, z'
loop_
 _atom_site_type_symbol
 _atom_site_label
 _atom_site_symmetry_multiplicity
 _atom_site_fract_x
 _atom_site_fract_y
 _atom_site_fract_z
 _atom_site_occupancy
  Tm  Tm0  1  0.999481  0.998961  0.499481  1
  Mg  Mg1  1  0.001847  0.501269  0.001951  1
  Mg  Mg2  1  0.499619  0.999238  0.999619  1
  Mg  Mg3  1  0.499422  0.501269  0.499318  1
  Ge  Ge4  1  0.685837  0.691211  0.996754  1
  Ge  Ge5  1  0.309002  0.989104  0.301929  1
  Ge  Ge6  1  0.004892  0.317939  0.306688  1
  Ge  Ge7  1  0.313046  0.317939  0.011251  1
  Ge  Ge8  1  0.680102  0.989104  0.687175  1
  Ge  Ge9  1  0.005374  0.691211  0.694457  1
  Ir  Ir10  1  0.249625  0.749503  0.500352  1
  Ir  Ir11  1  0.499880  0.749503  0.249151  1
  Ir  Ir12  1  0.999510  0.999019  0.999510  1
  Pt  Pt13  1  0.749446  0.252688  0.501397  1
  Pt  Pt14  1  0.748395  0.496791  0.248395  1
  Pt  Pt15  1  0.503241  0.252688  0.751290  1
  Pt  Pt16  1  0.251282  0.502563  0.751282  1
