# generated using pymatgen
data_Cs6Na4VGaP6
_symmetry_space_group_name_H-M   'P 1'
_cell_length_a   10.53399501
_cell_length_b   10.53399369
_cell_length_c   16.49136400
_cell_angle_alpha   90.00000000
_cell_angle_beta   90.00000000
_cell_angle_gamma   142.35871526
_symmetry_Int_Tables_number   1
_chemical_formula_structural   Cs6Na4VGaP6
_chemical_formula_sum   'Cs12 Na8 V2 Ga2 P12'
_cell_volume   1117.58859802
_cell_formula_units_Z   2
loop_
 _symmetry_equiv_pos_site_id
 _symmetry_equiv_pos_as_xyz
  1  'x, y, z'
loop_
 _atom_site_type_symbol
 _atom_site_label
 _atom_site_symmetry_multiplicity
 _atom_site_fract_x
 _atom_site_fract_y
 _atom_site_fract_z
 _atom_site_occupancy
  Cs  Cs0  1  0.934701  0.606057  0.828647  1
  Cs  Cs1  1  0.565299  0.893943  0.328647  1
  Cs  Cs2  1  0.393943  0.065299  0.171353  1
  Cs  Cs3  1  0.053195  0.391546  0.172081  1
  Cs  Cs4  1  0.891546  0.553195  0.327919  1
  Cs  Cs5  1  0.446805  0.108454  0.672081  1
  Cs  Cs6  1  0.608454  0.946805  0.827919  1
  Cs  Cs7  1  0.270104  0.275472  0.317055  1
  Cs  Cs8  1  0.775472  0.770104  0.182945  1
  Cs  Cs9  1  0.229896  0.224528  0.817055  1
  Cs  Cs10  1  0.724528  0.729896  0.682945  1
  Cs  Cs11  1  0.106057  0.434701  0.671353  1
  Na  Na12  1  0.921390  0.078610  0.000000  1
  Na  Na13  1  0.578610  0.421390  0.500000  1
  Na  Na14  1  0.079971  0.920029  0.000000  1
  Na  Na15  1  0.420029  0.579971  0.500000  1
  Na  Na16  1  0.751696  0.248304  0.000000  1
  Na  Na17  1  0.748304  0.251696  0.500000  1
  Na  Na18  1  0.244516  0.755484  0.000000  1
  Na  Na19  1  0.255484  0.744516  0.500000  1
  V  V20  1  0.421138  0.578862  0.000000  1
  V  V21  1  0.078862  0.921138  0.500000  1
  Ga  Ga22  1  0.584495  0.415505  0.000000  1
  Ga  Ga23  1  0.915505  0.084495  0.500000  1
  P  P24  1  0.864640  0.557131  0.089768  1
  P  P25  1  0.442869  0.135360  0.910232  1
  P  P26  1  0.635360  0.942869  0.589768  1
  P  P27  1  0.953956  0.660003  0.581238  1
  P  P28  1  0.160003  0.453956  0.918762  1
  P  P29  1  0.546044  0.839997  0.081238  1
  P  P30  1  0.339997  0.046044  0.418762  1
  P  P31  1  0.192677  0.182622  0.579052  1
  P  P32  1  0.682622  0.692677  0.920948  1
  P  P33  1  0.307323  0.317378  0.079052  1
  P  P34  1  0.057131  0.364640  0.410232  1
  P  P35  1  0.817378  0.807323  0.420948  1
