# generated using pymatgen
data_AlGa6Ni5O16
_symmetry_space_group_name_H-M   'P 1'
_cell_length_a   5.86969936
_cell_length_b   5.86989891
_cell_length_c   10.28590687
_cell_angle_alpha   90.26058395
_cell_angle_beta   73.32467768
_cell_angle_gamma   120.33958661
_symmetry_Int_Tables_number   1
_chemical_formula_structural   AlGa6Ni5O16
_chemical_formula_sum   'Al1 Ga6 Ni5 O16'
_cell_volume   288.74230056
_cell_formula_units_Z   1
loop_
 _symmetry_equiv_pos_site_id
 _symmetry_equiv_pos_as_xyz
  1  'x, y, z'
loop_
 _atom_site_type_symbol
 _atom_site_label
 _atom_site_symmetry_multiplicity
 _atom_site_fract_x
 _atom_site_fract_y
 _atom_site_fract_z
 _atom_site_occupancy
  Al  Al0  1  0.374997  0.437488  0.187502  1
  Ga  Ga1  1  0.003026  0.998039  0.998910  1
  Ga  Ga2  1  0.007363  0.499312  0.493387  1
  Ga  Ga3  1  0.746988  0.876963  0.376093  1
  Ga  Ga4  1  0.742673  0.375691  0.881616  1
  Ga  Ga5  1  0.374678  0.688006  0.937237  1
  Ga  Ga6  1  0.375370  0.187010  0.437770  1
  Ni  Ni7  1  0.374994  0.937595  0.187555  1
  Ni  Ni8  1  0.874858  0.437471  0.187477  1
  Ni  Ni9  1  0.374933  0.937558  0.687496  1
  Ni  Ni10  1  0.374915  0.437309  0.687494  1
  Ni  Ni11  1  0.875108  0.937587  0.687423  1
  O  O12  1  0.619621  0.810035  0.570465  1
  O  O13  1  0.605296  0.318256  0.076456  1
  O  O14  1  0.144690  0.556741  0.298545  1
  O  O15  1  0.130368  0.064940  0.804542  1
  O  O16  1  0.137804  0.567761  0.816072  1
  O  O17  1  0.146651  0.087921  0.306678  1
  O  O18  1  0.613731  0.571873  0.814368  1
  O  O19  1  0.613742  0.072756  0.313463  1
  O  O20  1  0.616227  0.046155  0.816040  1
  O  O21  1  0.605472  0.546752  0.306670  1
  O  O22  1  0.144550  0.328263  0.068329  1
  O  O23  1  0.133786  0.828829  0.558957  1
  O  O24  1  0.136269  0.802253  0.061537  1
  O  O25  1  0.136291  0.303120  0.560641  1
  O  O26  1  0.603366  0.787093  0.068338  1
  O  O27  1  0.612230  0.307227  0.558948  1
