# generated using pymatgen
data_NdEu4Se5
_symmetry_space_group_name_H-M   'P 1'
_cell_length_a   7.48246099
_cell_length_b   7.48246091
_cell_length_c   10.58188075
_cell_angle_alpha   61.81859505
_cell_angle_beta   61.81859530
_cell_angle_gamma   33.44645056
_symmetry_Int_Tables_number   1
_chemical_formula_structural   NdEu4Se5
_chemical_formula_sum   'Nd1 Eu4 Se5'
_cell_volume   284.07114263
_cell_formula_units_Z   1
loop_
 _symmetry_equiv_pos_site_id
 _symmetry_equiv_pos_as_xyz
  1  'x, y, z'
loop_
 _atom_site_type_symbol
 _atom_site_label
 _atom_site_symmetry_multiplicity
 _atom_site_fract_x
 _atom_site_fract_y
 _atom_site_fract_z
 _atom_site_occupancy
  Nd  Nd0  1  0.000000  0.000000  0.000000  1
  Eu  Eu1  1  0.600002  0.600002  0.599853  1
  Eu  Eu2  1  0.199725  0.199725  0.199605  1
  Eu  Eu3  1  0.800275  0.800275  0.800395  1
  Eu  Eu4  1  0.399998  0.399998  0.400147  1
  Se  Se5  1  0.198457  0.198457  0.702501  1
  Se  Se6  1  0.801543  0.801543  0.297499  1
  Se  Se7  1  0.401326  0.401326  0.901433  1
  Se  Se8  1  0.000000  0.000000  0.500000  1
  Se  Se9  1  0.598674  0.598674  0.098567  1
