# generated using pymatgen
data_Dy7Ho(ErPt4)2
_symmetry_space_group_name_H-M   'P 1'
_cell_length_a   7.45627300
_cell_length_b   7.56051401
_cell_length_c   14.75356502
_cell_angle_alpha   90.00539304
_cell_angle_beta   90.00000000
_cell_angle_gamma   90.00000000
_symmetry_Int_Tables_number   1
_chemical_formula_structural   Dy7Ho(ErPt4)2
_chemical_formula_sum   'Dy14 Ho2 Er4 Pt16'
_cell_volume   831.70650078
_cell_formula_units_Z   2
loop_
 _symmetry_equiv_pos_site_id
 _symmetry_equiv_pos_as_xyz
  1  'x, y, z'
loop_
 _atom_site_type_symbol
 _atom_site_label
 _atom_site_symmetry_multiplicity
 _atom_site_fract_x
 _atom_site_fract_y
 _atom_site_fract_z
 _atom_site_occupancy
  Dy  Dy0  1  0.343005  0.832130  0.122519  1
  Dy  Dy1  1  0.843005  0.667870  0.377481  1
  Dy  Dy2  1  0.343018  0.832128  0.377487  1
  Dy  Dy3  1  0.843018  0.667872  0.122513  1
  Dy  Dy4  1  0.656994  0.167886  0.877474  1
  Dy  Dy5  1  0.156994  0.332114  0.622526  1
  Dy  Dy6  1  0.501824  0.679977  0.593083  1
  Dy  Dy7  1  0.001824  0.820023  0.906917  1
  Dy  Dy8  1  0.498196  0.320034  0.093080  1
  Dy  Dy9  1  0.998196  0.179966  0.406920  1
  Dy  Dy10  1  0.498205  0.320016  0.406931  1
  Dy  Dy11  1  0.998205  0.179984  0.093069  1
  Dy  Dy12  1  0.501781  0.679945  0.906906  1
  Dy  Dy13  1  0.001781  0.820055  0.593094  1
  Ho  Ho14  1  0.656990  0.167887  0.622535  1
  Ho  Ho15  1  0.156990  0.332113  0.877465  1
  Er  Er16  1  0.818944  0.512703  0.750000  1
  Er  Er17  1  0.318944  0.987297  0.750000  1
  Er  Er18  1  0.181075  0.487217  0.250001  1
  Er  Er19  1  0.681075  0.012783  0.249999  1
  Pt  Pt20  1  0.683455  0.967819  0.458161  1
  Pt  Pt21  1  0.183455  0.532181  0.041839  1
  Pt  Pt22  1  0.316475  0.032329  0.958101  1
  Pt  Pt23  1  0.816475  0.467671  0.541899  1
  Pt  Pt24  1  0.316593  0.032262  0.541886  1
  Pt  Pt25  1  0.816593  0.467738  0.958114  1
  Pt  Pt26  1  0.683465  0.967756  0.041874  1
  Pt  Pt27  1  0.183465  0.532244  0.458126  1
  Pt  Pt28  1  0.454299  0.388125  0.749997  1
  Pt  Pt29  1  0.954299  0.111875  0.750003  1
  Pt  Pt30  1  0.545684  0.611825  0.250004  1
  Pt  Pt31  1  0.045684  0.888175  0.249996  1
  Pt  Pt32  1  0.682631  0.855851  0.749981  1
  Pt  Pt33  1  0.182631  0.644149  0.750019  1
  Pt  Pt34  1  0.317366  0.144201  0.250002  1
  Pt  Pt35  1  0.817366  0.355799  0.249998  1
