# generated using pymatgen
data_Li2Pr3HfPt3
_symmetry_space_group_name_H-M   'P 1'
_cell_length_a   7.42134400
_cell_length_b   7.42134407
_cell_length_c   4.30787900
_cell_angle_alpha   90.00000000
_cell_angle_beta   90.00000000
_cell_angle_gamma   119.92101072
_symmetry_Int_Tables_number   1
_chemical_formula_structural   Li2Pr3HfPt3
_chemical_formula_sum   'Li2 Pr3 Hf1 Pt3'
_cell_volume   205.63847925
_cell_formula_units_Z   1
loop_
 _symmetry_equiv_pos_site_id
 _symmetry_equiv_pos_as_xyz
  1  'x, y, z'
loop_
 _atom_site_type_symbol
 _atom_site_label
 _atom_site_symmetry_multiplicity
 _atom_site_fract_x
 _atom_site_fract_y
 _atom_site_fract_z
 _atom_site_occupancy
  Li  Li0  1  0.758828  0.999037  0.500000  1
  Li  Li1  1  0.999037  0.758828  0.500000  1
  Pr  Pr2  1  0.412854  0.983506  0.000000  1
  Pr  Pr3  1  0.983506  0.412854  0.000000  1
  Pr  Pr4  1  0.609274  0.609274  0.000000  1
  Hf  Hf5  1  0.242609  0.242609  0.500000  1
  Pt  Pt6  1  0.324612  0.638345  0.500000  1
  Pt  Pt7  1  0.638345  0.324612  0.500000  1
  Pt  Pt8  1  0.030936  0.030936  0.000000  1
