# generated using pymatgen
data_ScTi3Co10(SiB2)2
_symmetry_space_group_name_H-M   'P 1'
_cell_length_a   8.39388558
_cell_length_b   8.39388558
_cell_length_c   2.99938600
_cell_angle_alpha   90.00000000
_cell_angle_beta   90.00000000
_cell_angle_gamma   89.68565350
_symmetry_Int_Tables_number   1
_chemical_formula_structural   ScTi3Co10(SiB2)2
_chemical_formula_sum   'Sc1 Ti3 Co10 Si2 B4'
_cell_volume   211.32550419
_cell_formula_units_Z   1
loop_
 _symmetry_equiv_pos_site_id
 _symmetry_equiv_pos_as_xyz
  1  'x, y, z'
loop_
 _atom_site_type_symbol
 _atom_site_label
 _atom_site_symmetry_multiplicity
 _atom_site_fract_x
 _atom_site_fract_y
 _atom_site_fract_z
 _atom_site_occupancy
  Sc  Sc0  1  0.823885  0.323885  0.000000  1
  Ti  Ti1  1  0.324146  0.174768  0.000000  1
  Ti  Ti2  1  0.674768  0.824146  0.000000  1
  Ti  Ti3  1  0.175685  0.675685  0.000000  1
  Co  Co4  1  0.497154  0.997154  0.500000  1
  Co  Co5  1  0.005240  0.505240  0.500000  1
  Co  Co6  1  0.077718  0.215699  0.500000  1
  Co  Co7  1  0.215026  0.929171  0.500000  1
  Co  Co8  1  0.779909  0.061200  0.500000  1
  Co  Co9  1  0.932032  0.786331  0.500000  1
  Co  Co10  1  0.429171  0.715026  0.500000  1
  Co  Co11  1  0.561200  0.279909  0.500000  1
  Co  Co12  1  0.715699  0.577718  0.500000  1
  Co  Co13  1  0.286331  0.432032  0.500000  1
  Si  Si14  1  0.000141  0.001102  0.000000  1
  Si  Si15  1  0.501102  0.500141  0.000000  1
  B  B16  1  0.616633  0.116633  0.000000  1
  B  B17  1  0.125579  0.381210  0.000000  1
  B  B18  1  0.881210  0.625579  0.000000  1
  B  B19  1  0.377371  0.877371  0.000000  1
