# generated using pymatgen
data_Tb6YHo(MoO6)4
_symmetry_space_group_name_H-M   'P 1'
_cell_length_a   9.97935873
_cell_length_b   9.97935790
_cell_length_c   5.41646803
_cell_angle_alpha   75.03224900
_cell_angle_beta   75.03225469
_cell_angle_gamma   68.16517584
_symmetry_Int_Tables_number   1
_chemical_formula_structural   Tb6YHo(MoO6)4
_chemical_formula_sum   'Tb6 Y1 Ho1 Mo4 O24'
_cell_volume   475.74715855
_cell_formula_units_Z   1
loop_
 _symmetry_equiv_pos_site_id
 _symmetry_equiv_pos_as_xyz
  1  'x, y, z'
loop_
 _atom_site_type_symbol
 _atom_site_label
 _atom_site_symmetry_multiplicity
 _atom_site_fract_x
 _atom_site_fract_y
 _atom_site_fract_z
 _atom_site_occupancy
  Tb  Tb0  1  0.447739  0.215959  0.378353  1
  Tb  Tb1  1  0.784041  0.552261  0.121647  1
  Tb  Tb2  1  0.552355  0.784049  0.621593  1
  Tb  Tb3  1  0.215951  0.447645  0.878407  1
  Tb  Tb4  1  0.863614  0.136386  0.250000  1
  Tb  Tb5  1  0.136270  0.863730  0.750000  1
  Y  Y6  1  0.394119  0.605881  0.250000  1
  Ho  Ho7  1  0.605583  0.394417  0.750000  1
  Mo  Mo8  1  0.296544  0.011127  0.061713  1
  Mo  Mo9  1  0.988873  0.703456  0.438287  1
  Mo  Mo10  1  0.703420  0.989039  0.938132  1
  Mo  Mo11  1  0.010961  0.296580  0.561868  1
  O  O12  1  0.609177  0.572134  0.921477  1
  O  O13  1  0.427866  0.390823  0.578523  1
  O  O14  1  0.391471  0.426834  0.076701  1
  O  O15  1  0.573166  0.608529  0.423299  1
  O  O16  1  0.337738  0.807647  0.920421  1
  O  O17  1  0.192353  0.662262  0.579579  1
  O  O18  1  0.662058  0.193114  0.078282  1
  O  O19  1  0.806886  0.337942  0.421718  1
  O  O20  1  0.326086  0.884784  0.373547  1
  O  O21  1  0.115216  0.673914  0.126453  1
  O  O22  1  0.673891  0.115288  0.626494  1
  O  O23  1  0.884712  0.326109  0.873506  1
  O  O24  1  0.182928  0.288953  0.636528  1
  O  O25  1  0.711047  0.817072  0.863472  1
  O  O26  1  0.817092  0.711082  0.363453  1
  O  O27  1  0.288918  0.182908  0.136547  1
  O  O28  1  0.047713  0.111594  0.514798  1
  O  O29  1  0.888406  0.952287  0.985202  1
  O  O30  1  0.952278  0.888425  0.485190  1
  O  O31  1  0.111575  0.047722  0.014810  1
  O  O32  1  0.024749  0.432044  0.257072  1
  O  O33  1  0.567956  0.975251  0.242928  1
  O  O34  1  0.975217  0.567971  0.742906  1
  O  O35  1  0.432029  0.024783  0.757094  1
