# generated using pymatgen
data_DyHo3ScIr3
_symmetry_space_group_name_H-M   'P 1'
_cell_length_a   10.74960100
_cell_length_b   10.74483600
_cell_length_c   6.25765400
_cell_angle_alpha   90.00000000
_cell_angle_beta   90.00000000
_cell_angle_gamma   90.00000000
_symmetry_Int_Tables_number   1
_chemical_formula_structural   DyHo3ScIr3
_chemical_formula_sum   'Dy4 Ho12 Sc4 Ir12'
_cell_volume   722.77593148
_cell_formula_units_Z   4
loop_
 _symmetry_equiv_pos_site_id
 _symmetry_equiv_pos_as_xyz
  1  'x, y, z'
loop_
 _atom_site_type_symbol
 _atom_site_label
 _atom_site_symmetry_multiplicity
 _atom_site_fract_x
 _atom_site_fract_y
 _atom_site_fract_z
 _atom_site_occupancy
  Dy  Dy0  1  0.288141  0.086574  0.377246  1
  Dy  Dy1  1  0.288141  0.913426  0.877246  1
  Dy  Dy2  1  0.711859  0.086574  0.877246  1
  Dy  Dy3  1  0.711859  0.913426  0.377246  1
  Ho  Ho4  1  0.586411  0.788118  0.877516  1
  Ho  Ho5  1  0.586411  0.211882  0.377516  1
  Ho  Ho6  1  0.413589  0.788118  0.377516  1
  Ho  Ho7  1  0.413589  0.211882  0.877516  1
  Ho  Ho8  1  0.211683  0.413627  0.622528  1
  Ho  Ho9  1  0.211683  0.586373  0.122528  1
  Ho  Ho10  1  0.788317  0.413627  0.122528  1
  Ho  Ho11  1  0.788317  0.586373  0.622528  1
  Ho  Ho12  1  0.913690  0.711647  0.122408  1
  Ho  Ho13  1  0.913690  0.288353  0.622408  1
  Ho  Ho14  1  0.086310  0.711647  0.622408  1
  Ho  Ho15  1  0.086310  0.288353  0.122408  1
  Sc  Sc16  1  0.000000  0.000000  0.500095  1
  Sc  Sc17  1  0.000000  0.000000  0.000095  1
  Sc  Sc18  1  0.500000  0.500000  0.000105  1
  Sc  Sc19  1  0.500000  0.500000  0.500105  1
  Ir  Ir20  1  0.852120  0.148306  0.250249  1
  Ir  Ir21  1  0.852120  0.851694  0.750249  1
  Ir  Ir22  1  0.147880  0.148306  0.750249  1
  Ir  Ir23  1  0.147880  0.851694  0.250249  1
  Ir  Ir24  1  0.648026  0.352090  0.749930  1
  Ir  Ir25  1  0.648026  0.647910  0.249930  1
  Ir  Ir26  1  0.351974  0.352090  0.249930  1
  Ir  Ir27  1  0.351974  0.647910  0.749930  1
  Ir  Ir28  1  0.500000  0.000000  0.122110  1
  Ir  Ir29  1  0.500000  0.000000  0.622110  1
  Ir  Ir30  1  0.000000  0.500000  0.877936  1
  Ir  Ir31  1  0.000000  0.500000  0.377936  1
