# generated using pymatgen
data_Pr4Sm6C4Cl15
_symmetry_space_group_name_H-M   'P 1'
_cell_length_a   8.86176086
_cell_length_b   9.85045830
_cell_length_c   10.71188998
_cell_angle_alpha   70.18592352
_cell_angle_beta   66.55399631
_cell_angle_gamma   70.54572392
_symmetry_Int_Tables_number   1
_chemical_formula_structural   Pr4Sm6C4Cl15
_chemical_formula_sum   'Pr4 Sm6 C4 Cl15'
_cell_volume   785.51219548
_cell_formula_units_Z   1
loop_
 _symmetry_equiv_pos_site_id
 _symmetry_equiv_pos_as_xyz
  1  'x, y, z'
loop_
 _atom_site_type_symbol
 _atom_site_label
 _atom_site_symmetry_multiplicity
 _atom_site_fract_x
 _atom_site_fract_y
 _atom_site_fract_z
 _atom_site_occupancy
  Pr  Pr0  1  0.344253  0.754943  0.826362  1
  Pr  Pr1  1  0.655747  0.245057  0.173638  1
  Pr  Pr2  1  0.176704  0.428228  0.046414  1
  Pr  Pr3  1  0.823296  0.571772  0.953586  1
  Sm  Sm4  1  0.081098  0.177440  0.884009  1
  Sm  Sm5  1  0.918902  0.822560  0.115991  1
  Sm  Sm6  1  0.246621  0.543160  0.637113  1
  Sm  Sm7  1  0.753379  0.456840  0.362887  1
  Sm  Sm8  1  0.031711  0.097709  0.267972  1
  Sm  Sm9  1  0.968289  0.902291  0.732028  1
  C  C10  1  0.878739  0.355367  0.177469  1
  C  C11  1  0.121261  0.644633  0.822531  1
  C  C12  1  0.956808  0.289131  0.062726  1
  C  C13  1  0.043192  0.710869  0.937274  1
  Cl  Cl14  1  0.500000  0.500000  0.000000  1
  Cl  Cl15  1  0.126335  0.816342  0.474683  1
  Cl  Cl16  1  0.873665  0.183658  0.525317  1
  Cl  Cl17  1  0.243667  0.027770  0.650028  1
  Cl  Cl18  1  0.756333  0.972230  0.349972  1
  Cl  Cl19  1  0.330607  0.163295  0.223132  1
  Cl  Cl20  1  0.669393  0.836705  0.776868  1
  Cl  Cl21  1  0.458722  0.375315  0.414265  1
  Cl  Cl22  1  0.541278  0.624685  0.585735  1
  Cl  Cl23  1  0.960946  0.437250  0.703052  1
  Cl  Cl24  1  0.039054  0.562750  0.296948  1
  Cl  Cl25  1  0.222257  0.912614  0.061768  1
  Cl  Cl26  1  0.777743  0.087386  0.938232  1
  Cl  Cl27  1  0.374122  0.276751  0.809580  1
  Cl  Cl28  1  0.625878  0.723249  0.190420  1
