# generated using pymatgen
data_PmNi4Rh
_symmetry_space_group_name_H-M   'P 1'
_cell_length_a   5.11163150
_cell_length_b   5.08865805
_cell_length_c   3.99706000
_cell_angle_alpha   90.00000000
_cell_angle_beta   90.00000000
_cell_angle_gamma   57.47966037
_symmetry_Int_Tables_number   1
_chemical_formula_structural   PmNi4Rh
_chemical_formula_sum   'Pm1 Ni4 Rh1'
_cell_volume   87.66664941
_cell_formula_units_Z   1
loop_
 _symmetry_equiv_pos_site_id
 _symmetry_equiv_pos_as_xyz
  1  'x, y, z'
loop_
 _atom_site_type_symbol
 _atom_site_label
 _atom_site_symmetry_multiplicity
 _atom_site_fract_x
 _atom_site_fract_y
 _atom_site_fract_z
 _atom_site_occupancy
  Pm  Pm0  1  0.999957  0.000030  0.000000  1
  Ni  Ni1  1  0.323349  0.323238  0.000000  1
  Ni  Ni2  1  0.676654  0.676720  0.000000  1
  Ni  Ni3  1  0.500173  0.000087  0.499999  1
  Ni  Ni4  1  0.000080  0.499780  0.499999  1
  Rh  Rh5  1  0.499780  0.500148  0.499999  1
