# generated using pymatgen
data_Hf3Zr5Nb2(GaSn3)2
_symmetry_space_group_name_H-M   'P 1'
_cell_length_a   8.63051601
_cell_length_b   8.63067546
_cell_length_c   5.80615202
_cell_angle_alpha   90.01044600
_cell_angle_beta   89.99477910
_cell_angle_gamma   120.00061972
_symmetry_Int_Tables_number   1
_chemical_formula_structural   Hf3Zr5Nb2(GaSn3)2
_chemical_formula_sum   'Hf3 Zr5 Nb2 Ga2 Sn6'
_cell_volume   374.53970473
_cell_formula_units_Z   1
loop_
 _symmetry_equiv_pos_site_id
 _symmetry_equiv_pos_as_xyz
  1  'x, y, z'
loop_
 _atom_site_type_symbol
 _atom_site_label
 _atom_site_symmetry_multiplicity
 _atom_site_fract_x
 _atom_site_fract_y
 _atom_site_fract_z
 _atom_site_occupancy
  Hf  Hf0  1  0.000000  0.731465  0.249547  1
  Hf  Hf1  1  0.333150  0.666733  0.499635  1
  Hf  Hf2  1  0.666850  0.333582  0.499635  1
  Zr  Zr3  1  0.732616  0.732155  0.750387  1
  Zr  Zr4  1  0.267384  0.999539  0.750387  1
  Zr  Zr5  1  0.000000  0.267638  0.750065  1
  Zr  Zr6  1  0.268004  0.268333  0.249724  1
  Zr  Zr7  1  0.731996  0.000329  0.249724  1
  Nb  Nb8  1  0.666911  0.333813  0.000281  1
  Nb  Nb9  1  0.333089  0.666903  0.000281  1
  Ga  Ga10  1  0.000000  0.999414  0.001133  1
  Ga  Ga11  1  0.000000  0.999574  0.499032  1
  Sn  Sn12  1  0.389879  0.389922  0.753633  1
  Sn  Sn13  1  0.610121  0.000043  0.753633  1
  Sn  Sn14  1  0.000000  0.609956  0.753797  1
  Sn  Sn15  1  0.610761  0.610416  0.246373  1
  Sn  Sn16  1  0.389239  0.999655  0.246373  1
  Sn  Sn17  1  0.000000  0.390530  0.246359  1
