# generated using pymatgen
data_PuZrCl6
_symmetry_space_group_name_H-M   'P 1'
_cell_length_a   6.81771521
_cell_length_b   6.81416335
_cell_length_c   13.15923544
_cell_angle_alpha   90.01771701
_cell_angle_beta   89.97135467
_cell_angle_gamma   120.01102293
_symmetry_Int_Tables_number   1
_chemical_formula_structural   PuZrCl6
_chemical_formula_sum   'Pu2 Zr2 Cl12'
_cell_volume   529.37616085
_cell_formula_units_Z   2
loop_
 _symmetry_equiv_pos_site_id
 _symmetry_equiv_pos_as_xyz
  1  'x, y, z'
loop_
 _atom_site_type_symbol
 _atom_site_label
 _atom_site_symmetry_multiplicity
 _atom_site_fract_x
 _atom_site_fract_y
 _atom_site_fract_z
 _atom_site_occupancy
  Pu  Pu0  1  0.999951  0.999901  0.250003  1
  Pu  Pu1  1  0.000049  0.000099  0.749997  1
  Zr  Zr2  1  0.333351  0.666702  0.250001  1
  Zr  Zr3  1  0.666649  0.333298  0.749999  1
  Cl  Cl4  1  0.639336  0.967720  0.139068  1
  Cl  Cl5  1  0.032563  0.671448  0.139068  1
  Cl  Cl6  1  0.328487  0.360812  0.139009  1
  Cl  Cl7  1  0.032352  0.360842  0.360985  1
  Cl  Cl8  1  0.361118  0.328565  0.639064  1
  Cl  Cl9  1  0.671621  0.032265  0.639056  1
  Cl  Cl10  1  0.967648  0.639158  0.639015  1
  Cl  Cl11  1  0.671513  0.639188  0.860991  1
  Cl  Cl12  1  0.967437  0.328552  0.860932  1
  Cl  Cl13  1  0.360664  0.032280  0.860932  1
  Cl  Cl14  1  0.638882  0.671435  0.360936  1
  Cl  Cl15  1  0.328379  0.967735  0.360944  1
