# generated using pymatgen
data_Rb2InGa3F12
_symmetry_space_group_name_H-M   'P 1'
_cell_length_a   7.46928753
_cell_length_b   7.46928676
_cell_length_c   12.83003400
_cell_angle_alpha   73.47586201
_cell_angle_beta   73.47586375
_cell_angle_gamma   59.86851626
_symmetry_Int_Tables_number   1
_chemical_formula_structural   Rb2InGa3F12
_chemical_formula_sum   'Rb4 In2 Ga6 F24'
_cell_volume   584.77831818
_cell_formula_units_Z   2
loop_
 _symmetry_equiv_pos_site_id
 _symmetry_equiv_pos_as_xyz
  1  'x, y, z'
loop_
 _atom_site_type_symbol
 _atom_site_label
 _atom_site_symmetry_multiplicity
 _atom_site_fract_x
 _atom_site_fract_y
 _atom_site_fract_z
 _atom_site_occupancy
  Rb  Rb0  1  0.894750  0.476720  0.685854  1
  Rb  Rb1  1  0.105250  0.523280  0.314146  1
  Rb  Rb2  1  0.523280  0.105250  0.814146  1
  Rb  Rb3  1  0.476720  0.894750  0.185854  1
  In  In4  1  0.227509  0.772491  0.750000  1
  In  In5  1  0.772491  0.227509  0.250000  1
  Ga  Ga6  1  0.500000  0.000000  0.500000  1
  Ga  Ga7  1  0.000000  0.500000  0.000000  1
  Ga  Ga8  1  0.000000  0.000000  0.500000  1
  Ga  Ga9  1  0.000000  0.000000  0.000000  1
  Ga  Ga10  1  0.500000  0.500000  0.500000  1
  Ga  Ga11  1  0.500000  0.500000  0.000000  1
  F  F12  1  0.879510  0.979072  0.647027  1
  F  F13  1  0.525046  0.890313  0.647673  1
  F  F14  1  0.279106  0.411613  0.029635  1
  F  F15  1  0.695713  0.195179  0.029255  1
  F  F16  1  0.890313  0.525046  0.147673  1
  F  F17  1  0.109687  0.474954  0.852327  1
  F  F18  1  0.474954  0.109687  0.352327  1
  F  F19  1  0.804821  0.304287  0.470745  1
  F  F20  1  0.120490  0.020928  0.352973  1
  F  F21  1  0.588387  0.720894  0.470365  1
  F  F22  1  0.451292  0.514438  0.147137  1
  F  F23  1  0.411613  0.279106  0.529635  1
  F  F24  1  0.514438  0.451292  0.647137  1
  F  F25  1  0.803796  0.926532  0.464354  1
  F  F26  1  0.196204  0.073468  0.535646  1
  F  F27  1  0.548708  0.485562  0.852863  1
  F  F28  1  0.926532  0.803796  0.964354  1
  F  F29  1  0.485562  0.548708  0.352863  1
  F  F30  1  0.720894  0.588387  0.970365  1
  F  F31  1  0.979072  0.879510  0.147027  1
  F  F32  1  0.073468  0.196204  0.035646  1
  F  F33  1  0.304287  0.804821  0.970745  1
  F  F34  1  0.020928  0.120490  0.852973  1
  F  F35  1  0.195179  0.695713  0.529255  1
