# generated using pymatgen
data_Pr2AlIn2Cu9
_symmetry_space_group_name_H-M   'P 1'
_cell_length_a   5.10879800
_cell_length_b   8.36011946
_cell_length_c   10.73879051
_cell_angle_alpha   89.96326281
_cell_angle_beta   90.00000000
_cell_angle_gamma   90.00000000
_symmetry_Int_Tables_number   1
_chemical_formula_structural   Pr2AlIn2Cu9
_chemical_formula_sum   'Pr4 Al2 In4 Cu18'
_cell_volume   458.65538373
_cell_formula_units_Z   2
loop_
 _symmetry_equiv_pos_site_id
 _symmetry_equiv_pos_as_xyz
  1  'x, y, z'
loop_
 _atom_site_type_symbol
 _atom_site_label
 _atom_site_symmetry_multiplicity
 _atom_site_fract_x
 _atom_site_fract_y
 _atom_site_fract_z
 _atom_site_occupancy
  Pr  Pr0  1  0.250000  0.753197  0.062674  1
  Pr  Pr1  1  0.750000  0.246803  0.937326  1
  Pr  Pr2  1  0.750000  0.744141  0.552246  1
  Pr  Pr3  1  0.250000  0.255859  0.447754  1
  Al  Al4  1  0.250000  0.815296  0.741094  1
  Al  Al5  1  0.750000  0.184704  0.258906  1
  In  In6  1  0.250000  0.637398  0.361020  1
  In  In7  1  0.750000  0.362602  0.638980  1
  In  In8  1  0.750000  0.860409  0.864142  1
  In  In9  1  0.250000  0.139591  0.135858  1
  Cu  Cu10  1  0.750000  0.683099  0.243868  1
  Cu  Cu11  1  0.250000  0.316901  0.756132  1
  Cu  Cu12  1  0.501602  0.567033  0.812461  1
  Cu  Cu13  1  0.498398  0.432967  0.187539  1
  Cu  Cu14  1  0.497735  0.933584  0.312588  1
  Cu  Cu15  1  0.001602  0.432967  0.187539  1
  Cu  Cu16  1  0.502265  0.066416  0.687412  1
  Cu  Cu17  1  0.998398  0.567033  0.812461  1
  Cu  Cu18  1  0.997735  0.066416  0.687412  1
  Cu  Cu19  1  0.002265  0.933584  0.312588  1
  Cu  Cu20  1  0.250000  0.558691  0.606488  1
  Cu  Cu21  1  0.750000  0.441309  0.393512  1
  Cu  Cu22  1  0.750000  0.942028  0.107309  1
  Cu  Cu23  1  0.250000  0.057972  0.892691  1
  Cu  Cu24  1  0.250000  0.914406  0.516059  1
  Cu  Cu25  1  0.750000  0.085594  0.483941  1
  Cu  Cu26  1  0.750000  0.583030  0.016336  1
  Cu  Cu27  1  0.250000  0.416970  0.983664  1
