# generated using pymatgen
data_LuScTa4(B2Ru5)2
_symmetry_space_group_name_H-M   'P 1'
_cell_length_a   9.48033440
_cell_length_b   9.48033401
_cell_length_c   3.08016400
_cell_angle_alpha   90.00000000
_cell_angle_beta   90.00000000
_cell_angle_gamma   90.20506100
_symmetry_Int_Tables_number   1
_chemical_formula_structural   LuScTa4(B2Ru5)2
_chemical_formula_sum   'Lu1 Sc1 Ta4 B4 Ru10'
_cell_volume   276.83331550
_cell_formula_units_Z   1
loop_
 _symmetry_equiv_pos_site_id
 _symmetry_equiv_pos_as_xyz
  1  'x, y, z'
loop_
 _atom_site_type_symbol
 _atom_site_label
 _atom_site_symmetry_multiplicity
 _atom_site_fract_x
 _atom_site_fract_y
 _atom_site_fract_z
 _atom_site_occupancy
  Lu  Lu0  1  0.825176  0.674824  0.000000  1
  Sc  Sc1  1  0.175920  0.324080  0.000000  1
  Ta  Ta2  1  0.323432  0.823446  0.000000  1
  Ta  Ta3  1  0.676554  0.176568  0.000000  1
  Ta  Ta4  1  0.498984  0.499447  0.000000  1
  Ta  Ta5  1  0.000553  0.001016  0.000000  1
  B  B6  1  0.621049  0.878951  0.000000  1
  B  B7  1  0.376805  0.123195  0.000000  1
  B  B8  1  0.120854  0.619279  0.000000  1
  B  B9  1  0.880721  0.379146  0.000000  1
  Ru  Ru10  1  0.560649  0.722355  0.500000  1
  Ru  Ru11  1  0.436075  0.279154  0.500000  1
  Ru  Ru12  1  0.080186  0.784688  0.500000  1
  Ru  Ru13  1  0.921830  0.215272  0.500000  1
  Ru  Ru14  1  0.284728  0.578170  0.500000  1
  Ru  Ru15  1  0.715312  0.419814  0.500000  1
  Ru  Ru16  1  0.220846  0.063925  0.500000  1
  Ru  Ru17  1  0.777645  0.939351  0.500000  1
  Ru  Ru18  1  0.499152  0.000848  0.500000  1
  Ru  Ru19  1  0.003527  0.496473  0.500000  1
