# generated using pymatgen
data_Th3Al3IrPd2
_symmetry_space_group_name_H-M   'P 1'
_cell_length_a   7.30489800
_cell_length_b   7.30489779
_cell_length_c   4.17513700
_cell_angle_alpha   90.00000000
_cell_angle_beta   90.00000000
_cell_angle_gamma   120.00000094
_symmetry_Int_Tables_number   1
_chemical_formula_structural   Th3Al3IrPd2
_chemical_formula_sum   'Th3 Al3 Ir1 Pd2'
_cell_volume   192.94328046
_cell_formula_units_Z   1
loop_
 _symmetry_equiv_pos_site_id
 _symmetry_equiv_pos_as_xyz
  1  'x, y, z'
loop_
 _atom_site_type_symbol
 _atom_site_label
 _atom_site_symmetry_multiplicity
 _atom_site_fract_x
 _atom_site_fract_y
 _atom_site_fract_z
 _atom_site_occupancy
  Th  Th0  1  0.424640  0.006644  0.500000  1
  Th  Th1  1  0.993356  0.417996  0.500000  1
  Th  Th2  1  0.582004  0.575360  0.500000  1
  Al  Al3  1  0.767822  0.002570  0.000000  1
  Al  Al4  1  0.997430  0.765253  0.000000  1
  Al  Al5  1  0.234747  0.232178  0.000000  1
  Ir  Ir6  1  0.666667  0.333333  0.000000  1
  Pd  Pd7  1  0.333333  0.666667  0.000000  1
  Pd  Pd8  1  0.000000  0.000000  0.500000  1
