# generated using pymatgen
data_DyEr11InFe4Au
_symmetry_space_group_name_H-M   'P 1'
_cell_length_a   8.28697113
_cell_length_b   8.28697196
_cell_length_c   8.28653942
_cell_angle_alpha   111.01058722
_cell_angle_beta   110.75984161
_cell_angle_gamma   106.68113022
_symmetry_Int_Tables_number   1
_chemical_formula_structural   DyEr11InFe4Au
_chemical_formula_sum   'Dy1 Er11 In1 Fe4 Au1'
_cell_volume   437.28034539
_cell_formula_units_Z   1
loop_
 _symmetry_equiv_pos_site_id
 _symmetry_equiv_pos_as_xyz
  1  'x, y, z'
loop_
 _atom_site_type_symbol
 _atom_site_label
 _atom_site_symmetry_multiplicity
 _atom_site_fract_x
 _atom_site_fract_y
 _atom_site_fract_z
 _atom_site_occupancy
  Dy  Dy0  1  0.187417  0.290207  0.477625  1
  Er  Er1  1  0.812855  0.709783  0.522638  1
  Er  Er2  1  0.187120  0.710092  0.897212  1
  Er  Er3  1  0.812308  0.290262  0.102568  1
  Er  Er4  1  0.314377  0.616488  0.301750  1
  Er  Er5  1  0.686217  0.383868  0.698200  1
  Er  Er6  1  0.314333  0.011982  0.698200  1
  Er  Er7  1  0.685262  0.987373  0.301750  1
  Er  Er8  1  0.426788  0.222033  0.204051  1
  Er  Er9  1  0.574334  0.778877  0.796254  1
  Er  Er10  1  0.017377  0.221921  0.796254  1
  Er  Er11  1  0.982018  0.777264  0.204051  1
  In  In12  1  0.500132  0.500008  0.000140  1
  Fe  Fe13  1  0.108085  0.608997  0.499963  1
  Fe  Fe14  1  0.890966  0.391878  0.499963  1
  Fe  Fe15  1  0.384421  0.999491  0.383911  1
  Fe  Fe16  1  0.615978  0.000100  0.616079  1
  Au  Au17  1  0.000011  0.999376  0.999387  1
