# generated using pymatgen
data_Dy5Zr3SiP11Ir16
_symmetry_space_group_name_H-M   'P 1'
_cell_length_a   12.92476734
_cell_length_b   12.91154910
_cell_length_c   3.97909300
_cell_angle_alpha   90.00000000
_cell_angle_beta   90.00000000
_cell_angle_gamma   120.21068061
_symmetry_Int_Tables_number   1
_chemical_formula_structural   Dy5Zr3SiP11Ir16
_chemical_formula_sum   'Dy5 Zr3 Si1 P11 Ir16'
_cell_volume   573.83878400
_cell_formula_units_Z   1
loop_
 _symmetry_equiv_pos_site_id
 _symmetry_equiv_pos_as_xyz
  1  'x, y, z'
loop_
 _atom_site_type_symbol
 _atom_site_label
 _atom_site_symmetry_multiplicity
 _atom_site_fract_x
 _atom_site_fract_y
 _atom_site_fract_z
 _atom_site_occupancy
  Dy  Dy0  1  0.333569  0.666620  0.500000  1
  Dy  Dy1  1  0.667185  0.333884  0.500000  1
  Dy  Dy2  1  0.001045  0.814465  0.000000  1
  Dy  Dy3  1  0.184941  0.185551  0.000000  1
  Dy  Dy4  1  0.812357  0.999578  0.000000  1
  Zr  Zr5  1  0.999780  0.448190  0.500000  1
  Zr  Zr6  1  0.552828  0.550164  0.500000  1
  Zr  Zr7  1  0.447485  0.002256  0.500000  1
  Si  Si8  1  0.517829  0.687954  0.000000  1
  P  P9  1  0.000127  0.648201  0.500000  1
  P  P10  1  0.349192  0.351992  0.500000  1
  P  P11  1  0.645887  0.997271  0.500000  1
  P  P12  1  0.314625  0.831047  0.000000  1
  P  P13  1  0.170578  0.481987  0.000000  1
  P  P14  1  0.482241  0.170642  0.000000  1
  P  P15  1  0.688398  0.518076  0.000000  1
  P  P16  1  0.830277  0.313079  0.000000  1
  P  P17  1  0.998188  0.175118  0.500000  1
  P  P18  1  0.823212  0.823444  0.500000  1
  P  P19  1  0.175920  0.999631  0.500000  1
  Ir  Ir20  1  0.512729  0.872776  0.000000  1
  Ir  Ir21  1  0.137029  0.642826  0.000000  1
  Ir  Ir22  1  0.355216  0.485921  0.000000  1
  Ir  Ir23  1  0.494114  0.357481  0.000000  1
  Ir  Ir24  1  0.865815  0.508187  0.000000  1
  Ir  Ir25  1  0.642413  0.137755  0.000000  1
  Ir  Ir26  1  0.998606  0.277269  0.000000  1
  Ir  Ir27  1  0.725374  0.722459  0.000000  1
  Ir  Ir28  1  0.277731  0.000043  0.000000  1
  Ir  Ir29  1  0.628705  0.806144  0.500000  1
  Ir  Ir30  1  0.192821  0.821441  0.500000  1
  Ir  Ir31  1  0.175758  0.370046  0.500000  1
  Ir  Ir32  1  0.369497  0.179213  0.500000  1
  Ir  Ir33  1  0.808274  0.628139  0.500000  1
  Ir  Ir34  1  0.820242  0.191211  0.500000  1
  Ir  Ir35  1  0.000011  0.999939  0.500000  1
