# generated using pymatgen
data_Lu5Ru2Pb
_symmetry_space_group_name_H-M   'P 1'
_cell_length_a   8.63032351
_cell_length_b   8.63032284
_cell_length_c   8.63032190
_cell_angle_alpha   127.86233147
_cell_angle_beta   127.86232128
_cell_angle_gamma   76.84815670
_symmetry_Int_Tables_number   1
_chemical_formula_structural   Lu5Ru2Pb
_chemical_formula_sum   'Lu10 Ru4 Pb2'
_cell_volume   389.01187885
_cell_formula_units_Z   2
loop_
 _symmetry_equiv_pos_site_id
 _symmetry_equiv_pos_as_xyz
  1  'x, y, z'
loop_
 _atom_site_type_symbol
 _atom_site_label
 _atom_site_symmetry_multiplicity
 _atom_site_fract_x
 _atom_site_fract_y
 _atom_site_fract_z
 _atom_site_occupancy
  Lu  Lu0  1  0.000000  0.000000  0.000000  1
  Lu  Lu1  1  0.500000  0.500000  0.000000  1
  Lu  Lu2  1  0.786741  0.286741  0.812313  1
  Lu  Lu3  1  0.213259  0.713259  0.187687  1
  Lu  Lu4  1  0.474429  0.974429  0.187687  1
  Lu  Lu5  1  0.286741  0.474429  0.500000  1
  Lu  Lu6  1  0.025571  0.213259  0.500000  1
  Lu  Lu7  1  0.525571  0.025571  0.812313  1
  Lu  Lu8  1  0.713259  0.525571  0.500000  1
  Lu  Lu9  1  0.974429  0.786741  0.500000  1
  Ru  Ru10  1  0.141670  0.641670  0.783340  1
  Ru  Ru11  1  0.858330  0.358330  0.216660  1
  Ru  Ru12  1  0.641670  0.858330  0.500000  1
  Ru  Ru13  1  0.358330  0.141670  0.500000  1
  Pb  Pb14  1  0.250000  0.250000  0.000000  1
  Pb  Pb15  1  0.750000  0.750000  0.000000  1
