# generated using pymatgen
data_YbTh3(BiPt2)2
_symmetry_space_group_name_H-M   'P 1'
_cell_length_a   8.05840051
_cell_length_b   8.05839974
_cell_length_c   7.57807900
_cell_angle_alpha   90.00000000
_cell_angle_beta   90.00000000
_cell_angle_gamma   90.91016799
_symmetry_Int_Tables_number   1
_chemical_formula_structural   YbTh3(BiPt2)2
_chemical_formula_sum   'Yb2 Th6 Bi4 Pt8'
_cell_volume   492.04178446
_cell_formula_units_Z   2
loop_
 _symmetry_equiv_pos_site_id
 _symmetry_equiv_pos_as_xyz
  1  'x, y, z'
loop_
 _atom_site_type_symbol
 _atom_site_label
 _atom_site_symmetry_multiplicity
 _atom_site_fract_x
 _atom_site_fract_y
 _atom_site_fract_z
 _atom_site_occupancy
  Yb  Yb0  1  0.839660  0.160340  0.000000  1
  Yb  Yb1  1  0.160340  0.839660  0.000000  1
  Th  Th2  1  0.677380  0.677380  0.000000  1
  Th  Th3  1  0.334588  0.334588  0.500000  1
  Th  Th4  1  0.825282  0.174718  0.500000  1
  Th  Th5  1  0.665412  0.665412  0.500000  1
  Th  Th6  1  0.322620  0.322620  0.000000  1
  Th  Th7  1  0.174718  0.825282  0.500000  1
  Bi  Bi8  1  0.500000  0.000000  0.754860  1
  Bi  Bi9  1  0.500000  0.000000  0.245140  1
  Bi  Bi10  1  0.000000  0.500000  0.754860  1
  Bi  Bi11  1  0.000000  0.500000  0.245140  1
  Pt  Pt12  1  0.872286  0.872286  0.733568  1
  Pt  Pt13  1  0.127714  0.127714  0.733568  1
  Pt  Pt14  1  0.625998  0.374002  0.762428  1
  Pt  Pt15  1  0.625998  0.374002  0.237572  1
  Pt  Pt16  1  0.374002  0.625998  0.237572  1
  Pt  Pt17  1  0.127714  0.127714  0.266432  1
  Pt  Pt18  1  0.872286  0.872286  0.266432  1
  Pt  Pt19  1  0.374002  0.625998  0.762428  1
