# generated using pymatgen
data_Tb2Y5(ErPb2)3
_symmetry_space_group_name_H-M   'P 1'
_cell_length_a   9.06523003
_cell_length_b   9.06228186
_cell_length_c   6.64253800
_cell_angle_alpha   89.99910824
_cell_angle_beta   90.00084610
_cell_angle_gamma   119.98881406
_symmetry_Int_Tables_number   1
_chemical_formula_structural   Tb2Y5(ErPb2)3
_chemical_formula_sum   'Tb2 Y5 Er3 Pb6'
_cell_volume   472.63950093
_cell_formula_units_Z   1
loop_
 _symmetry_equiv_pos_site_id
 _symmetry_equiv_pos_as_xyz
  1  'x, y, z'
loop_
 _atom_site_type_symbol
 _atom_site_label
 _atom_site_symmetry_multiplicity
 _atom_site_fract_x
 _atom_site_fract_y
 _atom_site_fract_z
 _atom_site_occupancy
  Tb  Tb0  1  0.666644  0.333313  0.500036  1
  Tb  Tb1  1  0.000061  0.761363  0.249810  1
  Y  Y2  1  0.761180  0.761217  0.750194  1
  Y  Y3  1  0.238786  0.999934  0.750197  1
  Y  Y4  1  0.000058  0.238721  0.750196  1
  Y  Y5  1  0.238713  0.238766  0.249816  1
  Y  Y6  1  0.761244  0.999956  0.249819  1
  Er  Er7  1  0.666653  0.333327  0.999944  1
  Er  Er8  1  0.333284  0.666641  0.999969  1
  Er  Er9  1  0.333312  0.666613  0.500026  1
  Pb  Pb10  1  0.394653  0.395615  0.750936  1
  Pb  Pb11  1  0.604443  0.999122  0.750920  1
  Pb  Pb12  1  0.000947  0.605442  0.750907  1
  Pb  Pb13  1  0.604005  0.605188  0.249080  1
  Pb  Pb14  1  0.395087  0.999295  0.249062  1
  Pb  Pb15  1  0.000929  0.395488  0.249087  1
