# generated using pymatgen
data_TbNd2Fe(Co4P3)2
_symmetry_space_group_name_H-M   'P 1'
_cell_length_a   3.74697300
_cell_length_b   10.61617500
_cell_length_c   12.31229400
_cell_angle_alpha   90.00000000
_cell_angle_beta   90.00000000
_cell_angle_gamma   90.00000000
_symmetry_Int_Tables_number   1
_chemical_formula_structural   TbNd2Fe(Co4P3)2
_chemical_formula_sum   'Tb2 Nd4 Fe2 Co16 P12'
_cell_volume   489.76484652
_cell_formula_units_Z   2
loop_
 _symmetry_equiv_pos_site_id
 _symmetry_equiv_pos_as_xyz
  1  'x, y, z'
loop_
 _atom_site_type_symbol
 _atom_site_label
 _atom_site_symmetry_multiplicity
 _atom_site_fract_x
 _atom_site_fract_y
 _atom_site_fract_z
 _atom_site_occupancy
  Tb  Tb0  1  0.500000  0.818137  0.204727  1
  Tb  Tb1  1  0.500000  0.181863  0.204727  1
  Nd  Nd2  1  0.000000  0.500000  0.520414  1
  Nd  Nd3  1  0.500000  0.000000  0.477951  1
  Nd  Nd4  1  0.000000  0.682472  0.795131  1
  Nd  Nd5  1  0.000000  0.317528  0.795131  1
  Fe  Fe6  1  0.500000  0.500000  0.155707  1
  Fe  Fe7  1  0.000000  0.000000  0.845521  1
  Co  Co8  1  0.500000  0.500000  0.703487  1
  Co  Co9  1  0.000000  0.000000  0.295412  1
  Co  Co10  1  0.000000  0.500000  0.990203  1
  Co  Co11  1  0.500000  0.000000  0.015601  1
  Co  Co12  1  0.500000  0.331989  0.997377  1
  Co  Co13  1  0.500000  0.668011  0.997377  1
  Co  Co14  1  0.000000  0.165678  0.007117  1
  Co  Co15  1  0.000000  0.834322  0.007117  1
  Co  Co16  1  0.500000  0.296082  0.427560  1
  Co  Co17  1  0.500000  0.703918  0.427560  1
  Co  Co18  1  0.000000  0.203136  0.567861  1
  Co  Co19  1  0.000000  0.796864  0.567861  1
  Co  Co20  1  0.500000  0.880956  0.710146  1
  Co  Co21  1  0.500000  0.119044  0.710146  1
  Co  Co22  1  0.000000  0.620553  0.287803  1
  Co  Co23  1  0.000000  0.379447  0.287803  1
  P  P24  1  0.500000  0.500000  0.887976  1
  P  P25  1  0.000000  0.000000  0.117630  1
  P  P26  1  0.500000  0.500000  0.337794  1
  P  P27  1  0.000000  0.000000  0.661545  1
  P  P28  1  0.500000  0.305618  0.613095  1
  P  P29  1  0.500000  0.694382  0.613095  1
  P  P30  1  0.000000  0.192814  0.381891  1
  P  P31  1  0.000000  0.807186  0.381891  1
  P  P32  1  0.500000  0.849722  0.895815  1
  P  P33  1  0.500000  0.150278  0.895815  1
  P  P34  1  0.000000  0.654142  0.106858  1
  P  P35  1  0.000000  0.345858  0.106858  1
