# generated using pymatgen
data_La2Ce2LuCo2
_symmetry_space_group_name_H-M   'P 1'
_cell_length_a   8.87456325
_cell_length_b   8.87456304
_cell_length_c   6.73156000
_cell_angle_alpha   86.27911592
_cell_angle_beta   86.27912247
_cell_angle_gamma   41.70219442
_symmetry_Int_Tables_number   1
_chemical_formula_structural   La2Ce2LuCo2
_chemical_formula_sum   'La4 Ce4 Lu2 Co4'
_cell_volume   351.84444352
_cell_formula_units_Z   2
loop_
 _symmetry_equiv_pos_site_id
 _symmetry_equiv_pos_as_xyz
  1  'x, y, z'
loop_
 _atom_site_type_symbol
 _atom_site_label
 _atom_site_symmetry_multiplicity
 _atom_site_fract_x
 _atom_site_fract_y
 _atom_site_fract_z
 _atom_site_occupancy
  La  La0  1  0.356545  0.219070  0.838899  1
  La  La1  1  0.780930  0.643455  0.661101  1
  La  La2  1  0.643455  0.780930  0.161101  1
  La  La3  1  0.219070  0.356545  0.338899  1
  Ce  Ce4  1  0.012655  0.810220  0.895967  1
  Ce  Ce5  1  0.189780  0.987345  0.604033  1
  Ce  Ce6  1  0.987345  0.189780  0.104033  1
  Ce  Ce7  1  0.810220  0.012655  0.395967  1
  Lu  Lu8  1  0.579840  0.420160  0.750000  1
  Lu  Lu9  1  0.420160  0.579840  0.250000  1
  Co  Co10  1  0.166924  0.632250  0.597447  1
  Co  Co11  1  0.367750  0.833076  0.902553  1
  Co  Co12  1  0.833076  0.367750  0.402553  1
  Co  Co13  1  0.632250  0.166924  0.097447  1
