# generated using pymatgen
data_Ac(AsPd)2
_symmetry_space_group_name_H-M   'P 1'
_cell_length_a   6.14786879
_cell_length_b   6.14786885
_cell_length_c   4.44541485
_cell_angle_alpha   68.51387100
_cell_angle_beta   68.51386886
_cell_angle_gamma   42.45096034
_symmetry_Int_Tables_number   1
_chemical_formula_structural   Ac(AsPd)2
_chemical_formula_sum   'Ac1 As2 Pd2'
_cell_volume   104.28517876
_cell_formula_units_Z   1
loop_
 _symmetry_equiv_pos_site_id
 _symmetry_equiv_pos_as_xyz
  1  'x, y, z'
loop_
 _atom_site_type_symbol
 _atom_site_label
 _atom_site_symmetry_multiplicity
 _atom_site_fract_x
 _atom_site_fract_y
 _atom_site_fract_z
 _atom_site_occupancy
  Ac  Ac0  1  0.999046  0.999046  0.997512  1
  As  As1  1  0.623182  0.623182  0.374811  1
  As  As2  1  0.374726  0.374726  0.620972  1
  Pd  Pd3  1  0.248971  0.248971  0.248218  1
  Pd  Pd4  1  0.749151  0.749151  0.747498  1
