# generated using pymatgen
data_DyNp(BIr)8
_symmetry_space_group_name_H-M   'P 1'
_cell_length_a   3.95764800
_cell_length_b   7.66271500
_cell_length_c   7.66271500
_cell_angle_alpha   90.00000000
_cell_angle_beta   90.00000000
_cell_angle_gamma   90.00000000
_symmetry_Int_Tables_number   1
_chemical_formula_structural   DyNp(BIr)8
_chemical_formula_sum   'Dy1 Np1 B8 Ir8'
_cell_volume   232.38201378
_cell_formula_units_Z   1
loop_
 _symmetry_equiv_pos_site_id
 _symmetry_equiv_pos_as_xyz
  1  'x, y, z'
loop_
 _atom_site_type_symbol
 _atom_site_label
 _atom_site_symmetry_multiplicity
 _atom_site_fract_x
 _atom_site_fract_y
 _atom_site_fract_z
 _atom_site_occupancy
  Dy  Dy0  1  0.250000  0.250000  0.250000  1
  Np  Np1  1  0.750000  0.750000  0.750000  1
  B  B2  1  0.359785  0.906101  0.026157  1
  B  B3  1  0.359785  0.593899  0.473843  1
  B  B4  1  0.865932  0.527492  0.091113  1
  B  B5  1  0.865932  0.972508  0.408887  1
  B  B6  1  0.634068  0.091113  0.972508  1
  B  B7  1  0.634068  0.408887  0.527492  1
  B  B8  1  0.140215  0.473843  0.906101  1
  B  B9  1  0.140215  0.026157  0.593899  1
  Ir  Ir10  1  0.132186  0.411643  0.641085  1
  Ir  Ir11  1  0.132186  0.088357  0.858915  1
  Ir  Ir12  1  0.639285  0.141879  0.587267  1
  Ir  Ir13  1  0.639285  0.358121  0.912733  1
  Ir  Ir14  1  0.860715  0.587267  0.358121  1
  Ir  Ir15  1  0.860715  0.912733  0.141879  1
  Ir  Ir16  1  0.367814  0.858915  0.411643  1
  Ir  Ir17  1  0.367814  0.641085  0.088357  1
