# generated using pymatgen
data_Lu9Mg(Co2Ag)2
_symmetry_space_group_name_H-M   'P 1'
_cell_length_a   8.28601036
_cell_length_b   8.28600985
_cell_length_c   8.28601100
_cell_angle_alpha   126.90508536
_cell_angle_beta   126.90508272
_cell_angle_gamma   78.40558588
_symmetry_Int_Tables_number   1
_chemical_formula_structural   Lu9Mg(Co2Ag)2
_chemical_formula_sum   'Lu9 Mg1 Co4 Ag2'
_cell_volume   352.24603712
_cell_formula_units_Z   1
loop_
 _symmetry_equiv_pos_site_id
 _symmetry_equiv_pos_as_xyz
  1  'x, y, z'
loop_
 _atom_site_type_symbol
 _atom_site_label
 _atom_site_symmetry_multiplicity
 _atom_site_fract_x
 _atom_site_fract_y
 _atom_site_fract_z
 _atom_site_occupancy
  Lu  Lu0  1  0.500000  0.500000  0.000000  1
  Lu  Lu1  1  0.802584  0.284167  0.824541  1
  Lu  Lu2  1  0.197416  0.715833  0.175459  1
  Lu  Lu3  1  0.459626  0.978043  0.175459  1
  Lu  Lu4  1  0.284167  0.459626  0.481584  1
  Lu  Lu5  1  0.021957  0.197416  0.481584  1
  Lu  Lu6  1  0.540374  0.021957  0.824541  1
  Lu  Lu7  1  0.715833  0.540374  0.518416  1
  Lu  Lu8  1  0.978043  0.802584  0.518416  1
  Mg  Mg9  1  0.000000  0.000000  0.000000  1
  Co  Co10  1  0.137299  0.626621  0.763920  1
  Co  Co11  1  0.862701  0.373379  0.236080  1
  Co  Co12  1  0.626621  0.862701  0.489321  1
  Co  Co13  1  0.373379  0.137299  0.510679  1
  Ag  Ag14  1  0.255378  0.255378  0.000000  1
  Ag  Ag15  1  0.744622  0.744622  0.000000  1
