# generated using pymatgen
data_Ho8AlSi11Pt4
_symmetry_space_group_name_H-M   'P 1'
_cell_length_a   8.21188504
_cell_length_b   8.21188497
_cell_length_c   7.89908551
_cell_angle_alpha   90.06116174
_cell_angle_beta   89.93883732
_cell_angle_gamma   119.90412201
_symmetry_Int_Tables_number   1
_chemical_formula_structural   Ho8AlSi11Pt4
_chemical_formula_sum   'Ho8 Al1 Si11 Pt4'
_cell_volume   461.75500296
_cell_formula_units_Z   1
loop_
 _symmetry_equiv_pos_site_id
 _symmetry_equiv_pos_as_xyz
  1  'x, y, z'
loop_
 _atom_site_type_symbol
 _atom_site_label
 _atom_site_symmetry_multiplicity
 _atom_site_fract_x
 _atom_site_fract_y
 _atom_site_fract_z
 _atom_site_occupancy
  Ho  Ho0  1  0.997684  0.002316  0.248282  1
  Ho  Ho1  1  0.998195  0.001805  0.750862  1
  Ho  Ho2  1  0.510614  0.489386  0.250573  1
  Ho  Ho3  1  0.511769  0.021187  0.250362  1
  Ho  Ho4  1  0.978813  0.488231  0.250362  1
  Ho  Ho5  1  0.489887  0.510113  0.749026  1
  Ho  Ho6  1  0.493508  0.981876  0.750704  1
  Ho  Ho7  1  0.018124  0.506492  0.750704  1
  Al  Al8  1  0.166327  0.833673  0.497558  1
  Si  Si9  1  0.165129  0.330958  0.498478  1
  Si  Si10  1  0.669042  0.834871  0.498478  1
  Si  Si11  1  0.834824  0.165176  0.501098  1
  Si  Si12  1  0.831521  0.668607  0.501463  1
  Si  Si13  1  0.331393  0.168479  0.501463  1
  Si  Si14  1  0.835062  0.164938  0.999253  1
  Si  Si15  1  0.834685  0.669401  0.999337  1
  Si  Si16  1  0.330599  0.165315  0.999337  1
  Si  Si17  1  0.164873  0.835127  0.000618  1
  Si  Si18  1  0.165731  0.330577  0.001018  1
  Si  Si19  1  0.669423  0.834269  0.001018  1
  Pt  Pt20  1  0.335895  0.664105  0.464938  1
  Pt  Pt21  1  0.667135  0.332865  0.535068  1
  Pt  Pt22  1  0.666451  0.333549  0.965411  1
  Pt  Pt23  1  0.333315  0.666685  0.034587  1
