# generated using pymatgen
data_HoEr3(TaOs3)2
_symmetry_space_group_name_H-M   'P 1'
_cell_length_a   5.55164000
_cell_length_b   5.55163940
_cell_length_c   8.44919300
_cell_angle_alpha   90.00000000
_cell_angle_beta   90.00000000
_cell_angle_gamma   120.00001551
_symmetry_Int_Tables_number   1
_chemical_formula_structural   HoEr3(TaOs3)2
_chemical_formula_sum   'Ho1 Er3 Ta2 Os6'
_cell_volume   225.52170163
_cell_formula_units_Z   1
loop_
 _symmetry_equiv_pos_site_id
 _symmetry_equiv_pos_as_xyz
  1  'x, y, z'
loop_
 _atom_site_type_symbol
 _atom_site_label
 _atom_site_symmetry_multiplicity
 _atom_site_fract_x
 _atom_site_fract_y
 _atom_site_fract_z
 _atom_site_occupancy
  Ho  Ho0  1  0.333333  0.666667  0.065555  1
  Er  Er1  1  0.333333  0.666667  0.434521  1
  Er  Er2  1  0.666667  0.333333  0.565510  1
  Er  Er3  1  0.666667  0.333333  0.934474  1
  Ta  Ta4  1  0.000000  0.000000  0.500011  1
  Ta  Ta5  1  0.000000  0.000000  0.000021  1
  Os  Os6  1  0.826238  0.173762  0.250040  1
  Os  Os7  1  0.826238  0.652476  0.250040  1
  Os  Os8  1  0.347524  0.173762  0.250040  1
  Os  Os9  1  0.173720  0.826280  0.749929  1
  Os  Os10  1  0.173720  0.347440  0.749929  1
  Os  Os11  1  0.652560  0.826280  0.749929  1
