# generated using pymatgen
data_Nd6Al24Os5PdPt2
_symmetry_space_group_name_H-M   'P 1'
_cell_length_a   8.91390277
_cell_length_b   8.89590630
_cell_length_c   9.68239306
_cell_angle_alpha   90.04051911
_cell_angle_beta   90.00463336
_cell_angle_gamma   119.44898205
_symmetry_Int_Tables_number   1
_chemical_formula_structural   Nd6Al24Os5PdPt2
_chemical_formula_sum   'Nd6 Al24 Os5 Pd1 Pt2'
_cell_volume   668.58399914
_cell_formula_units_Z   1
loop_
 _symmetry_equiv_pos_site_id
 _symmetry_equiv_pos_as_xyz
  1  'x, y, z'
loop_
 _atom_site_type_symbol
 _atom_site_label
 _atom_site_symmetry_multiplicity
 _atom_site_fract_x
 _atom_site_fract_y
 _atom_site_fract_z
 _atom_site_occupancy
  Nd  Nd0  1  0.186798  0.383198  0.251733  1
  Nd  Nd1  1  0.813202  0.616802  0.748267  1
  Nd  Nd2  1  0.619236  0.811861  0.249338  1
  Nd  Nd3  1  0.380764  0.188139  0.750662  1
  Nd  Nd4  1  0.189441  0.808351  0.249303  1
  Nd  Nd5  1  0.810559  0.191649  0.750697  1
  Al  Al6  1  0.328734  0.664714  0.023800  1
  Al  Al7  1  0.671266  0.335286  0.976200  1
  Al  Al8  1  0.669264  0.329863  0.524246  1
  Al  Al9  1  0.330736  0.670137  0.475754  1
  Al  Al10  1  0.157990  0.326234  0.574477  1
  Al  Al11  1  0.842010  0.673766  0.425523  1
  Al  Al12  1  0.674213  0.842601  0.572789  1
  Al  Al13  1  0.841424  0.673915  0.074098  1
  Al  Al14  1  0.325787  0.157399  0.427211  1
  Al  Al15  1  0.158576  0.326085  0.925902  1
  Al  Al16  1  0.165041  0.835683  0.574591  1
  Al  Al17  1  0.324491  0.163798  0.075753  1
  Al  Al18  1  0.834959  0.164317  0.425409  1
  Al  Al19  1  0.675509  0.836202  0.924247  1
  Al  Al20  1  0.841166  0.168514  0.077546  1
  Al  Al21  1  0.158834  0.831486  0.922454  1
  Al  Al22  1  0.563289  0.127232  0.253074  1
  Al  Al23  1  0.436711  0.872768  0.746926  1
  Al  Al24  1  0.874093  0.438590  0.249863  1
  Al  Al25  1  0.125907  0.561410  0.750137  1
  Al  Al26  1  0.564113  0.436542  0.249659  1
  Al  Al27  1  0.435887  0.563458  0.750341  1
  Al  Al28  1  0.995620  0.002337  0.250109  1
  Al  Al29  1  0.004380  0.997663  0.749891  1
  Os  Os30  1  0.000000  0.500000  0.000000  1
  Os  Os31  1  0.500000  0.000000  0.500000  1
  Os  Os32  1  0.000000  0.500000  0.500000  1
  Os  Os33  1  0.000000  0.000000  0.000000  1
  Os  Os34  1  0.000000  0.000000  0.500000  1
  Pd  Pd35  1  0.500000  0.500000  0.500000  1
  Pt  Pt36  1  0.500000  0.000000  0.000000  1
  Pt  Pt37  1  0.500000  0.500000  0.000000  1
