# generated using pymatgen
data_SrMnV4O12
_symmetry_space_group_name_H-M   'P 1'
_cell_length_a   8.21749587
_cell_length_b   8.21749528
_cell_length_c   10.43109380
_cell_angle_alpha   70.37473043
_cell_angle_beta   70.37473371
_cell_angle_gamma   72.05195734
_symmetry_Int_Tables_number   1
_chemical_formula_structural   SrMnV4O12
_chemical_formula_sum   'Sr2 Mn2 V8 O24'
_cell_volume   609.58686398
_cell_formula_units_Z   2
loop_
 _symmetry_equiv_pos_site_id
 _symmetry_equiv_pos_as_xyz
  1  'x, y, z'
loop_
 _atom_site_type_symbol
 _atom_site_label
 _atom_site_symmetry_multiplicity
 _atom_site_fract_x
 _atom_site_fract_y
 _atom_site_fract_z
 _atom_site_occupancy
  Sr  Sr0  1  0.934619  0.065381  0.750000  1
  Sr  Sr1  1  0.065381  0.934619  0.250000  1
  Mn  Mn2  1  0.500000  0.000000  0.000000  1
  Mn  Mn3  1  0.000000  0.500000  0.500000  1
  V  V4  1  0.310801  0.302755  0.700373  1
  V  V5  1  0.697245  0.689199  0.799627  1
  V  V6  1  0.689199  0.697245  0.299627  1
  V  V7  1  0.302755  0.310801  0.200373  1
  V  V8  1  0.715856  0.281999  0.460231  1
  V  V9  1  0.718001  0.284144  0.039769  1
  V  V10  1  0.284144  0.718001  0.539769  1
  V  V11  1  0.281999  0.715856  0.960231  1
  O  O12  1  0.296003  0.530058  0.692499  1
  O  O13  1  0.469942  0.703997  0.807501  1
  O  O14  1  0.703997  0.469942  0.307501  1
  O  O15  1  0.530058  0.296003  0.192499  1
  O  O16  1  0.497442  0.244712  0.559714  1
  O  O17  1  0.755288  0.502558  0.940286  1
  O  O18  1  0.502558  0.755288  0.440286  1
  O  O19  1  0.244712  0.497442  0.059714  1
  O  O20  1  0.343779  0.166486  0.854325  1
  O  O21  1  0.833514  0.656221  0.645675  1
  O  O22  1  0.656221  0.833514  0.145675  1
  O  O23  1  0.166486  0.343779  0.354325  1
  O  O24  1  0.119672  0.296999  0.670253  1
  O  O25  1  0.703001  0.880328  0.829747  1
  O  O26  1  0.880328  0.703001  0.329747  1
  O  O27  1  0.296999  0.119672  0.170253  1
  O  O28  1  0.811054  0.329398  0.562973  1
  O  O29  1  0.670602  0.188946  0.937027  1
  O  O30  1  0.188946  0.670602  0.437027  1
  O  O31  1  0.329398  0.811054  0.062973  1
  O  O32  1  0.841479  0.099317  0.413484  1
  O  O33  1  0.900683  0.158521  0.086516  1
  O  O34  1  0.158521  0.900683  0.586516  1
  O  O35  1  0.099317  0.841479  0.913484  1
