# generated using pymatgen
data_LiPr5Nd11Cd3Ir4
_symmetry_space_group_name_H-M   'P 1'
_cell_length_a   10.00174747
_cell_length_b   10.00198210
_cell_length_c   10.00198215
_cell_angle_alpha   59.95514594
_cell_angle_beta   59.95113810
_cell_angle_gamma   59.95113804
_symmetry_Int_Tables_number   1
_chemical_formula_structural   LiPr5Nd11Cd3Ir4
_chemical_formula_sum   'Li1 Pr5 Nd11 Cd3 Ir4'
_cell_volume   706.74814197
_cell_formula_units_Z   1
loop_
 _symmetry_equiv_pos_site_id
 _symmetry_equiv_pos_as_xyz
  1  'x, y, z'
loop_
 _atom_site_type_symbol
 _atom_site_label
 _atom_site_symmetry_multiplicity
 _atom_site_fract_x
 _atom_site_fract_y
 _atom_site_fract_z
 _atom_site_occupancy
  Li  Li0  1  0.571386  0.571300  0.571300  1
  Pr  Pr1  1  0.560675  0.938928  0.938928  1
  Pr  Pr2  1  0.561656  0.938914  0.561481  1
  Pr  Pr3  1  0.938972  0.560688  0.938758  1
  Pr  Pr4  1  0.561656  0.561481  0.938914  1
  Pr  Pr5  1  0.938972  0.938758  0.560688  1
  Nd  Nd6  1  0.347911  0.348152  0.348152  1
  Nd  Nd7  1  0.347412  0.347457  0.957784  1
  Nd  Nd8  1  0.347412  0.957784  0.347457  1
  Nd  Nd9  1  0.957721  0.347544  0.347544  1
  Nd  Nd10  1  0.809887  0.191059  0.191059  1
  Nd  Nd11  1  0.187387  0.811573  0.811573  1
  Nd  Nd12  1  0.190960  0.809766  0.191246  1
  Nd  Nd13  1  0.811598  0.187587  0.811445  1
  Nd  Nd14  1  0.190960  0.191246  0.809766  1
  Nd  Nd15  1  0.811598  0.811445  0.187587  1
  Nd  Nd16  1  0.939370  0.561365  0.561365  1
  Cd  Cd17  1  0.580842  0.580859  0.259933  1
  Cd  Cd18  1  0.580842  0.259933  0.580859  1
  Cd  Cd19  1  0.259793  0.580833  0.580833  1
  Ir  Ir20  1  0.141872  0.141812  0.141812  1
  Ir  Ir21  1  0.142409  0.142726  0.576283  1
  Ir  Ir22  1  0.142409  0.576283  0.142726  1
  Ir  Ir23  1  0.576300  0.142507  0.142507  1
