# generated using pymatgen
data_Ca10InSi4Ge
_symmetry_space_group_name_H-M   'P 1'
_cell_length_a   7.72707600
_cell_length_b   9.31117783
_cell_length_c   7.72707600
_cell_angle_alpha   114.51525312
_cell_angle_beta   90.00000000
_cell_angle_gamma   114.51525312
_symmetry_Int_Tables_number   1
_chemical_formula_structural   Ca10InSi4Ge
_chemical_formula_sum   'Ca10 In1 Si4 Ge1'
_cell_volume   450.16670827
_cell_formula_units_Z   1
loop_
 _symmetry_equiv_pos_site_id
 _symmetry_equiv_pos_as_xyz
  1  'x, y, z'
loop_
 _atom_site_type_symbol
 _atom_site_label
 _atom_site_symmetry_multiplicity
 _atom_site_fract_x
 _atom_site_fract_y
 _atom_site_fract_z
 _atom_site_occupancy
  Ca  Ca0  1  0.984683  0.969367  0.984683  1
  Ca  Ca1  1  0.515317  0.030633  0.515317  1
  Ca  Ca2  1  0.526145  0.722680  0.671053  1
  Ca  Ca3  1  0.196537  0.722680  0.051628  1
  Ca  Ca4  1  0.671053  0.722680  0.196537  1
  Ca  Ca5  1  0.051628  0.722680  0.526145  1
  Ca  Ca6  1  0.448372  0.277320  0.303463  1
  Ca  Ca7  1  0.828947  0.277320  0.973855  1
  Ca  Ca8  1  0.303463  0.277320  0.828947  1
  Ca  Ca9  1  0.973855  0.277320  0.448372  1
  In  In10  1  0.750000  0.500000  0.750000  1
  Si  Si11  1  0.887992  0.000000  0.612008  1
  Si  Si12  1  0.112008  0.000000  0.387992  1
  Si  Si13  1  0.612008  0.000000  0.112008  1
  Si  Si14  1  0.387992  0.000000  0.887992  1
  Ge  Ge15  1  0.250000  0.500000  0.250000  1
