# generated using pymatgen
data_MnCd3Ni2(PO4)4
_symmetry_space_group_name_H-M   'P 1'
_cell_length_a   4.84973442
_cell_length_b   6.40828305
_cell_length_c   10.92601441
_cell_angle_alpha   90.94933134
_cell_angle_beta   89.98881590
_cell_angle_gamma   89.95364015
_symmetry_Int_Tables_number   1
_chemical_formula_structural   MnCd3Ni2(PO4)4
_chemical_formula_sum   'Mn1 Cd3 Ni2 P4 O16'
_cell_volume   339.51709275
_cell_formula_units_Z   1
loop_
 _symmetry_equiv_pos_site_id
 _symmetry_equiv_pos_as_xyz
  1  'x, y, z'
loop_
 _atom_site_type_symbol
 _atom_site_label
 _atom_site_symmetry_multiplicity
 _atom_site_fract_x
 _atom_site_fract_y
 _atom_site_fract_z
 _atom_site_occupancy
  Mn  Mn0  1  0.975167  0.762349  0.284953  1
  Cd  Cd1  1  0.525564  0.763578  0.785031  1
  Cd  Cd2  1  0.029493  0.238548  0.712733  1
  Cd  Cd3  1  0.471376  0.232670  0.215864  1
  Ni  Ni4  1  0.502755  0.501284  0.495643  1
  Ni  Ni5  1  0.998349  0.501871  0.003406  1
  P  P6  1  0.078998  0.730033  0.590543  1
  P  P7  1  0.580799  0.272392  0.905587  1
  P  P8  1  0.923507  0.268295  0.402440  1
  P  P9  1  0.416411  0.728978  0.100642  1
  O  O10  1  0.238611  0.534901  0.646647  1
  O  O11  1  0.739224  0.468838  0.850475  1
  O  O12  1  0.773317  0.465922  0.344249  1
  O  O13  1  0.255766  0.534007  0.155930  1
  O  O14  1  0.172901  0.915228  0.673215  1
  O  O15  1  0.672161  0.087121  0.822577  1
  O  O16  1  0.838659  0.077130  0.322511  1
  O  O17  1  0.313892  0.911526  0.183351  1
  O  O18  1  0.297251  0.739094  0.968783  1
  O  O19  1  0.793719  0.262218  0.532613  1
  O  O20  1  0.733098  0.707830  0.106321  1
  O  O21  1  0.240562  0.291862  0.403515  1
  O  O22  1  0.264339  0.296884  0.903786  1
  O  O23  1  0.762366  0.706411  0.594457  1
  O  O24  1  0.196032  0.739264  0.458300  1
  O  O25  1  0.705681  0.261764  0.036427  1
