# generated using pymatgen
data_Hf4Mn4SiAs3
_symmetry_space_group_name_H-M   'P 1'
_cell_length_a   3.70113400
_cell_length_b   6.57713432
_cell_length_c   7.71914271
_cell_angle_alpha   89.71558546
_cell_angle_beta   90.00000000
_cell_angle_gamma   90.00000000
_symmetry_Int_Tables_number   1
_chemical_formula_structural   Hf4Mn4SiAs3
_chemical_formula_sum   'Hf4 Mn4 Si1 As3'
_cell_volume   187.90365998
_cell_formula_units_Z   1
loop_
 _symmetry_equiv_pos_site_id
 _symmetry_equiv_pos_as_xyz
  1  'x, y, z'
loop_
 _atom_site_type_symbol
 _atom_site_label
 _atom_site_symmetry_multiplicity
 _atom_site_fract_x
 _atom_site_fract_y
 _atom_site_fract_z
 _atom_site_occupancy
  Hf  Hf0  1  0.250000  0.961222  0.320943  1
  Hf  Hf1  1  0.250000  0.471594  0.173822  1
  Hf  Hf2  1  0.750000  0.035277  0.676390  1
  Hf  Hf3  1  0.750000  0.536582  0.828362  1
  Mn  Mn4  1  0.250000  0.364372  0.561922  1
  Mn  Mn5  1  0.250000  0.861761  0.942696  1
  Mn  Mn6  1  0.750000  0.637959  0.434229  1
  Mn  Mn7  1  0.750000  0.130122  0.063098  1
  Si  Si8  1  0.750000  0.765302  0.125304  1
  As  As9  1  0.250000  0.737336  0.629701  1
  As  As10  1  0.250000  0.235777  0.873170  1
  As  As11  1  0.750000  0.262695  0.370362  1
