# generated using pymatgen
data_Ho7Er9MgNi4Ag3
_symmetry_space_group_name_H-M   'P 1'
_cell_length_a   9.40323466
_cell_length_b   9.40494983
_cell_length_c   9.40494900
_cell_angle_alpha   59.97900042
_cell_angle_beta   60.03261864
_cell_angle_gamma   60.03262473
_symmetry_Int_Tables_number   1
_chemical_formula_structural   Ho7Er9MgNi4Ag3
_chemical_formula_sum   'Ho7 Er9 Mg1 Ni4 Ag3'
_cell_volume   588.32882746
_cell_formula_units_Z   1
loop_
 _symmetry_equiv_pos_site_id
 _symmetry_equiv_pos_as_xyz
  1  'x, y, z'
loop_
 _atom_site_type_symbol
 _atom_site_label
 _atom_site_symmetry_multiplicity
 _atom_site_fract_x
 _atom_site_fract_y
 _atom_site_fract_z
 _atom_site_occupancy
  Ho  Ho0  1  0.184227  0.814662  0.814662  1
  Ho  Ho1  1  0.813567  0.185902  0.185902  1
  Ho  Ho2  1  0.813561  0.185773  0.814858  1
  Ho  Ho3  1  0.184461  0.814651  0.186896  1
  Ho  Ho4  1  0.813561  0.814858  0.185773  1
  Ho  Ho5  1  0.184461  0.186896  0.814651  1
  Ho  Ho6  1  0.596955  0.597748  0.597748  1
  Er  Er7  1  0.597999  0.598284  0.206471  1
  Er  Er8  1  0.597999  0.206471  0.598284  1
  Er  Er9  1  0.194899  0.602193  0.602193  1
  Er  Er10  1  0.059246  0.440010  0.440010  1
  Er  Er11  1  0.436716  0.063324  0.063324  1
  Er  Er12  1  0.437402  0.062938  0.436062  1
  Er  Er13  1  0.059484  0.439175  0.060676  1
  Er  Er14  1  0.437402  0.436062  0.062938  1
  Er  Er15  1  0.059484  0.060676  0.439175  1
  Mg  Mg16  1  0.538031  0.820678  0.820678  1
  Ni  Ni17  1  0.389070  0.394650  0.394650  1
  Ni  Ni18  1  0.388845  0.394561  0.821697  1
  Ni  Ni19  1  0.388845  0.821697  0.394561  1
  Ni  Ni20  1  0.822244  0.392486  0.392486  1
  Ag  Ag21  1  0.833779  0.833718  0.833718  1
  Ag  Ag22  1  0.833881  0.833879  0.498706  1
  Ag  Ag23  1  0.833881  0.498706  0.833879  1
