# generated using pymatgen
data_KIn9CoIr
_symmetry_space_group_name_H-M   'P 1'
_cell_length_a   8.97049200
_cell_length_b   8.97049204
_cell_length_c   4.28337900
_cell_angle_alpha   90.00000000
_cell_angle_beta   90.00000000
_cell_angle_gamma   119.99999986
_symmetry_Int_Tables_number   1
_chemical_formula_structural   KIn9CoIr
_chemical_formula_sum   'K1 In9 Co1 Ir1'
_cell_volume   298.50366225
_cell_formula_units_Z   1
loop_
 _symmetry_equiv_pos_site_id
 _symmetry_equiv_pos_as_xyz
  1  'x, y, z'
loop_
 _atom_site_type_symbol
 _atom_site_label
 _atom_site_symmetry_multiplicity
 _atom_site_fract_x
 _atom_site_fract_y
 _atom_site_fract_z
 _atom_site_occupancy
  K  K0  1  0.000000  0.000000  0.000000  1
  In  In1  1  0.793404  0.586807  0.500000  1
  In  In2  1  0.495384  0.504616  0.000000  1
  In  In3  1  0.495384  0.990767  0.000000  1
  In  In4  1  0.413193  0.206596  0.500000  1
  In  In5  1  0.207880  0.415762  0.500000  1
  In  In6  1  0.207880  0.792120  0.500000  1
  In  In7  1  0.584238  0.792120  0.500000  1
  In  In8  1  0.009233  0.504616  0.000000  1
  In  In9  1  0.793404  0.206596  0.500000  1
  Co  Co10  1  0.333333  0.666667  0.000000  1
  Ir  Ir11  1  0.666667  0.333333  0.000000  1
