# generated using pymatgen
data_Zr24Si5Se3
_symmetry_space_group_name_H-M   'P 1'
_cell_length_a   11.01412199
_cell_length_b   11.02613158
_cell_length_c   5.46924032
_cell_angle_alpha   89.89700856
_cell_angle_beta   90.05792078
_cell_angle_gamma   89.99299977
_symmetry_Int_Tables_number   1
_chemical_formula_structural   Zr24Si5Se3
_chemical_formula_sum   'Zr24 Si5 Se3'
_cell_volume   664.20040069
_cell_formula_units_Z   1
loop_
 _symmetry_equiv_pos_site_id
 _symmetry_equiv_pos_as_xyz
  1  'x, y, z'
loop_
 _atom_site_type_symbol
 _atom_site_label
 _atom_site_symmetry_multiplicity
 _atom_site_fract_x
 _atom_site_fract_y
 _atom_site_fract_z
 _atom_site_occupancy
  Zr  Zr0  1  0.216723  0.682059  0.989150  1
  Zr  Zr1  1  0.785492  0.318448  0.986702  1
  Zr  Zr2  1  0.180978  0.282264  0.493401  1
  Zr  Zr3  1  0.817106  0.717375  0.489635  1
  Zr  Zr4  1  0.286023  0.818611  0.507963  1
  Zr  Zr5  1  0.715788  0.180321  0.510729  1
  Zr  Zr6  1  0.318658  0.213707  0.007296  1
  Zr  Zr7  1  0.681033  0.786365  0.008364  1
  Zr  Zr8  1  0.637115  0.526349  0.718993  1
  Zr  Zr9  1  0.362814  0.474673  0.717832  1
  Zr  Zr10  1  0.025873  0.862844  0.218583  1
  Zr  Zr11  1  0.973448  0.139129  0.220305  1
  Zr  Zr12  1  0.859439  0.975663  0.782104  1
  Zr  Zr13  1  0.139617  0.027506  0.780841  1
  Zr  Zr14  1  0.473997  0.640554  0.281339  1
  Zr  Zr15  1  0.526496  0.359376  0.280901  1
  Zr  Zr16  1  0.105357  0.582485  0.465775  1
  Zr  Zr17  1  0.895140  0.415663  0.471804  1
  Zr  Zr18  1  0.080830  0.392666  0.958811  1
  Zr  Zr19  1  0.917370  0.605983  0.964561  1
  Zr  Zr20  1  0.392407  0.917314  0.034791  1
  Zr  Zr21  1  0.607973  0.083066  0.034494  1
  Zr  Zr22  1  0.417667  0.106699  0.536790  1
  Zr  Zr23  1  0.582959  0.892428  0.535546  1
  Si  Si24  1  0.959497  0.204922  0.712776  1
  Si  Si25  1  0.794304  0.959332  0.287944  1
  Si  Si26  1  0.205817  0.041059  0.288151  1
  Si  Si27  1  0.459365  0.706054  0.787985  1
  Si  Si28  1  0.540719  0.294409  0.786823  1
  Se  Se29  1  0.707501  0.539839  0.214183  1
  Se  Se30  1  0.292476  0.459004  0.212564  1
  Se  Se31  1  0.040022  0.793832  0.712867  1
