# generated using pymatgen
data_YTm4Ga2Sb
_symmetry_space_group_name_H-M   'P 1'
_cell_length_a   8.59884701
_cell_length_b   8.63027813
_cell_length_c   6.46020700
_cell_angle_alpha   90.00000000
_cell_angle_beta   90.00000000
_cell_angle_gamma   120.12097726
_symmetry_Int_Tables_number   1
_chemical_formula_structural   YTm4Ga2Sb
_chemical_formula_sum   'Y2 Tm8 Ga4 Sb2'
_cell_volume   414.67835064
_cell_formula_units_Z   2
loop_
 _symmetry_equiv_pos_site_id
 _symmetry_equiv_pos_as_xyz
  1  'x, y, z'
loop_
 _atom_site_type_symbol
 _atom_site_label
 _atom_site_symmetry_multiplicity
 _atom_site_fract_x
 _atom_site_fract_y
 _atom_site_fract_z
 _atom_site_occupancy
  Y  Y0  1  0.763155  0.750447  0.250000  1
  Y  Y1  1  0.763155  0.012708  0.750000  1
  Tm  Tm2  1  0.313723  0.656861  0.000000  1
  Tm  Tm3  1  0.668186  0.334093  0.500000  1
  Tm  Tm4  1  0.668186  0.334093  0.000000  1
  Tm  Tm5  1  0.313723  0.656861  0.500000  1
  Tm  Tm6  1  0.234936  0.000508  0.250000  1
  Tm  Tm7  1  0.234936  0.234426  0.750000  1
  Tm  Tm8  1  0.014102  0.764579  0.750000  1
  Tm  Tm9  1  0.014102  0.249524  0.250000  1
  Ga  Ga10  1  0.999013  0.399552  0.750000  1
  Ga  Ga11  1  0.999013  0.599462  0.250000  1
  Ga  Ga12  1  0.402131  0.397480  0.250000  1
  Ga  Ga13  1  0.402131  0.004651  0.750000  1
  Sb  Sb14  1  0.604754  0.996042  0.250000  1
  Sb  Sb15  1  0.604754  0.608712  0.750000  1
