# generated using pymatgen
data_YHo15Al2(Tl2Co)2
_symmetry_space_group_name_H-M   'P 1'
_cell_length_a   10.24114000
_cell_length_b   10.26372134
_cell_length_c   7.00616713
_cell_angle_alpha   90.04903831
_cell_angle_beta   90.00001378
_cell_angle_gamma   119.92719937
_symmetry_Int_Tables_number   1
_chemical_formula_structural   YHo15Al2(Tl2Co)2
_chemical_formula_sum   'Y1 Ho15 Al2 Tl4 Co2'
_cell_volume   638.23731788
_cell_formula_units_Z   1
loop_
 _symmetry_equiv_pos_site_id
 _symmetry_equiv_pos_as_xyz
  1  'x, y, z'
loop_
 _atom_site_type_symbol
 _atom_site_label
 _atom_site_symmetry_multiplicity
 _atom_site_fract_x
 _atom_site_fract_y
 _atom_site_fract_z
 _atom_site_occupancy
  Y  Y0  1  0.534265  0.068531  0.503164  1
  Ho  Ho1  1  0.928428  0.465544  0.503026  1
  Ho  Ho2  1  0.537116  0.465545  0.503026  1
  Ho  Ho3  1  0.462130  0.924261  0.011069  1
  Ho  Ho4  1  0.074084  0.539674  0.009582  1
  Ho  Ho5  1  0.465589  0.539673  0.009582  1
  Ho  Ho6  1  0.178210  0.356418  0.709847  1
  Ho  Ho7  1  0.644637  0.822588  0.708529  1
  Ho  Ho8  1  0.177951  0.822587  0.708529  1
  Ho  Ho9  1  0.824565  0.649130  0.212299  1
  Ho  Ho10  1  0.353506  0.173892  0.210060  1
  Ho  Ho11  1  0.820385  0.173893  0.210059  1
  Ho  Ho12  1  0.666775  0.333549  0.896818  1
  Ho  Ho13  1  0.335277  0.670554  0.393287  1
  Ho  Ho14  1  0.997599  0.995197  0.486524  1
  Ho  Ho15  1  0.997703  0.995405  0.996423  1
  Al  Al16  1  0.675219  0.837812  0.254241  1
  Al  Al17  1  0.162593  0.837812  0.254241  1
  Tl  Tl18  1  0.836577  0.673153  0.755394  1
  Tl  Tl19  1  0.326316  0.163277  0.755023  1
  Tl  Tl20  1  0.836961  0.163277  0.755024  1
  Tl  Tl21  1  0.163194  0.326390  0.255936  1
  Co  Co22  1  0.667545  0.335089  0.277419  1
  Co  Co23  1  0.333372  0.666747  0.778938  1
