# generated using pymatgen
data_PuSi3Ni5
_symmetry_space_group_name_H-M   'P 1'
_cell_length_a   18.78736400
_cell_length_b   3.75353300
_cell_length_c   6.70677600
_cell_angle_alpha   90.00000000
_cell_angle_beta   90.00000000
_cell_angle_gamma   90.00000000
_symmetry_Int_Tables_number   1
_chemical_formula_structural   PuSi3Ni5
_chemical_formula_sum   'Pu4 Si12 Ni20'
_cell_volume   472.95507475
_cell_formula_units_Z   4
loop_
 _symmetry_equiv_pos_site_id
 _symmetry_equiv_pos_as_xyz
  1  'x, y, z'
loop_
 _atom_site_type_symbol
 _atom_site_label
 _atom_site_symmetry_multiplicity
 _atom_site_fract_x
 _atom_site_fract_y
 _atom_site_fract_z
 _atom_site_occupancy
  Pu  Pu0  1  0.142254  0.249999  0.878003  1
  Pu  Pu1  1  0.357745  0.750000  0.378003  1
  Pu  Pu2  1  0.642254  0.249999  0.621997  1
  Pu  Pu3  1  0.857746  0.750000  0.121998  1
  Si  Si4  1  0.425800  0.249999  0.653516  1
  Si  Si5  1  0.074200  0.750000  0.153517  1
  Si  Si6  1  0.925800  0.249999  0.846484  1
  Si  Si7  1  0.574200  0.750000  0.346483  1
  Si  Si8  1  0.237021  0.249999  0.378484  1
  Si  Si9  1  0.262979  0.750000  0.878483  1
  Si  Si10  1  0.737021  0.249999  0.121517  1
  Si  Si11  1  0.762979  0.750000  0.621517  1
  Si  Si12  1  0.414143  0.249999  0.084907  1
  Si  Si13  1  0.085858  0.750000  0.584907  1
  Si  Si14  1  0.914143  0.249999  0.415093  1
  Si  Si15  1  0.585857  0.750000  0.915095  1
  Ni  Ni16  1  0.495016  0.249999  0.366789  1
  Ni  Ni17  1  0.004984  0.750000  0.866791  1
  Ni  Ni18  1  0.995016  0.249999  0.133211  1
  Ni  Ni19  1  0.504984  0.750000  0.633209  1
  Ni  Ni20  1  0.013366  0.249999  0.615763  1
  Ni  Ni21  1  0.486634  0.750000  0.115764  1
  Ni  Ni22  1  0.513365  0.249999  0.884237  1
  Ni  Ni23  1  0.986634  0.750000  0.384236  1
  Ni  Ni24  1  0.299904  0.249999  0.685909  1
  Ni  Ni25  1  0.200096  0.750000  0.185909  1
  Ni  Ni26  1  0.799904  0.249999  0.814091  1
  Ni  Ni27  1  0.700095  0.750000  0.314089  1
  Ni  Ni28  1  0.114199  0.249999  0.359432  1
  Ni  Ni29  1  0.385800  0.750000  0.859430  1
  Ni  Ni30  1  0.614200  0.249999  0.140568  1
  Ni  Ni31  1  0.885801  0.750000  0.640570  1
  Ni  Ni32  1  0.292905  0.249999  0.070278  1
  Ni  Ni33  1  0.207094  0.750000  0.570278  1
  Ni  Ni34  1  0.792906  0.249999  0.429723  1
  Ni  Ni35  1  0.707094  0.750000  0.929722  1
