# generated using pymatgen
data_LaEu3CdPd
_symmetry_space_group_name_H-M   'P 1'
_cell_length_a   10.42068754
_cell_length_b   10.42068857
_cell_length_c   10.42068700
_cell_angle_alpha   60.00000181
_cell_angle_beta   59.99999853
_cell_angle_gamma   60.00000413
_symmetry_Int_Tables_number   1
_chemical_formula_structural   LaEu3CdPd
_chemical_formula_sum   'La4 Eu12 Cd4 Pd4'
_cell_volume   800.15506556
_cell_formula_units_Z   4
loop_
 _symmetry_equiv_pos_site_id
 _symmetry_equiv_pos_as_xyz
  1  'x, y, z'
loop_
 _atom_site_type_symbol
 _atom_site_label
 _atom_site_symmetry_multiplicity
 _atom_site_fract_x
 _atom_site_fract_y
 _atom_site_fract_z
 _atom_site_occupancy
  La  La0  1  0.348544  0.348544  0.348544  1
  La  La1  1  0.348544  0.348544  0.954367  1
  La  La2  1  0.348544  0.954367  0.348544  1
  La  La3  1  0.954367  0.348544  0.348544  1
  Eu  Eu4  1  0.806990  0.193010  0.193010  1
  Eu  Eu5  1  0.193010  0.806990  0.806990  1
  Eu  Eu6  1  0.193010  0.806990  0.193010  1
  Eu  Eu7  1  0.806990  0.193010  0.806990  1
  Eu  Eu8  1  0.193010  0.193010  0.806990  1
  Eu  Eu9  1  0.806990  0.806990  0.193010  1
  Eu  Eu10  1  0.936974  0.563026  0.563026  1
  Eu  Eu11  1  0.563026  0.936974  0.936974  1
  Eu  Eu12  1  0.563026  0.936974  0.563026  1
  Eu  Eu13  1  0.936974  0.563026  0.936974  1
  Eu  Eu14  1  0.563026  0.563026  0.936974  1
  Eu  Eu15  1  0.936974  0.936974  0.563026  1
  Cd  Cd16  1  0.578875  0.578875  0.578875  1
  Cd  Cd17  1  0.578875  0.578875  0.263376  1
  Cd  Cd18  1  0.578875  0.263376  0.578875  1
  Cd  Cd19  1  0.263376  0.578875  0.578875  1
  Pd  Pd20  1  0.145091  0.145091  0.145091  1
  Pd  Pd21  1  0.145091  0.145091  0.564726  1
  Pd  Pd22  1  0.145091  0.564726  0.145091  1
  Pd  Pd23  1  0.564726  0.145091  0.145091  1
