# generated using pymatgen
data_Dy10Sn6Ge
_symmetry_space_group_name_H-M   'P 1'
_cell_length_a   6.56483101
_cell_length_b   9.13320516
_cell_length_c   9.13275000
_cell_angle_alpha   120.00165215
_cell_angle_beta   90.00039016
_cell_angle_gamma   89.99922147
_symmetry_Int_Tables_number   1
_chemical_formula_structural   Dy10Sn6Ge
_chemical_formula_sum   'Dy10 Sn6 Ge1'
_cell_volume   474.21112145
_cell_formula_units_Z   1
loop_
 _symmetry_equiv_pos_site_id
 _symmetry_equiv_pos_as_xyz
  1  'x, y, z'
loop_
 _atom_site_type_symbol
 _atom_site_label
 _atom_site_symmetry_multiplicity
 _atom_site_fract_x
 _atom_site_fract_y
 _atom_site_fract_z
 _atom_site_occupancy
  Dy  Dy0  1  0.500000  0.333329  0.666660  1
  Dy  Dy1  1  0.500000  0.666670  0.333340  1
  Dy  Dy2  1  0.000001  0.666651  0.333301  1
  Dy  Dy3  1  0.000001  0.333350  0.666699  1
  Dy  Dy4  1  0.748646  0.252663  0.000000  1
  Dy  Dy5  1  0.748622  0.747336  0.747317  1
  Dy  Dy6  1  0.748622  0.000018  0.252683  1
  Dy  Dy7  1  0.251354  0.747336  0.000000  1
  Dy  Dy8  1  0.251377  0.252664  0.252683  1
  Dy  Dy9  1  0.251377  0.999982  0.747317  1
  Sn  Sn10  1  0.749265  0.609188  0.000000  1
  Sn  Sn11  1  0.749298  0.390827  0.390830  1
  Sn  Sn12  1  0.749298  0.999997  0.609170  1
  Sn  Sn13  1  0.250735  0.390812  0.000000  1
  Sn  Sn14  1  0.250702  0.609173  0.609170  1
  Sn  Sn15  1  0.250702  0.000003  0.390830  1
  Ge  Ge16  1  0.499999  0.000000  0.000000  1
