# generated using pymatgen
data_SrPr3(YSe2)8
_symmetry_space_group_name_H-M   'P 1'
_cell_length_a   4.09082900
_cell_length_b   13.71741100
_cell_length_c   13.81867900
_cell_angle_alpha   89.99808620
_cell_angle_beta   90.00000000
_cell_angle_gamma   90.00000000
_symmetry_Int_Tables_number   1
_chemical_formula_structural   SrPr3(YSe2)8
_chemical_formula_sum   'Sr1 Pr3 Y8 Se16'
_cell_volume   775.44322434
_cell_formula_units_Z   1
loop_
 _symmetry_equiv_pos_site_id
 _symmetry_equiv_pos_as_xyz
  1  'x, y, z'
loop_
 _atom_site_type_symbol
 _atom_site_label
 _atom_site_symmetry_multiplicity
 _atom_site_fract_x
 _atom_site_fract_y
 _atom_site_fract_z
 _atom_site_occupancy
  Sr  Sr0  1  0.250000  0.369890  0.590725  1
  Pr  Pr1  1  0.250000  0.870133  0.911704  1
  Pr  Pr2  1  0.750000  0.628584  0.412974  1
  Pr  Pr3  1  0.750000  0.130930  0.090260  1
  Y  Y4  1  0.250000  0.107200  0.424375  1
  Y  Y5  1  0.250000  0.610143  0.072197  1
  Y  Y6  1  0.750000  0.889597  0.572611  1
  Y  Y7  1  0.750000  0.390544  0.927028  1
  Y  Y8  1  0.250000  0.147911  0.798524  1
  Y  Y9  1  0.250000  0.653228  0.703027  1
  Y  Y10  1  0.750000  0.848752  0.202596  1
  Y  Y11  1  0.750000  0.352212  0.297999  1
  Se  Se12  1  0.250000  0.211934  0.237889  1
  Se  Se13  1  0.250000  0.713109  0.261402  1
  Se  Se14  1  0.750000  0.789382  0.761883  1
  Se  Se15  1  0.750000  0.284517  0.743938  1
  Se  Se16  1  0.250000  0.252123  0.980588  1
  Se  Se17  1  0.250000  0.754866  0.520153  1
  Se  Se18  1  0.750000  0.747067  0.020369  1
  Se  Se19  1  0.750000  0.242789  0.475124  1
  Se  Se20  1  0.250000  0.469430  0.380369  1
  Se  Se21  1  0.250000  0.967155  0.114411  1
  Se  Se22  1  0.750000  0.538246  0.615716  1
  Se  Se23  1  0.750000  0.031946  0.887859  1
  Se  Se24  1  0.250000  0.029978  0.622379  1
  Se  Se25  1  0.250000  0.528472  0.876408  1
  Se  Se26  1  0.750000  0.969140  0.375422  1
  Se  Se27  1  0.750000  0.470723  0.122067  1
