# generated using pymatgen
data_Hf4ZrGaSn2Sb
_symmetry_space_group_name_H-M   'P 1'
_cell_length_a   8.66182524
_cell_length_b   8.64530941
_cell_length_c   5.83412800
_cell_angle_alpha   90.00000000
_cell_angle_beta   90.00000000
_cell_angle_gamma   119.93694443
_symmetry_Int_Tables_number   1
_chemical_formula_structural   Hf4ZrGaSn2Sb
_chemical_formula_sum   'Hf8 Zr2 Ga2 Sn4 Sb2'
_cell_volume   378.59261570
_cell_formula_units_Z   2
loop_
 _symmetry_equiv_pos_site_id
 _symmetry_equiv_pos_as_xyz
  1  'x, y, z'
loop_
 _atom_site_type_symbol
 _atom_site_label
 _atom_site_symmetry_multiplicity
 _atom_site_fract_x
 _atom_site_fract_y
 _atom_site_fract_z
 _atom_site_occupancy
  Hf  Hf0  1  0.000000  0.261860  0.750000  1
  Hf  Hf1  1  0.273527  0.273997  0.250000  1
  Hf  Hf2  1  0.726473  0.000470  0.250000  1
  Hf  Hf3  1  0.000000  0.727850  0.250000  1
  Hf  Hf4  1  0.666154  0.331957  0.002063  1
  Hf  Hf5  1  0.333846  0.665804  0.002063  1
  Hf  Hf6  1  0.333846  0.665804  0.497937  1
  Hf  Hf7  1  0.666154  0.331957  0.497937  1
  Zr  Zr8  1  0.736902  0.737719  0.750000  1
  Zr  Zr9  1  0.263098  0.000816  0.750000  1
  Ga  Ga10  1  0.000000  0.000798  0.013314  1
  Ga  Ga11  1  0.000000  0.000798  0.486686  1
  Sn  Sn12  1  0.000000  0.607394  0.750000  1
  Sn  Sn13  1  0.615431  0.614141  0.250000  1
  Sn  Sn14  1  0.384569  0.998710  0.250000  1
  Sn  Sn15  1  0.000000  0.387189  0.250000  1
  Sb  Sb16  1  0.392552  0.392644  0.750000  1
  Sb  Sb17  1  0.607448  0.000092  0.750000  1
