# generated using pymatgen
data_Ho5HfZr2(P3Ir4)4
_symmetry_space_group_name_H-M   'P 1'
_cell_length_a   12.87893408
_cell_length_b   12.87893312
_cell_length_c   3.97361600
_cell_angle_alpha   90.00000000
_cell_angle_beta   90.00000000
_cell_angle_gamma   119.99435670
_symmetry_Int_Tables_number   1
_chemical_formula_structural   Ho5HfZr2(P3Ir4)4
_chemical_formula_sum   'Ho5 Hf1 Zr2 P12 Ir16'
_cell_volume   570.82242889
_cell_formula_units_Z   1
loop_
 _symmetry_equiv_pos_site_id
 _symmetry_equiv_pos_as_xyz
  1  'x, y, z'
loop_
 _atom_site_type_symbol
 _atom_site_label
 _atom_site_symmetry_multiplicity
 _atom_site_fract_x
 _atom_site_fract_y
 _atom_site_fract_z
 _atom_site_occupancy
  Ho  Ho0  1  0.333391  0.666645  0.000000  1
  Ho  Ho1  1  0.666645  0.333391  0.000000  1
  Ho  Ho2  1  0.815275  0.000025  0.500000  1
  Ho  Ho3  1  0.000025  0.815275  0.500000  1
  Ho  Ho4  1  0.184565  0.184565  0.500000  1
  Hf  Hf5  1  0.550942  0.550942  0.000000  1
  Zr  Zr6  1  0.449051  0.000105  0.000000  1
  Zr  Zr7  1  0.000105  0.449051  0.000000  1
  P  P8  1  0.175476  0.000064  0.000000  1
  P  P9  1  0.000064  0.175476  0.000000  1
  P  P10  1  0.824542  0.824542  0.000000  1
  P  P11  1  0.170306  0.482758  0.500000  1
  P  P12  1  0.517395  0.686670  0.500000  1
  P  P13  1  0.313101  0.830303  0.500000  1
  P  P14  1  0.686670  0.517395  0.500000  1
  P  P15  1  0.830303  0.313101  0.500000  1
  P  P16  1  0.482758  0.170306  0.500000  1
  P  P17  1  0.649435  0.999737  0.000000  1
  P  P18  1  0.999737  0.649435  0.000000  1
  P  P19  1  0.350541  0.350541  0.000000  1
  Ir  Ir20  1  0.358576  0.493502  0.500000  1
  Ir  Ir21  1  0.506972  0.863490  0.500000  1
  Ir  Ir22  1  0.136410  0.643023  0.500000  1
  Ir  Ir23  1  0.863490  0.506972  0.500000  1
  Ir  Ir24  1  0.643023  0.136410  0.500000  1
  Ir  Ir25  1  0.493502  0.358576  0.500000  1
  Ir  Ir26  1  0.178839  0.371263  0.000000  1
  Ir  Ir27  1  0.628942  0.806593  0.000000  1
  Ir  Ir28  1  0.192491  0.821613  0.000000  1
  Ir  Ir29  1  0.806593  0.628942  0.000000  1
  Ir  Ir30  1  0.821613  0.192491  0.000000  1
  Ir  Ir31  1  0.371263  0.178839  0.000000  1
  Ir  Ir32  1  0.278003  0.000088  0.500000  1
  Ir  Ir33  1  0.000088  0.278003  0.500000  1
  Ir  Ir34  1  0.719979  0.719979  0.500000  1
  Ir  Ir35  1  0.999887  0.999887  0.000000  1
