# generated using pymatgen
data_Yb2Ho3Si12Ir19
_symmetry_space_group_name_H-M   'P 1'
_cell_length_a   12.80989410
_cell_length_b   12.80989552
_cell_length_c   3.99918900
_cell_angle_alpha   90.00000000
_cell_angle_beta   90.00000000
_cell_angle_gamma   119.98600340
_symmetry_Int_Tables_number   1
_chemical_formula_structural   Yb2Ho3Si12Ir19
_chemical_formula_sum   'Yb2 Ho3 Si12 Ir19'
_cell_volume   568.40111722
_cell_formula_units_Z   1
loop_
 _symmetry_equiv_pos_site_id
 _symmetry_equiv_pos_as_xyz
  1  'x, y, z'
loop_
 _atom_site_type_symbol
 _atom_site_label
 _atom_site_symmetry_multiplicity
 _atom_site_fract_x
 _atom_site_fract_y
 _atom_site_fract_z
 _atom_site_occupancy
  Yb  Yb0  1  0.816321  0.999762  0.500000  1
  Yb  Yb1  1  0.999762  0.816321  0.500000  1
  Ho  Ho2  1  0.333318  0.666510  0.000000  1
  Ho  Ho3  1  0.666510  0.333318  0.000000  1
  Ho  Ho4  1  0.182138  0.182138  0.500000  1
  Si  Si5  1  0.817784  0.817784  0.000000  1
  Si  Si6  1  0.181777  0.999401  0.000000  1
  Si  Si7  1  0.999401  0.181777  0.000000  1
  Si  Si8  1  0.311134  0.831393  0.500000  1
  Si  Si9  1  0.168383  0.480576  0.500000  1
  Si  Si10  1  0.520266  0.688724  0.500000  1
  Si  Si11  1  0.831393  0.311134  0.500000  1
  Si  Si12  1  0.480576  0.168383  0.500000  1
  Si  Si13  1  0.688724  0.520266  0.500000  1
  Si  Si14  1  0.367145  0.367145  0.000000  1
  Si  Si15  1  0.632909  0.000034  0.000000  1
  Si  Si16  1  0.000034  0.632909  0.000000  1
  Ir  Ir17  1  0.194931  0.816896  0.000000  1
  Ir  Ir18  1  0.182955  0.376506  0.000000  1
  Ir  Ir19  1  0.621475  0.805190  0.000000  1
  Ir  Ir20  1  0.816896  0.194931  0.000000  1
  Ir  Ir21  1  0.376506  0.182955  0.000000  1
  Ir  Ir22  1  0.805190  0.621475  0.000000  1
  Ir  Ir23  1  0.717105  0.717105  0.500000  1
  Ir  Ir24  1  0.283435  0.000894  0.500000  1
  Ir  Ir25  1  0.000894  0.283435  0.500000  1
  Ir  Ir26  1  0.126662  0.638593  0.500000  1
  Ir  Ir27  1  0.361335  0.488721  0.500000  1
  Ir  Ir28  1  0.511056  0.873225  0.500000  1
  Ir  Ir29  1  0.638593  0.126662  0.500000  1
  Ir  Ir30  1  0.488721  0.361335  0.500000  1
  Ir  Ir31  1  0.873225  0.511056  0.500000  1
  Ir  Ir32  1  0.551582  0.551582  0.000000  1
  Ir  Ir33  1  0.448777  0.001650  0.000000  1
  Ir  Ir34  1  0.001650  0.448777  0.000000  1
  Ir  Ir35  1  0.001436  0.001436  0.000000  1
