# generated using pymatgen
data_Y2LuP4Pd7
_symmetry_space_group_name_H-M   'P 1'
_cell_length_a   7.92637831
_cell_length_b   7.92637812
_cell_length_c   9.41981600
_cell_angle_alpha   55.85764868
_cell_angle_beta   55.85764960
_cell_angle_gamma   29.33495454
_symmetry_Int_Tables_number   1
_chemical_formula_structural   Y2LuP4Pd7
_chemical_formula_sum   'Y2 Lu1 P4 Pd7'
_cell_volume   236.15963145
_cell_formula_units_Z   1
loop_
 _symmetry_equiv_pos_site_id
 _symmetry_equiv_pos_as_xyz
  1  'x, y, z'
loop_
 _atom_site_type_symbol
 _atom_site_label
 _atom_site_symmetry_multiplicity
 _atom_site_fract_x
 _atom_site_fract_y
 _atom_site_fract_z
 _atom_site_occupancy
  Y  Y0  1  0.500121  0.500121  0.499868  1
  Y  Y1  1  0.819910  0.819910  0.177150  1
  Lu  Lu2  1  0.178974  0.178974  0.824818  1
  P  P3  1  0.394119  0.394119  0.319184  1
  P  P4  1  0.606863  0.606863  0.681175  1
  P  P5  1  0.839350  0.839350  0.754926  1
  P  P6  1  0.159125  0.159125  0.247170  1
  Pd  Pd7  1  0.669184  0.669184  0.073488  1
  Pd  Pd8  1  0.010064  0.010064  0.213945  1
  Pd  Pd9  1  0.990479  0.990479  0.785076  1
  Pd  Pd10  1  0.502567  0.502567  0.997762  1
  Pd  Pd11  1  0.195228  0.195228  0.470889  1
  Pd  Pd12  1  0.803948  0.803948  0.533894  1
  Pd  Pd13  1  0.330067  0.330067  0.920653  1
