# generated using pymatgen
data_Tb3HfSn2Ir3
_symmetry_space_group_name_H-M   'P 1'
_cell_length_a   7.26526100
_cell_length_b   7.37568804
_cell_length_c   4.21773700
_cell_angle_alpha   90.00000000
_cell_angle_beta   90.00000000
_cell_angle_gamma   119.50594833
_symmetry_Int_Tables_number   1
_chemical_formula_structural   Tb3HfSn2Ir3
_chemical_formula_sum   'Tb3 Hf1 Sn2 Ir3'
_cell_volume   196.70007218
_cell_formula_units_Z   1
loop_
 _symmetry_equiv_pos_site_id
 _symmetry_equiv_pos_as_xyz
  1  'x, y, z'
loop_
 _atom_site_type_symbol
 _atom_site_label
 _atom_site_symmetry_multiplicity
 _atom_site_fract_x
 _atom_site_fract_y
 _atom_site_fract_z
 _atom_site_occupancy
  Tb  Tb0  1  0.602850  0.000000  0.000000  1
  Tb  Tb1  1  0.996317  0.585182  0.000000  1
  Tb  Tb2  1  0.411135  0.414818  0.000000  1
  Hf  Hf3  1  0.248829  0.000000  0.500000  1
  Sn  Sn4  1  0.001469  0.254585  0.500000  1
  Sn  Sn5  1  0.746884  0.745415  0.500000  1
  Ir  Ir6  1  0.326855  0.679789  0.500000  1
  Ir  Ir7  1  0.647067  0.320211  0.500000  1
  Ir  Ir8  1  0.018595  0.000000  0.000000  1
