# generated using pymatgen
data_Sc6Sn6IrRh5
_symmetry_space_group_name_H-M   'P 1'
_cell_length_a   7.53588400
_cell_length_b   7.53588278
_cell_length_c   7.01243600
_cell_angle_alpha   90.00000000
_cell_angle_beta   90.00000000
_cell_angle_gamma   120.00001413
_symmetry_Int_Tables_number   1
_chemical_formula_structural   Sc6Sn6IrRh5
_chemical_formula_sum   'Sc6 Sn6 Ir1 Rh5'
_cell_volume   344.87984906
_cell_formula_units_Z   1
loop_
 _symmetry_equiv_pos_site_id
 _symmetry_equiv_pos_as_xyz
  1  'x, y, z'
loop_
 _atom_site_type_symbol
 _atom_site_label
 _atom_site_symmetry_multiplicity
 _atom_site_fract_x
 _atom_site_fract_y
 _atom_site_fract_z
 _atom_site_occupancy
  Sc  Sc0  1  0.396929  0.000578  0.251785  1
  Sc  Sc1  1  0.603649  0.603071  0.251785  1
  Sc  Sc2  1  0.999422  0.396351  0.251785  1
  Sc  Sc3  1  0.396492  0.999696  0.748168  1
  Sc  Sc4  1  0.603204  0.603508  0.748168  1
  Sc  Sc5  1  0.000304  0.396796  0.748168  1
  Sn  Sn6  1  0.280948  0.280387  0.999944  1
  Sn  Sn7  1  0.999440  0.719052  0.999944  1
  Sn  Sn8  1  0.001519  0.732320  0.499951  1
  Sn  Sn9  1  0.730800  0.998481  0.499951  1
  Sn  Sn10  1  0.267680  0.269200  0.499951  1
  Sn  Sn11  1  0.719613  0.000560  0.999944  1
  Ir  Ir12  1  0.666667  0.333333  0.501048  1
  Rh  Rh13  1  0.000000  0.000000  0.765377  1
  Rh  Rh14  1  0.000000  0.000000  0.234445  1
  Rh  Rh15  1  0.666667  0.333333  0.999351  1
  Rh  Rh16  1  0.333333  0.666667  0.498954  1
  Rh  Rh17  1  0.333333  0.666667  0.001278  1
