# generated using pymatgen
data_NaCd11Au8
_symmetry_space_group_name_H-M   'P 1'
_cell_length_a   7.57204100
_cell_length_b   7.57204100
_cell_length_c   7.39853500
_cell_angle_alpha   90.00000000
_cell_angle_beta   90.00000000
_cell_angle_gamma   90.00000000
_symmetry_Int_Tables_number   1
_chemical_formula_structural   NaCd11Au8
_chemical_formula_sum   'Na1 Cd11 Au8'
_cell_volume   424.20095935
_cell_formula_units_Z   1
loop_
 _symmetry_equiv_pos_site_id
 _symmetry_equiv_pos_as_xyz
  1  'x, y, z'
loop_
 _atom_site_type_symbol
 _atom_site_label
 _atom_site_symmetry_multiplicity
 _atom_site_fract_x
 _atom_site_fract_y
 _atom_site_fract_z
 _atom_site_occupancy
  Na  Na0  1  0.000000  0.500000  0.750000  1
  Cd  Cd1  1  0.136805  0.137025  0.000163  1
  Cd  Cd2  1  0.863195  0.862975  0.000163  1
  Cd  Cd3  1  0.637025  0.363195  0.499837  1
  Cd  Cd4  1  0.362975  0.636805  0.499837  1
  Cd  Cd5  1  0.694096  0.306693  0.000441  1
  Cd  Cd6  1  0.305904  0.693307  0.000441  1
  Cd  Cd7  1  0.806693  0.805904  0.499559  1
  Cd  Cd8  1  0.193307  0.194096  0.499559  1
  Cd  Cd9  1  0.500000  0.000000  0.250000  1
  Cd  Cd10  1  0.500000  0.000000  0.750000  1
  Cd  Cd11  1  0.000000  0.500000  0.250000  1
  Au  Au12  1  0.361202  0.363094  0.202378  1
  Au  Au13  1  0.632532  0.640582  0.795878  1
  Au  Au14  1  0.638798  0.636906  0.202378  1
  Au  Au15  1  0.859418  0.132532  0.704122  1
  Au  Au16  1  0.863094  0.138798  0.297622  1
  Au  Au17  1  0.367468  0.359418  0.795878  1
  Au  Au18  1  0.136906  0.861202  0.297622  1
  Au  Au19  1  0.140582  0.867468  0.704122  1
