# generated using pymatgen
data_Ni5PW6C
_symmetry_space_group_name_H-M   'P 1'
_cell_length_a   7.72103763
_cell_length_b   7.69795635
_cell_length_c   7.72103795
_cell_angle_alpha   60.09883624
_cell_angle_beta   60.31469604
_cell_angle_gamma   60.09883459
_symmetry_Int_Tables_number   1
_chemical_formula_structural   Ni5PW6C
_chemical_formula_sum   'Ni10 P2 W12 C2'
_cell_volume   325.74992811
_cell_formula_units_Z   2
loop_
 _symmetry_equiv_pos_site_id
 _symmetry_equiv_pos_as_xyz
  1  'x, y, z'
loop_
 _atom_site_type_symbol
 _atom_site_label
 _atom_site_symmetry_multiplicity
 _atom_site_fract_x
 _atom_site_fract_y
 _atom_site_fract_z
 _atom_site_occupancy
  Ni  Ni0  1  0.424210  0.412942  0.749905  1
  Ni  Ni1  1  0.423866  0.744025  0.423866  1
  Ni  Ni2  1  0.749905  0.412942  0.424210  1
  Ni  Ni3  1  0.423866  0.408242  0.423866  1
  Ni  Ni4  1  0.825790  0.837058  0.500095  1
  Ni  Ni5  1  0.826134  0.505975  0.826134  1
  Ni  Ni6  1  0.500095  0.837058  0.825790  1
  Ni  Ni7  1  0.826134  0.841758  0.826134  1
  Ni  Ni8  1  0.625000  0.625000  0.125000  1
  Ni  Ni9  1  0.125000  0.625000  0.625000  1
  P  P10  1  0.625000  0.125000  0.625000  1
  P  P11  1  0.625000  0.625000  0.625000  1
  W  W12  1  0.056330  0.049365  0.447682  1
  W  W13  1  0.445157  0.054843  0.445157  1
  W  W14  1  0.056330  0.446623  0.447682  1
  W  W15  1  0.447682  0.446623  0.056330  1
  W  W16  1  0.049857  0.450143  0.049857  1
  W  W17  1  0.447682  0.049365  0.056330  1
  W  W18  1  0.193670  0.200635  0.802318  1
  W  W19  1  0.804843  0.195157  0.804843  1
  W  W20  1  0.193670  0.803377  0.802318  1
  W  W21  1  0.802318  0.803377  0.193670  1
  W  W22  1  0.200143  0.799857  0.200143  1
  W  W23  1  0.802318  0.200635  0.193670  1
  C  C24  1  0.248031  0.251969  0.248031  1
  C  C25  1  0.001969  0.998031  0.001969  1
