# generated using pymatgen
data_Th3SnPt3Au2
_symmetry_space_group_name_H-M   'P 1'
_cell_length_a   7.61345300
_cell_length_b   7.83866300
_cell_length_c   3.92840900
_cell_angle_alpha   90.00000000
_cell_angle_beta   90.00000000
_cell_angle_gamma   119.05406667
_symmetry_Int_Tables_number   1
_chemical_formula_structural   Th3SnPt3Au2
_chemical_formula_sum   'Th3 Sn1 Pt3 Au2'
_cell_volume   204.94258120
_cell_formula_units_Z   1
loop_
 _symmetry_equiv_pos_site_id
 _symmetry_equiv_pos_as_xyz
  1  'x, y, z'
loop_
 _atom_site_type_symbol
 _atom_site_label
 _atom_site_symmetry_multiplicity
 _atom_site_fract_x
 _atom_site_fract_y
 _atom_site_fract_z
 _atom_site_occupancy
  Th  Th0  1  0.398513  0.410642  0.000000  1
  Th  Th1  1  0.621702  0.000000  0.000000  1
  Th  Th2  1  0.987872  0.589358  0.000000  1
  Sn  Sn3  1  0.254545  0.000000  0.500000  1
  Pt  Pt4  1  0.330400  0.679890  0.500000  1
  Pt  Pt5  1  0.017580  0.000000  0.000000  1
  Pt  Pt6  1  0.650513  0.320110  0.500000  1
  Au  Au7  1  0.004169  0.269461  0.500000  1
  Au  Au8  1  0.734708  0.730539  0.500000  1
