# generated using pymatgen
data_La4SiNi3I2
_symmetry_space_group_name_H-M   'P 1'
_cell_length_a   4.15274900
_cell_length_b   4.15274950
_cell_length_c   17.70038900
_cell_angle_alpha   90.00000000
_cell_angle_beta   90.00000000
_cell_angle_gamma   119.99998802
_symmetry_Int_Tables_number   1
_chemical_formula_structural   La4SiNi3I2
_chemical_formula_sum   'La4 Si1 Ni3 I2'
_cell_volume   264.35340724
_cell_formula_units_Z   1
loop_
 _symmetry_equiv_pos_site_id
 _symmetry_equiv_pos_as_xyz
  1  'x, y, z'
loop_
 _atom_site_type_symbol
 _atom_site_label
 _atom_site_symmetry_multiplicity
 _atom_site_fract_x
 _atom_site_fract_y
 _atom_site_fract_z
 _atom_site_occupancy
  La  La0  1  0.000000  0.000000  0.104632  1
  La  La1  1  0.000000  0.000000  0.895159  1
  La  La2  1  0.000000  0.000000  0.606143  1
  La  La3  1  0.000000  0.000000  0.392928  1
  Si  Si4  1  0.333333  0.666667  0.496889  1
  Ni  Ni5  1  0.666667  0.333333  0.505203  1
  Ni  Ni6  1  0.666667  0.333333  0.999256  1
  Ni  Ni7  1  0.333333  0.666667  0.000628  1
  I  I8  1  0.333333  0.666667  0.250850  1
  I  I9  1  0.666667  0.333333  0.748311  1
