# generated using pymatgen
data_Pa2CoC2
_symmetry_space_group_name_H-M   'P 1'
_cell_length_a   3.54252876
_cell_length_b   3.54252990
_cell_length_c   6.53218489
_cell_angle_alpha   105.73326242
_cell_angle_beta   105.73326906
_cell_angle_gamma   90.00000450
_symmetry_Int_Tables_number   1
_chemical_formula_structural   Pa2CoC2
_chemical_formula_sum   'Pa2 Co1 C2'
_cell_volume   75.70872756
_cell_formula_units_Z   1
loop_
 _symmetry_equiv_pos_site_id
 _symmetry_equiv_pos_as_xyz
  1  'x, y, z'
loop_
 _atom_site_type_symbol
 _atom_site_label
 _atom_site_symmetry_multiplicity
 _atom_site_fract_x
 _atom_site_fract_y
 _atom_site_fract_z
 _atom_site_occupancy
  Pa  Pa0  1  0.644271  0.644271  0.288542  1
  Pa  Pa1  1  0.355729  0.355729  0.711458  1
  Co  Co2  1  0.000000  0.000000  0.000000  1
  C  C3  1  0.163271  0.163270  0.326540  1
  C  C4  1  0.836729  0.836730  0.673460  1
