# generated using pymatgen
data_NaPr(Cu9Si4)2
_symmetry_space_group_name_H-M   'P 1'
_cell_length_a   8.17313456
_cell_length_b   8.17313440
_cell_length_c   8.17313504
_cell_angle_alpha   120.49584284
_cell_angle_beta   120.49584715
_cell_angle_gamma   89.14329097
_symmetry_Int_Tables_number   1
_chemical_formula_structural   NaPr(Cu9Si4)2
_chemical_formula_sum   'Na1 Pr1 Cu18 Si8'
_cell_volume   383.11678941
_cell_formula_units_Z   1
loop_
 _symmetry_equiv_pos_site_id
 _symmetry_equiv_pos_as_xyz
  1  'x, y, z'
loop_
 _atom_site_type_symbol
 _atom_site_label
 _atom_site_symmetry_multiplicity
 _atom_site_fract_x
 _atom_site_fract_y
 _atom_site_fract_z
 _atom_site_occupancy
  Na  Na0  1  0.750000  0.750000  0.000000  1
  Pr  Pr1  1  0.250000  0.250000  0.000000  1
  Cu  Cu2  1  0.434675  0.702424  0.137696  1
  Cu  Cu3  1  0.702424  0.564728  0.267750  1
  Cu  Cu4  1  0.296979  0.434675  0.732250  1
  Cu  Cu5  1  0.935272  0.797576  0.732250  1
  Cu  Cu6  1  0.564728  0.296979  0.862304  1
  Cu  Cu7  1  0.307870  0.559253  0.501235  1
  Cu  Cu8  1  0.058019  0.806635  0.498765  1
  Cu  Cu9  1  0.693365  0.441981  0.501235  1
  Cu  Cu10  1  0.940747  0.192130  0.498765  1
  Cu  Cu11  1  0.441981  0.940747  0.748616  1
  Cu  Cu12  1  0.192130  0.693365  0.251384  1
  Cu  Cu13  1  0.559253  0.058019  0.251384  1
  Cu  Cu14  1  0.203021  0.935272  0.137696  1
  Cu  Cu15  1  0.065325  0.203021  0.267750  1
  Cu  Cu16  1  0.000000  0.500000  0.500000  1
  Cu  Cu17  1  0.500000  0.000000  0.500000  1
  Cu  Cu18  1  0.806635  0.307870  0.748616  1
  Cu  Cu19  1  0.797576  0.065325  0.862304  1
  Si  Si20  1  0.292620  0.793700  0.852311  1
  Si  Si21  1  0.059691  0.558611  0.852311  1
  Si  Si22  1  0.558611  0.706300  0.498920  1
  Si  Si23  1  0.793700  0.941389  0.501080  1
  Si  Si24  1  0.440309  0.292620  0.498920  1
  Si  Si25  1  0.941389  0.440309  0.147689  1
  Si  Si26  1  0.706300  0.207380  0.147689  1
  Si  Si27  1  0.207380  0.059691  0.501080  1
