# generated using pymatgen
data_Nd2DyGaSi
_symmetry_space_group_name_H-M   'P 1'
_cell_length_a   7.73724300
_cell_length_b   7.71535500
_cell_length_c   4.44369200
_cell_angle_alpha   90.00000000
_cell_angle_beta   90.00000000
_cell_angle_gamma   90.00000000
_symmetry_Int_Tables_number   1
_chemical_formula_structural   Nd2DyGaSi
_chemical_formula_sum   'Nd4 Dy2 Ga2 Si2'
_cell_volume   265.26875558
_cell_formula_units_Z   2
loop_
 _symmetry_equiv_pos_site_id
 _symmetry_equiv_pos_as_xyz
  1  'x, y, z'
loop_
 _atom_site_type_symbol
 _atom_site_label
 _atom_site_symmetry_multiplicity
 _atom_site_fract_x
 _atom_site_fract_y
 _atom_site_fract_z
 _atom_site_occupancy
  Nd  Nd0  1  0.673480  0.176133  0.500000  1
  Nd  Nd1  1  0.826520  0.676133  0.500000  1
  Nd  Nd2  1  0.178869  0.324641  0.500000  1
  Nd  Nd3  1  0.321131  0.824641  0.500000  1
  Dy  Dy4  1  0.495875  0.494641  0.000000  1
  Dy  Dy5  1  0.004125  0.994641  0.000000  1
  Ga  Ga6  1  0.615858  0.885022  0.000000  1
  Ga  Ga7  1  0.884142  0.385022  0.000000  1
  Si  Si8  1  0.119687  0.619561  0.000000  1
  Si  Si9  1  0.380313  0.119561  0.000000  1
