# generated using pymatgen
data_PtI35
_symmetry_space_group_name_H-M   'P 1'
_cell_length_a   17.58017498
_cell_length_b   12.54030950
_cell_length_c   11.87107100
_cell_angle_alpha   88.81408644
_cell_angle_beta   66.02770740
_cell_angle_gamma   92.31545562
_symmetry_Int_Tables_number   1
_chemical_formula_structural   PtI35
_chemical_formula_sum   'Pt1 I35'
_cell_volume   2387.43274716
_cell_formula_units_Z   1
loop_
 _symmetry_equiv_pos_site_id
 _symmetry_equiv_pos_as_xyz
  1  'x, y, z'
loop_
 _atom_site_type_symbol
 _atom_site_label
 _atom_site_symmetry_multiplicity
 _atom_site_fract_x
 _atom_site_fract_y
 _atom_site_fract_z
 _atom_site_occupancy
  Pt  Pt0  1  0.235486  0.444390  0.447410  1
  I  I1  1  0.521074  0.265174  0.540409  1
  I  I2  1  0.746451  0.592337  0.579114  1
  I  I3  1  0.456760  0.681342  0.730994  1
  I  I4  1  0.071602  0.894143  0.838228  1
  I  I5  1  0.895911  0.156981  0.024114  1
  I  I6  1  0.655326  0.310621  0.284462  1
  I  I7  1  0.611396  0.333715  0.837475  1
  I  I8  1  0.323524  0.769905  0.675576  1
  I  I9  1  0.304986  0.572250  0.238693  1
  I  I10  1  0.650426  0.121061  0.821126  1
  I  I11  1  0.908923  0.566187  0.384761  1
  I  I12  1  0.076885  0.962289  0.600818  1
  I  I13  1  0.898479  0.115860  0.270007  1
  I  I14  1  0.889262  0.199593  0.788677  1
  I  I15  1  0.650769  0.050742  0.243627  1
  I  I16  1  0.039223  0.819684  0.093199  1
  I  I17  1  0.353476  0.987375  0.730476  1
  I  I18  1  0.902984  0.338863  0.331801  1
  I  I19  1  0.887273  0.920306  0.704378  1
  I  I20  1  0.937644  0.656775  0.729146  1
  I  I21  1  0.311049  0.038461  0.272785  1
  I  I22  1  0.336218  0.311890  0.283211  1
  I  I23  1  0.588002  0.606233  0.800114  1
  I  I24  1  0.103740  0.387754  0.397103  1
  I  I25  1  0.712025  0.881226  0.812882  1
  I  I26  1  0.888703  0.437882  0.777790  1
  I  I27  1  0.481975  0.041272  0.258987  1
  I  I28  1  0.176369  0.293334  0.626906  1
  I  I29  1  0.675088  0.785580  0.265937  1
  I  I30  1  0.859050  0.805966  0.177971  1
  I  I31  1  0.393842  0.211091  0.778640  1
  I  I32  1  0.354625  0.499965  0.524848  1
  I  I33  1  0.655655  0.545285  0.257088  1
  I  I34  1  0.148335  0.593709  0.597820  1
  I  I35  1  0.297464  0.800758  0.273430  1
