# generated using pymatgen
data_Dy20Ir8OsRu3
_symmetry_space_group_name_H-M   'P 1'
_cell_length_a   10.82877000
_cell_length_b   10.82877000
_cell_length_c   6.42766900
_cell_angle_alpha   90.00000000
_cell_angle_beta   90.00000000
_cell_angle_gamma   90.00000000
_symmetry_Int_Tables_number   1
_chemical_formula_structural   Dy20Ir8OsRu3
_chemical_formula_sum   'Dy20 Ir8 Os1 Ru3'
_cell_volume   753.72299163
_cell_formula_units_Z   1
loop_
 _symmetry_equiv_pos_site_id
 _symmetry_equiv_pos_as_xyz
  1  'x, y, z'
loop_
 _atom_site_type_symbol
 _atom_site_label
 _atom_site_symmetry_multiplicity
 _atom_site_fract_x
 _atom_site_fract_y
 _atom_site_fract_z
 _atom_site_occupancy
  Dy  Dy0  1  0.293603  0.086770  0.378162  1
  Dy  Dy1  1  0.293673  0.913130  0.878743  1
  Dy  Dy2  1  0.706327  0.086870  0.878743  1
  Dy  Dy3  1  0.706397  0.913230  0.378162  1
  Dy  Dy4  1  0.586870  0.793673  0.878743  1
  Dy  Dy5  1  0.586770  0.206397  0.378162  1
  Dy  Dy6  1  0.413230  0.793603  0.378162  1
  Dy  Dy7  1  0.413130  0.206327  0.878743  1
  Dy  Dy8  1  0.206592  0.413033  0.621250  1
  Dy  Dy9  1  0.206609  0.586987  0.121424  1
  Dy  Dy10  1  0.793391  0.413013  0.121424  1
  Dy  Dy11  1  0.793408  0.586967  0.621250  1
  Dy  Dy12  1  0.913013  0.706609  0.121424  1
  Dy  Dy13  1  0.913033  0.293408  0.621250  1
  Dy  Dy14  1  0.086967  0.706592  0.621250  1
  Dy  Dy15  1  0.086987  0.293391  0.121424  1
  Dy  Dy16  1  0.000000  0.000000  0.500182  1
  Dy  Dy17  1  0.000000  0.000000  0.000053  1
  Dy  Dy18  1  0.500000  0.500000  0.000053  1
  Dy  Dy19  1  0.500000  0.500000  0.500182  1
  Ir  Ir20  1  0.847953  0.152559  0.250139  1
  Ir  Ir21  1  0.847840  0.847489  0.750023  1
  Ir  Ir22  1  0.152160  0.152511  0.750023  1
  Ir  Ir23  1  0.152047  0.847441  0.250139  1
  Ir  Ir24  1  0.652511  0.347840  0.750023  1
  Ir  Ir25  1  0.652559  0.652047  0.250139  1
  Ir  Ir26  1  0.347441  0.347953  0.250139  1
  Ir  Ir27  1  0.347489  0.652160  0.750023  1
  Os  Os28  1  0.500000  0.000000  0.124250  1
  Ru  Ru29  1  0.500000  0.000000  0.623193  1
  Ru  Ru30  1  0.000000  0.500000  0.876454  1
  Ru  Ru31  1  0.000000  0.500000  0.376672  1
