# generated using pymatgen
data_Dy2Y3Hf5(Si5Ir2)4
_symmetry_space_group_name_H-M   'P 1'
_cell_length_a   12.49901600
_cell_length_b   12.49917900
_cell_length_c   4.16982500
_cell_angle_alpha   90.00000000
_cell_angle_beta   90.00000000
_cell_angle_gamma   89.99838643
_symmetry_Int_Tables_number   1
_chemical_formula_structural   Dy2Y3Hf5(Si5Ir2)4
_chemical_formula_sum   'Dy2 Y3 Hf5 Si20 Ir8'
_cell_volume   651.44107781
_cell_formula_units_Z   1
loop_
 _symmetry_equiv_pos_site_id
 _symmetry_equiv_pos_as_xyz
  1  'x, y, z'
loop_
 _atom_site_type_symbol
 _atom_site_label
 _atom_site_symmetry_multiplicity
 _atom_site_fract_x
 _atom_site_fract_y
 _atom_site_fract_z
 _atom_site_occupancy
  Dy  Dy0  1  0.999993  0.000007  0.000000  1
  Dy  Dy1  1  0.884244  0.384970  0.500000  1
  Y  Y2  1  0.115743  0.615005  0.500000  1
  Y  Y3  1  0.384980  0.115761  0.500000  1
  Y  Y4  1  0.615019  0.884239  0.500000  1
  Hf  Hf5  1  0.500007  0.499994  0.000000  1
  Hf  Hf6  1  0.673681  0.175664  0.500000  1
  Hf  Hf7  1  0.326359  0.824375  0.500000  1
  Hf  Hf8  1  0.175600  0.326383  0.500000  1
  Hf  Hf9  1  0.824400  0.673617  0.500000  1
  Si  Si10  1  0.565965  0.068228  0.000000  1
  Si  Si11  1  0.434036  0.931771  0.000000  1
  Si  Si12  1  0.068129  0.434016  0.000000  1
  Si  Si13  1  0.931752  0.565865  0.000000  1
  Si  Si14  1  0.665291  0.701526  0.000000  1
  Si  Si15  1  0.334716  0.298456  0.000000  1
  Si  Si16  1  0.163766  0.800243  0.000000  1
  Si  Si17  1  0.836219  0.199866  0.000000  1
  Si  Si18  1  0.298468  0.665264  0.000000  1
  Si  Si19  1  0.701646  0.334723  0.000000  1
  Si  Si20  1  0.199751  0.163796  0.000000  1
  Si  Si21  1  0.800233  0.836213  0.000000  1
  Si  Si22  1  0.651020  0.508247  0.500000  1
  Si  Si23  1  0.349037  0.491715  0.500000  1
  Si  Si24  1  0.157173  0.992329  0.500000  1
  Si  Si25  1  0.842824  0.007672  0.500000  1
  Si  Si26  1  0.491719  0.650957  0.500000  1
  Si  Si27  1  0.508281  0.349043  0.500000  1
  Si  Si28  1  0.007636  0.157235  0.500000  1
  Si  Si29  1  0.992325  0.842821  0.500000  1
  Ir  Ir30  1  0.741579  0.521969  0.000000  1
  Ir  Ir31  1  0.258466  0.477967  0.000000  1
  Ir  Ir32  1  0.246584  0.977421  0.000000  1
  Ir  Ir33  1  0.753423  0.022590  0.000000  1
  Ir  Ir34  1  0.477964  0.741536  0.000000  1
  Ir  Ir35  1  0.522046  0.258471  0.000000  1
  Ir  Ir36  1  0.022498  0.246639  0.000000  1
  Ir  Ir37  1  0.977426  0.753406  0.000000  1
