# generated using pymatgen
data_TaTi2(BOs)3
_symmetry_space_group_name_H-M   'P 1'
_cell_length_a   3.08338200
_cell_length_b   8.97239000
_cell_length_c   15.49292000
_cell_angle_alpha   90.00000000
_cell_angle_beta   90.00000000
_cell_angle_gamma   90.00000000
_symmetry_Int_Tables_number   1
_chemical_formula_structural   TaTi2(BOs)3
_chemical_formula_sum   'Ta4 Ti8 B12 Os12'
_cell_volume   428.61636989
_cell_formula_units_Z   4
loop_
 _symmetry_equiv_pos_site_id
 _symmetry_equiv_pos_as_xyz
  1  'x, y, z'
loop_
 _atom_site_type_symbol
 _atom_site_label
 _atom_site_symmetry_multiplicity
 _atom_site_fract_x
 _atom_site_fract_y
 _atom_site_fract_z
 _atom_site_occupancy
  Ta  Ta0  1  0.000000  0.684465  0.204517  1
  Ta  Ta1  1  0.000000  0.315535  0.795483  1
  Ta  Ta2  1  0.000000  0.184465  0.295483  1
  Ta  Ta3  1  0.000000  0.815535  0.704517  1
  Ti  Ti4  1  0.000000  0.800418  0.494942  1
  Ti  Ti5  1  0.000000  0.199582  0.505058  1
  Ti  Ti6  1  0.000000  0.300418  0.005058  1
  Ti  Ti7  1  0.000000  0.699582  0.994942  1
  Ti  Ti8  1  0.000000  0.515059  0.593868  1
  Ti  Ti9  1  0.000000  0.484941  0.406132  1
  Ti  Ti10  1  0.000000  0.015059  0.906132  1
  Ti  Ti11  1  0.000000  0.984941  0.093868  1
  B  B12  1  0.500000  0.603412  0.495280  1
  B  B13  1  0.500000  0.396588  0.504720  1
  B  B14  1  0.500000  0.103412  0.004720  1
  B  B15  1  0.500000  0.896588  0.995280  1
  B  B16  1  0.000000  0.610604  0.834278  1
  B  B17  1  0.000000  0.389396  0.165722  1
  B  B18  1  0.000000  0.110604  0.665722  1
  B  B19  1  0.000000  0.889396  0.334278  1
  B  B20  1  0.500000  0.712764  0.598447  1
  B  B21  1  0.500000  0.287236  0.401553  1
  B  B22  1  0.500000  0.212764  0.901553  1
  B  B23  1  0.500000  0.787236  0.098447  1
  Os  Os24  1  0.500000  0.716399  0.359255  1
  Os  Os25  1  0.500000  0.283601  0.640745  1
  Os  Os26  1  0.500000  0.216399  0.140745  1
  Os  Os27  1  0.500000  0.783601  0.859255  1
  Os  Os28  1  0.500000  0.519743  0.093336  1
  Os  Os29  1  0.500000  0.480257  0.906664  1
  Os  Os30  1  0.500000  0.019743  0.406664  1
  Os  Os31  1  0.500000  0.980257  0.593336  1
  Os  Os32  1  0.500000  0.565683  0.731283  1
  Os  Os33  1  0.500000  0.434317  0.268717  1
  Os  Os34  1  0.500000  0.065683  0.768717  1
  Os  Os35  1  0.500000  0.934317  0.231283  1
