# generated using pymatgen
data_La2TbY3CoI10
_symmetry_space_group_name_H-M   'P 1'
_cell_length_a   7.83486836
_cell_length_b   9.86493995
_cell_length_c   9.78616883
_cell_angle_alpha   106.87043622
_cell_angle_beta   95.87334503
_cell_angle_gamma   105.59177115
_symmetry_Int_Tables_number   1
_chemical_formula_structural   La2TbY3CoI10
_chemical_formula_sum   'La2 Tb1 Y3 Co1 I10'
_cell_volume   683.71720812
_cell_formula_units_Z   1
loop_
 _symmetry_equiv_pos_site_id
 _symmetry_equiv_pos_as_xyz
  1  'x, y, z'
loop_
 _atom_site_type_symbol
 _atom_site_label
 _atom_site_symmetry_multiplicity
 _atom_site_fract_x
 _atom_site_fract_y
 _atom_site_fract_z
 _atom_site_occupancy
  La  La0  1  0.887106  0.958497  0.229711  1
  La  La1  1  0.112804  0.041839  0.770384  1
  Tb  Tb2  1  0.028453  0.716698  0.914145  1
  Y  Y3  1  0.972049  0.283358  0.085864  1
  Y  Y4  1  0.654555  0.875289  0.837172  1
  Y  Y5  1  0.345386  0.125149  0.162935  1
  Co  Co6  1  0.999900  0.999527  0.999848  1
  I  I7  1  0.650342  0.552596  0.730122  1
  I  I8  1  0.349034  0.447359  0.269671  1
  I  I9  1  0.729445  0.909450  0.540875  1
  I  I10  1  0.270519  0.090662  0.459113  1
  I  I11  1  0.082484  0.378178  0.823412  1
  I  I12  1  0.917271  0.621036  0.177074  1
  I  I13  1  0.445376  0.816833  0.089223  1
  I  I14  1  0.554886  0.183386  0.910894  1
  I  I15  1  0.226199  0.736849  0.656438  1
  I  I16  1  0.774192  0.263295  0.343119  1
