# generated using pymatgen
data_Tb3Er9Co4SnRu
_symmetry_space_group_name_H-M   'P 1'
_cell_length_a   8.25156016
_cell_length_b   8.25156026
_cell_length_c   8.24709049
_cell_angle_alpha   111.16333730
_cell_angle_beta   110.79503215
_cell_angle_gamma   106.51904610
_symmetry_Int_Tables_number   1
_chemical_formula_structural   Tb3Er9Co4SnRu
_chemical_formula_sum   'Tb3 Er9 Co4 Sn1 Ru1'
_cell_volume   431.27581136
_cell_formula_units_Z   1
loop_
 _symmetry_equiv_pos_site_id
 _symmetry_equiv_pos_as_xyz
  1  'x, y, z'
loop_
 _atom_site_type_symbol
 _atom_site_label
 _atom_site_symmetry_multiplicity
 _atom_site_fract_x
 _atom_site_fract_y
 _atom_site_fract_z
 _atom_site_occupancy
  Tb  Tb0  1  0.185242  0.286180  0.471421  1
  Tb  Tb1  1  0.813535  0.713175  0.526711  1
  Tb  Tb2  1  0.186691  0.713644  0.900334  1
  Er  Er3  1  0.814203  0.284993  0.099195  1
  Er  Er4  1  0.311897  0.619970  0.307273  1
  Er  Er5  1  0.687783  0.379397  0.693105  1
  Er  Er6  1  0.313707  0.005321  0.693105  1
  Er  Er7  1  0.687302  0.995376  0.307273  1
  Er  Er8  1  0.409417  0.215223  0.193718  1
  Er  Er9  1  0.592313  0.785708  0.807143  1
  Er  Er10  1  0.021435  0.214830  0.807143  1
  Er  Er11  1  0.978495  0.784301  0.193718  1
  Co  Co12  1  0.109950  0.611118  0.497765  1
  Co  Co13  1  0.886646  0.387814  0.497765  1
  Co  Co14  1  0.377933  0.999354  0.377287  1
  Co  Co15  1  0.622515  0.001472  0.623987  1
  Sn  Sn16  1  0.501107  0.499292  0.000399  1
  Ru  Ru17  1  0.999830  0.002830  0.002660  1
