# generated using pymatgen
data_LiDy2Pa2Zn3Rh4
_symmetry_space_group_name_H-M   'P 1'
_cell_length_a   3.79939800
_cell_length_b   7.17538768
_cell_length_c   8.47318728
_cell_angle_alpha   92.91104662
_cell_angle_beta   90.00000000
_cell_angle_gamma   90.00000000
_symmetry_Int_Tables_number   1
_chemical_formula_structural   LiDy2Pa2Zn3Rh4
_chemical_formula_sum   'Li1 Dy2 Pa2 Zn3 Rh4'
_cell_volume   230.69925069
_cell_formula_units_Z   1
loop_
 _symmetry_equiv_pos_site_id
 _symmetry_equiv_pos_as_xyz
  1  'x, y, z'
loop_
 _atom_site_type_symbol
 _atom_site_label
 _atom_site_symmetry_multiplicity
 _atom_site_fract_x
 _atom_site_fract_y
 _atom_site_fract_z
 _atom_site_occupancy
  Li  Li0  1  0.250000  0.115866  0.941996  1
  Dy  Dy1  1  0.250000  0.057070  0.317755  1
  Dy  Dy2  1  0.750000  0.941746  0.684168  1
  Pa  Pa3  1  0.250000  0.549703  0.190602  1
  Pa  Pa4  1  0.750000  0.449529  0.807465  1
  Zn  Zn5  1  0.750000  0.884524  0.061582  1
  Zn  Zn6  1  0.250000  0.628955  0.557548  1
  Zn  Zn7  1  0.750000  0.371780  0.441702  1
  Rh  Rh8  1  0.750000  0.745860  0.356137  1
  Rh  Rh9  1  0.250000  0.255346  0.640578  1
  Rh  Rh10  1  0.750000  0.287732  0.121776  1
  Rh  Rh11  1  0.250000  0.711888  0.878691  1
