# generated using pymatgen
data_Th4BeFeB20
_symmetry_space_group_name_H-M   'P 1'
_cell_length_a   4.17913500
_cell_length_b   5.62486598
_cell_length_c   11.19288203
_cell_angle_alpha   89.38374519
_cell_angle_beta   90.00000000
_cell_angle_gamma   90.00000000
_symmetry_Int_Tables_number   1
_chemical_formula_structural   Th4BeFeB20
_chemical_formula_sum   'Th4 Be1 Fe1 B20'
_cell_volume   263.09669054
_cell_formula_units_Z   1
loop_
 _symmetry_equiv_pos_site_id
 _symmetry_equiv_pos_as_xyz
  1  'x, y, z'
loop_
 _atom_site_type_symbol
 _atom_site_label
 _atom_site_symmetry_multiplicity
 _atom_site_fract_x
 _atom_site_fract_y
 _atom_site_fract_z
 _atom_site_occupancy
  Th  Th0  1  0.500000  0.294102  0.866686  1
  Th  Th1  1  0.500000  0.705898  0.133314  1
  Th  Th2  1  0.500000  0.800407  0.632814  1
  Th  Th3  1  0.500000  0.199593  0.367186  1
  Be  Be4  1  0.000000  0.500000  0.500000  1
  Fe  Fe5  1  0.000000  0.000000  0.000000  1
  B  B6  1  0.000000  0.127340  0.539343  1
  B  B7  1  0.000000  0.872660  0.460657  1
  B  B8  1  0.000000  0.628557  0.960504  1
  B  B9  1  0.000000  0.371443  0.039496  1
  B  B10  1  0.000000  0.154739  0.695041  1
  B  B11  1  0.000000  0.845261  0.304959  1
  B  B12  1  0.299152  0.202501  0.114626  1
  B  B13  1  0.299152  0.797499  0.885374  1
  B  B14  1  0.700057  0.699047  0.388783  1
  B  B15  1  0.700057  0.300953  0.611217  1
  B  B16  1  0.700848  0.797499  0.885374  1
  B  B17  1  0.700848  0.202501  0.114626  1
  B  B18  1  0.299943  0.300953  0.611217  1
  B  B19  1  0.299943  0.699047  0.388783  1
  B  B20  1  0.000000  0.033929  0.188220  1
  B  B21  1  0.000000  0.966071  0.811780  1
  B  B22  1  0.000000  0.533102  0.315061  1
  B  B23  1  0.000000  0.466898  0.684939  1
  B  B24  1  0.000000  0.347331  0.198764  1
  B  B25  1  0.000000  0.652669  0.801236  1
