# generated using pymatgen
data_Ho5Zr3(Co4P3)4
_symmetry_space_group_name_H-M   'P 1'
_cell_length_a   12.29590900
_cell_length_b   12.29590877
_cell_length_c   3.71236800
_cell_angle_alpha   90.00000000
_cell_angle_beta   90.00000000
_cell_angle_gamma   120.00000331
_symmetry_Int_Tables_number   1
_chemical_formula_structural   Ho5Zr3(Co4P3)4
_chemical_formula_sum   'Ho5 Zr3 Co16 P12'
_cell_volume   486.07458067
_cell_formula_units_Z   1
loop_
 _symmetry_equiv_pos_site_id
 _symmetry_equiv_pos_as_xyz
  1  'x, y, z'
loop_
 _atom_site_type_symbol
 _atom_site_label
 _atom_site_symmetry_multiplicity
 _atom_site_fract_x
 _atom_site_fract_y
 _atom_site_fract_z
 _atom_site_occupancy
  Ho  Ho0  1  0.666667  0.333333  0.000000  1
  Ho  Ho1  1  0.333333  0.666667  0.000000  1
  Ho  Ho2  1  0.817575  0.817575  0.500000  1
  Ho  Ho3  1  0.182425  0.000000  0.500000  1
  Ho  Ho4  1  0.000000  0.182425  0.500000  1
  Zr  Zr5  1  0.441050  0.441050  0.000000  1
  Zr  Zr6  1  0.558950  0.000000  0.000000  1
  Zr  Zr7  1  0.000000  0.558950  0.000000  1
  Co  Co8  1  0.875145  0.354986  0.500000  1
  Co  Co9  1  0.645014  0.520159  0.500000  1
  Co  Co10  1  0.479841  0.124855  0.500000  1
  Co  Co11  1  0.354986  0.875145  0.500000  1
  Co  Co12  1  0.520159  0.645014  0.500000  1
  Co  Co13  1  0.124855  0.479841  0.500000  1
  Co  Co14  1  0.805437  0.178831  0.000000  1
  Co  Co15  1  0.821169  0.626605  0.000000  1
  Co  Co16  1  0.373395  0.194563  0.000000  1
  Co  Co17  1  0.178831  0.805437  0.000000  1
  Co  Co18  1  0.626605  0.821169  0.000000  1
  Co  Co19  1  0.194563  0.373395  0.000000  1
  Co  Co20  1  0.277196  0.277196  0.500000  1
  Co  Co21  1  0.722804  0.000000  0.500000  1
  Co  Co22  1  0.000000  0.722804  0.500000  1
  Co  Co23  1  0.000000  0.000000  0.000000  1
  P  P24  1  0.693384  0.172326  0.500000  1
  P  P25  1  0.827674  0.521059  0.500000  1
  P  P26  1  0.478941  0.306616  0.500000  1
  P  P27  1  0.172326  0.693384  0.500000  1
  P  P28  1  0.521059  0.827674  0.500000  1
  P  P29  1  0.306616  0.478941  0.500000  1
  P  P30  1  0.178137  0.178137  0.000000  1
  P  P31  1  0.821863  0.000000  0.000000  1
  P  P32  1  0.000000  0.821863  0.000000  1
  P  P33  1  0.648818  0.648818  0.000000  1
  P  P34  1  0.351182  0.000000  0.000000  1
  P  P35  1  0.000000  0.351182  0.000000  1
