# generated using pymatgen
data_Ho5Ta3(B6Ru)4
_symmetry_space_group_name_H-M   'P 1'
_cell_length_a   3.51527500
_cell_length_b   9.01993871
_cell_length_c   11.33640146
_cell_angle_alpha   89.90842698
_cell_angle_beta   90.00000000
_cell_angle_gamma   90.00000000
_symmetry_Int_Tables_number   1
_chemical_formula_structural   Ho5Ta3(B6Ru)4
_chemical_formula_sum   'Ho5 Ta3 B24 Ru4'
_cell_volume   359.44922787
_cell_formula_units_Z   1
loop_
 _symmetry_equiv_pos_site_id
 _symmetry_equiv_pos_as_xyz
  1  'x, y, z'
loop_
 _atom_site_type_symbol
 _atom_site_label
 _atom_site_symmetry_multiplicity
 _atom_site_fract_x
 _atom_site_fract_y
 _atom_site_fract_z
 _atom_site_occupancy
  Ho  Ho0  1  0.000000  0.323130  0.414729  1
  Ho  Ho1  1  0.000000  0.677169  0.588761  1
  Ho  Ho2  1  0.000000  0.822307  0.083739  1
  Ho  Ho3  1  0.000000  0.177598  0.911497  1
  Ho  Ho4  1  0.000000  0.945089  0.373284  1
  Ta  Ta5  1  0.000000  0.055486  0.628515  1
  Ta  Ta6  1  0.000000  0.446821  0.120768  1
  Ta  Ta7  1  0.000000  0.552841  0.876953  1
  B  B8  1  0.500000  0.552295  0.433680  1
  B  B9  1  0.500000  0.444650  0.566787  1
  B  B10  1  0.500000  0.056132  0.064472  1
  B  B11  1  0.500000  0.945984  0.933763  1
  B  B12  1  0.500000  0.747589  0.417969  1
  B  B13  1  0.500000  0.246261  0.583096  1
  B  B14  1  0.500000  0.254820  0.079535  1
  B  B15  1  0.500000  0.745367  0.919414  1
  B  B16  1  0.500000  0.792747  0.261556  1
  B  B17  1  0.500000  0.203065  0.738058  1
  B  B18  1  0.500000  0.298127  0.234900  1
  B  B19  1  0.500000  0.702058  0.764149  1
  B  B20  1  0.500000  0.628149  0.180624  1
  B  B21  1  0.500000  0.370902  0.818959  1
  B  B22  1  0.500000  0.133876  0.315397  1
  B  B23  1  0.500000  0.871316  0.683570  1
  B  B24  1  0.500000  0.984733  0.210605  1
  B  B25  1  0.500000  0.018619  0.787373  1
  B  B26  1  0.500000  0.479965  0.285018  1
  B  B27  1  0.500000  0.519907  0.714305  1
  B  B28  1  0.500000  0.599607  0.026241  1
  B  B29  1  0.500000  0.400334  0.972811  1
  B  B30  1  0.500000  0.104304  0.478079  1
  B  B31  1  0.500000  0.900339  0.532719  1
  Ru  Ru32  1  0.000000  0.638220  0.315663  1
  Ru  Ru33  1  0.000000  0.360226  0.683515  1
  Ru  Ru34  1  0.000000  0.146361  0.179391  1
  Ru  Ru35  1  0.000000  0.853603  0.820104  1
