# generated using pymatgen
data_YTh(Nb2Fe9)2
_symmetry_space_group_name_H-M   'P 1'
_cell_length_a   4.91672100
_cell_length_b   4.91672187
_cell_length_c   15.82446300
_cell_angle_alpha   90.00000000
_cell_angle_beta   90.00000000
_cell_angle_gamma   120.00000091
_symmetry_Int_Tables_number   1
_chemical_formula_structural   YTh(Nb2Fe9)2
_chemical_formula_sum   'Y1 Th1 Nb4 Fe18'
_cell_volume   331.29189815
_cell_formula_units_Z   1
loop_
 _symmetry_equiv_pos_site_id
 _symmetry_equiv_pos_as_xyz
  1  'x, y, z'
loop_
 _atom_site_type_symbol
 _atom_site_label
 _atom_site_symmetry_multiplicity
 _atom_site_fract_x
 _atom_site_fract_y
 _atom_site_fract_z
 _atom_site_occupancy
  Y  Y0  1  0.666667  0.333333  0.250000  1
  Th  Th1  1  0.333333  0.666667  0.750000  1
  Nb  Nb2  1  0.333333  0.666667  0.968120  1
  Nb  Nb3  1  0.666667  0.333333  0.035395  1
  Nb  Nb4  1  0.666667  0.333333  0.464605  1
  Nb  Nb5  1  0.333333  0.666667  0.531880  1
  Fe  Fe6  1  0.167906  0.832094  0.378555  1
  Fe  Fe7  1  0.167906  0.335812  0.378555  1
  Fe  Fe8  1  0.664188  0.832094  0.378555  1
  Fe  Fe9  1  0.831720  0.168280  0.618115  1
  Fe  Fe10  1  0.831720  0.663439  0.618115  1
  Fe  Fe11  1  0.336561  0.168280  0.618115  1
  Fe  Fe12  1  0.831720  0.168280  0.881885  1
  Fe  Fe13  1  0.831720  0.663439  0.881885  1
  Fe  Fe14  1  0.336561  0.168280  0.881885  1
  Fe  Fe15  1  0.167906  0.832094  0.121445  1
  Fe  Fe16  1  0.167906  0.335812  0.121445  1
  Fe  Fe17  1  0.664188  0.832094  0.121445  1
  Fe  Fe18  1  0.333333  0.666667  0.250000  1
  Fe  Fe19  1  0.666667  0.333333  0.750000  1
  Fe  Fe20  1  0.000000  0.000000  0.250000  1
  Fe  Fe21  1  0.000000  0.000000  0.750000  1
  Fe  Fe22  1  0.000000  0.000000  0.498381  1
  Fe  Fe23  1  0.000000  0.000000  0.001619  1
