# generated using pymatgen
data_Ta3Re3SiB2
_symmetry_space_group_name_H-M   'P 1'
_cell_length_a   6.64325600
_cell_length_b   6.64325647
_cell_length_c   3.16837200
_cell_angle_alpha   90.00000000
_cell_angle_beta   90.00000000
_cell_angle_gamma   119.99999767
_symmetry_Int_Tables_number   1
_chemical_formula_structural   Ta3Re3SiB2
_chemical_formula_sum   'Ta3 Re3 Si1 B2'
_cell_volume   121.09572620
_cell_formula_units_Z   1
loop_
 _symmetry_equiv_pos_site_id
 _symmetry_equiv_pos_as_xyz
  1  'x, y, z'
loop_
 _atom_site_type_symbol
 _atom_site_label
 _atom_site_symmetry_multiplicity
 _atom_site_fract_x
 _atom_site_fract_y
 _atom_site_fract_z
 _atom_site_occupancy
  Ta  Ta0  1  0.388684  0.973480  0.500000  1
  Ta  Ta1  1  0.026520  0.415204  0.500000  1
  Ta  Ta2  1  0.584796  0.611316  0.500000  1
  Re  Re3  1  0.752341  0.999276  0.000000  1
  Re  Re4  1  0.000724  0.753066  0.000000  1
  Re  Re5  1  0.246934  0.247659  0.000000  1
  Si  Si6  1  0.666667  0.333333  0.000000  1
  B  B7  1  0.333333  0.666667  0.000000  1
  B  B8  1  0.000000  0.000000  0.500000  1
