# generated using pymatgen
data_Hf9ZrZn2Sn5Sb
_symmetry_space_group_name_H-M   'P 1'
_cell_length_a   8.62610500
_cell_length_b   8.62475163
_cell_length_c   5.82418900
_cell_angle_alpha   90.00000000
_cell_angle_beta   90.00000000
_cell_angle_gamma   120.00519474
_symmetry_Int_Tables_number   1
_chemical_formula_structural   Hf9ZrZn2Sn5Sb
_chemical_formula_sum   'Hf9 Zr1 Zn2 Sn5 Sb1'
_cell_volume   375.23616897
_cell_formula_units_Z   1
loop_
 _symmetry_equiv_pos_site_id
 _symmetry_equiv_pos_as_xyz
  1  'x, y, z'
loop_
 _atom_site_type_symbol
 _atom_site_label
 _atom_site_symmetry_multiplicity
 _atom_site_fract_x
 _atom_site_fract_y
 _atom_site_fract_z
 _atom_site_occupancy
  Hf  Hf0  1  0.731945  0.732423  0.250000  1
  Hf  Hf1  1  0.999523  0.267577  0.250000  1
  Hf  Hf2  1  0.000038  0.732074  0.750000  1
  Hf  Hf3  1  0.267966  0.267926  0.750000  1
  Hf  Hf4  1  0.268700  0.000000  0.250000  1
  Hf  Hf5  1  0.333551  0.666962  0.500196  1
  Hf  Hf6  1  0.666589  0.333038  0.999804  1
  Hf  Hf7  1  0.666589  0.333038  0.500196  1
  Hf  Hf8  1  0.333551  0.666962  0.999804  1
  Zr  Zr9  1  0.731613  0.000000  0.750000  1
  Zn  Zn10  1  0.001112  0.000000  0.999768  1
  Zn  Zn11  1  0.001112  0.000000  0.500232  1
  Sn  Sn12  1  0.383540  0.000000  0.750000  1
  Sn  Sn13  1  0.384987  0.385228  0.250000  1
  Sn  Sn14  1  0.999760  0.614772  0.250000  1
  Sn  Sn15  1  0.000706  0.386118  0.750000  1
  Sn  Sn16  1  0.614587  0.613882  0.750000  1
  Sb  Sb17  1  0.614134  0.000000  0.250000  1
