# generated using pymatgen
data_CeTh3(CuSi3)2
_symmetry_space_group_name_H-M   'P 1'
_cell_length_a   8.08759400
_cell_length_b   8.08759462
_cell_length_c   4.26408800
_cell_angle_alpha   90.00000000
_cell_angle_beta   90.00000000
_cell_angle_gamma   120.00000564
_symmetry_Int_Tables_number   1
_chemical_formula_structural   CeTh3(CuSi3)2
_chemical_formula_sum   'Ce1 Th3 Cu2 Si6'
_cell_volume   241.54357067
_cell_formula_units_Z   1
loop_
 _symmetry_equiv_pos_site_id
 _symmetry_equiv_pos_as_xyz
  1  'x, y, z'
loop_
 _atom_site_type_symbol
 _atom_site_label
 _atom_site_symmetry_multiplicity
 _atom_site_fract_x
 _atom_site_fract_y
 _atom_site_fract_z
 _atom_site_occupancy
  Ce  Ce0  1  0.000000  0.000000  0.000000  1
  Th  Th1  1  0.500000  0.500000  0.000000  1
  Th  Th2  1  0.000000  0.500000  0.000000  1
  Th  Th3  1  0.500000  0.000000  0.000000  1
  Cu  Cu4  1  0.333333  0.666667  0.500000  1
  Cu  Cu5  1  0.666667  0.333333  0.500000  1
  Si  Si6  1  0.831938  0.663875  0.500000  1
  Si  Si7  1  0.168062  0.831938  0.500000  1
  Si  Si8  1  0.663875  0.831938  0.500000  1
  Si  Si9  1  0.168062  0.336125  0.500000  1
  Si  Si10  1  0.831938  0.168062  0.500000  1
  Si  Si11  1  0.336125  0.168062  0.500000  1
