# generated using pymatgen
data_YZrB6Os
_symmetry_space_group_name_H-M   'P 1'
_cell_length_a   3.57513400
_cell_length_b   9.05834600
_cell_length_c   11.43429800
_cell_angle_alpha   90.00000000
_cell_angle_beta   90.00000000
_cell_angle_gamma   90.00000000
_symmetry_Int_Tables_number   1
_chemical_formula_structural   YZrB6Os
_chemical_formula_sum   'Y4 Zr4 B24 Os4'
_cell_volume   370.29746266
_cell_formula_units_Z   4
loop_
 _symmetry_equiv_pos_site_id
 _symmetry_equiv_pos_as_xyz
  1  'x, y, z'
loop_
 _atom_site_type_symbol
 _atom_site_label
 _atom_site_symmetry_multiplicity
 _atom_site_fract_x
 _atom_site_fract_y
 _atom_site_fract_z
 _atom_site_occupancy
  Y  Y0  1  0.000000  0.321657  0.413375  1
  Y  Y1  1  0.000000  0.678343  0.586625  1
  Y  Y2  1  0.000000  0.821657  0.086625  1
  Y  Y3  1  0.000000  0.178343  0.913375  1
  Zr  Zr4  1  0.000000  0.944737  0.374374  1
  Zr  Zr5  1  0.000000  0.055263  0.625626  1
  Zr  Zr6  1  0.000000  0.444737  0.125626  1
  Zr  Zr7  1  0.000000  0.555263  0.874374  1
  B  B8  1  0.500000  0.554512  0.433768  1
  B  B9  1  0.500000  0.445488  0.566232  1
  B  B10  1  0.500000  0.054512  0.066232  1
  B  B11  1  0.500000  0.945488  0.933768  1
  B  B12  1  0.500000  0.751458  0.418874  1
  B  B13  1  0.500000  0.248542  0.581126  1
  B  B14  1  0.500000  0.251458  0.081126  1
  B  B15  1  0.500000  0.748542  0.918874  1
  B  B16  1  0.500000  0.794547  0.264015  1
  B  B17  1  0.500000  0.205453  0.735985  1
  B  B18  1  0.500000  0.294547  0.235985  1
  B  B19  1  0.500000  0.705453  0.764015  1
  B  B20  1  0.500000  0.630267  0.183197  1
  B  B21  1  0.500000  0.369733  0.816803  1
  B  B22  1  0.500000  0.130267  0.316803  1
  B  B23  1  0.500000  0.869733  0.683197  1
  B  B24  1  0.500000  0.982070  0.213270  1
  B  B25  1  0.500000  0.017930  0.786730  1
  B  B26  1  0.500000  0.482070  0.286730  1
  B  B27  1  0.500000  0.517930  0.713270  1
  B  B28  1  0.500000  0.602325  0.027719  1
  B  B29  1  0.500000  0.397675  0.972281  1
  B  B30  1  0.500000  0.102325  0.472281  1
  B  B31  1  0.500000  0.897675  0.527719  1
  Os  Os32  1  0.000000  0.641082  0.319649  1
  Os  Os33  1  0.000000  0.358918  0.680351  1
  Os  Os34  1  0.000000  0.141082  0.180351  1
  Os  Os35  1  0.000000  0.858918  0.819649  1
