# generated using pymatgen
data_Th3TiPb5
_symmetry_space_group_name_H-M   'P 1'
_cell_length_a   9.55492400
_cell_length_b   9.55450860
_cell_length_c   6.37553200
_cell_angle_alpha   90.00000000
_cell_angle_beta   90.00000000
_cell_angle_gamma   119.99855074
_symmetry_Int_Tables_number   1
_chemical_formula_structural   Th3TiPb5
_chemical_formula_sum   'Th6 Ti2 Pb10'
_cell_volume   504.06784732
_cell_formula_units_Z   2
loop_
 _symmetry_equiv_pos_site_id
 _symmetry_equiv_pos_as_xyz
  1  'x, y, z'
loop_
 _atom_site_type_symbol
 _atom_site_label
 _atom_site_symmetry_multiplicity
 _atom_site_fract_x
 _atom_site_fract_y
 _atom_site_fract_z
 _atom_site_occupancy
  Th  Th0  1  0.613516  0.000008  0.250000  1
  Th  Th1  1  0.386484  0.999992  0.750000  1
  Th  Th2  1  0.000000  0.613508  0.250000  1
  Th  Th3  1  0.000000  0.386492  0.750000  1
  Th  Th4  1  0.386484  0.386491  0.250000  1
  Th  Th5  1  0.613516  0.613509  0.750000  1
  Ti  Ti6  1  0.000000  0.000000  0.000000  1
  Ti  Ti7  1  0.000000  0.000000  0.500000  1
  Pb  Pb8  1  0.258747  0.999979  0.250000  1
  Pb  Pb9  1  0.741253  0.000021  0.750000  1
  Pb  Pb10  1  0.000000  0.258776  0.250000  1
  Pb  Pb11  1  0.000000  0.741224  0.750000  1
  Pb  Pb12  1  0.741253  0.741230  0.250000  1
  Pb  Pb13  1  0.258747  0.258770  0.750000  1
  Pb  Pb14  1  0.333291  0.666645  0.000000  1
  Pb  Pb15  1  0.666709  0.333355  0.000000  1
  Pb  Pb16  1  0.666709  0.333355  0.500000  1
  Pb  Pb17  1  0.333291  0.666645  0.500000  1
