# generated using pymatgen
data_Hf2Sc8N9
_symmetry_space_group_name_H-M   'P 1'
_cell_length_a   5.53639108
_cell_length_b   6.40350625
_cell_length_c   7.15649411
_cell_angle_alpha   77.03117708
_cell_angle_beta   74.96901836
_cell_angle_gamma   73.18940968
_symmetry_Int_Tables_number   1
_chemical_formula_structural   Hf2Sc8N9
_chemical_formula_sum   'Hf2 Sc8 N9'
_cell_volume   231.47872516
_cell_formula_units_Z   1
loop_
 _symmetry_equiv_pos_site_id
 _symmetry_equiv_pos_as_xyz
  1  'x, y, z'
loop_
 _atom_site_type_symbol
 _atom_site_label
 _atom_site_symmetry_multiplicity
 _atom_site_fract_x
 _atom_site_fract_y
 _atom_site_fract_z
 _atom_site_occupancy
  Hf  Hf0  1  0.500000  0.000000  0.000000  1
  Hf  Hf1  1  0.500000  0.500000  0.000000  1
  Sc  Sc2  1  0.899494  0.603868  0.190284  1
  Sc  Sc3  1  0.097343  0.902406  0.795669  1
  Sc  Sc4  1  0.902657  0.097594  0.204331  1
  Sc  Sc5  1  0.100506  0.396132  0.809716  1
  Sc  Sc6  1  0.311678  0.704762  0.400191  1
  Sc  Sc7  1  0.307062  0.190697  0.397698  1
  Sc  Sc8  1  0.688322  0.295238  0.599809  1
  Sc  Sc9  1  0.692938  0.809303  0.602302  1
  N  N10  1  0.795175  0.699821  0.902274  1
  N  N11  1  0.793914  0.202046  0.900848  1
  N  N12  1  0.206086  0.797954  0.099152  1
  N  N13  1  0.000000  0.000000  0.500000  1
  N  N14  1  0.402443  0.099626  0.701633  1
  N  N15  1  0.204825  0.300179  0.097726  1
  N  N16  1  0.597221  0.402471  0.297626  1
  N  N17  1  0.402779  0.597529  0.702374  1
  N  N18  1  0.597557  0.900374  0.298367  1
