# generated using pymatgen
data_Ba3RuRh2O9
_symmetry_space_group_name_H-M   'P 1'
_cell_length_a   8.07169103
_cell_length_b   8.07061068
_cell_length_c   8.07135473
_cell_angle_alpha   42.41652206
_cell_angle_beta   42.41271582
_cell_angle_gamma   42.40820480
_symmetry_Int_Tables_number   1
_chemical_formula_structural   Ba3RuRh2O9
_chemical_formula_sum   'Ba3 Ru1 Rh2 O9'
_cell_volume   216.53917926
_cell_formula_units_Z   1
loop_
 _symmetry_equiv_pos_site_id
 _symmetry_equiv_pos_as_xyz
  1  'x, y, z'
loop_
 _atom_site_type_symbol
 _atom_site_label
 _atom_site_symmetry_multiplicity
 _atom_site_fract_x
 _atom_site_fract_y
 _atom_site_fract_z
 _atom_site_occupancy
  Ba  Ba0  1  0.997015  0.997019  0.996996  1
  Ba  Ba1  1  0.218984  0.218981  0.218981  1
  Ba  Ba2  1  0.781361  0.781373  0.781376  1
  Ru  Ru3  1  0.384310  0.384304  0.384366  1
  Rh  Rh4  1  0.617787  0.617777  0.617755  1
  Rh  Rh5  1  0.498722  0.498726  0.498731  1
  O  O6  1  0.713346  0.249106  0.713437  1
  O  O7  1  0.249123  0.713410  0.713494  1
  O  O8  1  0.713431  0.713439  0.249045  1
  O  O9  1  0.282631  0.755783  0.282529  1
  O  O10  1  0.755754  0.282579  0.282471  1
  O  O11  1  0.282540  0.282556  0.755822  1
  O  O12  1  0.009881  0.497549  0.497553  1
  O  O13  1  0.497555  0.497517  0.009917  1
  O  O14  1  0.497561  0.009884  0.497528  1
