# generated using pymatgen
data_TaMn5(NbRu2)6
_symmetry_space_group_name_H-M   'P 1'
_cell_length_a   4.41872300
_cell_length_b   6.25918700
_cell_length_c   13.26386800
_cell_angle_alpha   90.00000000
_cell_angle_beta   89.99831051
_cell_angle_gamma   90.00000000
_symmetry_Int_Tables_number   1
_chemical_formula_structural   TaMn5(NbRu2)6
_chemical_formula_sum   'Ta1 Mn5 Nb6 Ru12'
_cell_volume   366.84693535
_cell_formula_units_Z   1
loop_
 _symmetry_equiv_pos_site_id
 _symmetry_equiv_pos_as_xyz
  1  'x, y, z'
loop_
 _atom_site_type_symbol
 _atom_site_label
 _atom_site_symmetry_multiplicity
 _atom_site_fract_x
 _atom_site_fract_y
 _atom_site_fract_z
 _atom_site_occupancy
  Ta  Ta0  1  0.000000  0.500000  0.000000  1
  Mn  Mn1  1  0.499993  0.000000  0.167452  1
  Mn  Mn2  1  0.000001  0.500000  0.334492  1
  Mn  Mn3  1  0.500000  0.000000  0.500000  1
  Mn  Mn4  1  0.999999  0.500000  0.665508  1
  Mn  Mn5  1  0.500007  0.000000  0.832548  1
  Nb  Nb6  1  0.000000  0.000000  0.000000  1
  Nb  Nb7  1  0.499964  0.500000  0.175741  1
  Nb  Nb8  1  0.999983  0.000000  0.334917  1
  Nb  Nb9  1  0.500000  0.500000  0.500000  1
  Nb  Nb10  1  0.000017  0.000000  0.665083  1
  Nb  Nb11  1  0.500036  0.500000  0.824259  1
  Ru  Ru12  1  0.500000  0.254497  0.000000  1
  Ru  Ru13  1  0.500000  0.745502  0.000000  1
  Ru  Ru14  1  0.999966  0.251949  0.164909  1
  Ru  Ru15  1  0.999966  0.748051  0.164909  1
  Ru  Ru16  1  0.499990  0.248375  0.333750  1
  Ru  Ru17  1  0.499990  0.751625  0.333750  1
  Ru  Ru18  1  0.000000  0.249144  0.500000  1
  Ru  Ru19  1  0.000000  0.750856  0.500000  1
  Ru  Ru20  1  0.500012  0.248375  0.666250  1
  Ru  Ru21  1  0.500012  0.751625  0.666250  1
  Ru  Ru22  1  0.000034  0.251949  0.835092  1
  Ru  Ru23  1  0.000034  0.748051  0.835092  1
