# generated using pymatgen
data_Ho2Er2Cd3Co2
_symmetry_space_group_name_H-M   'P 1'
_cell_length_a   3.69145200
_cell_length_b   7.32301281
_cell_length_c   7.94326663
_cell_angle_alpha   71.18870164
_cell_angle_beta   90.00000000
_cell_angle_gamma   90.00000000
_symmetry_Int_Tables_number   1
_chemical_formula_structural   Ho2Er2Cd3Co2
_chemical_formula_sum   'Ho2 Er2 Cd3 Co2'
_cell_volume   203.25727366
_cell_formula_units_Z   1
loop_
 _symmetry_equiv_pos_site_id
 _symmetry_equiv_pos_as_xyz
  1  'x, y, z'
loop_
 _atom_site_type_symbol
 _atom_site_label
 _atom_site_symmetry_multiplicity
 _atom_site_fract_x
 _atom_site_fract_y
 _atom_site_fract_z
 _atom_site_occupancy
  Ho  Ho0  1  0.500000  0.603507  0.186162  1
  Ho  Ho1  1  0.500000  0.396493  0.813838  1
  Er  Er2  1  0.500000  0.095657  0.275310  1
  Er  Er3  1  0.500000  0.904343  0.724690  1
  Cd  Cd4  1  0.000000  0.708174  0.501978  1
  Cd  Cd5  1  0.000000  0.000000  0.000000  1
  Cd  Cd6  1  0.000000  0.291826  0.498022  1
  Co  Co7  1  0.000000  0.650028  0.896107  1
  Co  Co8  1  0.000000  0.349972  0.103893  1
