# generated using pymatgen
data_Tb4PCl6
_symmetry_space_group_name_H-M   'P 1'
_cell_length_a   3.92605000
_cell_length_b   12.67584500
_cell_length_c   13.41784800
_cell_angle_alpha   90.00000000
_cell_angle_beta   90.00000000
_cell_angle_gamma   90.00000000
_symmetry_Int_Tables_number   1
_chemical_formula_structural   Tb4PCl6
_chemical_formula_sum   'Tb8 P2 Cl12'
_cell_volume   667.75264050
_cell_formula_units_Z   2
loop_
 _symmetry_equiv_pos_site_id
 _symmetry_equiv_pos_as_xyz
  1  'x, y, z'
loop_
 _atom_site_type_symbol
 _atom_site_label
 _atom_site_symmetry_multiplicity
 _atom_site_fract_x
 _atom_site_fract_y
 _atom_site_fract_z
 _atom_site_occupancy
  Tb  Tb0  1  0.500000  0.120385  0.338250  1
  Tb  Tb1  1  0.500000  0.879615  0.661750  1
  Tb  Tb2  1  0.500000  0.620385  0.161750  1
  Tb  Tb3  1  0.500000  0.379615  0.838250  1
  Tb  Tb4  1  0.000000  0.119703  0.579351  1
  Tb  Tb5  1  0.000000  0.880297  0.420649  1
  Tb  Tb6  1  0.000000  0.619703  0.920649  1
  Tb  Tb7  1  0.000000  0.380297  0.079351  1
  P  P8  1  0.500000  0.000000  0.500000  1
  P  P9  1  0.500000  0.500000  0.000000  1
  Cl  Cl10  1  0.500000  0.243081  0.163938  1
  Cl  Cl11  1  0.500000  0.756919  0.836062  1
  Cl  Cl12  1  0.500000  0.743081  0.336062  1
  Cl  Cl13  1  0.500000  0.256919  0.663938  1
  Cl  Cl14  1  0.000000  0.252137  0.410786  1
  Cl  Cl15  1  0.000000  0.747863  0.589214  1
  Cl  Cl16  1  0.000000  0.752137  0.089214  1
  Cl  Cl17  1  0.000000  0.247863  0.910786  1
  Cl  Cl18  1  0.000000  0.002932  0.245999  1
  Cl  Cl19  1  0.000000  0.997068  0.754001  1
  Cl  Cl20  1  0.000000  0.502932  0.254001  1
  Cl  Cl21  1  0.000000  0.497068  0.745999  1
