# generated using pymatgen
data_Ca5Eu5(GaSb3)4
_symmetry_space_group_name_H-M   'P 1'
_cell_length_a   4.53584900
_cell_length_b   12.25013589
_cell_length_c   14.11111139
_cell_angle_alpha   90.15874102
_cell_angle_beta   90.00000000
_cell_angle_gamma   90.00000000
_symmetry_Int_Tables_number   1
_chemical_formula_structural   Ca5Eu5(GaSb3)4
_chemical_formula_sum   'Ca5 Eu5 Ga4 Sb12'
_cell_volume   784.07760159
_cell_formula_units_Z   1
loop_
 _symmetry_equiv_pos_site_id
 _symmetry_equiv_pos_as_xyz
  1  'x, y, z'
loop_
 _atom_site_type_symbol
 _atom_site_label
 _atom_site_symmetry_multiplicity
 _atom_site_fract_x
 _atom_site_fract_y
 _atom_site_fract_z
 _atom_site_occupancy
  Ca  Ca0  1  0.500000  0.000848  0.501795  1
  Ca  Ca1  1  0.500000  0.499081  0.999522  1
  Ca  Ca2  1  0.500000  0.090918  0.747185  1
  Ca  Ca3  1  0.500000  0.409430  0.247346  1
  Ca  Ca4  1  0.500000  0.590733  0.752853  1
  Eu  Eu5  1  0.500000  0.668348  0.479078  1
  Eu  Eu6  1  0.500000  0.331501  0.522747  1
  Eu  Eu7  1  0.500000  0.830254  0.975390  1
  Eu  Eu8  1  0.500000  0.169484  0.021364  1
  Eu  Eu9  1  0.500000  0.909576  0.252412  1
  Ga  Ga10  1  0.000000  0.328704  0.712204  1
  Ga  Ga11  1  0.000000  0.672845  0.286972  1
  Ga  Ga12  1  0.000000  0.828578  0.787237  1
  Ga  Ga13  1  0.000000  0.169904  0.212795  1
  Sb  Sb14  1  0.000000  0.974905  0.099200  1
  Sb  Sb15  1  0.000000  0.025425  0.897285  1
  Sb  Sb16  1  0.000000  0.477140  0.398450  1
  Sb  Sb17  1  0.000000  0.524582  0.601450  1
  Sb  Sb18  1  0.500000  0.165040  0.323510  1
  Sb  Sb19  1  0.500000  0.836780  0.678550  1
  Sb  Sb20  1  0.500000  0.661031  0.177097  1
  Sb  Sb21  1  0.500000  0.337246  0.821333  1
  Sb  Sb22  1  0.000000  0.347550  0.093665  1
  Sb  Sb23  1  0.000000  0.650946  0.907064  1
  Sb  Sb24  1  0.000000  0.847290  0.410464  1
  Sb  Sb25  1  0.000000  0.151860  0.593032  1
