# generated using pymatgen
data_Y20Cd6PdRu
_symmetry_space_group_name_H-M   'P 1'
_cell_length_a   9.68677200
_cell_length_b   9.68677232
_cell_length_c   9.86963900
_cell_angle_alpha   90.00000000
_cell_angle_beta   90.00000000
_cell_angle_gamma   119.99999891
_symmetry_Int_Tables_number   1
_chemical_formula_structural   Y20Cd6PdRu
_chemical_formula_sum   'Y20 Cd6 Pd1 Ru1'
_cell_volume   802.02900399
_cell_formula_units_Z   1
loop_
 _symmetry_equiv_pos_site_id
 _symmetry_equiv_pos_as_xyz
  1  'x, y, z'
loop_
 _atom_site_type_symbol
 _atom_site_label
 _atom_site_symmetry_multiplicity
 _atom_site_fract_x
 _atom_site_fract_y
 _atom_site_fract_z
 _atom_site_occupancy
  Y  Y0  1  0.000000  0.000000  0.499588  1
  Y  Y1  1  0.000000  0.000000  0.000412  1
  Y  Y2  1  0.207922  0.792078  0.442612  1
  Y  Y3  1  0.207922  0.415845  0.442612  1
  Y  Y4  1  0.584155  0.792078  0.442612  1
  Y  Y5  1  0.790306  0.209694  0.560335  1
  Y  Y6  1  0.790306  0.580610  0.560335  1
  Y  Y7  1  0.419390  0.209694  0.560335  1
  Y  Y8  1  0.790306  0.209694  0.939665  1
  Y  Y9  1  0.790306  0.580610  0.939665  1
  Y  Y10  1  0.419390  0.209694  0.939665  1
  Y  Y11  1  0.207922  0.792078  0.057388  1
  Y  Y12  1  0.207922  0.415845  0.057388  1
  Y  Y13  1  0.584155  0.792078  0.057388  1
  Y  Y14  1  0.543046  0.456954  0.250000  1
  Y  Y15  1  0.543046  0.086092  0.250000  1
  Y  Y16  1  0.913908  0.456954  0.250000  1
  Y  Y17  1  0.458554  0.541446  0.750000  1
  Y  Y18  1  0.458554  0.917109  0.750000  1
  Y  Y19  1  0.082891  0.541446  0.750000  1
  Cd  Cd20  1  0.885217  0.114783  0.250000  1
  Cd  Cd21  1  0.885217  0.770436  0.250000  1
  Cd  Cd22  1  0.229564  0.114783  0.250000  1
  Cd  Cd23  1  0.114734  0.885266  0.750000  1
  Cd  Cd24  1  0.114734  0.229467  0.750000  1
  Cd  Cd25  1  0.770533  0.885266  0.750000  1
  Pd  Pd26  1  0.333333  0.666667  0.250000  1
  Ru  Ru27  1  0.666667  0.333333  0.750000  1
