# generated using pymatgen
data_Dy7Y3(PPb3)2
_symmetry_space_group_name_H-M   'P 1'
_cell_length_a   9.15082700
_cell_length_b   9.15082719
_cell_length_c   6.80486900
_cell_angle_alpha   90.00000000
_cell_angle_beta   90.00000000
_cell_angle_gamma   120.00001016
_symmetry_Int_Tables_number   1
_chemical_formula_structural   Dy7Y3(PPb3)2
_chemical_formula_sum   'Dy7 Y3 P2 Pb6'
_cell_volume   493.48170332
_cell_formula_units_Z   1
loop_
 _symmetry_equiv_pos_site_id
 _symmetry_equiv_pos_as_xyz
  1  'x, y, z'
loop_
 _atom_site_type_symbol
 _atom_site_label
 _atom_site_symmetry_multiplicity
 _atom_site_fract_x
 _atom_site_fract_y
 _atom_site_fract_z
 _atom_site_occupancy
  Dy  Dy0  1  0.762374  0.762561  0.750062  1
  Dy  Dy1  1  0.237439  0.999812  0.750062  1
  Dy  Dy2  1  0.000188  0.237626  0.750062  1
  Dy  Dy3  1  0.237439  0.237626  0.249938  1
  Dy  Dy4  1  0.762374  0.999812  0.249938  1
  Dy  Dy5  1  0.000188  0.762561  0.249938  1
  Dy  Dy6  1  0.666667  0.333333  0.500000  1
  Y  Y7  1  0.666667  0.333333  0.000000  1
  Y  Y8  1  0.333333  0.666667  0.000000  1
  Y  Y9  1  0.333333  0.666667  0.500000  1
  P  P10  1  0.000000  0.000000  0.000000  1
  P  P11  1  0.000000  0.000000  0.500000  1
  Pb  Pb12  1  0.399899  0.400006  0.749921  1
  Pb  Pb13  1  0.599994  0.999893  0.749921  1
  Pb  Pb14  1  0.000107  0.600101  0.749921  1
  Pb  Pb15  1  0.599994  0.600101  0.250079  1
  Pb  Pb16  1  0.399899  0.999893  0.250079  1
  Pb  Pb17  1  0.000107  0.400006  0.250079  1
