# generated using pymatgen
data_Nd6Dy5Ho5(CdPt)4
_symmetry_space_group_name_H-M   'P 1'
_cell_length_a   9.76310393
_cell_length_b   9.77470557
_cell_length_c   9.77470467
_cell_angle_alpha   60.10141901
_cell_angle_beta   60.03925731
_cell_angle_gamma   60.03925671
_symmetry_Int_Tables_number   1
_chemical_formula_structural   Nd6Dy5Ho5(CdPt)4
_chemical_formula_sum   'Nd6 Dy5 Ho5 Cd4 Pt4'
_cell_volume   660.49548226
_cell_formula_units_Z   1
loop_
 _symmetry_equiv_pos_site_id
 _symmetry_equiv_pos_as_xyz
  1  'x, y, z'
loop_
 _atom_site_type_symbol
 _atom_site_label
 _atom_site_symmetry_multiplicity
 _atom_site_fract_x
 _atom_site_fract_y
 _atom_site_fract_z
 _atom_site_occupancy
  Nd  Nd0  1  0.938352  0.561648  0.561648  1
  Nd  Nd1  1  0.561450  0.938550  0.938550  1
  Nd  Nd2  1  0.561766  0.938590  0.561496  1
  Nd  Nd3  1  0.938149  0.561496  0.938590  1
  Nd  Nd4  1  0.561766  0.561496  0.938590  1
  Nd  Nd5  1  0.938149  0.938590  0.561496  1
  Dy  Dy6  1  0.350327  0.350804  0.350804  1
  Dy  Dy7  1  0.350931  0.351161  0.946975  1
  Dy  Dy8  1  0.350931  0.946975  0.351161  1
  Dy  Dy9  1  0.948065  0.350804  0.350804  1
  Dy  Dy10  1  0.812172  0.187828  0.187828  1
  Ho  Ho11  1  0.187730  0.812270  0.812270  1
  Ho  Ho12  1  0.188133  0.812217  0.187647  1
  Ho  Ho13  1  0.812003  0.187647  0.812217  1
  Ho  Ho14  1  0.188133  0.187647  0.812217  1
  Ho  Ho15  1  0.812003  0.812217  0.187647  1
  Cd  Cd16  1  0.579838  0.579757  0.579757  1
  Cd  Cd17  1  0.579805  0.580034  0.260358  1
  Cd  Cd18  1  0.579805  0.260358  0.580034  1
  Cd  Cd19  1  0.260651  0.579757  0.579757  1
  Pt  Pt20  1  0.143210  0.142669  0.142669  1
  Pt  Pt21  1  0.142590  0.142508  0.572313  1
  Pt  Pt22  1  0.142590  0.572313  0.142508  1
  Pt  Pt23  1  0.571453  0.142669  0.142669  1
