# generated using pymatgen
data_Tb5Nd3(LuBi)12
_symmetry_space_group_name_H-M   'P 1'
_cell_length_a   8.26117235
_cell_length_b   9.41049400
_cell_length_c   12.06422600
_cell_angle_alpha   90.00000000
_cell_angle_beta   89.98332000
_cell_angle_gamma   90.00000000
_symmetry_Int_Tables_number   1
_chemical_formula_structural   Tb5Nd3(LuBi)12
_chemical_formula_sum   'Tb5 Nd3 Lu12 Bi12'
_cell_volume   937.89355350
_cell_formula_units_Z   1
loop_
 _symmetry_equiv_pos_site_id
 _symmetry_equiv_pos_as_xyz
  1  'x, y, z'
loop_
 _atom_site_type_symbol
 _atom_site_label
 _atom_site_symmetry_multiplicity
 _atom_site_fract_x
 _atom_site_fract_y
 _atom_site_fract_z
 _atom_site_occupancy
  Tb  Tb0  1  0.314190  0.250000  0.218634  1
  Tb  Tb1  1  0.352928  0.750000  0.217212  1
  Tb  Tb2  1  0.853037  0.750000  0.282637  1
  Tb  Tb3  1  0.647004  0.250000  0.783378  1
  Tb  Tb4  1  0.147504  0.250000  0.716837  1
  Nd  Nd5  1  0.184692  0.750000  0.719280  1
  Nd  Nd6  1  0.684874  0.750000  0.780532  1
  Nd  Nd7  1  0.814748  0.250000  0.280954  1
  Lu  Lu8  1  0.023445  0.750000  0.989750  1
  Lu  Lu9  1  0.523028  0.750000  0.510523  1
  Lu  Lu10  1  0.976666  0.250000  0.011229  1
  Lu  Lu11  1  0.476971  0.250000  0.489044  1
  Lu  Lu12  1  0.307789  0.432795  0.940723  1
  Lu  Lu13  1  0.808525  0.067324  0.559364  1
  Lu  Lu14  1  0.692239  0.932773  0.059462  1
  Lu  Lu15  1  0.191772  0.567249  0.440149  1
  Lu  Lu16  1  0.692239  0.567227  0.059462  1
  Lu  Lu17  1  0.191772  0.932751  0.440149  1
  Lu  Lu18  1  0.307789  0.067205  0.940723  1
  Lu  Lu19  1  0.808525  0.432676  0.559364  1
  Bi  Bi20  1  0.435026  0.007406  0.670514  1
  Bi  Bi21  1  0.935029  0.492460  0.829877  1
  Bi  Bi22  1  0.563026  0.505894  0.328712  1
  Bi  Bi23  1  0.067696  0.994585  0.170895  1
  Bi  Bi24  1  0.563026  0.994106  0.328712  1
  Bi  Bi25  1  0.067696  0.505415  0.170895  1
  Bi  Bi26  1  0.435026  0.492594  0.670514  1
  Bi  Bi27  1  0.935029  0.007540  0.829877  1
  Bi  Bi28  1  0.403038  0.750000  0.960419  1
  Bi  Bi29  1  0.902702  0.750000  0.539476  1
  Bi  Bi30  1  0.593994  0.250000  0.041555  1
  Bi  Bi31  1  0.098976  0.250000  0.459146  1
