# generated using pymatgen
data_Dy4Ga18Ir5Ru
_symmetry_space_group_name_H-M   'P 1'
_cell_length_a   7.58687057
_cell_length_b   7.58687076
_cell_length_c   9.53596824
_cell_angle_alpha   90.02923821
_cell_angle_beta   90.02923922
_cell_angle_gamma   119.99923523
_symmetry_Int_Tables_number   1
_chemical_formula_structural   Dy4Ga18Ir5Ru
_chemical_formula_sum   'Dy4 Ga18 Ir5 Ru1'
_cell_volume   475.36139517
_cell_formula_units_Z   1
loop_
 _symmetry_equiv_pos_site_id
 _symmetry_equiv_pos_as_xyz
  1  'x, y, z'
loop_
 _atom_site_type_symbol
 _atom_site_label
 _atom_site_symmetry_multiplicity
 _atom_site_fract_x
 _atom_site_fract_y
 _atom_site_fract_z
 _atom_site_occupancy
  Dy  Dy0  1  0.996773  0.667666  0.250142  1
  Dy  Dy1  1  0.002279  0.332352  0.749568  1
  Dy  Dy2  1  0.667648  0.997721  0.250432  1
  Dy  Dy3  1  0.332334  0.003227  0.749858  1
  Ga  Ga4  1  0.127049  0.127394  0.250620  1
  Ga  Ga5  1  0.872606  0.872951  0.749380  1
  Ga  Ga6  1  0.997742  0.334013  0.078866  1
  Ga  Ga7  1  0.998071  0.663837  0.921144  1
  Ga  Ga8  1  0.000206  0.666308  0.579437  1
  Ga  Ga9  1  0.333692  0.999794  0.420563  1
  Ga  Ga10  1  0.999459  0.334018  0.420980  1
  Ga  Ga11  1  0.665982  0.000541  0.579020  1
  Ga  Ga12  1  0.665987  0.002258  0.921134  1
  Ga  Ga13  1  0.336163  0.001929  0.078856  1
  Ga  Ga14  1  0.333295  0.333324  0.563079  1
  Ga  Ga15  1  0.666676  0.666705  0.436921  1
  Ga  Ga16  1  0.666843  0.664397  0.062587  1
  Ga  Ga17  1  0.335603  0.333157  0.937413  1
  Ga  Ga18  1  0.338093  0.545658  0.250339  1
  Ga  Ga19  1  0.661777  0.452506  0.751162  1
  Ga  Ga20  1  0.547494  0.338223  0.248838  1
  Ga  Ga21  1  0.454342  0.661907  0.749661  1
  Ir  Ir22  1  0.328563  0.671437  0.000000  1
  Ir  Ir23  1  0.328323  0.671677  0.500000  1
  Ir  Ir24  1  0.671523  0.328477  0.500000  1
  Ir  Ir25  1  0.000002  0.999998  0.000000  1
  Ir  Ir26  1  0.999857  0.000143  0.500000  1
  Ru  Ru27  1  0.671618  0.328382  0.000000  1
