# generated using pymatgen
data_V9Si2Ge4Mo9
_symmetry_space_group_name_H-M   'P 1'
_cell_length_a   4.83575443
_cell_length_b   4.82902224
_cell_length_c   14.59248097
_cell_angle_alpha   89.94816077
_cell_angle_beta   90.05093039
_cell_angle_gamma   89.95158388
_symmetry_Int_Tables_number   1
_chemical_formula_structural   V9Si2Ge4Mo9
_chemical_formula_sum   'V9 Si2 Ge4 Mo9'
_cell_volume   340.76271897
_cell_formula_units_Z   1
loop_
 _symmetry_equiv_pos_site_id
 _symmetry_equiv_pos_as_xyz
  1  'x, y, z'
loop_
 _atom_site_type_symbol
 _atom_site_label
 _atom_site_symmetry_multiplicity
 _atom_site_fract_x
 _atom_site_fract_y
 _atom_site_fract_z
 _atom_site_occupancy
  V  V0  1  0.998763  0.497938  0.751156  1
  V  V1  1  0.998818  0.497994  0.083706  1
  V  V2  1  0.997527  0.497460  0.416042  1
  V  V3  1  0.502167  0.748547  0.667969  1
  V  V4  1  0.501996  0.748963  0.999651  1
  V  V5  1  0.502271  0.749066  0.331020  1
  V  V6  1  0.251456  0.001121  0.834280  1
  V  V7  1  0.251548  0.001159  0.166865  1
  V  V8  1  0.249203  0.002500  0.500632  1
  Si  Si9  1  0.493508  0.506426  0.831655  1
  Si  Si10  1  0.493491  0.506460  0.164040  1
  Ge  Ge11  1  0.491976  0.507438  0.497351  1
  Ge  Ge12  1  0.007358  0.992384  0.669678  1
  Ge  Ge13  1  0.007237  0.992880  0.002490  1
  Ge  Ge14  1  0.007367  0.992441  0.335543  1
  Mo  Mo15  1  0.999627  0.499052  0.915681  1
  Mo  Mo16  1  0.999543  0.498991  0.248370  1
  Mo  Mo17  1  0.998341  0.498663  0.583518  1
  Mo  Mo18  1  0.501627  0.252591  0.667966  1
  Mo  Mo19  1  0.501445  0.252880  0.999778  1
  Mo  Mo20  1  0.501770  0.251530  0.331356  1
  Mo  Mo21  1  0.746181  0.000755  0.834057  1
  Mo  Mo22  1  0.746306  0.000746  0.166684  1
  Mo  Mo23  1  0.750472  0.002016  0.500510  1
