# generated using pymatgen
data_Dy2Ga5Ir3
_symmetry_space_group_name_H-M   'P 1'
_cell_length_a   8.60566704
_cell_length_b   8.60566659
_cell_length_c   8.60566613
_cell_angle_alpha   141.30725022
_cell_angle_beta   109.65791384
_cell_angle_gamma   83.28601554
_symmetry_Int_Tables_number   1
_chemical_formula_structural   Dy2Ga5Ir3
_chemical_formula_sum   'Dy4 Ga10 Ir6'
_cell_volume   363.52819164
_cell_formula_units_Z   2
loop_
 _symmetry_equiv_pos_site_id
 _symmetry_equiv_pos_as_xyz
  1  'x, y, z'
loop_
 _atom_site_type_symbol
 _atom_site_label
 _atom_site_symmetry_multiplicity
 _atom_site_fract_x
 _atom_site_fract_y
 _atom_site_fract_z
 _atom_site_occupancy
  Dy  Dy0  1  0.872182  0.644917  0.227265  1
  Dy  Dy1  1  0.127818  0.355083  0.772735  1
  Dy  Dy2  1  0.417652  0.144917  0.272735  1
  Dy  Dy3  1  0.582348  0.855083  0.727265  1
  Ga  Ga4  1  0.500000  0.750000  0.250000  1
  Ga  Ga5  1  0.500000  0.250000  0.750000  1
  Ga  Ga6  1  0.200893  0.950893  0.750000  1
  Ga  Ga7  1  0.799107  0.549107  0.750000  1
  Ga  Ga8  1  0.799107  0.049107  0.250000  1
  Ga  Ga9  1  0.200893  0.450893  0.250000  1
  Ga  Ga10  1  0.097355  0.917025  0.180329  1
  Ga  Ga11  1  0.902645  0.082975  0.819671  1
  Ga  Ga12  1  0.736696  0.417025  0.319671  1
  Ga  Ga13  1  0.263304  0.582975  0.680329  1
  Ir  Ir14  1  0.000000  0.750000  0.750000  1
  Ir  Ir15  1  0.000000  0.250000  0.250000  1
  Ir  Ir16  1  0.258062  0.847381  0.410681  1
  Ir  Ir17  1  0.741938  0.152619  0.589319  1
  Ir  Ir18  1  0.436699  0.347381  0.089319  1
  Ir  Ir19  1  0.563301  0.652619  0.910681  1
