# generated using pymatgen
data_Hf6Ti3NbGe6C
_symmetry_space_group_name_H-M   'P 1'
_cell_length_a   7.83793800
_cell_length_b   7.83793850
_cell_length_c   5.39598100
_cell_angle_alpha   90.00000000
_cell_angle_beta   90.00000000
_cell_angle_gamma   119.99999788
_symmetry_Int_Tables_number   1
_chemical_formula_structural   Hf6Ti3NbGe6C
_chemical_formula_sum   'Hf6 Ti3 Nb1 Ge6 C1'
_cell_volume   287.08118358
_cell_formula_units_Z   1
loop_
 _symmetry_equiv_pos_site_id
 _symmetry_equiv_pos_as_xyz
  1  'x, y, z'
loop_
 _atom_site_type_symbol
 _atom_site_label
 _atom_site_symmetry_multiplicity
 _atom_site_fract_x
 _atom_site_fract_y
 _atom_site_fract_z
 _atom_site_occupancy
  Hf  Hf0  1  0.000818  0.758651  0.256289  1
  Hf  Hf1  1  0.241349  0.242167  0.256289  1
  Hf  Hf2  1  0.757833  0.999182  0.256289  1
  Hf  Hf3  1  0.000818  0.242167  0.743711  1
  Hf  Hf4  1  0.757833  0.758651  0.743711  1
  Hf  Hf5  1  0.241349  0.999182  0.743711  1
  Ti  Ti6  1  0.333333  0.666667  0.000000  1
  Ti  Ti7  1  0.666667  0.333333  0.000000  1
  Ti  Ti8  1  0.666667  0.333333  0.500000  1
  Nb  Nb9  1  0.333333  0.666667  0.500000  1
  Ge  Ge10  1  0.997587  0.400267  0.244738  1
  Ge  Ge11  1  0.599733  0.597320  0.244738  1
  Ge  Ge12  1  0.402680  0.002413  0.244738  1
  Ge  Ge13  1  0.997587  0.597320  0.755262  1
  Ge  Ge14  1  0.402680  0.400267  0.755262  1
  Ge  Ge15  1  0.599733  0.002413  0.755262  1
  C  C16  1  0.000000  0.000000  0.500000  1
