# generated using pymatgen
data_Ho3Tm9Ir3Os
_symmetry_space_group_name_H-M   'P 1'
_cell_length_a   7.22819318
_cell_length_b   8.93334100
_cell_length_c   6.39172921
_cell_angle_alpha   90.00000000
_cell_angle_beta   89.99580732
_cell_angle_gamma   90.00000000
_symmetry_Int_Tables_number   1
_chemical_formula_structural   Ho3Tm9Ir3Os
_chemical_formula_sum   'Ho3 Tm9 Ir3 Os1'
_cell_volume   412.72619062
_cell_formula_units_Z   1
loop_
 _symmetry_equiv_pos_site_id
 _symmetry_equiv_pos_as_xyz
  1  'x, y, z'
loop_
 _atom_site_type_symbol
 _atom_site_label
 _atom_site_symmetry_multiplicity
 _atom_site_fract_x
 _atom_site_fract_y
 _atom_site_fract_z
 _atom_site_occupancy
  Ho  Ho0  1  0.034320  0.250000  0.620730  1
  Ho  Ho1  1  0.964769  0.750000  0.377990  1
  Ho  Ho2  1  0.465275  0.750000  0.124420  1
  Tm  Tm3  1  0.534401  0.250000  0.878126  1
  Tm  Tm4  1  0.175928  0.062484  0.171833  1
  Tm  Tm5  1  0.822867  0.941168  0.830370  1
  Tm  Tm6  1  0.323054  0.939408  0.673215  1
  Tm  Tm7  1  0.822867  0.558832  0.830370  1
  Tm  Tm8  1  0.678620  0.062833  0.323908  1
  Tm  Tm9  1  0.175928  0.437516  0.171833  1
  Tm  Tm10  1  0.678620  0.437167  0.323908  1
  Tm  Tm11  1  0.323054  0.560592  0.673215  1
  Ir  Ir12  1  0.388457  0.250000  0.464775  1
  Ir  Ir13  1  0.612382  0.750000  0.539455  1
  Ir  Ir14  1  0.113405  0.750000  0.962443  1
  Os  Os15  1  0.886051  0.250000  0.033410  1
