# generated using pymatgen
data_Pa6NiBi8Rh5
_symmetry_space_group_name_H-M   'P 1'
_cell_length_a   8.49779228
_cell_length_b   8.49779126
_cell_length_c   8.49779182
_cell_angle_alpha   109.24448554
_cell_angle_beta   109.24448709
_cell_angle_gamma   109.92564657
_symmetry_Int_Tables_number   1
_chemical_formula_structural   Pa6NiBi8Rh5
_chemical_formula_sum   'Pa6 Ni1 Bi8 Rh5'
_cell_volume   472.36298814
_cell_formula_units_Z   1
loop_
 _symmetry_equiv_pos_site_id
 _symmetry_equiv_pos_as_xyz
  1  'x, y, z'
loop_
 _atom_site_type_symbol
 _atom_site_label
 _atom_site_symmetry_multiplicity
 _atom_site_fract_x
 _atom_site_fract_y
 _atom_site_fract_z
 _atom_site_occupancy
  Pa  Pa0  1  0.625000  0.375000  0.750000  1
  Pa  Pa1  1  0.875000  0.125000  0.250000  1
  Pa  Pa2  1  0.377487  0.748519  0.623677  1
  Pa  Pa3  1  0.124842  0.253810  0.876323  1
  Pa  Pa4  1  0.746190  0.622513  0.371032  1
  Pa  Pa5  1  0.251481  0.875158  0.128968  1
  Ni  Ni6  1  0.125000  0.875000  0.750000  1
  Bi  Bi7  1  0.833118  0.826743  0.823251  1
  Bi  Bi8  1  0.678439  0.001563  0.501206  1
  Bi  Bi9  1  0.500357  0.677234  0.998794  1
  Bi  Bi10  1  0.322766  0.321561  0.323123  1
  Bi  Bi11  1  0.003492  0.509867  0.676749  1
  Bi  Bi12  1  0.173257  0.996508  0.506375  1
  Bi  Bi13  1  0.998437  0.499643  0.176877  1
  Bi  Bi14  1  0.490133  0.166882  0.993625  1
  Rh  Rh15  1  0.375000  0.625000  0.250000  1
  Rh  Rh16  1  0.877305  0.752489  0.126322  1
  Rh  Rh17  1  0.626166  0.250983  0.373678  1
  Rh  Rh18  1  0.749017  0.122695  0.875184  1
  Rh  Rh19  1  0.247511  0.373834  0.624816  1
