# generated using pymatgen
data_Ba6YEr(BO3)6
_symmetry_space_group_name_H-M   'P 1'
_cell_length_a   8.20052095
_cell_length_b   8.20052076
_cell_length_c   8.20052153
_cell_angle_alpha   105.62134214
_cell_angle_beta   105.62133872
_cell_angle_gamma   105.62134743
_symmetry_Int_Tables_number   1
_chemical_formula_structural   Ba6YEr(BO3)6
_chemical_formula_sum   'Ba6 Y1 Er1 B6 O18'
_cell_volume   475.48875932
_cell_formula_units_Z   1
loop_
 _symmetry_equiv_pos_site_id
 _symmetry_equiv_pos_as_xyz
  1  'x, y, z'
loop_
 _atom_site_type_symbol
 _atom_site_label
 _atom_site_symmetry_multiplicity
 _atom_site_fract_x
 _atom_site_fract_y
 _atom_site_fract_z
 _atom_site_occupancy
  Ba  Ba0  1  0.650727  0.263298  0.159829  1
  Ba  Ba1  1  0.159829  0.650727  0.263297  1
  Ba  Ba2  1  0.736702  0.840171  0.349273  1
  Ba  Ba3  1  0.263298  0.159829  0.650727  1
  Ba  Ba4  1  0.840171  0.349273  0.736702  1
  Ba  Ba5  1  0.349273  0.736702  0.840171  1
  Y  Y6  1  0.000000  0.000000  0.000000  1
  Er  Er7  1  0.500000  0.500000  0.500000  1
  B  B8  1  0.292857  0.374291  0.044022  1
  B  B9  1  0.374291  0.044023  0.292857  1
  B  B10  1  0.044023  0.292857  0.374291  1
  B  B11  1  0.955977  0.707143  0.625709  1
  B  B12  1  0.625709  0.955977  0.707143  1
  B  B13  1  0.707143  0.625709  0.955977  1
  O  O14  1  0.739301  0.812401  0.012230  1
  O  O15  1  0.801826  0.556246  0.067814  1
  O  O16  1  0.987770  0.260699  0.187599  1
  O  O17  1  0.443753  0.932185  0.198174  1
  O  O18  1  0.428850  0.490619  0.213587  1
  O  O19  1  0.187599  0.987770  0.260699  1
  O  O20  1  0.490619  0.213587  0.428849  1
  O  O21  1  0.932185  0.198175  0.443753  1
  O  O22  1  0.213587  0.428850  0.490619  1
  O  O23  1  0.786413  0.571150  0.509381  1
  O  O24  1  0.067815  0.801825  0.556247  1
  O  O25  1  0.509381  0.786413  0.571151  1
  O  O26  1  0.812401  0.012230  0.739301  1
  O  O27  1  0.571150  0.509381  0.786413  1
  O  O28  1  0.556247  0.067815  0.801826  1
  O  O29  1  0.012230  0.739301  0.812401  1
  O  O30  1  0.198174  0.443754  0.932186  1
  O  O31  1  0.260699  0.187599  0.987770  1
