# generated using pymatgen
data_Nd6Ta(MnC4)3
_symmetry_space_group_name_H-M   'P 1'
_cell_length_a   8.36697700
_cell_length_b   8.36697693
_cell_length_c   5.24569000
_cell_angle_alpha   90.00000000
_cell_angle_beta   90.00000000
_cell_angle_gamma   119.99998050
_symmetry_Int_Tables_number   1
_chemical_formula_structural   Nd6Ta(MnC4)3
_chemical_formula_sum   'Nd6 Ta1 Mn3 C12'
_cell_volume   318.03175493
_cell_formula_units_Z   1
loop_
 _symmetry_equiv_pos_site_id
 _symmetry_equiv_pos_as_xyz
  1  'x, y, z'
loop_
 _atom_site_type_symbol
 _atom_site_label
 _atom_site_symmetry_multiplicity
 _atom_site_fract_x
 _atom_site_fract_y
 _atom_site_fract_z
 _atom_site_occupancy
  Nd  Nd0  1  0.612836  0.681208  0.750900  1
  Nd  Nd1  1  0.931628  0.612836  0.249100  1
  Nd  Nd2  1  0.681208  0.068372  0.249100  1
  Nd  Nd3  1  0.318792  0.931628  0.750900  1
  Nd  Nd4  1  0.068372  0.387164  0.750900  1
  Nd  Nd5  1  0.387164  0.318792  0.249100  1
  Ta  Ta6  1  0.000000  0.000000  0.500000  1
  Mn  Mn7  1  0.000000  0.000000  0.000000  1
  Mn  Mn8  1  0.666667  0.333333  0.754180  1
  Mn  Mn9  1  0.333333  0.666667  0.245820  1
  C  C10  1  0.956030  0.761484  0.745157  1
  C  C11  1  0.194546  0.956030  0.254843  1
  C  C12  1  0.761484  0.805454  0.254843  1
  C  C13  1  0.238516  0.194546  0.745157  1
  C  C14  1  0.805454  0.043970  0.745157  1
  C  C15  1  0.043970  0.238516  0.254843  1
  C  C16  1  0.855866  0.572389  0.752927  1
  C  C17  1  0.283476  0.855866  0.247073  1
  C  C18  1  0.572389  0.716524  0.247073  1
  C  C19  1  0.427611  0.283476  0.752927  1
  C  C20  1  0.144134  0.427611  0.247073  1
  C  C21  1  0.716524  0.144134  0.752927  1
