# generated using pymatgen
data_TbFeSiGe
_symmetry_space_group_name_H-M   'P 1'
_cell_length_a   4.02643200
_cell_length_b   4.29796279
_cell_length_c   8.10233401
_cell_angle_alpha   76.96980874
_cell_angle_beta   90.00000000
_cell_angle_gamma   90.00000000
_symmetry_Int_Tables_number   1
_chemical_formula_structural   TbFeSiGe
_chemical_formula_sum   'Tb2 Fe2 Si2 Ge2'
_cell_volume   136.60424613
_cell_formula_units_Z   2
loop_
 _symmetry_equiv_pos_site_id
 _symmetry_equiv_pos_as_xyz
  1  'x, y, z'
loop_
 _atom_site_type_symbol
 _atom_site_label
 _atom_site_symmetry_multiplicity
 _atom_site_fract_x
 _atom_site_fract_y
 _atom_site_fract_z
 _atom_site_occupancy
  Tb  Tb0  1  0.250000  0.613752  0.788158  1
  Tb  Tb1  1  0.750000  0.386248  0.211842  1
  Fe  Fe2  1  0.250000  0.882630  0.396720  1
  Fe  Fe3  1  0.750000  0.117370  0.603280  1
  Si  Si4  1  0.250000  0.330047  0.495038  1
  Si  Si5  1  0.750000  0.669953  0.504962  1
  Ge  Ge6  1  0.250000  0.938000  0.103555  1
  Ge  Ge7  1  0.750000  0.062000  0.896445  1
