# generated using pymatgen
data_Y2Sc2CrB12Rh
_symmetry_space_group_name_H-M   'P 1'
_cell_length_a   3.51377000
_cell_length_b   8.98380701
_cell_length_c   11.37322327
_cell_angle_alpha   89.91239537
_cell_angle_beta   90.00000000
_cell_angle_gamma   90.00000000
_symmetry_Int_Tables_number   1
_chemical_formula_structural   Y2Sc2CrB12Rh
_chemical_formula_sum   'Y4 Sc4 Cr2 B24 Rh2'
_cell_volume   359.01847837
_cell_formula_units_Z   2
loop_
 _symmetry_equiv_pos_site_id
 _symmetry_equiv_pos_as_xyz
  1  'x, y, z'
loop_
 _atom_site_type_symbol
 _atom_site_label
 _atom_site_symmetry_multiplicity
 _atom_site_fract_x
 _atom_site_fract_y
 _atom_site_fract_z
 _atom_site_occupancy
  Y  Y0  1  0.000000  0.816617  0.088116  1
  Y  Y1  1  0.000000  0.183383  0.911884  1
  Y  Y2  1  0.000000  0.324079  0.416694  1
  Y  Y3  1  0.000000  0.675921  0.583306  1
  Sc  Sc4  1  0.000000  0.448279  0.128508  1
  Sc  Sc5  1  0.000000  0.551721  0.871492  1
  Sc  Sc6  1  0.000000  0.940313  0.374008  1
  Sc  Sc7  1  0.000000  0.059687  0.625992  1
  Cr  Cr8  1  0.000000  0.640866  0.317087  1
  Cr  Cr9  1  0.000000  0.359134  0.682913  1
  B  B10  1  0.500000  0.054904  0.066718  1
  B  B11  1  0.500000  0.945096  0.933282  1
  B  B12  1  0.500000  0.554292  0.431742  1
  B  B13  1  0.500000  0.445708  0.568258  1
  B  B14  1  0.500000  0.254785  0.080754  1
  B  B15  1  0.500000  0.745215  0.919246  1
  B  B16  1  0.500000  0.751689  0.417877  1
  B  B17  1  0.500000  0.248311  0.582123  1
  B  B18  1  0.500000  0.294365  0.235243  1
  B  B19  1  0.500000  0.705635  0.764757  1
  B  B20  1  0.500000  0.793701  0.265685  1
  B  B21  1  0.500000  0.206299  0.734315  1
  B  B22  1  0.500000  0.128436  0.318260  1
  B  B23  1  0.500000  0.871564  0.681740  1
  B  B24  1  0.500000  0.628858  0.183711  1
  B  B25  1  0.500000  0.371142  0.816289  1
  B  B26  1  0.500000  0.481820  0.286000  1
  B  B27  1  0.500000  0.518180  0.714000  1
  B  B28  1  0.500000  0.980879  0.214936  1
  B  B29  1  0.500000  0.019121  0.785064  1
  B  B30  1  0.500000  0.099073  0.472936  1
  B  B31  1  0.500000  0.900927  0.527064  1
  B  B32  1  0.500000  0.599009  0.026365  1
  B  B33  1  0.500000  0.400991  0.973635  1
  Rh  Rh34  1  0.000000  0.139977  0.181050  1
  Rh  Rh35  1  0.000000  0.860023  0.818950  1
