# generated using pymatgen
data_TiNb3V2(SiOs)6
_symmetry_space_group_name_H-M   'P 1'
_cell_length_a   7.46104849
_cell_length_b   7.40527279
_cell_length_c   7.46104793
_cell_angle_alpha   127.66543942
_cell_angle_beta   124.28212356
_cell_angle_gamma   80.15237626
_symmetry_Int_Tables_number   1
_chemical_formula_structural   TiNb3V2(SiOs)6
_chemical_formula_sum   'Ti1 Nb3 V2 Si6 Os6'
_cell_volume   260.00878579
_cell_formula_units_Z   1
loop_
 _symmetry_equiv_pos_site_id
 _symmetry_equiv_pos_as_xyz
  1  'x, y, z'
loop_
 _atom_site_type_symbol
 _atom_site_label
 _atom_site_symmetry_multiplicity
 _atom_site_fract_x
 _atom_site_fract_y
 _atom_site_fract_z
 _atom_site_occupancy
  Ti  Ti0  1  0.762935  0.606759  0.343824  1
  Nb  Nb1  1  0.040488  0.008171  0.467684  1
  Nb  Nb2  1  0.970223  0.431941  0.961719  1
  Nb  Nb3  1  0.243698  0.573665  0.829968  1
  V  V4  1  0.432652  0.406289  0.473635  1
  V  V5  1  0.550748  0.992887  0.942140  1
  Si  Si6  1  0.224535  0.989957  0.265422  1
  Si  Si7  1  0.784613  0.011054  0.726441  1
  Si  Si8  1  0.174372  0.672214  0.510511  1
  Si  Si9  1  0.805130  0.335832  0.479613  1
  Si  Si10  1  0.661702  0.672214  0.997841  1
  Si  Si11  1  0.356221  0.335832  0.030703  1
  Os  Os12  1  0.959671  0.257571  0.224153  1
  Os  Os13  1  0.533419  0.257571  0.797900  1
  Os  Os14  1  0.411742  0.746053  0.415623  1
  Os  Os15  1  0.584772  0.006968  0.334318  1
  Os  Os16  1  0.830429  0.746053  0.834311  1
  Os  Os17  1  0.172650  0.006968  0.922196  1
