# generated using pymatgen
data_CeEr3(Si5Pt3)2
_symmetry_space_group_name_H-M   'P 1'
_cell_length_a   8.16208914
_cell_length_b   8.17379050
_cell_length_c   8.17379057
_cell_angle_alpha   136.50684470
_cell_angle_beta   104.25190748
_cell_angle_gamma   91.64756268
_symmetry_Int_Tables_number   1
_chemical_formula_structural   CeEr3(Si5Pt3)2
_chemical_formula_sum   'Ce1 Er3 Si10 Pt6'
_cell_volume   345.75318029
_cell_formula_units_Z   1
loop_
 _symmetry_equiv_pos_site_id
 _symmetry_equiv_pos_as_xyz
  1  'x, y, z'
loop_
 _atom_site_type_symbol
 _atom_site_label
 _atom_site_symmetry_multiplicity
 _atom_site_fract_x
 _atom_site_fract_y
 _atom_site_fract_z
 _atom_site_occupancy
  Ce  Ce0  1  0.899323  0.129669  0.769654  1
  Er  Er1  1  0.642419  0.370043  0.272376  1
  Er  Er2  1  0.357991  0.629060  0.728931  1
  Er  Er3  1  0.099607  0.871319  0.228288  1
  Si  Si4  1  0.272464  0.520013  0.248663  1
  Si  Si5  1  0.728392  0.478271  0.750401  1
  Si  Si6  1  0.728392  0.977990  0.250122  1
  Si  Si7  1  0.272464  0.023802  0.752451  1
  Si  Si8  1  0.462645  0.112958  0.349686  1
  Si  Si9  1  0.535270  0.884657  0.650612  1
  Si  Si10  1  0.763249  0.611913  0.151336  1
  Si  Si11  1  0.236243  0.387469  0.848774  1
  Si  Si12  1  0.000132  0.249437  0.247890  1
  Si  Si13  1  0.000132  0.752242  0.750694  1
  Pt  Pt14  1  0.253150  0.137620  0.115529  1
  Pt  Pt15  1  0.747274  0.860662  0.886613  1
  Pt  Pt16  1  0.026304  0.638853  0.387450  1
  Pt  Pt17  1  0.977680  0.365579  0.612102  1
  Pt  Pt18  1  0.498436  0.248148  0.748140  1
  Pt  Pt19  1  0.498436  0.750296  0.250288  1
