# generated using pymatgen
data_Dy2Tm10Co5Pb
_symmetry_space_group_name_H-M   'P 1'
_cell_length_a   8.19910017
_cell_length_b   8.19909895
_cell_length_c   8.19180908
_cell_angle_alpha   106.70435863
_cell_angle_beta   110.78009270
_cell_angle_gamma   110.99923773
_symmetry_Int_Tables_number   1
_chemical_formula_structural   Dy2Tm10Co5Pb
_chemical_formula_sum   'Dy2 Tm10 Co5 Pb1'
_cell_volume   422.99981283
_cell_formula_units_Z   1
loop_
 _symmetry_equiv_pos_site_id
 _symmetry_equiv_pos_as_xyz
  1  'x, y, z'
loop_
 _atom_site_type_symbol
 _atom_site_label
 _atom_site_symmetry_multiplicity
 _atom_site_fract_x
 _atom_site_fract_y
 _atom_site_fract_z
 _atom_site_occupancy
  Dy  Dy0  1  0.194260  0.789779  0.984039  1
  Dy  Dy1  1  0.805740  0.210221  0.015961  1
  Tm  Tm2  1  0.472869  0.289397  0.184816  1
  Tm  Tm3  1  0.104582  0.288054  0.815184  1
  Tm  Tm4  1  0.895418  0.711946  0.184816  1
  Tm  Tm5  1  0.527131  0.710603  0.815184  1
  Tm  Tm6  1  0.307908  0.619920  0.314680  1
  Tm  Tm7  1  0.305241  0.993230  0.685320  1
  Tm  Tm8  1  0.692092  0.380080  0.685320  1
  Tm  Tm9  1  0.694759  0.006770  0.314680  1
  Tm  Tm10  1  0.195026  0.210668  0.405694  1
  Tm  Tm11  1  0.804974  0.789332  0.594306  1
  Co  Co12  1  0.501764  0.612391  0.114155  1
  Co  Co13  1  0.498236  0.387609  0.885845  1
  Co  Co14  1  0.376775  0.000979  0.377753  1
  Co  Co15  1  0.623225  0.999021  0.622247  1
  Co  Co16  1  0.000000  0.000000  0.000000  1
  Pb  Pb17  1  0.000000  0.500000  0.500000  1
