# generated using pymatgen
data_Dy3Mn7(P3Rh)2
_symmetry_space_group_name_H-M   'P 1'
_cell_length_a   3.71828700
_cell_length_b   10.94335200
_cell_length_c   12.73796200
_cell_angle_alpha   90.00000000
_cell_angle_beta   90.00000000
_cell_angle_gamma   90.00000000
_symmetry_Int_Tables_number   1
_chemical_formula_structural   Dy3Mn7(P3Rh)2
_chemical_formula_sum   'Dy6 Mn14 P12 Rh4'
_cell_volume   518.31434182
_cell_formula_units_Z   2
loop_
 _symmetry_equiv_pos_site_id
 _symmetry_equiv_pos_as_xyz
  1  'x, y, z'
loop_
 _atom_site_type_symbol
 _atom_site_label
 _atom_site_symmetry_multiplicity
 _atom_site_fract_x
 _atom_site_fract_y
 _atom_site_fract_z
 _atom_site_occupancy
  Dy  Dy0  1  0.000000  0.500000  0.528528  1
  Dy  Dy1  1  0.500000  0.000000  0.471472  1
  Dy  Dy2  1  0.500000  0.820652  0.204526  1
  Dy  Dy3  1  0.500000  0.179348  0.204526  1
  Dy  Dy4  1  0.000000  0.679348  0.795474  1
  Dy  Dy5  1  0.000000  0.320652  0.795474  1
  Mn  Mn6  1  0.000000  0.500000  0.997391  1
  Mn  Mn7  1  0.500000  0.000000  0.002609  1
  Mn  Mn8  1  0.500000  0.299408  0.431087  1
  Mn  Mn9  1  0.500000  0.700592  0.431087  1
  Mn  Mn10  1  0.000000  0.200592  0.568913  1
  Mn  Mn11  1  0.000000  0.799408  0.568913  1
  Mn  Mn12  1  0.500000  0.881886  0.699630  1
  Mn  Mn13  1  0.500000  0.118114  0.699630  1
  Mn  Mn14  1  0.000000  0.618114  0.300370  1
  Mn  Mn15  1  0.000000  0.381886  0.300370  1
  Mn  Mn16  1  0.500000  0.330174  0.999392  1
  Mn  Mn17  1  0.500000  0.669826  0.999392  1
  Mn  Mn18  1  0.000000  0.169826  0.000608  1
  Mn  Mn19  1  0.000000  0.830174  0.000608  1
  P  P20  1  0.500000  0.311417  0.614001  1
  P  P21  1  0.500000  0.688583  0.614001  1
  P  P22  1  0.000000  0.188583  0.385999  1
  P  P23  1  0.000000  0.811417  0.385999  1
  P  P24  1  0.500000  0.500000  0.891960  1
  P  P25  1  0.000000  0.000000  0.108040  1
  P  P26  1  0.500000  0.842639  0.886881  1
  P  P27  1  0.500000  0.157361  0.886881  1
  P  P28  1  0.000000  0.657361  0.113119  1
  P  P29  1  0.000000  0.342639  0.113119  1
  P  P30  1  0.500000  0.500000  0.360066  1
  P  P31  1  0.000000  0.000000  0.639934  1
  Rh  Rh32  1  0.500000  0.500000  0.168443  1
  Rh  Rh33  1  0.000000  0.000000  0.831557  1
  Rh  Rh34  1  0.500000  0.500000  0.707525  1
  Rh  Rh35  1  0.000000  0.000000  0.292475  1
