# generated using pymatgen
data_LiAl11Re3
_symmetry_space_group_name_H-M   'P 1'
_cell_length_a   5.18007407
_cell_length_b   5.20053256
_cell_length_c   9.08528757
_cell_angle_alpha   105.43655105
_cell_angle_beta   88.14831227
_cell_angle_gamma   99.99162341
_symmetry_Int_Tables_number   1
_chemical_formula_structural   LiAl11Re3
_chemical_formula_sum   'Li1 Al11 Re3'
_cell_volume   232.31773600
_cell_formula_units_Z   1
loop_
 _symmetry_equiv_pos_site_id
 _symmetry_equiv_pos_as_xyz
  1  'x, y, z'
loop_
 _atom_site_type_symbol
 _atom_site_label
 _atom_site_symmetry_multiplicity
 _atom_site_fract_x
 _atom_site_fract_y
 _atom_site_fract_z
 _atom_site_occupancy
  Li  Li0  1  0.336556  0.156213  0.612046  1
  Al  Al1  1  0.840878  0.288083  0.626447  1
  Al  Al2  1  0.158254  0.703314  0.382270  1
  Al  Al3  1  0.146864  0.465311  0.878516  1
  Al  Al4  1  0.847178  0.549011  0.132020  1
  Al  Al5  1  0.014500  0.994695  0.980069  1
  Al  Al6  1  0.539020  0.107789  0.885505  1
  Al  Al7  1  0.486206  0.902549  0.131962  1
  Al  Al8  1  0.574447  0.332871  0.370282  1
  Al  Al9  1  0.409875  0.671768  0.632119  1
  Al  Al10  1  0.929128  0.824934  0.662645  1
  Al  Al11  1  0.046538  0.142821  0.303526  1
  Re  Re12  1  0.680563  0.860471  0.400663  1
  Re  Re13  1  0.661248  0.612245  0.867749  1
  Re  Re14  1  0.328744  0.387924  0.134181  1
