# generated using pymatgen
data_TbY3Al18(ZnOs2)2
_symmetry_space_group_name_H-M   'P 1'
_cell_length_a   7.62111774
_cell_length_b   7.62136452
_cell_length_c   9.50997200
_cell_angle_alpha   89.99727411
_cell_angle_beta   89.99482231
_cell_angle_gamma   119.21796104
_symmetry_Int_Tables_number   1
_chemical_formula_structural   TbY3Al18(ZnOs2)2
_chemical_formula_sum   'Tb1 Y3 Al18 Zn2 Os4'
_cell_volume   482.09208432
_cell_formula_units_Z   1
loop_
 _symmetry_equiv_pos_site_id
 _symmetry_equiv_pos_as_xyz
  1  'x, y, z'
loop_
 _atom_site_type_symbol
 _atom_site_label
 _atom_site_symmetry_multiplicity
 _atom_site_fract_x
 _atom_site_fract_y
 _atom_site_fract_z
 _atom_site_occupancy
  Tb  Tb0  1  0.996666  0.679614  0.249978  1
  Y  Y1  1  0.003303  0.320429  0.750039  1
  Y  Y2  1  0.679415  0.996589  0.249959  1
  Y  Y3  1  0.320763  0.003336  0.750033  1
  Al  Al4  1  0.142183  0.142175  0.249985  1
  Al  Al5  1  0.858173  0.858209  0.750007  1
  Al  Al6  1  0.002252  0.348411  0.076467  1
  Al  Al7  1  0.997641  0.651551  0.923488  1
  Al  Al8  1  0.997662  0.651551  0.576533  1
  Al  Al9  1  0.348670  0.002407  0.423485  1
  Al  Al10  1  0.002224  0.348395  0.423532  1
  Al  Al11  1  0.651606  0.997674  0.576473  1
  Al  Al12  1  0.651588  0.997657  0.923535  1
  Al  Al13  1  0.348681  0.002424  0.076497  1
  Al  Al14  1  0.344389  0.344425  0.553558  1
  Al  Al15  1  0.655383  0.655491  0.446337  1
  Al  Al16  1  0.655366  0.655477  0.053686  1
  Al  Al17  1  0.344407  0.344440  0.946419  1
  Al  Al18  1  0.337200  0.554431  0.249994  1
  Al  Al19  1  0.662915  0.445651  0.750005  1
  Al  Al20  1  0.554443  0.337316  0.249996  1
  Al  Al21  1  0.445527  0.662896  0.750008  1
  Zn  Zn22  1  0.999951  0.999868  0.000051  1
  Zn  Zn23  1  0.999951  0.999864  0.499941  1
  Os  Os24  1  0.672089  0.327736  0.999809  1
  Os  Os25  1  0.327730  0.672131  0.999881  1
  Os  Os26  1  0.327709  0.672148  0.500117  1
  Os  Os27  1  0.672113  0.327702  0.500189  1
