# generated using pymatgen
data_Y12Ho8Si15Rh
_symmetry_space_group_name_H-M   'P 1'
_cell_length_a   7.44500158
_cell_length_b   7.66904594
_cell_length_c   14.58104681
_cell_angle_alpha   89.66475978
_cell_angle_beta   89.59991414
_cell_angle_gamma   90.03969530
_symmetry_Int_Tables_number   1
_chemical_formula_structural   Y12Ho8Si15Rh
_chemical_formula_sum   'Y12 Ho8 Si15 Rh1'
_cell_volume   832.48554126
_cell_formula_units_Z   1
loop_
 _symmetry_equiv_pos_site_id
 _symmetry_equiv_pos_as_xyz
  1  'x, y, z'
loop_
 _atom_site_type_symbol
 _atom_site_label
 _atom_site_symmetry_multiplicity
 _atom_site_fract_x
 _atom_site_fract_y
 _atom_site_fract_z
 _atom_site_occupancy
  Y  Y0  1  0.649467  0.993790  0.248824  1
  Y  Y1  1  0.148922  0.509833  0.247654  1
  Y  Y2  1  0.847277  0.488643  0.757048  1
  Y  Y3  1  0.351409  0.009606  0.751963  1
  Y  Y4  1  0.975119  0.817972  0.097546  1
  Y  Y5  1  0.472473  0.682114  0.401797  1
  Y  Y6  1  0.526515  0.322346  0.901140  1
  Y  Y7  1  0.028169  0.183177  0.599182  1
  Y  Y8  1  0.027340  0.183208  0.902165  1
  Y  Y9  1  0.528172  0.318588  0.598293  1
  Y  Y10  1  0.475321  0.681123  0.098891  1
  Y  Y11  1  0.971376  0.818467  0.400991  1
  Ho  Ho12  1  0.682933  0.811840  0.882244  1
  Ho  Ho13  1  0.178558  0.681297  0.621779  1
  Ho  Ho14  1  0.818087  0.333611  0.118231  1
  Ho  Ho15  1  0.316408  0.177515  0.376136  1
  Ho  Ho16  1  0.321819  0.179013  0.123461  1
  Ho  Ho17  1  0.820084  0.319736  0.377443  1
  Ho  Ho18  1  0.175326  0.675535  0.878420  1
  Ho  Ho19  1  0.682302  0.819530  0.622399  1
  Si  Si20  1  0.765810  0.628372  0.251814  1
  Si  Si21  1  0.266525  0.873245  0.250640  1
  Si  Si22  1  0.732389  0.122163  0.748689  1
  Si  Si23  1  0.234488  0.374289  0.746715  1
  Si  Si24  1  0.021212  0.108201  0.248865  1
  Si  Si25  1  0.524044  0.394446  0.251707  1
  Si  Si26  1  0.471364  0.607664  0.746933  1
  Si  Si27  1  0.975812  0.895613  0.748556  1
  Si  Si28  1  0.353863  0.971133  0.539578  1
  Si  Si29  1  0.647064  0.029078  0.041225  1
  Si  Si30  1  0.147573  0.469447  0.460373  1
  Si  Si31  1  0.155568  0.470712  0.040551  1
  Si  Si32  1  0.644039  0.029632  0.459776  1
  Si  Si33  1  0.352540  0.967751  0.961534  1
  Si  Si34  1  0.854478  0.529317  0.538885  1
  Rh  Rh35  1  0.856151  0.521993  0.958557  1
