# generated using pymatgen
data_ErSc7Ti11Si16Rh
_symmetry_space_group_name_H-M   'P 1'
_cell_length_a   6.87666457
_cell_length_b   6.87923802
_cell_length_c   12.56439314
_cell_angle_alpha   90.06283874
_cell_angle_beta   89.89630468
_cell_angle_gamma   89.78483013
_symmetry_Int_Tables_number   1
_chemical_formula_structural   ErSc7Ti11Si16Rh
_chemical_formula_sum   'Er1 Sc7 Ti11 Si16 Rh1'
_cell_volume   594.36832391
_cell_formula_units_Z   1
loop_
 _symmetry_equiv_pos_site_id
 _symmetry_equiv_pos_as_xyz
  1  'x, y, z'
loop_
 _atom_site_type_symbol
 _atom_site_label
 _atom_site_symmetry_multiplicity
 _atom_site_fract_x
 _atom_site_fract_y
 _atom_site_fract_z
 _atom_site_occupancy
  Er  Er0  1  0.997001  0.657990  0.031119  1
  Sc  Sc1  1  0.341617  0.002994  0.467726  1
  Sc  Sc2  1  0.497316  0.843358  0.717284  1
  Sc  Sc3  1  0.500729  0.156869  0.216857  1
  Sc  Sc4  1  0.843051  0.497189  0.282643  1
  Sc  Sc5  1  0.157315  0.500591  0.784257  1
  Sc  Sc6  1  0.656257  0.999449  0.967564  1
  Sc  Sc7  1  0.003122  0.341852  0.532597  1
  Ti  Ti8  1  0.175336  0.827868  0.248728  1
  Ti  Ti9  1  0.826293  0.174224  0.751019  1
  Ti  Ti10  1  0.673101  0.673167  0.499943  1
  Ti  Ti11  1  0.148548  0.999708  0.872337  1
  Ti  Ti12  1  0.495150  0.654494  0.124025  1
  Ti  Ti13  1  0.505064  0.352391  0.627026  1
  Ti  Ti14  1  0.653487  0.493216  0.875030  1
  Ti  Ti15  1  0.352779  0.505077  0.373950  1
  Ti  Ti16  1  0.852159  0.995936  0.375134  1
  Ti  Ti17  1  0.000330  0.148172  0.126862  1
  Ti  Ti18  1  0.995341  0.852310  0.625355  1
  Si  Si19  1  0.204110  0.139597  0.680548  1
  Si  Si20  1  0.371658  0.708701  0.927401  1
  Si  Si21  1  0.637014  0.294094  0.430220  1
  Si  Si22  1  0.700992  0.363067  0.070342  1
  Si  Si23  1  0.293877  0.637014  0.570317  1
  Si  Si24  1  0.791388  0.865768  0.182836  1
  Si  Si25  1  0.139373  0.203835  0.319858  1
  Si  Si26  1  0.860266  0.795971  0.817713  1
  Si  Si27  1  0.294526  0.957680  0.063354  1
  Si  Si28  1  0.545313  0.798001  0.316516  1
  Si  Si29  1  0.449374  0.204674  0.817329  1
  Si  Si30  1  0.798149  0.546266  0.683792  1
  Si  Si31  1  0.208198  0.447214  0.184373  1
  Si  Si32  1  0.702227  0.047406  0.565568  1
  Si  Si33  1  0.951377  0.285685  0.935460  1
  Si  Si34  1  0.047291  0.702457  0.434542  1
  Rh  Rh35  1  0.330865  0.325713  0.000375  1
