# generated using pymatgen
data_PrPd2Au3
_symmetry_space_group_name_H-M   'P 1'
_cell_length_a   5.50011255
_cell_length_b   5.50011283
_cell_length_c   5.50011351
_cell_angle_alpha   120.16156713
_cell_angle_beta   119.36148088
_cell_angle_gamma   90.41493770
_symmetry_Int_Tables_number   1
_chemical_formula_structural   PrPd2Au3
_chemical_formula_sum   'Pr1 Pd2 Au3'
_cell_volume   118.06574001
_cell_formula_units_Z   1
loop_
 _symmetry_equiv_pos_site_id
 _symmetry_equiv_pos_as_xyz
  1  'x, y, z'
loop_
 _atom_site_type_symbol
 _atom_site_label
 _atom_site_symmetry_multiplicity
 _atom_site_fract_x
 _atom_site_fract_y
 _atom_site_fract_z
 _atom_site_occupancy
  Pr  Pr0  1  0.004017  0.004017  0.000000  1
  Pd  Pd1  1  0.622922  0.373866  0.249056  1
  Pd  Pd2  1  0.124810  0.373866  0.750944  1
  Au  Au3  1  0.623325  0.374487  0.751161  1
  Au  Au4  1  0.623325  0.872164  0.248839  1
  Au  Au5  1  0.251599  0.751599  0.500000  1
