# generated using pymatgen
data_Y2Si6GeRh12
_symmetry_space_group_name_H-M   'P 1'
_cell_length_a   9.79904200
_cell_length_b   9.79904310
_cell_length_c   3.85543300
_cell_angle_alpha   90.00000000
_cell_angle_beta   90.00000000
_cell_angle_gamma   120.00000303
_symmetry_Int_Tables_number   1
_chemical_formula_structural   Y2Si6GeRh12
_chemical_formula_sum   'Y2 Si6 Ge1 Rh12'
_cell_volume   320.60557191
_cell_formula_units_Z   1
loop_
 _symmetry_equiv_pos_site_id
 _symmetry_equiv_pos_as_xyz
  1  'x, y, z'
loop_
 _atom_site_type_symbol
 _atom_site_label
 _atom_site_symmetry_multiplicity
 _atom_site_fract_x
 _atom_site_fract_y
 _atom_site_fract_z
 _atom_site_occupancy
  Y  Y0  1  0.333333  0.666667  0.751514  1
  Y  Y1  1  0.666667  0.333333  0.251521  1
  Si  Si2  1  0.888646  0.599074  0.751755  1
  Si  Si3  1  0.400926  0.289571  0.751755  1
  Si  Si4  1  0.710429  0.111354  0.751755  1
  Si  Si5  1  0.110524  0.401189  0.250907  1
  Si  Si6  1  0.598811  0.709334  0.250907  1
  Si  Si7  1  0.290666  0.889476  0.250907  1
  Ge  Ge8  1  0.000000  0.000000  0.575535  1
  Rh  Rh9  1  0.620009  0.554846  0.752138  1
  Rh  Rh10  1  0.445154  0.065163  0.752138  1
  Rh  Rh11  1  0.934837  0.379991  0.752138  1
  Rh  Rh12  1  0.383072  0.444592  0.250120  1
  Rh  Rh13  1  0.555408  0.938481  0.250120  1
  Rh  Rh14  1  0.061519  0.616928  0.250120  1
  Rh  Rh15  1  0.124028  0.850308  0.749947  1
  Rh  Rh16  1  0.149692  0.273720  0.749947  1
  Rh  Rh17  1  0.726280  0.875972  0.749947  1
  Rh  Rh18  1  0.881257  0.143208  0.253702  1
  Rh  Rh19  1  0.856792  0.738051  0.253702  1
  Rh  Rh20  1  0.261949  0.118743  0.253702  1
