# generated using pymatgen
data_Zr6Zn22CuC
_symmetry_space_group_name_H-M   'P 1'
_cell_length_a   8.67773752
_cell_length_b   8.67773709
_cell_length_c   8.67773600
_cell_angle_alpha   59.99999652
_cell_angle_beta   59.99999817
_cell_angle_gamma   59.99999053
_symmetry_Int_Tables_number   1
_chemical_formula_structural   Zr6Zn22CuC
_chemical_formula_sum   'Zr6 Zn22 Cu1 C1'
_cell_volume   462.06639535
_cell_formula_units_Z   1
loop_
 _symmetry_equiv_pos_site_id
 _symmetry_equiv_pos_as_xyz
  1  'x, y, z'
loop_
 _atom_site_type_symbol
 _atom_site_label
 _atom_site_symmetry_multiplicity
 _atom_site_fract_x
 _atom_site_fract_y
 _atom_site_fract_z
 _atom_site_occupancy
  Zr  Zr0  1  0.690299  0.309701  0.309701  1
  Zr  Zr1  1  0.309701  0.690299  0.690299  1
  Zr  Zr2  1  0.309701  0.690299  0.309701  1
  Zr  Zr3  1  0.690299  0.309701  0.690299  1
  Zr  Zr4  1  0.309701  0.309701  0.690299  1
  Zr  Zr5  1  0.690299  0.690299  0.309701  1
  Zn  Zn6  1  0.118531  0.118531  0.118531  1
  Zn  Zn7  1  0.881469  0.881469  0.881469  1
  Zn  Zn8  1  0.118531  0.118531  0.644409  1
  Zn  Zn9  1  0.118531  0.644409  0.118531  1
  Zn  Zn10  1  0.881469  0.881469  0.355591  1
  Zn  Zn11  1  0.881469  0.355591  0.881469  1
  Zn  Zn12  1  0.644409  0.118531  0.118531  1
  Zn  Zn13  1  0.355591  0.881469  0.881469  1
  Zn  Zn14  1  0.500000  0.000000  0.000000  1
  Zn  Zn15  1  0.000000  0.500000  0.500000  1
  Zn  Zn16  1  0.000000  0.500000  0.000000  1
  Zn  Zn17  1  0.500000  0.000000  0.500000  1
  Zn  Zn18  1  0.000000  0.000000  0.500000  1
  Zn  Zn19  1  0.500000  0.500000  0.000000  1
  Zn  Zn20  1  0.330564  0.330564  0.330564  1
  Zn  Zn21  1  0.669436  0.669436  0.669436  1
  Zn  Zn22  1  0.330564  0.330564  0.008309  1
  Zn  Zn23  1  0.330564  0.008309  0.330564  1
  Zn  Zn24  1  0.669436  0.669436  0.991691  1
  Zn  Zn25  1  0.669436  0.991691  0.669436  1
  Zn  Zn26  1  0.008309  0.330564  0.330564  1
  Zn  Zn27  1  0.991691  0.669436  0.669436  1
  Cu  Cu28  1  0.000000  0.000000  0.000000  1
  C  C29  1  0.500000  0.500000  0.500000  1
