# generated using pymatgen
data_Dy3YGa17SiIr6
_symmetry_space_group_name_H-M   'P 1'
_cell_length_a   7.58147388
_cell_length_b   7.56192207
_cell_length_c   9.48400002
_cell_angle_alpha   90.06308002
_cell_angle_beta   89.80555169
_cell_angle_gamma   119.90324756
_symmetry_Int_Tables_number   1
_chemical_formula_structural   Dy3YGa17SiIr6
_chemical_formula_sum   'Dy3 Y1 Ga17 Si1 Ir6'
_cell_volume   471.33316881
_cell_formula_units_Z   1
loop_
 _symmetry_equiv_pos_site_id
 _symmetry_equiv_pos_as_xyz
  1  'x, y, z'
loop_
 _atom_site_type_symbol
 _atom_site_label
 _atom_site_symmetry_multiplicity
 _atom_site_fract_x
 _atom_site_fract_y
 _atom_site_fract_z
 _atom_site_occupancy
  Dy  Dy0  1  0.997203  0.664657  0.248125  1
  Dy  Dy1  1  0.002502  0.330963  0.751207  1
  Dy  Dy2  1  0.674596  0.002895  0.248168  1
  Y  Y3  1  0.330120  0.002361  0.749448  1
  Ga  Ga4  1  0.130146  0.129308  0.250877  1
  Ga  Ga5  1  0.872111  0.874168  0.750750  1
  Ga  Ga6  1  0.998610  0.670743  0.917756  1
  Ga  Ga7  1  0.000238  0.665623  0.579973  1
  Ga  Ga8  1  0.334000  0.997822  0.419039  1
  Ga  Ga9  1  0.999768  0.334708  0.420603  1
  Ga  Ga10  1  0.665294  0.000199  0.580072  1
  Ga  Ga11  1  0.658335  0.994512  0.917811  1
  Ga  Ga12  1  0.333573  0.997716  0.081756  1
  Ga  Ga13  1  0.332260  0.331657  0.564323  1
  Ga  Ga14  1  0.668950  0.669365  0.434662  1
  Ga  Ga15  1  0.668186  0.669525  0.067917  1
  Ga  Ga16  1  0.338248  0.332545  0.934084  1
  Ga  Ga17  1  0.341465  0.546742  0.251632  1
  Ga  Ga18  1  0.661629  0.452440  0.751120  1
  Ga  Ga19  1  0.547509  0.339604  0.250714  1
  Ga  Ga20  1  0.451512  0.658533  0.750499  1
  Si  Si21  1  0.999754  0.334481  0.072652  1
  Ir  Ir22  1  0.683662  0.329174  0.003511  1
  Ir  Ir23  1  0.313071  0.656764  0.001658  1
  Ir  Ir24  1  0.327940  0.671068  0.500409  1
  Ir  Ir25  1  0.671671  0.328302  0.500145  1
  Ir  Ir26  1  0.998129  0.014034  0.001456  1
  Ir  Ir27  1  0.999518  0.000092  0.499629  1
