# generated using pymatgen
data_TaBe8AlOs2
_symmetry_space_group_name_H-M   'P 1'
_cell_length_a   4.38893700
_cell_length_b   4.38893767
_cell_length_c   7.24087400
_cell_angle_alpha   90.00000000
_cell_angle_beta   90.00000000
_cell_angle_gamma   119.99998741
_symmetry_Int_Tables_number   1
_chemical_formula_structural   TaBe8AlOs2
_chemical_formula_sum   'Ta1 Be8 Al1 Os2'
_cell_volume   120.79263000
_cell_formula_units_Z   1
loop_
 _symmetry_equiv_pos_site_id
 _symmetry_equiv_pos_as_xyz
  1  'x, y, z'
loop_
 _atom_site_type_symbol
 _atom_site_label
 _atom_site_symmetry_multiplicity
 _atom_site_fract_x
 _atom_site_fract_y
 _atom_site_fract_z
 _atom_site_occupancy
  Ta  Ta0  1  0.666667  0.333333  0.562330  1
  Be  Be1  1  0.000000  0.000000  0.002613  1
  Be  Be2  1  0.000000  0.000000  0.493181  1
  Be  Be3  1  0.830525  0.661051  0.243890  1
  Be  Be4  1  0.166609  0.833391  0.757873  1
  Be  Be5  1  0.666783  0.833391  0.757873  1
  Be  Be6  1  0.338949  0.169475  0.243890  1
  Be  Be7  1  0.830525  0.169475  0.243890  1
  Be  Be8  1  0.166609  0.333217  0.757873  1
  Al  Al9  1  0.333333  0.666667  0.062780  1
  Os  Os10  1  0.666667  0.333333  0.935647  1
  Os  Os11  1  0.333333  0.666667  0.438159  1
