# generated using pymatgen
data_Er5IrOs
_symmetry_space_group_name_H-M   'P 1'
_cell_length_a   6.36360709
_cell_length_b   7.28511875
_cell_length_c   8.38027305
_cell_angle_alpha   96.66372225
_cell_angle_beta   112.31371455
_cell_angle_gamma   90.00000318
_symmetry_Int_Tables_number   1
_chemical_formula_structural   Er5IrOs
_chemical_formula_sum   'Er10 Ir2 Os2'
_cell_volume   356.57589139
_cell_formula_units_Z   2
loop_
 _symmetry_equiv_pos_site_id
 _symmetry_equiv_pos_as_xyz
  1  'x, y, z'
loop_
 _atom_site_type_symbol
 _atom_site_label
 _atom_site_symmetry_multiplicity
 _atom_site_fract_x
 _atom_site_fract_y
 _atom_site_fract_z
 _atom_site_occupancy
  Er  Er0  1  0.790650  0.581781  0.815843  1
  Er  Er1  1  0.974807  0.918219  0.184157  1
  Er  Er2  1  0.208981  0.415391  0.179970  1
  Er  Er3  1  0.029011  0.084609  0.820030  1
  Er  Er4  1  0.209554  0.680346  0.562203  1
  Er  Er5  1  0.647351  0.819654  0.437797  1
  Er  Er6  1  0.789565  0.316784  0.439780  1
  Er  Er7  1  0.349784  0.183216  0.560220  1
  Er  Er8  1  0.422826  0.750000  0.000000  1
  Er  Er9  1  0.575467  0.250000  0.000000  1
  Ir  Ir10  1  0.604917  0.922850  0.779053  1
  Ir  Ir11  1  0.825863  0.577150  0.220947  1
  Os  Os12  1  0.394646  0.075085  0.218067  1
  Os  Os13  1  0.176578  0.424915  0.781933  1
