# generated using pymatgen
data_Er3Hf2Sn3S
_symmetry_space_group_name_H-M   'P 1'
_cell_length_a   8.76678900
_cell_length_b   8.76678876
_cell_length_c   6.12656500
_cell_angle_alpha   90.00000000
_cell_angle_beta   90.00000000
_cell_angle_gamma   119.99999712
_symmetry_Int_Tables_number   1
_chemical_formula_structural   Er3Hf2Sn3S
_chemical_formula_sum   'Er6 Hf4 Sn6 S2'
_cell_volume   407.78268982
_cell_formula_units_Z   2
loop_
 _symmetry_equiv_pos_site_id
 _symmetry_equiv_pos_as_xyz
  1  'x, y, z'
loop_
 _atom_site_type_symbol
 _atom_site_label
 _atom_site_symmetry_multiplicity
 _atom_site_fract_x
 _atom_site_fract_y
 _atom_site_fract_z
 _atom_site_occupancy
  Er  Er0  1  0.749571  0.749571  0.750000  1
  Er  Er1  1  0.250429  0.000000  0.750000  1
  Er  Er2  1  0.000000  0.250429  0.750000  1
  Er  Er3  1  0.250429  0.250429  0.250000  1
  Er  Er4  1  0.749571  0.000000  0.250000  1
  Er  Er5  1  0.000000  0.749571  0.250000  1
  Hf  Hf6  1  0.666667  0.333333  0.000000  1
  Hf  Hf7  1  0.333333  0.666667  0.000000  1
  Hf  Hf8  1  0.333333  0.666667  0.500000  1
  Hf  Hf9  1  0.666667  0.333333  0.500000  1
  Sn  Sn10  1  0.400015  0.400015  0.750000  1
  Sn  Sn11  1  0.599985  0.000000  0.750000  1
  Sn  Sn12  1  0.000000  0.599985  0.750000  1
  Sn  Sn13  1  0.599985  0.599985  0.250000  1
  Sn  Sn14  1  0.400015  0.000000  0.250000  1
  Sn  Sn15  1  0.000000  0.400015  0.250000  1
  S  S16  1  0.000000  0.000000  0.000000  1
  S  S17  1  0.000000  0.000000  0.500000  1
