# generated using pymatgen
data_SrSc2Al7Cu2
_symmetry_space_group_name_H-M   'P 1'
_cell_length_a   9.00591264
_cell_length_b   9.00591339
_cell_length_c   9.00591336
_cell_angle_alpha   35.48558046
_cell_angle_beta   35.48557582
_cell_angle_gamma   35.48558108
_symmetry_Int_Tables_number   1
_chemical_formula_structural   SrSc2Al7Cu2
_chemical_formula_sum   'Sr1 Sc2 Al7 Cu2'
_cell_volume   219.95850408
_cell_formula_units_Z   1
loop_
 _symmetry_equiv_pos_site_id
 _symmetry_equiv_pos_as_xyz
  1  'x, y, z'
loop_
 _atom_site_type_symbol
 _atom_site_label
 _atom_site_symmetry_multiplicity
 _atom_site_fract_x
 _atom_site_fract_y
 _atom_site_fract_z
 _atom_site_occupancy
  Sr  Sr0  1  0.000000  0.000000  0.000000  1
  Sc  Sc1  1  0.856608  0.856608  0.856608  1
  Sc  Sc2  1  0.143392  0.143392  0.143392  1
  Al  Al3  1  0.414933  0.414933  0.924772  1
  Al  Al4  1  0.924772  0.414933  0.414933  1
  Al  Al5  1  0.414933  0.924772  0.414933  1
  Al  Al6  1  0.500000  0.500000  0.500000  1
  Al  Al7  1  0.585067  0.075228  0.585067  1
  Al  Al8  1  0.075228  0.585067  0.585067  1
  Al  Al9  1  0.585067  0.585067  0.075228  1
  Cu  Cu10  1  0.665095  0.665095  0.665095  1
  Cu  Cu11  1  0.334905  0.334905  0.334905  1
