# generated using pymatgen
data_DyLu4P12Ir13Ru6
_symmetry_space_group_name_H-M   'P 1'
_cell_length_a   12.59131909
_cell_length_b   12.59005589
_cell_length_c   3.95944300
_cell_angle_alpha   90.00000000
_cell_angle_beta   90.00000000
_cell_angle_gamma   119.71173821
_symmetry_Int_Tables_number   1
_chemical_formula_structural   DyLu4P12Ir13Ru6
_chemical_formula_sum   'Dy1 Lu4 P12 Ir13 Ru6'
_cell_volume   545.15224235
_cell_formula_units_Z   1
loop_
 _symmetry_equiv_pos_site_id
 _symmetry_equiv_pos_as_xyz
  1  'x, y, z'
loop_
 _atom_site_type_symbol
 _atom_site_label
 _atom_site_symmetry_multiplicity
 _atom_site_fract_x
 _atom_site_fract_y
 _atom_site_fract_z
 _atom_site_occupancy
  Dy  Dy0  1  0.999371  0.816098  0.500000  1
  Lu  Lu1  1  0.668247  0.333756  0.000000  1
  Lu  Lu2  1  0.332805  0.665258  0.000000  1
  Lu  Lu3  1  0.817356  0.001718  0.500000  1
  Lu  Lu4  1  0.182273  0.183693  0.500000  1
  P  P5  1  0.645062  0.004521  0.000000  1
  P  P6  1  0.362678  0.362363  0.000000  1
  P  P7  1  0.999441  0.636548  0.000000  1
  P  P8  1  0.688177  0.519099  0.500000  1
  P  P9  1  0.829675  0.308580  0.500000  1
  P  P10  1  0.309144  0.828206  0.500000  1
  P  P11  1  0.518550  0.686545  0.500000  1
  P  P12  1  0.181195  0.001254  0.000000  1
  P  P13  1  0.819634  0.820955  0.000000  1
  P  P14  1  0.997304  0.180651  0.000000  1
  P  P15  1  0.481580  0.171108  0.500000  1
  P  P16  1  0.168353  0.480829  0.500000  1
  Ir  Ir17  1  0.625753  0.808976  0.000000  1
  Ir  Ir18  1  0.182408  0.374474  0.000000  1
  Ir  Ir19  1  0.376396  0.182484  0.000000  1
  Ir  Ir20  1  0.194662  0.817907  0.000000  1
  Ir  Ir21  1  0.804720  0.623483  0.000000  1
  Ir  Ir22  1  0.866991  0.505100  0.500000  1
  Ir  Ir23  1  0.493406  0.362708  0.500000  1
  Ir  Ir24  1  0.637333  0.130299  0.500000  1
  Ir  Ir25  1  0.130003  0.637948  0.500000  1
  Ir  Ir26  1  0.359986  0.492725  0.500000  1
  Ir  Ir27  1  0.503360  0.863791  0.500000  1
  Ir  Ir28  1  0.000386  0.001182  0.000000  1
  Ir  Ir29  1  0.458204  0.997463  0.000000  1
  Ru  Ru30  1  0.713608  0.714340  0.500000  1
  Ru  Ru31  1  0.001765  0.287735  0.500000  1
  Ru  Ru32  1  0.543880  0.546646  0.000000  1
  Ru  Ru33  1  0.000871  0.454273  0.000000  1
  Ru  Ru34  1  0.819051  0.196666  0.000000  1
  Ru  Ru35  1  0.286368  0.000618  0.500000  1
