# generated using pymatgen
data_LaTmZn4Ru
_symmetry_space_group_name_H-M   'P 1'
_cell_length_a   7.05917500
_cell_length_b   7.05917500
_cell_length_c   5.32712600
_cell_angle_alpha   90.00000000
_cell_angle_beta   90.00000000
_cell_angle_gamma   90.00000000
_symmetry_Int_Tables_number   1
_chemical_formula_structural   LaTmZn4Ru
_chemical_formula_sum   'La2 Tm2 Zn8 Ru2'
_cell_volume   265.46108543
_cell_formula_units_Z   2
loop_
 _symmetry_equiv_pos_site_id
 _symmetry_equiv_pos_as_xyz
  1  'x, y, z'
loop_
 _atom_site_type_symbol
 _atom_site_label
 _atom_site_symmetry_multiplicity
 _atom_site_fract_x
 _atom_site_fract_y
 _atom_site_fract_z
 _atom_site_occupancy
  La  La0  1  0.000000  0.500000  0.773844  1
  La  La1  1  0.500000  0.000000  0.226156  1
  Tm  Tm2  1  0.000000  0.000000  0.000000  1
  Tm  Tm3  1  0.500000  0.500000  0.000000  1
  Zn  Zn4  1  0.186878  0.686878  0.290958  1
  Zn  Zn5  1  0.813122  0.686878  0.290958  1
  Zn  Zn6  1  0.813122  0.313122  0.290958  1
  Zn  Zn7  1  0.313122  0.186878  0.709042  1
  Zn  Zn8  1  0.186878  0.313122  0.290958  1
  Zn  Zn9  1  0.686878  0.186878  0.709042  1
  Zn  Zn10  1  0.686878  0.813122  0.709042  1
  Zn  Zn11  1  0.313122  0.813122  0.709042  1
  Ru  Ru12  1  0.500000  0.500000  0.500000  1
  Ru  Ru13  1  0.000000  0.000000  0.500000  1
