# generated using pymatgen
data_Na2Nb5ReSe12
_symmetry_space_group_name_H-M   'P 1'
_cell_length_a   5.99411600
_cell_length_b   5.99411400
_cell_length_c   15.68998400
_cell_angle_alpha   90.00000000
_cell_angle_beta   90.00000000
_cell_angle_gamma   119.99999999
_symmetry_Int_Tables_number   1
_chemical_formula_structural   Na2Nb5ReSe12
_chemical_formula_sum   'Na2 Nb5 Re1 Se12'
_cell_volume   488.20618186
_cell_formula_units_Z   1
loop_
 _symmetry_equiv_pos_site_id
 _symmetry_equiv_pos_as_xyz
  1  'x, y, z'
loop_
 _atom_site_type_symbol
 _atom_site_label
 _atom_site_symmetry_multiplicity
 _atom_site_fract_x
 _atom_site_fract_y
 _atom_site_fract_z
 _atom_site_occupancy
  Na  Na0  1  0.333333  0.666667  0.252621  1
  Na  Na1  1  0.666667  0.333333  0.749478  1
  Nb  Nb2  1  0.000000  0.000000  0.999945  1
  Nb  Nb3  1  0.666667  0.333333  0.999439  1
  Nb  Nb4  1  0.333333  0.666667  0.500109  1
  Nb  Nb5  1  0.000000  0.000000  0.500248  1
  Nb  Nb6  1  0.666667  0.333333  0.500283  1
  Re  Re7  1  0.333333  0.666667  0.999112  1
  Se  Se8  1  0.669249  0.666499  0.392833  1
  Se  Se9  1  0.666404  0.668914  0.607736  1
  Se  Se10  1  0.011056  0.669670  0.894174  1
  Se  Se11  1  0.658616  0.988944  0.894174  1
  Se  Se12  1  0.658146  0.991947  0.104845  1
  Se  Se13  1  0.333501  0.002751  0.392833  1
  Se  Se14  1  0.002511  0.333596  0.607736  1
  Se  Se15  1  0.331086  0.997489  0.607736  1
  Se  Se16  1  0.008053  0.666200  0.104845  1
  Se  Se17  1  0.330330  0.341384  0.894174  1
  Se  Se18  1  0.997249  0.330751  0.392833  1
  Se  Se19  1  0.333800  0.341854  0.104845  1
