# generated using pymatgen
data_Er10Al5AgC8
_symmetry_space_group_name_H-M   'P 1'
_cell_length_a   10.79842500
_cell_length_b   10.79842500
_cell_length_c   3.47964300
_cell_angle_alpha   90.00000000
_cell_angle_beta   90.00000000
_cell_angle_gamma   90.00000000
_symmetry_Int_Tables_number   1
_chemical_formula_structural   Er10Al5AgC8
_chemical_formula_sum   'Er10 Al5 Ag1 C8'
_cell_volume   405.74719070
_cell_formula_units_Z   1
loop_
 _symmetry_equiv_pos_site_id
 _symmetry_equiv_pos_as_xyz
  1  'x, y, z'
loop_
 _atom_site_type_symbol
 _atom_site_label
 _atom_site_symmetry_multiplicity
 _atom_site_fract_x
 _atom_site_fract_y
 _atom_site_fract_z
 _atom_site_occupancy
  Er  Er0  1  0.548807  0.730579  0.500000  1
  Er  Er1  1  0.451193  0.269421  0.500000  1
  Er  Er2  1  0.049549  0.768920  0.500000  1
  Er  Er3  1  0.950451  0.231080  0.500000  1
  Er  Er4  1  0.269421  0.548807  0.500000  1
  Er  Er5  1  0.730579  0.451193  0.500000  1
  Er  Er6  1  0.231080  0.049549  0.500000  1
  Er  Er7  1  0.768920  0.950451  0.500000  1
  Er  Er8  1  0.500000  0.000000  0.000000  1
  Er  Er9  1  0.000000  0.500000  0.000000  1
  Al  Al10  1  0.705557  0.200922  0.000000  1
  Al  Al11  1  0.294443  0.799078  0.000000  1
  Al  Al12  1  0.200922  0.294443  0.000000  1
  Al  Al13  1  0.799078  0.705557  0.000000  1
  Al  Al14  1  0.000000  0.000000  0.000000  1
  Ag  Ag15  1  0.500000  0.500000  0.000000  1
  C  C16  1  0.629358  0.129613  0.500000  1
  C  C17  1  0.370642  0.870387  0.500000  1
  C  C18  1  0.129613  0.370642  0.500000  1
  C  C19  1  0.870387  0.629358  0.500000  1
  C  C20  1  0.162420  0.660913  0.000000  1
  C  C21  1  0.837580  0.339087  0.000000  1
  C  C22  1  0.660913  0.837580  0.000000  1
  C  C23  1  0.339087  0.162420  0.000000  1
