# generated using pymatgen
data_TbEr15Cd4Ir3Pd
_symmetry_space_group_name_H-M   'P 1'
_cell_length_a   9.56048082
_cell_length_b   9.56048098
_cell_length_c   9.56342556
_cell_angle_alpha   60.13379277
_cell_angle_beta   60.13379367
_cell_angle_gamma   60.08187773
_symmetry_Int_Tables_number   1
_chemical_formula_structural   TbEr15Cd4Ir3Pd
_chemical_formula_sum   'Tb1 Er15 Cd4 Ir3 Pd1'
_cell_volume   619.72979079
_cell_formula_units_Z   1
loop_
 _symmetry_equiv_pos_site_id
 _symmetry_equiv_pos_as_xyz
  1  'x, y, z'
loop_
 _atom_site_type_symbol
 _atom_site_label
 _atom_site_symmetry_multiplicity
 _atom_site_fract_x
 _atom_site_fract_y
 _atom_site_fract_z
 _atom_site_occupancy
  Tb  Tb0  1  0.186883  0.186883  0.814571  1
  Er  Er1  1  0.597841  0.597841  0.597800  1
  Er  Er2  1  0.603865  0.603865  0.197255  1
  Er  Er3  1  0.604106  0.197160  0.603597  1
  Er  Er4  1  0.197160  0.604106  0.603597  1
  Er  Er5  1  0.054590  0.440889  0.440306  1
  Er  Er6  1  0.438355  0.060250  0.060623  1
  Er  Er7  1  0.440889  0.054590  0.440306  1
  Er  Er8  1  0.060250  0.438355  0.060623  1
  Er  Er9  1  0.440636  0.440636  0.054793  1
  Er  Er10  1  0.060441  0.060441  0.437992  1
  Er  Er11  1  0.188326  0.812755  0.813132  1
  Er  Er12  1  0.814163  0.186929  0.187461  1
  Er  Er13  1  0.812755  0.188326  0.813132  1
  Er  Er14  1  0.186929  0.814163  0.187461  1
  Er  Er15  1  0.813154  0.813154  0.188381  1
  Cd  Cd16  1  0.830964  0.830964  0.830891  1
  Cd  Cd17  1  0.831006  0.831006  0.505768  1
  Cd  Cd18  1  0.830644  0.506131  0.830981  1
  Cd  Cd19  1  0.506131  0.830644  0.830981  1
  Ir  Ir20  1  0.391848  0.391848  0.824021  1
  Ir  Ir21  1  0.391825  0.823888  0.391702  1
  Ir  Ir22  1  0.823888  0.391825  0.391702  1
  Pd  Pd23  1  0.393354  0.393354  0.392924  1
