# generated using pymatgen
data_YEr2In3Ag2Rh
_symmetry_space_group_name_H-M   'P 1'
_cell_length_a   7.83095544
_cell_length_b   7.81413825
_cell_length_c   3.86839300
_cell_angle_alpha   90.00000000
_cell_angle_beta   90.00000000
_cell_angle_gamma   119.98062334
_symmetry_Int_Tables_number   1
_chemical_formula_structural   YEr2In3Ag2Rh
_chemical_formula_sum   'Y1 Er2 In3 Ag2 Rh1'
_cell_volume   205.04152704
_cell_formula_units_Z   1
loop_
 _symmetry_equiv_pos_site_id
 _symmetry_equiv_pos_as_xyz
  1  'x, y, z'
loop_
 _atom_site_type_symbol
 _atom_site_label
 _atom_site_symmetry_multiplicity
 _atom_site_fract_x
 _atom_site_fract_y
 _atom_site_fract_z
 _atom_site_occupancy
  Y  Y0  1  0.026693  0.606156  0.500000  1
  Er  Er1  1  0.393305  0.423296  0.500000  1
  Er  Er2  1  0.577283  0.969504  0.500000  1
  In  In3  1  0.268061  0.002802  0.000000  1
  In  In4  1  0.735003  0.731985  0.000000  1
  In  In5  1  0.997532  0.265658  0.000000  1
  Ag  Ag6  1  0.664264  0.331301  0.000000  1
  Ag  Ag7  1  0.000205  0.001624  0.500000  1
  Rh  Rh8  1  0.337652  0.667675  0.000000  1
