# generated using pymatgen
data_TbCe2Mg2ZnIr2Pd
_symmetry_space_group_name_H-M   'P 1'
_cell_length_a   7.47380889
_cell_length_b   7.31183709
_cell_length_c   3.96045600
_cell_angle_alpha   90.00000000
_cell_angle_beta   90.00000000
_cell_angle_gamma   119.69578750
_symmetry_Int_Tables_number   1
_chemical_formula_structural   TbCe2Mg2ZnIr2Pd
_chemical_formula_sum   'Tb1 Ce2 Mg2 Zn1 Ir2 Pd1'
_cell_volume   188.00416939
_cell_formula_units_Z   1
loop_
 _symmetry_equiv_pos_site_id
 _symmetry_equiv_pos_as_xyz
  1  'x, y, z'
loop_
 _atom_site_type_symbol
 _atom_site_label
 _atom_site_symmetry_multiplicity
 _atom_site_fract_x
 _atom_site_fract_y
 _atom_site_fract_z
 _atom_site_occupancy
  Tb  Tb0  1  0.992154  0.405331  0.000000  1
  Ce  Ce1  1  0.577652  0.583034  0.000000  1
  Ce  Ce2  1  0.437834  0.001744  0.000000  1
  Mg  Mg3  1  0.002690  0.750332  0.500000  1
  Mg  Mg4  1  0.235951  0.238820  0.500000  1
  Zn  Zn5  1  0.760314  0.005328  0.500000  1
  Ir  Ir6  1  0.649637  0.332665  0.500000  1
  Ir  Ir7  1  0.352252  0.684518  0.500000  1
  Pd  Pd8  1  0.991516  0.998228  0.000000  1
