# generated using pymatgen
data_Dy4Al5GaTc2
_symmetry_space_group_name_H-M   'P 1'
_cell_length_a   5.52075785
_cell_length_b   5.50547410
_cell_length_c   8.92393500
_cell_angle_alpha   90.00000000
_cell_angle_beta   90.00000000
_cell_angle_gamma   119.90842678
_symmetry_Int_Tables_number   1
_chemical_formula_structural   Dy4Al5GaTc2
_chemical_formula_sum   'Dy4 Al5 Ga1 Tc2'
_cell_volume   235.11506658
_cell_formula_units_Z   1
loop_
 _symmetry_equiv_pos_site_id
 _symmetry_equiv_pos_as_xyz
  1  'x, y, z'
loop_
 _atom_site_type_symbol
 _atom_site_label
 _atom_site_symmetry_multiplicity
 _atom_site_fract_x
 _atom_site_fract_y
 _atom_site_fract_z
 _atom_site_occupancy
  Dy  Dy0  1  0.334144  0.667072  0.449533  1
  Dy  Dy1  1  0.667554  0.333777  0.552503  1
  Dy  Dy2  1  0.667554  0.333777  0.947497  1
  Dy  Dy3  1  0.334144  0.667072  0.050467  1
  Al  Al4  1  0.837870  0.162169  0.250000  1
  Al  Al5  1  0.837870  0.675702  0.250000  1
  Al  Al6  1  0.323211  0.161606  0.250000  1
  Al  Al7  1  0.160807  0.837890  0.750000  1
  Al  Al8  1  0.160807  0.322918  0.750000  1
  Ga  Ga9  1  0.669648  0.834824  0.750000  1
  Tc  Tc10  1  0.003196  0.001598  0.499312  1
  Tc  Tc11  1  0.003196  0.001598  0.000688  1
