# generated using pymatgen
data_Pr6RuRhI6
_symmetry_space_group_name_H-M   'P 1'
_cell_length_a   4.28117400
_cell_length_b   9.57221299
_cell_length_c   12.69233221
_cell_angle_alpha   87.55734937
_cell_angle_beta   90.00000000
_cell_angle_gamma   90.00000000
_symmetry_Int_Tables_number   1
_chemical_formula_structural   Pr6RuRhI6
_chemical_formula_sum   'Pr6 Ru1 Rh1 I6'
_cell_volume   519.66309568
_cell_formula_units_Z   1
loop_
 _symmetry_equiv_pos_site_id
 _symmetry_equiv_pos_as_xyz
  1  'x, y, z'
loop_
 _atom_site_type_symbol
 _atom_site_label
 _atom_site_symmetry_multiplicity
 _atom_site_fract_x
 _atom_site_fract_y
 _atom_site_fract_z
 _atom_site_occupancy
  Pr  Pr0  1  0.750000  0.689669  0.118009  1
  Pr  Pr1  1  0.250000  0.311169  0.880596  1
  Pr  Pr2  1  0.250000  0.886317  0.337887  1
  Pr  Pr3  1  0.750000  0.114725  0.666719  1
  Pr  Pr4  1  0.250000  0.908137  0.890238  1
  Pr  Pr5  1  0.750000  0.094450  0.107434  1
  Ru  Ru6  1  0.750000  0.111438  0.880449  1
  Rh  Rh7  1  0.250000  0.886972  0.119605  1
  I  I8  1  0.250000  0.864297  0.616487  1
  I  I9  1  0.750000  0.136705  0.383214  1
  I  I10  1  0.750000  0.631502  0.374327  1
  I  I11  1  0.250000  0.366926  0.625320  1
  I  I12  1  0.250000  0.393365  0.132706  1
  I  I13  1  0.750000  0.604330  0.867009  1
