# generated using pymatgen
data_Tb3Dy2Tm15Sn16
_symmetry_space_group_name_H-M   'P 1'
_cell_length_a   7.97008279
_cell_length_b   8.10456932
_cell_length_c   15.31131768
_cell_angle_alpha   90.00926897
_cell_angle_beta   89.93825066
_cell_angle_gamma   89.95732138
_symmetry_Int_Tables_number   1
_chemical_formula_structural   Tb3Dy2Tm15Sn16
_chemical_formula_sum   'Tb3 Dy2 Tm15 Sn16'
_cell_volume   989.01974598
_cell_formula_units_Z   1
loop_
 _symmetry_equiv_pos_site_id
 _symmetry_equiv_pos_as_xyz
  1  'x, y, z'
loop_
 _atom_site_type_symbol
 _atom_site_label
 _atom_site_symmetry_multiplicity
 _atom_site_fract_x
 _atom_site_fract_y
 _atom_site_fract_z
 _atom_site_occupancy
  Tb  Tb0  1  0.978750  0.820505  0.096964  1
  Tb  Tb1  1  0.478907  0.678643  0.096329  1
  Tb  Tb2  1  0.978313  0.820921  0.403330  1
  Dy  Dy3  1  0.521494  0.321115  0.596574  1
  Dy  Dy4  1  0.020716  0.179532  0.903496  1
  Tm  Tm5  1  0.367058  0.837331  0.876876  1
  Tm  Tm6  1  0.867999  0.662602  0.622813  1
  Tm  Tm7  1  0.631704  0.162996  0.377325  1
  Tm  Tm8  1  0.132579  0.337268  0.122894  1
  Tm  Tm9  1  0.632313  0.162973  0.122967  1
  Tm  Tm10  1  0.131677  0.337181  0.377558  1
  Tm  Tm11  1  0.368593  0.837379  0.622744  1
  Tm  Tm12  1  0.867347  0.662295  0.876856  1
  Tm  Tm13  1  0.522290  0.320832  0.902622  1
  Tm  Tm14  1  0.022818  0.179001  0.597451  1
  Tm  Tm15  1  0.476980  0.678592  0.402755  1
  Tm  Tm16  1  0.198571  0.504131  0.749902  1
  Tm  Tm17  1  0.698442  0.995983  0.749768  1
  Tm  Tm18  1  0.801287  0.495602  0.250454  1
  Tm  Tm19  1  0.301880  0.004498  0.250369  1
  Sn  Sn20  1  0.294666  0.038265  0.041574  1
  Sn  Sn21  1  0.791828  0.463229  0.458155  1
  Sn  Sn22  1  0.707559  0.964057  0.542131  1
  Sn  Sn23  1  0.206973  0.536570  0.957929  1
  Sn  Sn24  1  0.704461  0.962652  0.958147  1
  Sn  Sn25  1  0.206656  0.538179  0.541181  1
  Sn  Sn26  1  0.293835  0.037718  0.458918  1
  Sn  Sn27  1  0.794042  0.460453  0.040859  1
  Sn  Sn28  1  0.564709  0.618897  0.749850  1
  Sn  Sn29  1  0.064569  0.880771  0.749851  1
  Sn  Sn30  1  0.435101  0.380684  0.250149  1
  Sn  Sn31  1  0.935199  0.120199  0.250143  1
  Sn  Sn32  1  0.331744  0.149124  0.750467  1
  Sn  Sn33  1  0.831620  0.350706  0.749644  1
  Sn  Sn34  1  0.667574  0.851141  0.250675  1
  Sn  Sn35  1  0.169745  0.647971  0.250276  1
