# generated using pymatgen
data_Ca4Cu4Si3
_symmetry_space_group_name_H-M   'P 1'
_cell_length_a   10.57872594
_cell_length_b   10.57872723
_cell_length_c   7.84123589
_cell_angle_alpha   72.05455788
_cell_angle_beta   72.05455614
_cell_angle_gamma   30.67934738
_symmetry_Int_Tables_number   1
_chemical_formula_structural   Ca4Cu4Si3
_chemical_formula_sum   'Ca8 Cu8 Si6'
_cell_volume   424.26732607
_cell_formula_units_Z   2
loop_
 _symmetry_equiv_pos_site_id
 _symmetry_equiv_pos_as_xyz
  1  'x, y, z'
loop_
 _atom_site_type_symbol
 _atom_site_label
 _atom_site_symmetry_multiplicity
 _atom_site_fract_x
 _atom_site_fract_y
 _atom_site_fract_z
 _atom_site_occupancy
  Ca  Ca0  1  0.942850  0.195554  0.325924  1
  Ca  Ca1  1  0.057150  0.804446  0.674076  1
  Ca  Ca2  1  0.804446  0.057150  0.174076  1
  Ca  Ca3  1  0.457900  0.203485  0.897315  1
  Ca  Ca4  1  0.796515  0.542100  0.602685  1
  Ca  Ca5  1  0.203485  0.457900  0.397315  1
  Ca  Ca6  1  0.195554  0.942850  0.825924  1
  Ca  Ca7  1  0.542100  0.796515  0.102685  1
  Cu  Cu8  1  0.567411  0.308354  0.520711  1
  Cu  Cu9  1  0.691646  0.432589  0.979289  1
  Cu  Cu10  1  0.308354  0.567411  0.020711  1
  Cu  Cu11  1  0.432589  0.691646  0.479289  1
  Cu  Cu12  1  0.646662  0.908148  0.299395  1
  Cu  Cu13  1  0.908148  0.646662  0.799395  1
  Cu  Cu14  1  0.353338  0.091852  0.700605  1
  Cu  Cu15  1  0.091852  0.353338  0.200605  1
  Si  Si16  1  0.313976  0.034028  0.446282  1
  Si  Si17  1  0.380844  0.619156  0.250000  1
  Si  Si18  1  0.034028  0.313976  0.946282  1
  Si  Si19  1  0.686024  0.965972  0.553718  1
  Si  Si20  1  0.965972  0.686024  0.053718  1
  Si  Si21  1  0.619156  0.380844  0.750000  1
