# generated using pymatgen
data_NdPu(Si2Rh3)2
_symmetry_space_group_name_H-M   'P 1'
_cell_length_a   6.65718768
_cell_length_b   6.65718783
_cell_length_c   6.65718753
_cell_angle_alpha   130.29841252
_cell_angle_beta   114.69248450
_cell_angle_gamma   86.30090205
_symmetry_Int_Tables_number   1
_chemical_formula_structural   NdPu(Si2Rh3)2
_chemical_formula_sum   'Nd1 Pu1 Si4 Rh6'
_cell_volume   195.23099692
_cell_formula_units_Z   1
loop_
 _symmetry_equiv_pos_site_id
 _symmetry_equiv_pos_as_xyz
  1  'x, y, z'
loop_
 _atom_site_type_symbol
 _atom_site_label
 _atom_site_symmetry_multiplicity
 _atom_site_fract_x
 _atom_site_fract_y
 _atom_site_fract_z
 _atom_site_occupancy
  Nd  Nd0  1  0.250000  0.964891  0.714891  1
  Pu  Pu1  1  0.750000  0.036365  0.286365  1
  Si  Si2  1  0.579946  0.386084  0.806137  1
  Si  Si3  1  0.422891  0.619635  0.196744  1
  Si  Si4  1  0.077109  0.273853  0.196744  1
  Si  Si5  1  0.920054  0.726191  0.806137  1
  Rh  Rh6  1  0.214059  0.498020  0.714219  1
  Rh  Rh7  1  0.716199  0.000160  0.714219  1
  Rh  Rh8  1  0.783801  0.498020  0.283961  1
  Rh  Rh9  1  0.285941  0.000160  0.283961  1
  Rh  Rh10  1  0.499432  0.498310  0.497742  1
  Rh  Rh11  1  0.000568  0.498310  0.998878  1
