# generated using pymatgen
data_HoTh3(Al3Rh)6
_symmetry_space_group_name_H-M   'P 1'
_cell_length_a   7.64884501
_cell_length_b   7.65851132
_cell_length_c   9.52865700
_cell_angle_alpha   90.00000000
_cell_angle_beta   90.00000000
_cell_angle_gamma   119.44172147
_symmetry_Int_Tables_number   1
_chemical_formula_structural   HoTh3(Al3Rh)6
_chemical_formula_sum   'Ho1 Th3 Al18 Rh6'
_cell_volume   486.09182730
_cell_formula_units_Z   1
loop_
 _symmetry_equiv_pos_site_id
 _symmetry_equiv_pos_as_xyz
  1  'x, y, z'
loop_
 _atom_site_type_symbol
 _atom_site_label
 _atom_site_symmetry_multiplicity
 _atom_site_fract_x
 _atom_site_fract_y
 _atom_site_fract_z
 _atom_site_occupancy
  Ho  Ho0  1  0.328370  0.005808  0.750000  1
  Th  Th1  1  0.994994  0.671301  0.250000  1
  Th  Th2  1  0.003625  0.329026  0.750000  1
  Th  Th3  1  0.670419  0.994039  0.250000  1
  Al  Al4  1  0.135017  0.132338  0.250000  1
  Al  Al5  1  0.871092  0.870212  0.750000  1
  Al  Al6  1  0.005865  0.335616  0.074387  1
  Al  Al7  1  0.000963  0.669940  0.921981  1
  Al  Al8  1  0.000963  0.669940  0.578019  1
  Al  Al9  1  0.335147  0.004198  0.431729  1
  Al  Al10  1  0.005865  0.335616  0.425613  1
  Al  Al11  1  0.659182  0.995561  0.577939  1
  Al  Al12  1  0.659182  0.995561  0.922061  1
  Al  Al13  1  0.335147  0.004198  0.068271  1
  Al  Al14  1  0.336025  0.332362  0.553131  1
  Al  Al15  1  0.663257  0.663177  0.456628  1
  Al  Al16  1  0.663257  0.663177  0.043372  1
  Al  Al17  1  0.336025  0.332362  0.946869  1
  Al  Al18  1  0.341654  0.544591  0.250000  1
  Al  Al19  1  0.656686  0.449782  0.750000  1
  Al  Al20  1  0.544473  0.338463  0.250000  1
  Al  Al21  1  0.452300  0.662244  0.750000  1
  Rh  Rh22  1  0.673725  0.328334  0.999723  1
  Rh  Rh23  1  0.327331  0.671522  0.000069  1
  Rh  Rh24  1  0.327331  0.671522  0.499931  1
  Rh  Rh25  1  0.673725  0.328334  0.500277  1
  Rh  Rh26  1  0.999193  0.000388  0.999888  1
  Rh  Rh27  1  0.999193  0.000388  0.500112  1
