# generated using pymatgen
data_Pr19NdSi15Os
_symmetry_space_group_name_H-M   'P 1'
_cell_length_a   7.92681505
_cell_length_b   7.93166893
_cell_length_c   15.27943113
_cell_angle_alpha   90.20025911
_cell_angle_beta   89.91135627
_cell_angle_gamma   90.03229033
_symmetry_Int_Tables_number   1
_chemical_formula_structural   Pr19NdSi15Os
_chemical_formula_sum   'Pr19 Nd1 Si15 Os1'
_cell_volume   960.65456139
_cell_formula_units_Z   1
loop_
 _symmetry_equiv_pos_site_id
 _symmetry_equiv_pos_as_xyz
  1  'x, y, z'
loop_
 _atom_site_type_symbol
 _atom_site_label
 _atom_site_symmetry_multiplicity
 _atom_site_fract_x
 _atom_site_fract_y
 _atom_site_fract_z
 _atom_site_occupancy
  Pr  Pr0  1  0.191582  0.809176  0.249536  1
  Pr  Pr1  1  0.824440  0.188719  0.749322  1
  Pr  Pr2  1  0.695076  0.688754  0.501915  1
  Pr  Pr3  1  0.371863  0.011745  0.450169  1
  Pr  Pr4  1  0.485256  0.880778  0.696767  1
  Pr  Pr5  1  0.510715  0.123710  0.198364  1
  Pr  Pr6  1  0.876078  0.488477  0.300501  1
  Pr  Pr7  1  0.126847  0.504349  0.798916  1
  Pr  Pr8  1  0.625458  0.988383  0.948483  1
  Pr  Pr9  1  0.008553  0.374750  0.552196  1
  Pr  Pr10  1  0.988175  0.624826  0.050807  1
  Pr  Pr11  1  0.133111  0.984587  0.872642  1
  Pr  Pr12  1  0.516673  0.630103  0.126038  1
  Pr  Pr13  1  0.472424  0.360340  0.628511  1
  Pr  Pr14  1  0.626820  0.515088  0.874020  1
  Pr  Pr15  1  0.374983  0.483803  0.373549  1
  Pr  Pr16  1  0.872857  0.020208  0.376263  1
  Pr  Pr17  1  0.982469  0.126970  0.124400  1
  Pr  Pr18  1  0.026179  0.881581  0.626444  1
  Nd  Nd19  1  0.306192  0.306599  0.998540  1
  Si  Si20  1  0.333550  0.694803  0.951019  1
  Si  Si21  1  0.664730  0.302343  0.451566  1
  Si  Si22  1  0.696235  0.334297  0.049844  1
  Si  Si23  1  0.303973  0.668233  0.547273  1
  Si  Si24  1  0.805162  0.832367  0.202831  1
  Si  Si25  1  0.167872  0.197853  0.298483  1
  Si  Si26  1  0.832181  0.801631  0.800143  1
  Si  Si27  1  0.288271  0.922556  0.058252  1
  Si  Si28  1  0.579759  0.787535  0.310545  1
  Si  Si29  1  0.422682  0.208680  0.812145  1
  Si  Si30  1  0.779521  0.583498  0.691313  1
  Si  Si31  1  0.212123  0.421413  0.190102  1
  Si  Si32  1  0.704763  0.074252  0.558198  1
  Si  Si33  1  0.919934  0.288069  0.941996  1
  Si  Si34  1  0.079579  0.715096  0.440879  1
  Os  Os35  1  0.193913  0.174428  0.698028  1
