# generated using pymatgen
data_Ti12V5Si16Mo3
_symmetry_space_group_name_H-M   'P 1'
_cell_length_a   6.58084741
_cell_length_b   6.57714830
_cell_length_c   12.11115389
_cell_angle_alpha   89.97290723
_cell_angle_beta   89.96558311
_cell_angle_gamma   90.02130659
_symmetry_Int_Tables_number   1
_chemical_formula_structural   Ti12V5Si16Mo3
_chemical_formula_sum   'Ti12 V5 Si16 Mo3'
_cell_volume   524.20941952
_cell_formula_units_Z   1
loop_
 _symmetry_equiv_pos_site_id
 _symmetry_equiv_pos_as_xyz
  1  'x, y, z'
loop_
 _atom_site_type_symbol
 _atom_site_label
 _atom_site_symmetry_multiplicity
 _atom_site_fract_x
 _atom_site_fract_y
 _atom_site_fract_z
 _atom_site_occupancy
  Ti  Ti0  1  0.003671  0.339834  0.219585  1
  Ti  Ti1  1  0.159598  0.504562  0.468973  1
  Ti  Ti2  1  0.840027  0.495662  0.970242  1
  Ti  Ti3  1  0.503753  0.160443  0.530206  1
  Ti  Ti4  1  0.494755  0.840187  0.030485  1
  Ti  Ti5  1  0.995944  0.660587  0.720080  1
  Ti  Ti6  1  0.339370  0.003204  0.780477  1
  Ti  Ti7  1  0.660005  0.996035  0.279508  1
  Ti  Ti8  1  0.165828  0.166247  0.000965  1
  Ti  Ti9  1  0.334202  0.666531  0.249601  1
  Ti  Ti10  1  0.666782  0.333272  0.750493  1
  Ti  Ti11  1  0.834129  0.832578  0.499376  1
  V  V12  1  0.493154  0.344980  0.127528  1
  V  V13  1  0.507388  0.654579  0.627486  1
  V  V14  1  0.006740  0.845390  0.121769  1
  V  V15  1  0.155193  0.992879  0.378015  1
  V  V16  1  0.844974  0.007685  0.877354  1
  Si  Si17  1  0.039426  0.298174  0.814441  1
  Si  Si18  1  0.199718  0.542352  0.065144  1
  Si  Si19  1  0.798258  0.460859  0.563962  1
  Si  Si20  1  0.544201  0.197239  0.938894  1
  Si  Si21  1  0.456692  0.802795  0.437703  1
  Si  Si22  1  0.961161  0.704962  0.310700  1
  Si  Si23  1  0.297871  0.041712  0.187225  1
  Si  Si24  1  0.697147  0.956022  0.687893  1
  Si  Si25  1  0.293862  0.369796  0.671552  1
  Si  Si26  1  0.128742  0.794639  0.924205  1
  Si  Si27  1  0.869689  0.205988  0.421198  1
  Si  Si28  1  0.790882  0.131807  0.078250  1
  Si  Si29  1  0.211160  0.862005  0.576791  1
  Si  Si30  1  0.709942  0.632759  0.169692  1
  Si  Si31  1  0.362509  0.288764  0.326009  1
  Si  Si32  1  0.637837  0.711050  0.827235  1
  Mo  Mo33  1  0.994368  0.153860  0.622459  1
  Mo  Mo34  1  0.346145  0.494659  0.872555  1
  Mo  Mo35  1  0.654881  0.505901  0.371951  1
