# generated using pymatgen
data_Tb3RhAu3
_symmetry_space_group_name_H-M   'P 1'
_cell_length_a   8.07241098
_cell_length_b   8.07241021
_cell_length_c   8.07241100
_cell_angle_alpha   114.19592342
_cell_angle_beta   114.19592098
_cell_angle_gamma   114.19590449
_symmetry_Int_Tables_number   1
_chemical_formula_structural   Tb3RhAu3
_chemical_formula_sum   'Tb6 Rh2 Au6'
_cell_volume   314.89348250
_cell_formula_units_Z   2
loop_
 _symmetry_equiv_pos_site_id
 _symmetry_equiv_pos_as_xyz
  1  'x, y, z'
loop_
 _atom_site_type_symbol
 _atom_site_label
 _atom_site_symmetry_multiplicity
 _atom_site_fract_x
 _atom_site_fract_y
 _atom_site_fract_z
 _atom_site_occupancy
  Tb  Tb0  1  0.040637  0.392244  0.279971  1
  Tb  Tb1  1  0.392244  0.279971  0.040637  1
  Tb  Tb2  1  0.720029  0.959363  0.607756  1
  Tb  Tb3  1  0.279971  0.040637  0.392244  1
  Tb  Tb4  1  0.607756  0.720029  0.959363  1
  Tb  Tb5  1  0.959363  0.607756  0.720029  1
  Rh  Rh6  1  0.000000  0.000000  0.000000  1
  Rh  Rh7  1  0.500000  0.500000  0.500000  1
  Au  Au8  1  0.437411  0.937766  0.772200  1
  Au  Au9  1  0.937766  0.772200  0.437411  1
  Au  Au10  1  0.227800  0.562589  0.062234  1
  Au  Au11  1  0.772200  0.437411  0.937766  1
  Au  Au12  1  0.062234  0.227800  0.562589  1
  Au  Au13  1  0.562589  0.062234  0.227800  1
