# generated using pymatgen
data_GeSb11PtRh3
_symmetry_space_group_name_H-M   'P 1'
_cell_length_a   8.10717459
_cell_length_b   8.08945431
_cell_length_c   8.10282277
_cell_angle_alpha   109.07462721
_cell_angle_beta   109.99198037
_cell_angle_gamma   109.38775088
_symmetry_Int_Tables_number   1
_chemical_formula_structural   GeSb11PtRh3
_chemical_formula_sum   'Ge1 Sb11 Pt1 Rh3'
_cell_volume   408.84932764
_cell_formula_units_Z   1
loop_
 _symmetry_equiv_pos_site_id
 _symmetry_equiv_pos_as_xyz
  1  'x, y, z'
loop_
 _atom_site_type_symbol
 _atom_site_label
 _atom_site_symmetry_multiplicity
 _atom_site_fract_x
 _atom_site_fract_y
 _atom_site_fract_z
 _atom_site_occupancy
  Ge  Ge0  1  0.152788  0.815616  0.654850  1
  Sb  Sb1  1  0.849556  0.188967  0.344926  1
  Sb  Sb2  1  0.859226  0.520181  0.661480  1
  Sb  Sb3  1  0.156952  0.508912  0.353268  1
  Sb  Sb4  1  0.817586  0.659335  0.157562  1
  Sb  Sb5  1  0.179571  0.334398  0.843616  1
  Sb  Sb6  1  0.500011  0.651997  0.841131  1
  Sb  Sb7  1  0.493358  0.341866  0.156394  1
  Sb  Sb8  1  0.658988  0.153989  0.808402  1
  Sb  Sb9  1  0.337226  0.841723  0.185638  1
  Sb  Sb10  1  0.664345  0.843241  0.507483  1
  Sb  Sb11  1  0.337782  0.152335  0.492707  1
  Pt  Pt12  1  0.490529  0.994761  0.990845  1
  Rh  Rh13  1  0.003030  0.995796  0.502701  1
  Rh  Rh14  1  0.998607  0.498492  0.998658  1
  Rh  Rh15  1  0.500446  0.498390  0.500337  1
