# generated using pymatgen
data_Tm4Al5ReTc2
_symmetry_space_group_name_H-M   'P 1'
_cell_length_a   5.48068877
_cell_length_b   5.50700674
_cell_length_c   8.72731800
_cell_angle_alpha   90.00000000
_cell_angle_beta   90.00000000
_cell_angle_gamma   120.15898684
_symmetry_Int_Tables_number   1
_chemical_formula_structural   Tm4Al5ReTc2
_chemical_formula_sum   'Tm4 Al5 Re1 Tc2'
_cell_volume   227.75304104
_cell_formula_units_Z   1
loop_
 _symmetry_equiv_pos_site_id
 _symmetry_equiv_pos_as_xyz
  1  'x, y, z'
loop_
 _atom_site_type_symbol
 _atom_site_label
 _atom_site_symmetry_multiplicity
 _atom_site_fract_x
 _atom_site_fract_y
 _atom_site_fract_z
 _atom_site_occupancy
  Tm  Tm0  1  0.337263  0.668632  0.443677  1
  Tm  Tm1  1  0.664827  0.332413  0.555546  1
  Tm  Tm2  1  0.664827  0.332413  0.944454  1
  Tm  Tm3  1  0.337263  0.668632  0.056323  1
  Al  Al4  1  0.836784  0.163278  0.250000  1
  Al  Al5  1  0.836784  0.673507  0.250000  1
  Al  Al6  1  0.324420  0.162210  0.250000  1
  Al  Al7  1  0.185067  0.842090  0.750000  1
  Al  Al8  1  0.185067  0.342977  0.750000  1
  Re  Re9  1  0.675991  0.837996  0.750000  1
  Tc  Tc10  1  0.975853  0.987926  0.510468  1
  Tc  Tc11  1  0.975853  0.987926  0.989532  1
