# generated using pymatgen
data_Sr3PrSi8
_symmetry_space_group_name_H-M   'P 1'
_cell_length_a   4.42830300
_cell_length_b   4.42830300
_cell_length_c   13.70994900
_cell_angle_alpha   90.00000000
_cell_angle_beta   90.00000000
_cell_angle_gamma   90.00000000
_symmetry_Int_Tables_number   1
_chemical_formula_structural   Sr3PrSi8
_chemical_formula_sum   'Sr3 Pr1 Si8'
_cell_volume   268.85028277
_cell_formula_units_Z   1
loop_
 _symmetry_equiv_pos_site_id
 _symmetry_equiv_pos_as_xyz
  1  'x, y, z'
loop_
 _atom_site_type_symbol
 _atom_site_label
 _atom_site_symmetry_multiplicity
 _atom_site_fract_x
 _atom_site_fract_y
 _atom_site_fract_z
 _atom_site_occupancy
  Sr  Sr0  1  0.000000  0.000000  0.500000  1
  Sr  Sr1  1  0.500000  0.000000  0.750405  1
  Sr  Sr2  1  0.000000  0.500000  0.249595  1
  Pr  Pr3  1  0.500000  0.500000  0.000000  1
  Si  Si4  1  0.000000  0.000000  0.916809  1
  Si  Si5  1  0.500000  0.500000  0.415619  1
  Si  Si6  1  0.000000  0.500000  0.838173  1
  Si  Si7  1  0.500000  0.000000  0.332774  1
  Si  Si8  1  0.000000  0.000000  0.083191  1
  Si  Si9  1  0.500000  0.500000  0.584381  1
  Si  Si10  1  0.500000  0.000000  0.161827  1
  Si  Si11  1  0.000000  0.500000  0.667226  1
