# generated using pymatgen
data_LuMg2P6IN12
_symmetry_space_group_name_H-M   'P 1'
_cell_length_a   7.39370071
_cell_length_b   7.37283377
_cell_length_c   7.39370033
_cell_angle_alpha   109.51498162
_cell_angle_beta   109.97605994
_cell_angle_gamma   109.51494993
_symmetry_Int_Tables_number   1
_chemical_formula_structural   LuMg2P6IN12
_chemical_formula_sum   'Lu1 Mg2 P6 I1 N12'
_cell_volume   307.97352837
_cell_formula_units_Z   1
loop_
 _symmetry_equiv_pos_site_id
 _symmetry_equiv_pos_as_xyz
  1  'x, y, z'
loop_
 _atom_site_type_symbol
 _atom_site_label
 _atom_site_symmetry_multiplicity
 _atom_site_fract_x
 _atom_site_fract_y
 _atom_site_fract_z
 _atom_site_occupancy
  Lu  Lu0  1  0.021620  0.378390  0.021620  1
  Mg  Mg1  1  0.005012  0.006289  0.396195  1
  Mg  Mg2  1  0.396195  0.006289  0.005012  1
  P  P3  1  0.501746  0.258559  0.748729  1
  P  P4  1  0.252052  0.752591  0.500109  1
  P  P5  1  0.742368  0.503218  0.258457  1
  P  P6  1  0.748729  0.258559  0.501746  1
  P  P7  1  0.500109  0.752591  0.252052  1
  P  P8  1  0.258457  0.503218  0.742368  1
  I  I9  1  0.974921  0.946234  0.974921  1
  N  N10  1  0.383223  0.676828  0.383223  1
  N  N11  1  0.700706  0.421439  0.421598  1
  N  N12  1  0.421598  0.421439  0.700706  1
  N  N13  1  0.723087  0.291149  0.723087  1
  N  N14  1  0.992585  0.578764  0.290697  1
  N  N15  1  0.290697  0.578764  0.992585  1
  N  N16  1  0.287500  0.002504  0.570564  1
  N  N17  1  0.999721  0.285527  0.575606  1
  N  N18  1  0.718846  0.724808  0.294658  1
  N  N19  1  0.570564  0.002504  0.287500  1
  N  N20  1  0.294658  0.724808  0.718846  1
  N  N21  1  0.575606  0.285527  0.999721  1
