# generated using pymatgen
data_Pr6ScCo17P12
_symmetry_space_group_name_H-M   'P 1'
_cell_length_a   3.78497100
_cell_length_b   10.73870400
_cell_length_c   12.52879700
_cell_angle_alpha   90.00000000
_cell_angle_beta   90.00000000
_cell_angle_gamma   90.00000000
_symmetry_Int_Tables_number   1
_chemical_formula_structural   Pr6ScCo17P12
_chemical_formula_sum   'Pr6 Sc1 Co17 P12'
_cell_volume   509.24151396
_cell_formula_units_Z   1
loop_
 _symmetry_equiv_pos_site_id
 _symmetry_equiv_pos_as_xyz
  1  'x, y, z'
loop_
 _atom_site_type_symbol
 _atom_site_label
 _atom_site_symmetry_multiplicity
 _atom_site_fract_x
 _atom_site_fract_y
 _atom_site_fract_z
 _atom_site_occupancy
  Pr  Pr0  1  0.000000  0.500000  0.527271  1
  Pr  Pr1  1  0.500000  0.000000  0.479406  1
  Pr  Pr2  1  0.500000  0.820615  0.207753  1
  Pr  Pr3  1  0.500000  0.179385  0.207753  1
  Pr  Pr4  1  0.000000  0.682857  0.795108  1
  Pr  Pr5  1  0.000000  0.317143  0.795108  1
  Sc  Sc6  1  0.500000  0.500000  0.150001  1
  Co  Co7  1  0.000000  0.000000  0.840004  1
  Co  Co8  1  0.500000  0.500000  0.705234  1
  Co  Co9  1  0.000000  0.000000  0.294153  1
  Co  Co10  1  0.000000  0.500000  0.985270  1
  Co  Co11  1  0.500000  0.000000  0.011395  1
  Co  Co12  1  0.500000  0.326610  0.991064  1
  Co  Co13  1  0.500000  0.673390  0.991064  1
  Co  Co14  1  0.000000  0.161697  0.000497  1
  Co  Co15  1  0.000000  0.838303  0.000497  1
  Co  Co16  1  0.500000  0.295725  0.433287  1
  Co  Co17  1  0.500000  0.704275  0.433287  1
  Co  Co18  1  0.000000  0.202138  0.570697  1
  Co  Co19  1  0.000000  0.797862  0.570697  1
  Co  Co20  1  0.500000  0.882893  0.709775  1
  Co  Co21  1  0.500000  0.117107  0.709775  1
  Co  Co22  1  0.000000  0.619694  0.297519  1
  Co  Co23  1  0.000000  0.380306  0.297519  1
  P  P24  1  0.500000  0.500000  0.887157  1
  P  P25  1  0.000000  0.000000  0.111558  1
  P  P26  1  0.500000  0.500000  0.352611  1
  P  P27  1  0.000000  0.000000  0.660872  1
  P  P28  1  0.500000  0.303019  0.615305  1
  P  P29  1  0.500000  0.696981  0.615305  1
  P  P30  1  0.000000  0.194602  0.388741  1
  P  P31  1  0.000000  0.805398  0.388741  1
  P  P32  1  0.500000  0.853352  0.891444  1
  P  P33  1  0.500000  0.146648  0.891444  1
  P  P34  1  0.000000  0.661647  0.096343  1
  P  P35  1  0.000000  0.338353  0.096343  1
