# generated using pymatgen
data_Yb4FeNiRu6
_symmetry_space_group_name_H-M   'P 1'
_cell_length_a   5.13806700
_cell_length_b   5.20073865
_cell_length_c   8.69098000
_cell_angle_alpha   90.00000000
_cell_angle_beta   90.00000000
_cell_angle_gamma   119.59816844
_symmetry_Int_Tables_number   1
_chemical_formula_structural   Yb4FeNiRu6
_chemical_formula_sum   'Yb4 Fe1 Ni1 Ru6'
_cell_volume   201.93355151
_cell_formula_units_Z   1
loop_
 _symmetry_equiv_pos_site_id
 _symmetry_equiv_pos_as_xyz
  1  'x, y, z'
loop_
 _atom_site_type_symbol
 _atom_site_label
 _atom_site_symmetry_multiplicity
 _atom_site_fract_x
 _atom_site_fract_y
 _atom_site_fract_z
 _atom_site_occupancy
  Yb  Yb0  1  0.666587  0.333128  0.567799  1
  Yb  Yb1  1  0.332044  0.664076  0.437946  1
  Yb  Yb2  1  0.332044  0.664076  0.062054  1
  Yb  Yb3  1  0.666587  0.333128  0.932201  1
  Fe  Fe4  1  0.835704  0.671445  0.250000  1
  Ni  Ni5  1  0.169344  0.338647  0.750000  1
  Ru  Ru6  1  0.995494  0.990908  0.501019  1
  Ru  Ru7  1  0.995494  0.990908  0.998981  1
  Ru  Ru8  1  0.178599  0.836654  0.750000  1
  Ru  Ru9  1  0.657990  0.836654  0.750000  1
  Ru  Ru10  1  0.825223  0.170186  0.250000  1
  Ru  Ru11  1  0.344888  0.170189  0.250000  1
