# generated using pymatgen
data_Tm16Cd4Ru2PtRh
_symmetry_space_group_name_H-M   'P 1'
_cell_length_a   9.52441128
_cell_length_b   9.52593773
_cell_length_c   9.59497000
_cell_angle_alpha   59.75998788
_cell_angle_beta   59.75463473
_cell_angle_gamma   59.58678942
_symmetry_Int_Tables_number   1
_chemical_formula_structural   Tm16Cd4Ru2PtRh
_chemical_formula_sum   'Tm16 Cd4 Ru2 Pt1 Rh1'
_cell_volume   611.37402530
_cell_formula_units_Z   1
loop_
 _symmetry_equiv_pos_site_id
 _symmetry_equiv_pos_as_xyz
  1  'x, y, z'
loop_
 _atom_site_type_symbol
 _atom_site_label
 _atom_site_symmetry_multiplicity
 _atom_site_fract_x
 _atom_site_fract_y
 _atom_site_fract_z
 _atom_site_occupancy
  Tm  Tm0  1  0.348051  0.351586  0.349199  1
  Tm  Tm1  1  0.348051  0.351586  0.951164  1
  Tm  Tm2  1  0.346520  0.954877  0.349301  1
  Tm  Tm3  1  0.959092  0.345889  0.347509  1
  Tm  Tm4  1  0.814716  0.188339  0.190425  1
  Tm  Tm5  1  0.186758  0.812756  0.810710  1
  Tm  Tm6  1  0.186758  0.812756  0.189777  1
  Tm  Tm7  1  0.814716  0.188339  0.806521  1
  Tm  Tm8  1  0.188040  0.188343  0.811808  1
  Tm  Tm9  1  0.811253  0.805825  0.191461  1
  Tm  Tm10  1  0.936912  0.560166  0.565042  1
  Tm  Tm11  1  0.557834  0.938157  0.937510  1
  Tm  Tm12  1  0.557834  0.938157  0.566500  1
  Tm  Tm13  1  0.936912  0.560166  0.937881  1
  Tm  Tm14  1  0.562900  0.565558  0.935771  1
  Tm  Tm15  1  0.937296  0.937213  0.562746  1
  Cd  Cd16  1  0.579589  0.579788  0.582172  1
  Cd  Cd17  1  0.579589  0.579788  0.258450  1
  Cd  Cd18  1  0.581422  0.255495  0.581541  1
  Cd  Cd19  1  0.254956  0.580730  0.582157  1
  Ru  Ru20  1  0.145750  0.142683  0.136776  1
  Ru  Ru21  1  0.145750  0.142683  0.574792  1
  Pt  Pt22  1  0.575616  0.143459  0.140463  1
  Rh  Rh23  1  0.143687  0.575663  0.140325  1
