# generated using pymatgen
data_Yb3ThPd4
_symmetry_space_group_name_H-M   'P 1'
_cell_length_a   4.48327100
_cell_length_b   5.69551140
_cell_length_c   7.24214870
_cell_angle_alpha   90.15679661
_cell_angle_beta   90.00000000
_cell_angle_gamma   90.00000000
_symmetry_Int_Tables_number   1
_chemical_formula_structural   Yb3ThPd4
_chemical_formula_sum   'Yb3 Th1 Pd4'
_cell_volume   184.92410609
_cell_formula_units_Z   1
loop_
 _symmetry_equiv_pos_site_id
 _symmetry_equiv_pos_as_xyz
  1  'x, y, z'
loop_
 _atom_site_type_symbol
 _atom_site_label
 _atom_site_symmetry_multiplicity
 _atom_site_fract_x
 _atom_site_fract_y
 _atom_site_fract_z
 _atom_site_occupancy
  Yb  Yb0  1  0.250000  0.139394  0.181875  1
  Yb  Yb1  1  0.750000  0.642098  0.314081  1
  Yb  Yb2  1  0.750000  0.859145  0.820770  1
  Th  Th3  1  0.250000  0.359552  0.684966  1
  Pd  Pd4  1  0.250000  0.840007  0.542223  1
  Pd  Pd5  1  0.250000  0.647029  0.039329  1
  Pd  Pd6  1  0.750000  0.158372  0.467346  1
  Pd  Pd7  1  0.750000  0.354402  0.949409  1
