# generated using pymatgen
data_Ti6Zn16Cu7C
_symmetry_space_group_name_H-M   'P 1'
_cell_length_a   8.35556427
_cell_length_b   8.35556377
_cell_length_c   8.35556400
_cell_angle_alpha   59.99999909
_cell_angle_beta   60.00000107
_cell_angle_gamma   59.99999644
_symmetry_Int_Tables_number   1
_chemical_formula_structural   Ti6Zn16Cu7C
_chemical_formula_sum   'Ti6 Zn16 Cu7 C1'
_cell_volume   412.48893517
_cell_formula_units_Z   1
loop_
 _symmetry_equiv_pos_site_id
 _symmetry_equiv_pos_as_xyz
  1  'x, y, z'
loop_
 _atom_site_type_symbol
 _atom_site_label
 _atom_site_symmetry_multiplicity
 _atom_site_fract_x
 _atom_site_fract_y
 _atom_site_fract_z
 _atom_site_occupancy
  Ti  Ti0  1  0.680923  0.319077  0.319077  1
  Ti  Ti1  1  0.319077  0.680923  0.680923  1
  Ti  Ti2  1  0.319077  0.680923  0.319077  1
  Ti  Ti3  1  0.680923  0.319077  0.680923  1
  Ti  Ti4  1  0.319077  0.319077  0.680923  1
  Ti  Ti5  1  0.680923  0.680923  0.319077  1
  Zn  Zn6  1  0.118396  0.118396  0.118396  1
  Zn  Zn7  1  0.881604  0.881604  0.881604  1
  Zn  Zn8  1  0.118396  0.118396  0.644814  1
  Zn  Zn9  1  0.118396  0.644814  0.118396  1
  Zn  Zn10  1  0.881604  0.881604  0.355186  1
  Zn  Zn11  1  0.881604  0.355186  0.881604  1
  Zn  Zn12  1  0.644814  0.118396  0.118396  1
  Zn  Zn13  1  0.355186  0.881604  0.881604  1
  Zn  Zn14  1  0.334941  0.334941  0.334941  1
  Zn  Zn15  1  0.665059  0.665059  0.665059  1
  Zn  Zn16  1  0.334941  0.334941  0.995178  1
  Zn  Zn17  1  0.334941  0.995178  0.334941  1
  Zn  Zn18  1  0.665059  0.665059  0.004822  1
  Zn  Zn19  1  0.665059  0.004822  0.665059  1
  Zn  Zn20  1  0.995178  0.334941  0.334941  1
  Zn  Zn21  1  0.004822  0.665059  0.665059  1
  Cu  Cu22  1  0.500000  0.000000  0.000000  1
  Cu  Cu23  1  0.000000  0.500000  0.500000  1
  Cu  Cu24  1  0.000000  0.500000  0.000000  1
  Cu  Cu25  1  0.500000  0.000000  0.500000  1
  Cu  Cu26  1  0.000000  0.000000  0.500000  1
  Cu  Cu27  1  0.500000  0.500000  0.000000  1
  Cu  Cu28  1  0.000000  0.000000  0.000000  1
  C  C29  1  0.500000  0.500000  0.500000  1
