# generated using pymatgen
data_Dy15Lu(CdCo)4
_symmetry_space_group_name_H-M   'P 1'
_cell_length_a   9.45789349
_cell_length_b   9.45789341
_cell_length_c   9.45833200
_cell_angle_alpha   59.99847298
_cell_angle_beta   59.99847327
_cell_angle_gamma   59.99881278
_symmetry_Int_Tables_number   1
_chemical_formula_structural   Dy15Lu(CdCo)4
_chemical_formula_sum   'Dy15 Lu1 Cd4 Co4'
_cell_volume   598.23865402
_cell_formula_units_Z   1
loop_
 _symmetry_equiv_pos_site_id
 _symmetry_equiv_pos_as_xyz
  1  'x, y, z'
loop_
 _atom_site_type_symbol
 _atom_site_label
 _atom_site_symmetry_multiplicity
 _atom_site_fract_x
 _atom_site_fract_y
 _atom_site_fract_z
 _atom_site_occupancy
  Dy  Dy0  1  0.596198  0.596198  0.597755  1
  Dy  Dy1  1  0.188332  0.811460  0.812985  1
  Dy  Dy2  1  0.062083  0.062083  0.437917  1
  Dy  Dy3  1  0.437575  0.063481  0.062507  1
  Dy  Dy4  1  0.811460  0.188332  0.812985  1
  Dy  Dy5  1  0.437575  0.063481  0.436435  1
  Dy  Dy6  1  0.596863  0.210408  0.596365  1
  Dy  Dy7  1  0.811810  0.811810  0.188190  1
  Dy  Dy8  1  0.210408  0.596863  0.596365  1
  Dy  Dy9  1  0.811460  0.188332  0.187224  1
  Dy  Dy10  1  0.063481  0.437575  0.436435  1
  Dy  Dy11  1  0.188332  0.811460  0.187224  1
  Dy  Dy12  1  0.596198  0.596198  0.209849  1
  Dy  Dy13  1  0.187794  0.187794  0.812206  1
  Dy  Dy14  1  0.063481  0.437575  0.062507  1
  Lu  Lu15  1  0.437677  0.437677  0.062323  1
  Cd  Cd16  1  0.830033  0.830033  0.509560  1
  Cd  Cd17  1  0.830033  0.830033  0.830373  1
  Cd  Cd18  1  0.508926  0.829428  0.830822  1
  Cd  Cd19  1  0.829428  0.508926  0.830822  1
  Co  Co20  1  0.391295  0.391295  0.389918  1
  Co  Co21  1  0.826764  0.391498  0.390869  1
  Co  Co22  1  0.391498  0.826764  0.390869  1
  Co  Co23  1  0.391295  0.391295  0.827492  1
