# generated using pymatgen
data_YHo3Al18CrPd5
_symmetry_space_group_name_H-M   'P 1'
_cell_length_a   7.60974578
_cell_length_b   7.61061650
_cell_length_c   9.49840107
_cell_angle_alpha   89.77325049
_cell_angle_beta   89.75326766
_cell_angle_gamma   119.10723074
_symmetry_Int_Tables_number   1
_chemical_formula_structural   YHo3Al18CrPd5
_chemical_formula_sum   'Y1 Ho3 Al18 Cr1 Pd5'
_cell_volume   480.61106727
_cell_formula_units_Z   1
loop_
 _symmetry_equiv_pos_site_id
 _symmetry_equiv_pos_as_xyz
  1  'x, y, z'
loop_
 _atom_site_type_symbol
 _atom_site_label
 _atom_site_symmetry_multiplicity
 _atom_site_fract_x
 _atom_site_fract_y
 _atom_site_fract_z
 _atom_site_occupancy
  Y  Y0  1  0.994649  0.673969  0.247907  1
  Ho  Ho1  1  0.005310  0.325852  0.752239  1
  Ho  Ho2  1  0.674130  0.994718  0.247773  1
  Ho  Ho3  1  0.325878  0.005310  0.752226  1
  Al  Al4  1  0.127995  0.128179  0.243818  1
  Al  Al5  1  0.872081  0.872071  0.756189  1
  Al  Al6  1  0.000950  0.328210  0.073832  1
  Al  Al7  1  0.999063  0.671604  0.925833  1
  Al  Al8  1  0.998665  0.663040  0.578565  1
  Al  Al9  1  0.337133  0.001526  0.421761  1
  Al  Al10  1  0.001342  0.336712  0.421769  1
  Al  Al11  1  0.663055  0.998654  0.578375  1
  Al  Al12  1  0.671586  0.999046  0.926052  1
  Al  Al13  1  0.328643  0.001185  0.073804  1
  Al  Al14  1  0.333311  0.333307  0.555494  1
  Al  Al15  1  0.666498  0.666691  0.444674  1
  Al  Al16  1  0.673230  0.673429  0.050434  1
  Al  Al17  1  0.326570  0.326564  0.949420  1
  Al  Al18  1  0.341365  0.548421  0.249304  1
  Al  Al19  1  0.658770  0.451486  0.750695  1
  Al  Al20  1  0.548233  0.340995  0.249305  1
  Al  Al21  1  0.451492  0.658782  0.750695  1
  Cr  Cr22  1  0.000015  0.000228  0.999801  1
  Pd  Pd23  1  0.672850  0.327136  0.000011  1
  Pd  Pd24  1  0.327168  0.672846  0.999989  1
  Pd  Pd25  1  0.327796  0.672212  0.500008  1
  Pd  Pd26  1  0.672228  0.327804  0.499990  1
  Pd  Pd27  1  0.999993  0.000029  0.500035  1
