# generated using pymatgen
data_NpCl30
_symmetry_space_group_name_H-M   'P 1'
_cell_length_a   14.19681869
_cell_length_b   14.19681848
_cell_length_c   16.14068903
_cell_angle_alpha   84.07750431
_cell_angle_beta   84.07750335
_cell_angle_gamma   126.97222630
_symmetry_Int_Tables_number   1
_chemical_formula_structural   NpCl30
_chemical_formula_sum   'Np1 Cl30'
_cell_volume   2528.65135673
_cell_formula_units_Z   1
loop_
 _symmetry_equiv_pos_site_id
 _symmetry_equiv_pos_as_xyz
  1  'x, y, z'
loop_
 _atom_site_type_symbol
 _atom_site_label
 _atom_site_symmetry_multiplicity
 _atom_site_fract_x
 _atom_site_fract_y
 _atom_site_fract_z
 _atom_site_occupancy
  Np  Np0  1  0.000000  0.000000  0.000000  1
  Cl  Cl1  1  0.943995  0.943995  0.158114  1
  Cl  Cl2  1  0.056005  0.056005  0.841886  1
  Cl  Cl3  1  0.067295  0.202762  0.005486  1
  Cl  Cl4  1  0.932705  0.797238  0.994514  1
  Cl  Cl5  1  0.202762  0.067295  0.005486  1
  Cl  Cl6  1  0.797238  0.932705  0.994514  1
  Cl  Cl7  1  0.202767  0.743074  0.063562  1
  Cl  Cl8  1  0.797233  0.256926  0.936438  1
  Cl  Cl9  1  0.695608  0.079739  0.264252  1
  Cl  Cl10  1  0.256926  0.797233  0.936438  1
  Cl  Cl11  1  0.304392  0.920261  0.735748  1
  Cl  Cl12  1  0.743074  0.202767  0.063562  1
  Cl  Cl13  1  0.975058  0.208840  0.772607  1
  Cl  Cl14  1  0.920261  0.304392  0.735748  1
  Cl  Cl15  1  0.024942  0.791160  0.227393  1
  Cl  Cl16  1  0.079739  0.695608  0.264252  1
  Cl  Cl17  1  0.791160  0.024942  0.227393  1
  Cl  Cl18  1  0.208840  0.975058  0.772607  1
  Cl  Cl19  1  0.467207  0.545728  0.261318  1
  Cl  Cl20  1  0.532793  0.454272  0.738682  1
  Cl  Cl21  1  0.506318  0.205782  0.452794  1
  Cl  Cl22  1  0.454272  0.532793  0.738682  1
  Cl  Cl23  1  0.493682  0.794218  0.547206  1
  Cl  Cl24  1  0.545728  0.467207  0.261318  1
  Cl  Cl25  1  0.239265  0.429810  0.543267  1
  Cl  Cl26  1  0.794218  0.493682  0.547206  1
  Cl  Cl27  1  0.760735  0.570190  0.456733  1
  Cl  Cl28  1  0.205782  0.506318  0.452794  1
  Cl  Cl29  1  0.570190  0.760735  0.456733  1
  Cl  Cl30  1  0.429810  0.239265  0.543267  1
