# generated using pymatgen
data_Tb2Nd17TmSn16
_symmetry_space_group_name_H-M   'P 1'
_cell_length_a   8.25622000
_cell_length_b   8.40457759
_cell_length_c   15.94868500
_cell_angle_alpha   90.00000000
_cell_angle_beta   90.00000000
_cell_angle_gamma   89.96476183
_symmetry_Int_Tables_number   1
_chemical_formula_structural   Tb2Nd17TmSn16
_chemical_formula_sum   'Tb2 Nd17 Tm1 Sn16'
_cell_volume   1106.67970609
_cell_formula_units_Z   1
loop_
 _symmetry_equiv_pos_site_id
 _symmetry_equiv_pos_as_xyz
  1  'x, y, z'
loop_
 _atom_site_type_symbol
 _atom_site_label
 _atom_site_symmetry_multiplicity
 _atom_site_fract_x
 _atom_site_fract_y
 _atom_site_fract_z
 _atom_site_occupancy
  Tb  Tb0  1  0.198187  0.502339  0.250000  1
  Tb  Tb1  1  0.698482  0.997823  0.250000  1
  Nd  Nd2  1  0.018040  0.181124  0.401462  1
  Nd  Nd3  1  0.367107  0.837963  0.120740  1
  Nd  Nd4  1  0.133455  0.337002  0.620797  1
  Nd  Nd5  1  0.481500  0.681927  0.901922  1
  Nd  Nd6  1  0.866941  0.662197  0.121997  1
  Nd  Nd7  1  0.133455  0.337002  0.879203  1
  Nd  Nd8  1  0.481500  0.681927  0.598078  1
  Nd  Nd9  1  0.631890  0.162197  0.620328  1
  Nd  Nd10  1  0.803263  0.498035  0.750000  1
  Nd  Nd11  1  0.866941  0.662197  0.378003  1
  Nd  Nd12  1  0.018040  0.181124  0.098538  1
  Nd  Nd13  1  0.982312  0.819564  0.901760  1
  Nd  Nd14  1  0.631890  0.162197  0.879672  1
  Nd  Nd15  1  0.518240  0.318859  0.099176  1
  Nd  Nd16  1  0.367107  0.837963  0.379260  1
  Nd  Nd17  1  0.982312  0.819564  0.598240  1
  Nd  Nd18  1  0.518240  0.318859  0.400824  1
  Tm  Tm19  1  0.301473  0.003015  0.750000  1
  Sn  Sn20  1  0.792533  0.463569  0.541444  1
  Sn  Sn21  1  0.708003  0.964870  0.455805  1
  Sn  Sn22  1  0.674156  0.857891  0.750000  1
  Sn  Sn23  1  0.207203  0.534515  0.455876  1
  Sn  Sn24  1  0.292421  0.034436  0.955607  1
  Sn  Sn25  1  0.824592  0.352574  0.250000  1
  Sn  Sn26  1  0.792533  0.463569  0.958556  1
  Sn  Sn27  1  0.563375  0.617070  0.250000  1
  Sn  Sn28  1  0.207203  0.534515  0.044124  1
  Sn  Sn29  1  0.432711  0.382281  0.750000  1
  Sn  Sn30  1  0.178253  0.648794  0.750000  1
  Sn  Sn31  1  0.937756  0.114255  0.750000  1
  Sn  Sn32  1  0.292421  0.034436  0.544393  1
  Sn  Sn33  1  0.708003  0.964870  0.044195  1
  Sn  Sn34  1  0.323853  0.146180  0.250000  1
  Sn  Sn35  1  0.064611  0.883296  0.250000  1
