# generated using pymatgen
data_Y2ErGa5Rh
_symmetry_space_group_name_H-M   'P 1'
_cell_length_a   6.90692400
_cell_length_b   6.90692389
_cell_length_c   4.31468800
_cell_angle_alpha   90.00000000
_cell_angle_beta   90.00000000
_cell_angle_gamma   119.77486812
_symmetry_Int_Tables_number   1
_chemical_formula_structural   Y2ErGa5Rh
_chemical_formula_sum   'Y2 Er1 Ga5 Rh1'
_cell_volume   178.66115760
_cell_formula_units_Z   1
loop_
 _symmetry_equiv_pos_site_id
 _symmetry_equiv_pos_as_xyz
  1  'x, y, z'
loop_
 _atom_site_type_symbol
 _atom_site_label
 _atom_site_symmetry_multiplicity
 _atom_site_fract_x
 _atom_site_fract_y
 _atom_site_fract_z
 _atom_site_occupancy
  Y  Y0  1  0.589170  0.999484  0.000000  1
  Y  Y1  1  0.999484  0.589170  0.000000  1
  Er  Er2  1  0.409222  0.409222  0.000000  1
  Ga  Ga3  1  0.236514  0.999073  0.500000  1
  Ga  Ga4  1  0.999073  0.236514  0.500000  1
  Ga  Ga5  1  0.763562  0.763562  0.500000  1
  Ga  Ga6  1  0.333768  0.664824  0.500000  1
  Ga  Ga7  1  0.664824  0.333768  0.500000  1
  Rh  Rh8  1  0.004382  0.004382  0.000000  1
