# generated using pymatgen
data_La7MgSc2Si8O3
_symmetry_space_group_name_H-M   'P 1'
_cell_length_a   10.64385090
_cell_length_b   10.64385248
_cell_length_c   4.42591300
_cell_angle_alpha   90.00000000
_cell_angle_beta   90.00000000
_cell_angle_gamma   120.52073596
_symmetry_Int_Tables_number   1
_chemical_formula_structural   La7MgSc2Si8O3
_chemical_formula_sum   'La7 Mg1 Sc2 Si8 O3'
_cell_volume   431.94481793
_cell_formula_units_Z   1
loop_
 _symmetry_equiv_pos_site_id
 _symmetry_equiv_pos_as_xyz
  1  'x, y, z'
loop_
 _atom_site_type_symbol
 _atom_site_label
 _atom_site_symmetry_multiplicity
 _atom_site_fract_x
 _atom_site_fract_y
 _atom_site_fract_z
 _atom_site_occupancy
  La  La0  1  0.213248  0.786752  0.000000  1
  La  La1  1  0.570866  0.779110  0.000000  1
  La  La2  1  0.779110  0.570866  0.000000  1
  La  La3  1  0.000000  0.000000  0.000000  1
  La  La4  1  0.220890  0.429134  0.000000  1
  La  La5  1  0.429134  0.220890  0.000000  1
  La  La6  1  0.786752  0.213248  0.000000  1
  Mg  Mg7  1  0.500000  0.500000  0.500000  1
  Sc  Sc8  1  0.000000  0.500000  0.500000  1
  Sc  Sc9  1  0.500000  0.000000  0.500000  1
  Si  Si10  1  0.999872  0.773170  0.500000  1
  Si  Si11  1  0.000128  0.226830  0.500000  1
  Si  Si12  1  0.222451  0.222451  0.500000  1
  Si  Si13  1  0.773170  0.999872  0.500000  1
  Si  Si14  1  0.331175  0.668825  0.500000  1
  Si  Si15  1  0.226830  0.000128  0.500000  1
  Si  Si16  1  0.668825  0.331175  0.500000  1
  Si  Si17  1  0.777549  0.777549  0.500000  1
  O  O18  1  0.000000  0.500000  0.000000  1
  O  O19  1  0.500000  0.500000  0.000000  1
  O  O20  1  0.500000  0.000000  0.000000  1
