# generated using pymatgen
data_Ca5Er3(CdIn)4
_symmetry_space_group_name_H-M   'P 1'
_cell_length_a   7.46865276
_cell_length_b   5.41337800
_cell_length_c   10.83960692
_cell_angle_alpha   90.00000000
_cell_angle_beta   89.95052779
_cell_angle_gamma   90.00000000
_symmetry_Int_Tables_number   1
_chemical_formula_structural   Ca5Er3(CdIn)4
_chemical_formula_sum   'Ca5 Er3 Cd4 In4'
_cell_volume   438.25208768
_cell_formula_units_Z   1
loop_
 _symmetry_equiv_pos_site_id
 _symmetry_equiv_pos_as_xyz
  1  'x, y, z'
loop_
 _atom_site_type_symbol
 _atom_site_label
 _atom_site_symmetry_multiplicity
 _atom_site_fract_x
 _atom_site_fract_y
 _atom_site_fract_z
 _atom_site_occupancy
  Ca  Ca0  1  0.999057  0.250000  0.372943  1
  Ca  Ca1  1  0.999608  0.750000  0.628124  1
  Ca  Ca2  1  0.500740  0.750000  0.628590  1
  Ca  Ca3  1  0.001735  0.250000  0.870780  1
  Ca  Ca4  1  0.499900  0.250000  0.871045  1
  Er  Er5  1  0.497556  0.750000  0.127732  1
  Er  Er6  1  0.001771  0.750000  0.127571  1
  Er  Er7  1  0.499585  0.250000  0.373480  1
  Cd  Cd8  1  0.748582  0.250000  0.122116  1
  Cd  Cd9  1  0.254205  0.750000  0.376469  1
  Cd  Cd10  1  0.747829  0.250000  0.616489  1
  Cd  Cd11  1  0.250296  0.750000  0.884968  1
  In  In12  1  0.251601  0.250000  0.123541  1
  In  In13  1  0.743813  0.750000  0.373699  1
  In  In14  1  0.252904  0.250000  0.617021  1
  In  In15  1  0.750821  0.750000  0.885434  1
