# generated using pymatgen
data_Nd7Lu13(Si7Os)2
_symmetry_space_group_name_H-M   'P 1'
_cell_length_a   7.62181926
_cell_length_b   7.71479531
_cell_length_c   14.10091416
_cell_angle_alpha   90.11354915
_cell_angle_beta   89.79501200
_cell_angle_gamma   90.32470251
_symmetry_Int_Tables_number   1
_chemical_formula_structural   Nd7Lu13(Si7Os)2
_chemical_formula_sum   'Nd7 Lu13 Si14 Os2'
_cell_volume   829.12447230
_cell_formula_units_Z   1
loop_
 _symmetry_equiv_pos_site_id
 _symmetry_equiv_pos_as_xyz
  1  'x, y, z'
loop_
 _atom_site_type_symbol
 _atom_site_label
 _atom_site_symmetry_multiplicity
 _atom_site_fract_x
 _atom_site_fract_y
 _atom_site_fract_z
 _atom_site_occupancy
  Nd  Nd0  1  0.363802  0.006934  0.960973  1
  Nd  Nd1  1  0.992114  0.644112  0.538175  1
  Nd  Nd2  1  0.495438  0.861951  0.206699  1
  Nd  Nd3  1  0.505775  0.135042  0.703489  1
  Nd  Nd4  1  0.856138  0.491532  0.789633  1
  Nd  Nd5  1  0.144383  0.507945  0.291215  1
  Nd  Nd6  1  0.005295  0.355557  0.040458  1
  Lu  Lu7  1  0.498603  0.354700  0.122010  1
  Lu  Lu8  1  0.998556  0.132499  0.622961  1
  Lu  Lu9  1  0.858495  0.009750  0.880507  1
  Lu  Lu10  1  0.141458  0.990978  0.381282  1
  Lu  Lu11  1  0.505291  0.648217  0.619240  1
  Lu  Lu12  1  0.359323  0.494361  0.875600  1
  Lu  Lu13  1  0.640339  0.505700  0.376100  1
  Lu  Lu14  1  0.999172  0.863952  0.126181  1
  Lu  Lu15  1  0.626668  0.997216  0.458755  1
  Lu  Lu16  1  0.319490  0.306676  0.503620  1
  Lu  Lu17  1  0.185767  0.825927  0.744256  1
  Lu  Lu18  1  0.814039  0.172933  0.246103  1
  Lu  Lu19  1  0.682175  0.691759  0.003536  1
  Si  Si20  1  0.933081  0.289978  0.436503  1
  Si  Si21  1  0.435231  0.212520  0.312244  1
  Si  Si22  1  0.566338  0.785743  0.810735  1
  Si  Si23  1  0.210020  0.439325  0.689528  1
  Si  Si24  1  0.790610  0.562119  0.191615  1
  Si  Si25  1  0.064206  0.707067  0.937129  1
  Si  Si26  1  0.799228  0.847010  0.692119  1
  Si  Si27  1  0.204616  0.149846  0.191926  1
  Si  Si28  1  0.847580  0.793655  0.317736  1
  Si  Si29  1  0.354720  0.705978  0.435920  1
  Si  Si30  1  0.649176  0.299925  0.937621  1
  Si  Si31  1  0.706306  0.349628  0.559300  1
  Si  Si32  1  0.291759  0.647021  0.061532  1
  Si  Si33  1  0.149018  0.209583  0.812239  1
  Os  Os34  1  0.293944  0.939045  0.560623  1
  Os  Os35  1  0.711841  0.063813  0.062438  1
