# generated using pymatgen
data_Ce3B2S8Br
_symmetry_space_group_name_H-M   'P 1'
_cell_length_a   8.20654372
_cell_length_b   8.20654380
_cell_length_c   10.20665200
_cell_angle_alpha   83.54468996
_cell_angle_beta   96.45531011
_cell_angle_gamma   127.50095920
_symmetry_Int_Tables_number   1
_chemical_formula_structural   Ce3B2S8Br
_chemical_formula_sum   'Ce6 B4 S16 Br2'
_cell_volume   541.03533235
_cell_formula_units_Z   2
loop_
 _symmetry_equiv_pos_site_id
 _symmetry_equiv_pos_as_xyz
  1  'x, y, z'
loop_
 _atom_site_type_symbol
 _atom_site_label
 _atom_site_symmetry_multiplicity
 _atom_site_fract_x
 _atom_site_fract_y
 _atom_site_fract_z
 _atom_site_occupancy
  Ce  Ce0  1  0.602398  0.602399  0.750000  1
  Ce  Ce1  1  0.397601  0.397601  0.250001  1
  Ce  Ce2  1  0.319714  0.924130  0.682543  1
  Ce  Ce3  1  0.924130  0.319714  0.817457  1
  Ce  Ce4  1  0.680287  0.075871  0.317458  1
  Ce  Ce5  1  0.075871  0.680287  0.182543  1
  B  B6  1  0.628317  0.305472  0.030168  1
  B  B7  1  0.305472  0.628317  0.469832  1
  B  B8  1  0.371684  0.694528  0.969832  1
  B  B9  1  0.694528  0.371684  0.530168  1
  S  S10  1  0.718032  0.580259  0.044955  1
  S  S11  1  0.580259  0.718032  0.455045  1
  S  S12  1  0.281969  0.419742  0.955044  1
  S  S13  1  0.419742  0.281969  0.544955  1
  S  S14  1  0.846513  0.282653  0.082096  1
  S  S15  1  0.282654  0.846512  0.417905  1
  S  S16  1  0.153489  0.717347  0.917904  1
  S  S17  1  0.717347  0.153488  0.582096  1
  S  S18  1  0.401018  0.112008  0.135680  1
  S  S19  1  0.112007  0.401019  0.364320  1
  S  S20  1  0.598982  0.887993  0.864320  1
  S  S21  1  0.887993  0.598982  0.635680  1
  S  S22  1  0.544288  0.248619  0.849555  1
  S  S23  1  0.248619  0.544287  0.650445  1
  S  S24  1  0.455712  0.751380  0.150446  1
  S  S25  1  0.751380  0.455712  0.349554  1
  Br  Br26  1  0.983656  0.983656  0.250001  1
  Br  Br27  1  0.016344  0.016344  0.750000  1
