# generated using pymatgen
data_Dy12In2CoSiTc2
_symmetry_space_group_name_H-M   'P 1'
_cell_length_a   8.50515692
_cell_length_b   8.50515790
_cell_length_c   8.50515689
_cell_angle_alpha   113.62213811
_cell_angle_beta   111.48006326
_cell_angle_gamma   103.48079965
_symmetry_Int_Tables_number   1
_chemical_formula_structural   Dy12In2CoSiTc2
_chemical_formula_sum   'Dy12 In2 Co1 Si1 Tc2'
_cell_volume   469.60288302
_cell_formula_units_Z   1
loop_
 _symmetry_equiv_pos_site_id
 _symmetry_equiv_pos_as_xyz
  1  'x, y, z'
loop_
 _atom_site_type_symbol
 _atom_site_label
 _atom_site_symmetry_multiplicity
 _atom_site_fract_x
 _atom_site_fract_y
 _atom_site_fract_z
 _atom_site_occupancy
  Dy  Dy0  1  0.433710  0.238180  0.195532  1
  Dy  Dy1  1  0.550531  0.755220  0.795309  1
  Dy  Dy2  1  0.042648  0.238180  0.804468  1
  Dy  Dy3  1  0.959910  0.755220  0.204691  1
  Dy  Dy4  1  0.176844  0.280988  0.469174  1
  Dy  Dy5  1  0.811814  0.707670  0.530826  1
  Dy  Dy6  1  0.176844  0.707670  0.895856  1
  Dy  Dy7  1  0.811814  0.280988  0.104144  1
  Dy  Dy8  1  0.342645  0.658067  0.315422  1
  Dy  Dy9  1  0.672439  0.353534  0.681095  1
  Dy  Dy10  1  0.342645  0.027222  0.684578  1
  Dy  Dy11  1  0.672439  0.991345  0.318905  1
  In  In12  1  0.499597  0.499597  0.000000  1
  In  In13  1  0.996293  0.996293  0.000000  1
  Co  Co14  1  0.891463  0.391463  0.500000  1
  Si  Si15  1  0.120459  0.620459  0.500000  1
  Tc  Tc16  1  0.322334  0.998952  0.323382  1
  Tc  Tc17  1  0.675570  0.998952  0.676618  1
