# generated using pymatgen
data_Pr4AlOs3I2
_symmetry_space_group_name_H-M   'P 1'
_cell_length_a   4.33570800
_cell_length_b   4.33570776
_cell_length_c   17.78591600
_cell_angle_alpha   90.00000000
_cell_angle_beta   90.00000000
_cell_angle_gamma   120.00000179
_symmetry_Int_Tables_number   1
_chemical_formula_structural   Pr4AlOs3I2
_chemical_formula_sum   'Pr4 Al1 Os3 I2'
_cell_volume   289.55221315
_cell_formula_units_Z   1
loop_
 _symmetry_equiv_pos_site_id
 _symmetry_equiv_pos_as_xyz
  1  'x, y, z'
loop_
 _atom_site_type_symbol
 _atom_site_label
 _atom_site_symmetry_multiplicity
 _atom_site_fract_x
 _atom_site_fract_y
 _atom_site_fract_z
 _atom_site_occupancy
  Pr  Pr0  1  0.000000  0.000000  0.106950  1
  Pr  Pr1  1  0.000000  0.000000  0.891696  1
  Pr  Pr2  1  0.000000  0.000000  0.606413  1
  Pr  Pr3  1  0.000000  0.000000  0.395185  1
  Al  Al4  1  0.333333  0.666667  0.500664  1
  Os  Os5  1  0.666667  0.333333  0.500141  1
  Os  Os6  1  0.666667  0.333333  0.002044  1
  Os  Os7  1  0.333333  0.666667  0.997224  1
  I  I8  1  0.333333  0.666667  0.250450  1
  I  I9  1  0.666667  0.333333  0.749233  1
