# generated using pymatgen
data_YEr19Cd6RuPt
_symmetry_space_group_name_H-M   'P 1'
_cell_length_a   9.54956702
_cell_length_b   9.54860035
_cell_length_c   9.75532300
_cell_angle_alpha   90.00000000
_cell_angle_beta   90.00000000
_cell_angle_gamma   119.99665180
_symmetry_Int_Tables_number   1
_chemical_formula_structural   YEr19Cd6RuPt
_chemical_formula_sum   'Y1 Er19 Cd6 Ru1 Pt1'
_cell_volume   770.38946336
_cell_formula_units_Z   1
loop_
 _symmetry_equiv_pos_site_id
 _symmetry_equiv_pos_as_xyz
  1  'x, y, z'
loop_
 _atom_site_type_symbol
 _atom_site_label
 _atom_site_symmetry_multiplicity
 _atom_site_fract_x
 _atom_site_fract_y
 _atom_site_fract_z
 _atom_site_occupancy
  Y  Y0  1  0.914793  0.457396  0.250000  1
  Er  Er1  1  0.000014  0.000007  0.499383  1
  Er  Er2  1  0.000014  0.000007  0.000617  1
  Er  Er3  1  0.208558  0.792039  0.442805  1
  Er  Er4  1  0.208558  0.416520  0.442805  1
  Er  Er5  1  0.583492  0.791746  0.442687  1
  Er  Er6  1  0.790176  0.209480  0.560132  1
  Er  Er7  1  0.790176  0.580695  0.560132  1
  Er  Er8  1  0.419408  0.209703  0.559948  1
  Er  Er9  1  0.790176  0.209480  0.939868  1
  Er  Er10  1  0.790176  0.580695  0.939868  1
  Er  Er11  1  0.419408  0.209703  0.940052  1
  Er  Er12  1  0.208558  0.792039  0.057195  1
  Er  Er13  1  0.208558  0.416520  0.057195  1
  Er  Er14  1  0.583492  0.791746  0.057313  1
  Er  Er15  1  0.542163  0.457501  0.250000  1
  Er  Er16  1  0.542163  0.084662  0.250000  1
  Er  Er17  1  0.458768  0.541226  0.750000  1
  Er  Er18  1  0.458768  0.917542  0.750000  1
  Er  Er19  1  0.082395  0.541198  0.750000  1
  Cd  Cd20  1  0.885200  0.114366  0.250000  1
  Cd  Cd21  1  0.885200  0.770835  0.250000  1
  Cd  Cd22  1  0.229554  0.114778  0.250000  1
  Cd  Cd23  1  0.114664  0.885400  0.750000  1
  Cd  Cd24  1  0.114664  0.229262  0.750000  1
  Cd  Cd25  1  0.770726  0.885362  0.750000  1
  Ru  Ru26  1  0.666719  0.333359  0.750000  1
  Pt  Pt27  1  0.333466  0.666733  0.250000  1
