# generated using pymatgen
data_YTm5(Ni3P2)6
_symmetry_space_group_name_H-M   'P 1'
_cell_length_a   3.74926704
_cell_length_b   10.42576100
_cell_length_c   12.28703113
_cell_angle_alpha   89.99855731
_cell_angle_beta   90.01655513
_cell_angle_gamma   89.99984676
_symmetry_Int_Tables_number   1
_chemical_formula_structural   YTm5(Ni3P2)6
_chemical_formula_sum   'Y1 Tm5 Ni18 P12'
_cell_volume   480.28727366
_cell_formula_units_Z   1
loop_
 _symmetry_equiv_pos_site_id
 _symmetry_equiv_pos_as_xyz
  1  'x, y, z'
loop_
 _atom_site_type_symbol
 _atom_site_label
 _atom_site_symmetry_multiplicity
 _atom_site_fract_x
 _atom_site_fract_y
 _atom_site_fract_z
 _atom_site_occupancy
  Y  Y0  1  0.251824  0.499972  0.521421  1
  Tm  Tm1  1  0.751804  0.999993  0.478397  1
  Tm  Tm2  1  0.251842  0.682916  0.794367  1
  Tm  Tm3  1  0.251835  0.317118  0.794367  1
  Tm  Tm4  1  0.751820  0.817610  0.205942  1
  Tm  Tm5  1  0.751820  0.182398  0.205934  1
  Ni  Ni6  1  0.751841  0.000006  0.016275  1
  Ni  Ni7  1  0.252288  0.500039  0.984129  1
  Ni  Ni8  1  0.251901  0.198323  0.571017  1
  Ni  Ni9  1  0.251867  0.801613  0.570980  1
  Ni  Ni10  1  0.751811  0.299548  0.428797  1
  Ni  Ni11  1  0.751799  0.700303  0.428779  1
  Ni  Ni12  1  0.251538  0.621725  0.288162  1
  Ni  Ni13  1  0.251561  0.378301  0.288177  1
  Ni  Ni14  1  0.752224  0.878873  0.711317  1
  Ni  Ni15  1  0.752190  0.121158  0.711327  1
  Ni  Ni16  1  0.252117  0.167023  0.004126  1
  Ni  Ni17  1  0.252109  0.832982  0.004140  1
  Ni  Ni18  1  0.752203  0.332290  0.995807  1
  Ni  Ni19  1  0.752243  0.667738  0.995825  1
  Ni  Ni20  1  0.250829  0.999987  0.840940  1
  Ni  Ni21  1  0.750909  0.500001  0.158287  1
  Ni  Ni22  1  0.251692  0.999991  0.300152  1
  Ni  Ni23  1  0.751570  0.500001  0.701055  1
  P  P24  1  0.251808  0.185747  0.385392  1
  P  P25  1  0.251809  0.814255  0.385382  1
  P  P26  1  0.751810  0.313198  0.615417  1
  P  P27  1  0.751787  0.686860  0.615403  1
  P  P28  1  0.251760  0.000010  0.124105  1
  P  P29  1  0.752030  0.499999  0.876632  1
  P  P30  1  0.251804  0.653131  0.108009  1
  P  P31  1  0.251786  0.346921  0.107965  1
  P  P32  1  0.751834  0.847540  0.891743  1
  P  P33  1  0.751835  0.152479  0.891728  1
  P  P34  1  0.252007  0.999987  0.654726  1
  P  P35  1  0.751698  0.499963  0.343776  1
