# generated using pymatgen
data_ScBe4Co
_symmetry_space_group_name_H-M   'P 1'
_cell_length_a   4.42333074
_cell_length_b   4.42333004
_cell_length_c   4.42333100
_cell_angle_alpha   60.00000026
_cell_angle_beta   60.00000551
_cell_angle_gamma   60.00000706
_symmetry_Int_Tables_number   1
_chemical_formula_structural   ScBe4Co
_chemical_formula_sum   'Sc1 Be4 Co1'
_cell_volume   61.19743798
_cell_formula_units_Z   1
loop_
 _symmetry_equiv_pos_site_id
 _symmetry_equiv_pos_as_xyz
  1  'x, y, z'
loop_
 _atom_site_type_symbol
 _atom_site_label
 _atom_site_symmetry_multiplicity
 _atom_site_fract_x
 _atom_site_fract_y
 _atom_site_fract_z
 _atom_site_occupancy
  Sc  Sc0  1  0.250000  0.250000  0.250000  1
  Be  Be1  1  0.627050  0.627050  0.118850  1
  Be  Be2  1  0.627050  0.118850  0.627050  1
  Be  Be3  1  0.118850  0.627050  0.627050  1
  Be  Be4  1  0.627050  0.627050  0.627050  1
  Co  Co5  1  0.000000  0.000000  0.000000  1
