# generated using pymatgen
data_Sm2Al20RuRh3
_symmetry_space_group_name_H-M   'P 1'
_cell_length_a   6.87132927
_cell_length_b   6.86787275
_cell_length_c   9.18575873
_cell_angle_alpha   90.10575655
_cell_angle_beta   90.07606757
_cell_angle_gamma   97.34177673
_symmetry_Int_Tables_number   1
_chemical_formula_structural   Sm2Al20RuRh3
_chemical_formula_sum   'Sm2 Al20 Ru1 Rh3'
_cell_volume   429.93374053
_cell_formula_units_Z   1
loop_
 _symmetry_equiv_pos_site_id
 _symmetry_equiv_pos_as_xyz
  1  'x, y, z'
loop_
 _atom_site_type_symbol
 _atom_site_label
 _atom_site_symmetry_multiplicity
 _atom_site_fract_x
 _atom_site_fract_y
 _atom_site_fract_z
 _atom_site_occupancy
  Sm  Sm0  1  0.871481  0.126539  0.750168  1
  Sm  Sm1  1  0.128519  0.873461  0.249832  1
  Al  Al2  1  0.621170  0.375966  0.548293  1
  Al  Al3  1  0.378830  0.624034  0.451707  1
  Al  Al4  1  0.378142  0.622401  0.049495  1
  Al  Al5  1  0.621858  0.377599  0.950505  1
  Al  Al6  1  0.224056  0.222406  0.499342  1
  Al  Al7  1  0.775944  0.777594  0.500658  1
  Al  Al8  1  0.775508  0.775857  0.000026  1
  Al  Al9  1  0.224492  0.224143  0.999974  1
  Al  Al10  1  0.843740  0.156609  0.103774  1
  Al  Al11  1  0.156260  0.843391  0.896226  1
  Al  Al12  1  0.157075  0.844617  0.602653  1
  Al  Al13  1  0.842925  0.155383  0.397347  1
  Al  Al14  1  0.857711  0.591000  0.749480  1
  Al  Al15  1  0.142289  0.409000  0.250520  1
  Al  Al16  1  0.409526  0.141624  0.749049  1
  Al  Al17  1  0.590474  0.858376  0.250951  1
  Al  Al18  1  0.225833  0.481241  0.749989  1
  Al  Al19  1  0.774167  0.518759  0.250011  1
  Al  Al20  1  0.518362  0.775644  0.747389  1
  Al  Al21  1  0.481638  0.224356  0.252611  1
  Ru  Ru22  1  0.500000  0.000000  0.500000  1
  Rh  Rh23  1  0.000000  0.500000  0.500000  1
  Rh  Rh24  1  0.000000  0.500000  0.000000  1
  Rh  Rh25  1  0.500000  0.000000  0.000000  1
