# generated using pymatgen
data_Eu2B3Ru4C
_symmetry_space_group_name_H-M   'P 1'
_cell_length_a   6.78905664
_cell_length_b   5.90872879
_cell_length_c   5.60438958
_cell_angle_alpha   72.21373623
_cell_angle_beta   56.79031307
_cell_angle_gamma   51.81756449
_symmetry_Int_Tables_number   1
_chemical_formula_structural   Eu2B3Ru4C
_chemical_formula_sum   'Eu2 B3 Ru4 C1'
_cell_volume   147.66723537
_cell_formula_units_Z   1
loop_
 _symmetry_equiv_pos_site_id
 _symmetry_equiv_pos_as_xyz
  1  'x, y, z'
loop_
 _atom_site_type_symbol
 _atom_site_label
 _atom_site_symmetry_multiplicity
 _atom_site_fract_x
 _atom_site_fract_y
 _atom_site_fract_z
 _atom_site_occupancy
  Eu  Eu0  1  0.000111  0.999889  0.000111  1
  Eu  Eu1  1  0.251343  0.248657  0.251343  1
  B  B2  1  0.320147  0.679853  0.320147  1
  B  B3  1  0.928041  0.571959  0.928041  1
  B  B4  1  0.569604  0.930396  0.569604  1
  Ru  Ru5  1  0.615982  0.606718  0.880603  1
  Ru  Ru6  1  0.641524  0.625807  0.364239  1
  Ru  Ru7  1  0.364239  0.368430  0.641524  1
  Ru  Ru8  1  0.880603  0.896697  0.615982  1
  C  C9  1  0.678406  0.321594  0.678406  1
