# generated using pymatgen
data_Ru(SeF6)2
_symmetry_space_group_name_H-M   'P 1'
_cell_length_a   6.13390800
_cell_length_b   7.89582300
_cell_length_c   9.86970600
_cell_angle_alpha   90.00000000
_cell_angle_beta   90.00000000
_cell_angle_gamma   90.00000000
_symmetry_Int_Tables_number   1
_chemical_formula_structural   Ru(SeF6)2
_chemical_formula_sum   'Ru2 Se4 F24'
_cell_volume   478.01208684
_cell_formula_units_Z   2
loop_
 _symmetry_equiv_pos_site_id
 _symmetry_equiv_pos_as_xyz
  1  'x, y, z'
loop_
 _atom_site_type_symbol
 _atom_site_label
 _atom_site_symmetry_multiplicity
 _atom_site_fract_x
 _atom_site_fract_y
 _atom_site_fract_z
 _atom_site_occupancy
  Ru  Ru0  1  0.000000  0.500000  0.000000  1
  Ru  Ru1  1  0.500000  0.000000  0.500000  1
  Se  Se2  1  0.500000  0.580386  0.239652  1
  Se  Se3  1  0.500000  0.419614  0.760348  1
  Se  Se4  1  0.000000  0.080386  0.260348  1
  Se  Se5  1  0.000000  0.919614  0.739652  1
  F  F6  1  0.225912  0.364069  0.908122  1
  F  F7  1  0.225912  0.635931  0.091878  1
  F  F8  1  0.274088  0.864069  0.591878  1
  F  F9  1  0.274088  0.135931  0.408122  1
  F  F10  1  0.774088  0.635931  0.091878  1
  F  F11  1  0.774088  0.364069  0.908122  1
  F  F12  1  0.795291  0.971675  0.855145  1
  F  F13  1  0.795291  0.028325  0.144855  1
  F  F14  1  0.704709  0.471675  0.644855  1
  F  F15  1  0.704709  0.528325  0.355145  1
  F  F16  1  0.204709  0.028325  0.144855  1
  F  F17  1  0.204709  0.971675  0.855145  1
  F  F18  1  0.295291  0.528325  0.355145  1
  F  F19  1  0.295291  0.471675  0.644855  1
  F  F20  1  0.000000  0.648843  0.847162  1
  F  F21  1  0.000000  0.351157  0.152838  1
  F  F22  1  0.500000  0.148843  0.652838  1
  F  F23  1  0.500000  0.851157  0.347162  1
  F  F24  1  0.500000  0.622134  0.829478  1
  F  F25  1  0.500000  0.377866  0.170522  1
  F  F26  1  0.000000  0.122134  0.670522  1
  F  F27  1  0.000000  0.877866  0.329478  1
  F  F28  1  0.725912  0.864069  0.591878  1
  F  F29  1  0.725912  0.135931  0.408122  1
