# generated using pymatgen
data_Ce4ZnIn2IrRh2
_symmetry_space_group_name_H-M   'P 1'
_cell_length_a   7.75188657
_cell_length_b   7.75188704
_cell_length_c   3.77497500
_cell_angle_alpha   90.00000000
_cell_angle_beta   90.00000000
_cell_angle_gamma   89.55326022
_symmetry_Int_Tables_number   1
_chemical_formula_structural   Ce4ZnIn2IrRh2
_chemical_formula_sum   'Ce4 Zn1 In2 Ir1 Rh2'
_cell_volume   226.83795508
_cell_formula_units_Z   1
loop_
 _symmetry_equiv_pos_site_id
 _symmetry_equiv_pos_as_xyz
  1  'x, y, z'
loop_
 _atom_site_type_symbol
 _atom_site_label
 _atom_site_symmetry_multiplicity
 _atom_site_fract_x
 _atom_site_fract_y
 _atom_site_fract_z
 _atom_site_occupancy
  Ce  Ce0  1  0.677305  0.177305  0.500000  1
  Ce  Ce1  1  0.343728  0.843728  0.500000  1
  Ce  Ce2  1  0.165517  0.309411  0.500000  1
  Ce  Ce3  1  0.809411  0.665517  0.500000  1
  Zn  Zn4  1  0.125700  0.625700  0.000000  1
  In  In5  1  0.998251  0.993116  0.000000  1
  In  In6  1  0.493116  0.498251  0.000000  1
  Ir  Ir7  1  0.882649  0.382649  0.000000  1
  Rh  Rh8  1  0.638751  0.865571  0.000000  1
  Rh  Rh9  1  0.365571  0.138751  0.000000  1
