# generated using pymatgen
data_NdSmB2Pd3Pt5
_symmetry_space_group_name_H-M   'P 1'
_cell_length_a   5.48966214
_cell_length_b   5.48966177
_cell_length_c   7.69480000
_cell_angle_alpha   90.00000000
_cell_angle_beta   90.00000000
_cell_angle_gamma   119.89892149
_symmetry_Int_Tables_number   1
_chemical_formula_structural   NdSmB2Pd3Pt5
_chemical_formula_sum   'Nd1 Sm1 B2 Pd3 Pt5'
_cell_volume   201.02988069
_cell_formula_units_Z   1
loop_
 _symmetry_equiv_pos_site_id
 _symmetry_equiv_pos_as_xyz
  1  'x, y, z'
loop_
 _atom_site_type_symbol
 _atom_site_label
 _atom_site_symmetry_multiplicity
 _atom_site_fract_x
 _atom_site_fract_y
 _atom_site_fract_z
 _atom_site_occupancy
  Nd  Nd0  1  0.000000  0.000000  0.501675  1
  Sm  Sm1  1  0.000000  0.000000  0.000835  1
  B  B2  1  0.330329  0.669671  0.999660  1
  B  B3  1  0.669671  0.330329  0.999660  1
  Pd  Pd4  1  0.333370  0.666630  0.499010  1
  Pd  Pd5  1  0.666630  0.333370  0.499010  1
  Pd  Pd6  1  0.500000  0.500000  0.198566  1
  Pt  Pt7  1  0.500000  0.000000  0.197518  1
  Pt  Pt8  1  0.500000  0.000000  0.800278  1
  Pt  Pt9  1  0.000000  0.500000  0.197518  1
  Pt  Pt10  1  0.000000  0.500000  0.800278  1
  Pt  Pt11  1  0.500000  0.500000  0.805990  1
