# generated using pymatgen
data_Ir3Ru2RhO12
_symmetry_space_group_name_H-M   'P 1'
_cell_length_a   4.54653095
_cell_length_b   4.54653095
_cell_length_c   9.49253400
_cell_angle_alpha   90.00000000
_cell_angle_beta   90.00000000
_cell_angle_gamma   90.18535158
_symmetry_Int_Tables_number   1
_chemical_formula_structural   Ir3Ru2RhO12
_chemical_formula_sum   'Ir3 Ru2 Rh1 O12'
_cell_volume   196.21860874
_cell_formula_units_Z   1
loop_
 _symmetry_equiv_pos_site_id
 _symmetry_equiv_pos_as_xyz
  1  'x, y, z'
loop_
 _atom_site_type_symbol
 _atom_site_label
 _atom_site_symmetry_multiplicity
 _atom_site_fract_x
 _atom_site_fract_y
 _atom_site_fract_z
 _atom_site_occupancy
  Ir  Ir0  1  0.000000  0.000000  0.332373  1
  Ir  Ir1  1  0.000000  0.000000  0.667167  1
  Ir  Ir2  1  0.500000  0.500000  0.833388  1
  Ru  Ru3  1  0.000000  0.000000  0.000991  1
  Ru  Ru4  1  0.500000  0.500000  0.499157  1
  Rh  Rh5  1  0.500000  0.500000  0.167111  1
  O  O6  1  0.304567  0.304567  0.998725  1
  O  O7  1  0.695433  0.695433  0.998725  1
  O  O8  1  0.193435  0.806565  0.499962  1
  O  O9  1  0.806565  0.193435  0.499962  1
  O  O10  1  0.306042  0.306042  0.335224  1
  O  O11  1  0.691981  0.691981  0.665841  1
  O  O12  1  0.693958  0.693958  0.335224  1
  O  O13  1  0.192280  0.807720  0.834221  1
  O  O14  1  0.188973  0.811027  0.165934  1
  O  O15  1  0.308019  0.308019  0.665841  1
  O  O16  1  0.811027  0.188973  0.165934  1
  O  O17  1  0.807720  0.192280  0.834221  1
