# generated using pymatgen
data_Sr5V3O11
_symmetry_space_group_name_H-M   'P 1'
_cell_length_a   3.96887760
_cell_length_b   3.96887797
_cell_length_c   16.17955757
_cell_angle_alpha   90.00092660
_cell_angle_beta   90.00092699
_cell_angle_gamma   90.02362252
_symmetry_Int_Tables_number   1
_chemical_formula_structural   Sr5V3O11
_chemical_formula_sum   'Sr5 V3 O11'
_cell_volume   254.86022123
_cell_formula_units_Z   1
loop_
 _symmetry_equiv_pos_site_id
 _symmetry_equiv_pos_as_xyz
  1  'x, y, z'
loop_
 _atom_site_type_symbol
 _atom_site_label
 _atom_site_symmetry_multiplicity
 _atom_site_fract_x
 _atom_site_fract_y
 _atom_site_fract_z
 _atom_site_occupancy
  Sr  Sr0  1  0.009550  0.002504  0.723607  1
  Sr  Sr1  1  0.997496  0.990450  0.276393  1
  Sr  Sr2  1  0.510515  0.493117  0.892513  1
  Sr  Sr3  1  0.506883  0.489485  0.107487  1
  Sr  Sr4  1  0.001769  0.998231  0.500000  1
  V  V5  1  0.008901  0.991099  0.000000  1
  V  V6  1  0.506582  0.501779  0.620632  1
  V  V7  1  0.498221  0.493418  0.379368  1
  O  O8  1  0.502302  0.497698  0.500000  1
  O  O9  1  0.009128  0.993132  0.880469  1
  O  O10  1  0.006868  0.990872  0.119531  1
  O  O11  1  0.511109  0.502921  0.737771  1
  O  O12  1  0.497079  0.488891  0.262229  1
  O  O13  1  0.009773  0.491056  0.999996  1
  O  O14  1  0.508944  0.990227  0.000004  1
  O  O15  1  0.007403  0.503543  0.618239  1
  O  O16  1  0.508258  0.001936  0.618242  1
  O  O17  1  0.998064  0.491742  0.381758  1
  O  O18  1  0.496457  0.992597  0.381761  1
