# generated using pymatgen
data_Hf6Zn6Ir11Ru
_symmetry_space_group_name_H-M   'P 1'
_cell_length_a   4.47528100
_cell_length_b   6.28264000
_cell_length_c   13.41146200
_cell_angle_alpha   90.00000000
_cell_angle_beta   89.99895389
_cell_angle_gamma   90.00000000
_symmetry_Int_Tables_number   1
_chemical_formula_structural   Hf6Zn6Ir11Ru
_chemical_formula_sum   'Hf6 Zn6 Ir11 Ru1'
_cell_volume   377.08443645
_cell_formula_units_Z   1
loop_
 _symmetry_equiv_pos_site_id
 _symmetry_equiv_pos_as_xyz
  1  'x, y, z'
loop_
 _atom_site_type_symbol
 _atom_site_label
 _atom_site_symmetry_multiplicity
 _atom_site_fract_x
 _atom_site_fract_y
 _atom_site_fract_z
 _atom_site_occupancy
  Hf  Hf0  1  0.000000  0.496822  0.000000  1
  Hf  Hf1  1  0.499814  0.001793  0.164769  1
  Hf  Hf2  1  0.999809  0.499963  0.332965  1
  Hf  Hf3  1  0.500000  0.999924  0.500000  1
  Hf  Hf4  1  0.000191  0.499963  0.667035  1
  Hf  Hf5  1  0.500186  0.001793  0.835231  1
  Zn  Zn6  1  0.000000  0.001532  0.000000  1
  Zn  Zn7  1  0.499809  0.498880  0.165588  1
  Zn  Zn8  1  0.999805  0.000273  0.333146  1
  Zn  Zn9  1  0.500000  0.500062  0.500000  1
  Zn  Zn10  1  0.000196  0.000273  0.666853  1
  Zn  Zn11  1  0.500192  0.498880  0.834412  1
  Ir  Ir12  1  0.500000  0.748533  0.000000  1
  Ir  Ir13  1  0.999813  0.249636  0.166901  1
  Ir  Ir14  1  0.999805  0.750392  0.167045  1
  Ir  Ir15  1  0.499803  0.250452  0.333613  1
  Ir  Ir16  1  0.499800  0.750115  0.333139  1
  Ir  Ir17  1  0.000000  0.249554  0.500000  1
  Ir  Ir18  1  0.000000  0.750410  0.500000  1
  Ir  Ir19  1  0.500197  0.250452  0.666387  1
  Ir  Ir20  1  0.500200  0.750115  0.666861  1
  Ir  Ir21  1  0.000187  0.249636  0.833099  1
  Ir  Ir22  1  0.000195  0.750392  0.832955  1
  Ru  Ru23  1  0.500000  0.250153  0.000000  1
