# generated using pymatgen
data_Zr6Zn22GePd
_symmetry_space_group_name_H-M   'P 1'
_cell_length_a   8.79505110
_cell_length_b   8.79505083
_cell_length_c   8.79505100
_cell_angle_alpha   60.00000311
_cell_angle_beta   60.00000414
_cell_angle_gamma   59.99999956
_symmetry_Int_Tables_number   1
_chemical_formula_structural   Zr6Zn22GePd
_chemical_formula_sum   'Zr6 Zn22 Ge1 Pd1'
_cell_volume   481.06095325
_cell_formula_units_Z   1
loop_
 _symmetry_equiv_pos_site_id
 _symmetry_equiv_pos_as_xyz
  1  'x, y, z'
loop_
 _atom_site_type_symbol
 _atom_site_label
 _atom_site_symmetry_multiplicity
 _atom_site_fract_x
 _atom_site_fract_y
 _atom_site_fract_z
 _atom_site_occupancy
  Zr  Zr0  1  0.714956  0.285044  0.285044  1
  Zr  Zr1  1  0.285044  0.714956  0.714956  1
  Zr  Zr2  1  0.285044  0.714956  0.285044  1
  Zr  Zr3  1  0.714956  0.285044  0.714956  1
  Zr  Zr4  1  0.285044  0.285044  0.714956  1
  Zr  Zr5  1  0.714956  0.714956  0.285044  1
  Zn  Zn6  1  0.123062  0.123062  0.123062  1
  Zn  Zn7  1  0.876938  0.876938  0.876938  1
  Zn  Zn8  1  0.123062  0.123062  0.630814  1
  Zn  Zn9  1  0.123062  0.630814  0.123062  1
  Zn  Zn10  1  0.876938  0.876938  0.369186  1
  Zn  Zn11  1  0.876938  0.369186  0.876938  1
  Zn  Zn12  1  0.630814  0.123062  0.123062  1
  Zn  Zn13  1  0.369186  0.876938  0.876938  1
  Zn  Zn14  1  0.500000  0.000000  0.000000  1
  Zn  Zn15  1  0.000000  0.500000  0.500000  1
  Zn  Zn16  1  0.000000  0.500000  0.000000  1
  Zn  Zn17  1  0.500000  0.000000  0.500000  1
  Zn  Zn18  1  0.000000  0.000000  0.500000  1
  Zn  Zn19  1  0.500000  0.500000  0.000000  1
  Zn  Zn20  1  0.337747  0.337747  0.337747  1
  Zn  Zn21  1  0.662253  0.662253  0.662253  1
  Zn  Zn22  1  0.337747  0.337747  0.986760  1
  Zn  Zn23  1  0.337747  0.986760  0.337747  1
  Zn  Zn24  1  0.662253  0.662253  0.013240  1
  Zn  Zn25  1  0.662253  0.013240  0.662253  1
  Zn  Zn26  1  0.986760  0.337747  0.337747  1
  Zn  Zn27  1  0.013240  0.662253  0.662253  1
  Ge  Ge28  1  0.500000  0.500000  0.500000  1
  Pd  Pd29  1  0.000000  0.000000  0.000000  1
