# generated using pymatgen
data_Sr21Al8TlSn6
_symmetry_space_group_name_H-M   'P 1'
_cell_length_a   12.22156855
_cell_length_b   12.22157011
_cell_length_c   12.22156900
_cell_angle_alpha   60.00000572
_cell_angle_beta   60.00000150
_cell_angle_gamma   60.00000522
_symmetry_Int_Tables_number   1
_chemical_formula_structural   Sr21Al8TlSn6
_chemical_formula_sum   'Sr21 Al8 Tl1 Sn6'
_cell_volume   1290.82081156
_cell_formula_units_Z   1
loop_
 _symmetry_equiv_pos_site_id
 _symmetry_equiv_pos_as_xyz
  1  'x, y, z'
loop_
 _atom_site_type_symbol
 _atom_site_label
 _atom_site_symmetry_multiplicity
 _atom_site_fract_x
 _atom_site_fract_y
 _atom_site_fract_z
 _atom_site_occupancy
  Sr  Sr0  1  0.870425  0.870425  0.388721  1
  Sr  Sr1  1  0.611279  0.129575  0.129575  1
  Sr  Sr2  1  0.870425  0.388721  0.870425  1
  Sr  Sr3  1  0.129575  0.129575  0.129575  1
  Sr  Sr4  1  0.388721  0.870425  0.870425  1
  Sr  Sr5  1  0.870425  0.870425  0.870425  1
  Sr  Sr6  1  0.175994  0.824006  0.500000  1
  Sr  Sr7  1  0.824006  0.500000  0.500000  1
  Sr  Sr8  1  0.129575  0.129575  0.611279  1
  Sr  Sr9  1  0.824006  0.175994  0.500000  1
  Sr  Sr10  1  0.175994  0.500000  0.500000  1
  Sr  Sr11  1  0.129575  0.611279  0.129575  1
  Sr  Sr12  1  0.500000  0.500000  0.175994  1
  Sr  Sr13  1  0.500000  0.175994  0.824006  1
  Sr  Sr14  1  0.500000  0.824006  0.175994  1
  Sr  Sr15  1  0.500000  0.500000  0.824006  1
  Sr  Sr16  1  0.500000  0.175994  0.500000  1
  Sr  Sr17  1  0.175994  0.500000  0.824006  1
  Sr  Sr18  1  0.000000  0.000000  0.000000  1
  Sr  Sr19  1  0.500000  0.824006  0.500000  1
  Sr  Sr20  1  0.824006  0.500000  0.175994  1
  Al  Al21  1  0.694190  0.917432  0.694190  1
  Al  Al22  1  0.694190  0.694190  0.917432  1
  Al  Al23  1  0.694190  0.694190  0.694190  1
  Al  Al24  1  0.305810  0.082568  0.305810  1
  Al  Al25  1  0.917432  0.694190  0.694190  1
  Al  Al26  1  0.305810  0.305810  0.082568  1
  Al  Al27  1  0.082568  0.305810  0.305810  1
  Al  Al28  1  0.305810  0.305810  0.305810  1
  Tl  Tl29  1  0.500000  0.500000  0.500000  1
  Sn  Sn30  1  0.785613  0.214387  0.785613  1
  Sn  Sn31  1  0.785613  0.214387  0.214387  1
  Sn  Sn32  1  0.214387  0.785613  0.214387  1
  Sn  Sn33  1  0.214387  0.785613  0.785613  1
  Sn  Sn34  1  0.785613  0.785613  0.214387  1
  Sn  Sn35  1  0.214387  0.214387  0.785613  1
