# generated using pymatgen
data_Pr4MgNi2Hg
_symmetry_space_group_name_H-M   'P 1'
_cell_length_a   8.91131481
_cell_length_b   8.91131469
_cell_length_c   8.91131400
_cell_angle_alpha   128.46796790
_cell_angle_beta   128.46796730
_cell_angle_gamma   75.86815600
_symmetry_Int_Tables_number   1
_chemical_formula_structural   Pr4MgNi2Hg
_chemical_formula_sum   'Pr8 Mg2 Ni4 Hg2'
_cell_volume   421.87199839
_cell_formula_units_Z   2
loop_
 _symmetry_equiv_pos_site_id
 _symmetry_equiv_pos_as_xyz
  1  'x, y, z'
loop_
 _atom_site_type_symbol
 _atom_site_label
 _atom_site_symmetry_multiplicity
 _atom_site_fract_x
 _atom_site_fract_y
 _atom_site_fract_z
 _atom_site_occupancy
  Pr  Pr0  1  0.798700  0.298700  0.842136  1
  Pr  Pr1  1  0.201300  0.701300  0.157864  1
  Pr  Pr2  1  0.456563  0.956563  0.157864  1
  Pr  Pr3  1  0.298700  0.456563  0.500000  1
  Pr  Pr4  1  0.043437  0.201300  0.500000  1
  Pr  Pr5  1  0.543437  0.043437  0.842136  1
  Pr  Pr6  1  0.701300  0.543437  0.500000  1
  Pr  Pr7  1  0.956563  0.798700  0.500000  1
  Mg  Mg8  1  0.000000  0.000000  0.000000  1
  Mg  Mg9  1  0.500000  0.500000  0.000000  1
  Ni  Ni10  1  0.123559  0.623559  0.747119  1
  Ni  Ni11  1  0.876441  0.376441  0.252881  1
  Ni  Ni12  1  0.623559  0.876441  0.500000  1
  Ni  Ni13  1  0.376441  0.123559  0.500000  1
  Hg  Hg14  1  0.250000  0.250000  0.000000  1
  Hg  Hg15  1  0.750000  0.750000  0.000000  1
