# generated using pymatgen
data_Ti4AlCo10GeB4
_symmetry_space_group_name_H-M   'P 1'
_cell_length_a   8.38788300
_cell_length_b   8.38788300
_cell_length_c   3.02857900
_cell_angle_alpha   90.00000000
_cell_angle_beta   90.00000000
_cell_angle_gamma   90.00000000
_symmetry_Int_Tables_number   1
_chemical_formula_structural   Ti4AlCo10GeB4
_chemical_formula_sum   'Ti4 Al1 Co10 Ge1 B4'
_cell_volume   213.08046440
_cell_formula_units_Z   1
loop_
 _symmetry_equiv_pos_site_id
 _symmetry_equiv_pos_as_xyz
  1  'x, y, z'
loop_
 _atom_site_type_symbol
 _atom_site_label
 _atom_site_symmetry_multiplicity
 _atom_site_fract_x
 _atom_site_fract_y
 _atom_site_fract_z
 _atom_site_occupancy
  Ti  Ti0  1  0.822912  0.326132  0.000000  1
  Ti  Ti1  1  0.326132  0.177088  0.000000  1
  Ti  Ti2  1  0.673868  0.822912  0.000000  1
  Ti  Ti3  1  0.177088  0.673868  0.000000  1
  Al  Al4  1  0.500000  0.500000  0.000000  1
  Co  Co5  1  0.500000  0.000000  0.500000  1
  Co  Co6  1  0.000000  0.500000  0.500000  1
  Co  Co7  1  0.069443  0.219186  0.500000  1
  Co  Co8  1  0.219186  0.930557  0.500000  1
  Co  Co9  1  0.780814  0.069443  0.500000  1
  Co  Co10  1  0.930557  0.780814  0.500000  1
  Co  Co11  1  0.428504  0.720421  0.500000  1
  Co  Co12  1  0.571496  0.279579  0.500000  1
  Co  Co13  1  0.720421  0.571496  0.500000  1
  Co  Co14  1  0.279579  0.428504  0.500000  1
  Ge  Ge15  1  0.000000  0.000000  0.000000  1
  B  B16  1  0.620561  0.121235  0.000000  1
  B  B17  1  0.121235  0.379439  0.000000  1
  B  B18  1  0.878765  0.620561  0.000000  1
  B  B19  1  0.379439  0.878765  0.000000  1
