# generated using pymatgen
data_Ta5Be3AsW
_symmetry_space_group_name_H-M   'P 1'
_cell_length_a   6.51666865
_cell_length_b   6.52729616
_cell_length_c   3.40044100
_cell_angle_alpha   90.00000000
_cell_angle_beta   90.00000000
_cell_angle_gamma   89.87849901
_symmetry_Int_Tables_number   1
_chemical_formula_structural   Ta5Be3AsW
_chemical_formula_sum   'Ta5 Be3 As1 W1'
_cell_volume   144.64160248
_cell_formula_units_Z   1
loop_
 _symmetry_equiv_pos_site_id
 _symmetry_equiv_pos_as_xyz
  1  'x, y, z'
loop_
 _atom_site_type_symbol
 _atom_site_label
 _atom_site_symmetry_multiplicity
 _atom_site_fract_x
 _atom_site_fract_y
 _atom_site_fract_z
 _atom_site_occupancy
  Ta  Ta0  1  0.997614  0.006299  0.000000  1
  Ta  Ta1  1  0.674569  0.179726  0.500000  1
  Ta  Ta2  1  0.337115  0.833741  0.500000  1
  Ta  Ta3  1  0.183102  0.309625  0.500000  1
  Ta  Ta4  1  0.804687  0.676974  0.500000  1
  Be  Be5  1  0.873184  0.375452  0.000000  1
  Be  Be6  1  0.616845  0.885734  0.000000  1
  Be  Be7  1  0.387213  0.117787  0.000000  1
  As  As8  1  0.118399  0.617049  0.000000  1
  W  W9  1  0.507272  0.497614  0.000000  1
