# generated using pymatgen
data_LaPrFe3P7Ru9
_symmetry_space_group_name_H-M   'P 1'
_cell_length_a   9.39987300
_cell_length_b   9.39987241
_cell_length_c   3.89347700
_cell_angle_alpha   90.00000000
_cell_angle_beta   90.00000000
_cell_angle_gamma   119.99999150
_symmetry_Int_Tables_number   1
_chemical_formula_structural   LaPrFe3P7Ru9
_chemical_formula_sum   'La1 Pr1 Fe3 P7 Ru9'
_cell_volume   297.92862158
_cell_formula_units_Z   1
loop_
 _symmetry_equiv_pos_site_id
 _symmetry_equiv_pos_as_xyz
  1  'x, y, z'
loop_
 _atom_site_type_symbol
 _atom_site_label
 _atom_site_symmetry_multiplicity
 _atom_site_fract_x
 _atom_site_fract_y
 _atom_site_fract_z
 _atom_site_occupancy
  La  La0  1  0.333333  0.666667  0.000000  1
  Pr  Pr1  1  0.666667  0.333333  0.500000  1
  Fe  Fe2  1  0.154536  0.889320  0.000000  1
  Fe  Fe3  1  0.110680  0.265216  0.000000  1
  Fe  Fe4  1  0.734784  0.845464  0.000000  1
  P  P5  1  0.408003  0.102931  0.000000  1
  P  P6  1  0.897069  0.305073  0.000000  1
  P  P7  1  0.694927  0.591997  0.000000  1
  P  P8  1  0.109568  0.719319  0.500000  1
  P  P9  1  0.280681  0.390249  0.500000  1
  P  P10  1  0.609751  0.890432  0.500000  1
  P  P11  1  0.000000  0.000000  0.000000  1
  Ru  Ru12  1  0.418676  0.359223  0.000000  1
  Ru  Ru13  1  0.640777  0.059451  0.000000  1
  Ru  Ru14  1  0.940549  0.581324  0.000000  1
  Ru  Ru15  1  0.384494  0.949185  0.500000  1
  Ru  Ru16  1  0.050815  0.435308  0.500000  1
  Ru  Ru17  1  0.564692  0.615506  0.500000  1
  Ru  Ru18  1  0.202961  0.114399  0.500000  1
  Ru  Ru19  1  0.885601  0.088565  0.500000  1
  Ru  Ru20  1  0.911435  0.797039  0.500000  1
