# generated using pymatgen
data_YbTa8AlSe16
_symmetry_space_group_name_H-M   'P 1'
_cell_length_a   6.99890600
_cell_length_b   6.99890616
_cell_length_c   13.89198900
_cell_angle_alpha   90.00000000
_cell_angle_beta   90.00000000
_cell_angle_gamma   120.00000871
_symmetry_Int_Tables_number   1
_chemical_formula_structural   YbTa8AlSe16
_chemical_formula_sum   'Yb1 Ta8 Al1 Se16'
_cell_volume   589.32566583
_cell_formula_units_Z   1
loop_
 _symmetry_equiv_pos_site_id
 _symmetry_equiv_pos_as_xyz
  1  'x, y, z'
loop_
 _atom_site_type_symbol
 _atom_site_label
 _atom_site_symmetry_multiplicity
 _atom_site_fract_x
 _atom_site_fract_y
 _atom_site_fract_z
 _atom_site_occupancy
  Yb  Yb0  1  0.000000  0.000000  0.000000  1
  Ta  Ta1  1  0.000000  0.000000  0.266632  1
  Ta  Ta2  1  0.000000  0.000000  0.733368  1
  Ta  Ta3  1  0.507673  0.015348  0.268679  1
  Ta  Ta4  1  0.492327  0.984652  0.731321  1
  Ta  Ta5  1  0.984652  0.492327  0.268679  1
  Ta  Ta6  1  0.015348  0.507673  0.731321  1
  Ta  Ta7  1  0.507673  0.492327  0.268679  1
  Ta  Ta8  1  0.492327  0.507673  0.731321  1
  Al  Al9  1  0.000000  0.000000  0.500000  1
  Se  Se10  1  0.333333  0.666667  0.608194  1
  Se  Se11  1  0.666667  0.333333  0.391806  1
  Se  Se12  1  0.666667  0.333333  0.143686  1
  Se  Se13  1  0.333333  0.666667  0.856314  1
  Se  Se14  1  0.169387  0.338773  0.149235  1
  Se  Se15  1  0.830613  0.661227  0.850765  1
  Se  Se16  1  0.661227  0.830613  0.149235  1
  Se  Se17  1  0.831219  0.662438  0.612689  1
  Se  Se18  1  0.338773  0.169387  0.850765  1
  Se  Se19  1  0.168781  0.337562  0.387311  1
  Se  Se20  1  0.169387  0.830613  0.149235  1
  Se  Se21  1  0.337562  0.168781  0.612689  1
  Se  Se22  1  0.830613  0.169387  0.850765  1
  Se  Se23  1  0.662438  0.831219  0.387311  1
  Se  Se24  1  0.831219  0.168781  0.612689  1
  Se  Se25  1  0.168781  0.831219  0.387311  1
