# generated using pymatgen
data_Nd3Bi(TePt)3
_symmetry_space_group_name_H-M   'P 1'
_cell_length_a   8.71968061
_cell_length_b   8.69696441
_cell_length_c   8.69696300
_cell_angle_alpha   109.37291432
_cell_angle_beta   109.48617119
_cell_angle_gamma   109.44879246
_symmetry_Int_Tables_number   1
_chemical_formula_structural   Nd3Bi(TePt)3
_chemical_formula_sum   'Nd6 Bi2 Te6 Pt6'
_cell_volume   508.36934839
_cell_formula_units_Z   2
loop_
 _symmetry_equiv_pos_site_id
 _symmetry_equiv_pos_as_xyz
  1  'x, y, z'
loop_
 _atom_site_type_symbol
 _atom_site_label
 _atom_site_symmetry_multiplicity
 _atom_site_fract_x
 _atom_site_fract_y
 _atom_site_fract_z
 _atom_site_occupancy
  Nd  Nd0  1  0.126657  0.874181  0.253461  1
  Nd  Nd1  1  0.373343  0.626804  0.747523  1
  Nd  Nd2  1  0.872677  0.249889  0.124472  1
  Nd  Nd3  1  0.627323  0.751794  0.377211  1
  Nd  Nd4  1  0.250000  0.122565  0.872565  1
  Nd  Nd5  1  0.750000  0.375807  0.625807  1
  Bi  Bi6  1  0.499901  0.998404  0.673113  1
  Bi  Bi7  1  0.000099  0.673212  0.498502  1
  Te  Te8  1  0.334376  0.334311  0.333662  1
  Te  Te9  1  0.165624  0.499286  0.999935  1
  Te  Te10  1  0.000475  0.164519  0.499502  1
  Te  Te11  1  0.839892  0.837579  0.838226  1
  Te  Te12  1  0.499525  0.999027  0.164044  1
  Te  Te13  1  0.660108  0.498335  0.997689  1
  Pt  Pt14  1  0.624145  0.372850  0.252165  1
  Pt  Pt15  1  0.875855  0.128020  0.748705  1
  Pt  Pt16  1  0.373262  0.249415  0.621348  1
  Pt  Pt17  1  0.126738  0.748086  0.876153  1
  Pt  Pt18  1  0.250000  0.620633  0.370633  1
  Pt  Pt19  1  0.750000  0.875284  0.125284  1
