# generated using pymatgen
data_Yb3Ho13(TmIr3)4
_symmetry_space_group_name_H-M   'P 1'
_cell_length_a   10.80638135
_cell_length_b   10.84372292
_cell_length_c   6.33070208
_cell_angle_alpha   89.91999798
_cell_angle_beta   90.12118506
_cell_angle_gamma   90.11335791
_symmetry_Int_Tables_number   1
_chemical_formula_structural   Yb3Ho13(TmIr3)4
_chemical_formula_sum   'Yb3 Ho13 Tm4 Ir12'
_cell_volume   741.83673442
_cell_formula_units_Z   1
loop_
 _symmetry_equiv_pos_site_id
 _symmetry_equiv_pos_as_xyz
  1  'x, y, z'
loop_
 _atom_site_type_symbol
 _atom_site_label
 _atom_site_symmetry_multiplicity
 _atom_site_fract_x
 _atom_site_fract_y
 _atom_site_fract_z
 _atom_site_occupancy
  Yb  Yb0  1  0.289615  0.086809  0.374166  1
  Yb  Yb1  1  0.288888  0.912401  0.874802  1
  Yb  Yb2  1  0.711307  0.087308  0.874681  1
  Ho  Ho3  1  0.708652  0.913691  0.378440  1
  Ho  Ho4  1  0.587440  0.794044  0.877212  1
  Ho  Ho5  1  0.586235  0.206952  0.377858  1
  Ho  Ho6  1  0.411341  0.794027  0.377922  1
  Ho  Ho7  1  0.414040  0.206292  0.877967  1
  Ho  Ho8  1  0.210315  0.412987  0.624235  1
  Ho  Ho9  1  0.210071  0.586307  0.123647  1
  Ho  Ho10  1  0.790716  0.412811  0.123036  1
  Ho  Ho11  1  0.789764  0.586982  0.621838  1
  Ho  Ho12  1  0.913125  0.709616  0.123825  1
  Ho  Ho13  1  0.912728  0.290109  0.623468  1
  Ho  Ho14  1  0.086650  0.709386  0.622534  1
  Ho  Ho15  1  0.087675  0.290448  0.123562  1
  Tm  Tm16  1  0.001702  0.000037  0.499216  1
  Tm  Tm17  1  0.999290  0.000407  0.999511  1
  Tm  Tm18  1  0.500215  0.500498  0.998154  1
  Tm  Tm19  1  0.499536  0.500407  0.498037  1
  Ir  Ir20  1  0.850981  0.153616  0.256426  1
  Ir  Ir21  1  0.852238  0.842670  0.746115  1
  Ir  Ir22  1  0.147136  0.158542  0.753733  1
  Ir  Ir23  1  0.146439  0.841722  0.251720  1
  Ir  Ir24  1  0.650387  0.351335  0.748058  1
  Ir  Ir25  1  0.651358  0.654002  0.249591  1
  Ir  Ir26  1  0.348962  0.350910  0.246247  1
  Ir  Ir27  1  0.348496  0.648788  0.747147  1
  Ir  Ir28  1  0.502118  0.998890  0.124289  1
  Ir  Ir29  1  0.502471  0.998536  0.622308  1
  Ir  Ir30  1  0.000109  0.499898  0.879928  1
  Ir  Ir31  1  0.000000  0.499572  0.380328  1
