# generated using pymatgen
data_Tb17Er3Si15Hg
_symmetry_space_group_name_H-M   'P 1'
_cell_length_a   7.42947076
_cell_length_b   7.69283888
_cell_length_c   14.64283700
_cell_angle_alpha   89.96571714
_cell_angle_beta   89.41084988
_cell_angle_gamma   90.12187666
_symmetry_Int_Tables_number   1
_chemical_formula_structural   Tb17Er3Si15Hg
_chemical_formula_sum   'Tb17 Er3 Si15 Hg1'
_cell_volume   836.84633190
_cell_formula_units_Z   1
loop_
 _symmetry_equiv_pos_site_id
 _symmetry_equiv_pos_as_xyz
  1  'x, y, z'
loop_
 _atom_site_type_symbol
 _atom_site_label
 _atom_site_symmetry_multiplicity
 _atom_site_fract_x
 _atom_site_fract_y
 _atom_site_fract_z
 _atom_site_occupancy
  Tb  Tb0  1  0.349579  0.012190  0.749123  1
  Tb  Tb1  1  0.976157  0.822559  0.101940  1
  Tb  Tb2  1  0.471158  0.684055  0.401121  1
  Tb  Tb3  1  0.518919  0.312810  0.899035  1
  Tb  Tb4  1  0.030078  0.182543  0.598017  1
  Tb  Tb5  1  0.029380  0.176715  0.899710  1
  Tb  Tb6  1  0.529486  0.315909  0.598110  1
  Tb  Tb7  1  0.474650  0.682660  0.101181  1
  Tb  Tb8  1  0.969888  0.816541  0.400652  1
  Tb  Tb9  1  0.674032  0.829714  0.873792  1
  Tb  Tb10  1  0.182367  0.680067  0.621588  1
  Tb  Tb11  1  0.821895  0.319851  0.126232  1
  Tb  Tb12  1  0.317954  0.178965  0.377630  1
  Tb  Tb13  1  0.322492  0.177182  0.124478  1
  Tb  Tb14  1  0.818560  0.320637  0.377468  1
  Tb  Tb15  1  0.182644  0.676263  0.877234  1
  Tb  Tb16  1  0.682221  0.821853  0.621730  1
  Er  Er17  1  0.648915  0.989436  0.250885  1
  Er  Er18  1  0.151054  0.511787  0.249353  1
  Er  Er19  1  0.849397  0.489187  0.747439  1
  Si  Si20  1  0.767515  0.629227  0.251908  1
  Si  Si21  1  0.267323  0.871859  0.251712  1
  Si  Si22  1  0.735419  0.128163  0.748025  1
  Si  Si23  1  0.230420  0.373927  0.747611  1
  Si  Si24  1  0.021688  0.102827  0.251623  1
  Si  Si25  1  0.522501  0.396301  0.252142  1
  Si  Si26  1  0.477508  0.602875  0.747581  1
  Si  Si27  1  0.977213  0.892949  0.748095  1
  Si  Si28  1  0.354465  0.971548  0.539874  1
  Si  Si29  1  0.650253  0.028826  0.041649  1
  Si  Si30  1  0.146234  0.470763  0.459996  1
  Si  Si31  1  0.161271  0.470221  0.043177  1
  Si  Si32  1  0.645565  0.028372  0.458848  1
  Si  Si33  1  0.350644  0.968845  0.961670  1
  Si  Si34  1  0.855173  0.529719  0.539326  1
  Hg  Hg35  1  0.835987  0.532653  0.960050  1
