# generated using pymatgen
data_Li2Pd(IO3)6
_symmetry_space_group_name_H-M   'P 1'
_cell_length_a   5.36137600
_cell_length_b   9.39650925
_cell_length_c   9.39648800
_cell_angle_alpha   60.00007048
_cell_angle_beta   89.99988213
_cell_angle_gamma   89.99999267
_symmetry_Int_Tables_number   1
_chemical_formula_structural   Li2Pd(IO3)6
_chemical_formula_sum   'Li2 Pd1 I6 O18'
_cell_volume   409.95795240
_cell_formula_units_Z   1
loop_
 _symmetry_equiv_pos_site_id
 _symmetry_equiv_pos_as_xyz
  1  'x, y, z'
loop_
 _atom_site_type_symbol
 _atom_site_label
 _atom_site_symmetry_multiplicity
 _atom_site_fract_x
 _atom_site_fract_y
 _atom_site_fract_z
 _atom_site_occupancy
  Li  Li0  1  0.743449  0.333337  0.333331  1
  Li  Li1  1  0.210875  0.666662  0.666668  1
  Pd  Pd2  1  0.664486  0.000001  0.999999  1
  I  I3  1  0.786594  0.968522  0.670465  1
  I  I4  1  0.786588  0.361010  0.968520  1
  I  I5  1  0.786585  0.670473  0.361013  1
  I  I6  1  0.299006  0.026136  0.311163  1
  I  I7  1  0.299009  0.662702  0.026137  1
  I  I8  1  0.299006  0.311163  0.662701  1
  O  O9  1  0.498413  0.239848  0.554821  1
  O  O10  1  0.498416  0.205330  0.239851  1
  O  O11  1  0.498416  0.554820  0.205332  1
  O  O12  1  0.995712  0.760900  0.447114  1
  O  O13  1  0.995718  0.791989  0.760895  1
  O  O14  1  0.995718  0.447110  0.791992  1
  O  O15  1  0.892284  0.057217  0.806115  1
  O  O16  1  0.892278  0.136665  0.057221  1
  O  O17  1  0.892276  0.806116  0.136669  1
  O  O18  1  0.454278  0.918780  0.205232  1
  O  O19  1  0.454287  0.875987  0.918775  1
  O  O20  1  0.454279  0.205236  0.875988  1
  O  O21  1  0.964663  0.114227  0.490247  1
  O  O22  1  0.964653  0.395523  0.114227  1
  O  O23  1  0.964650  0.490253  0.395525  1
  O  O24  1  0.438990  0.885334  0.508191  1
  O  O25  1  0.438990  0.606468  0.885340  1
  O  O26  1  0.438983  0.508193  0.606470  1
