# generated using pymatgen
data_Y2ErTm(OsC2)2
_symmetry_space_group_name_H-M   'P 1'
_cell_length_a   5.10770000
_cell_length_b   6.45300134
_cell_length_c   9.72453502
_cell_angle_alpha   90.05493726
_cell_angle_beta   90.00000000
_cell_angle_gamma   90.00000000
_symmetry_Int_Tables_number   1
_chemical_formula_structural   Y2ErTm(OsC2)2
_chemical_formula_sum   'Y4 Er2 Tm2 Os4 C8'
_cell_volume   320.52047766
_cell_formula_units_Z   2
loop_
 _symmetry_equiv_pos_site_id
 _symmetry_equiv_pos_as_xyz
  1  'x, y, z'
loop_
 _atom_site_type_symbol
 _atom_site_label
 _atom_site_symmetry_multiplicity
 _atom_site_fract_x
 _atom_site_fract_y
 _atom_site_fract_z
 _atom_site_occupancy
  Y  Y0  1  0.250000  0.528164  0.217640  1
  Y  Y1  1  0.750000  0.471836  0.782360  1
  Y  Y2  1  0.750000  0.971748  0.716575  1
  Y  Y3  1  0.250000  0.028252  0.283425  1
  Er  Er4  1  0.750000  0.820207  0.053968  1
  Er  Er5  1  0.250000  0.179793  0.946032  1
  Tm  Tm6  1  0.250000  0.678734  0.553887  1
  Tm  Tm7  1  0.750000  0.321266  0.446113  1
  Os  Os8  1  0.250000  0.724826  0.865432  1
  Os  Os9  1  0.750000  0.275174  0.134568  1
  Os  Os10  1  0.750000  0.775119  0.366545  1
  Os  Os11  1  0.250000  0.224881  0.633455  1
  C  C12  1  0.250000  0.459604  0.758165  1
  C  C13  1  0.750000  0.540396  0.241835  1
  C  C14  1  0.750000  0.040474  0.259173  1
  C  C15  1  0.250000  0.959526  0.740827  1
  C  C16  1  0.250000  0.829037  0.053146  1
  C  C17  1  0.750000  0.170963  0.946854  1
  C  C18  1  0.750000  0.669604  0.553925  1
  C  C19  1  0.250000  0.330396  0.446075  1
