# generated using pymatgen
data_Sr3Ca4Yb(VN3)4
_symmetry_space_group_name_H-M   'P 1'
_cell_length_a   6.06861106
_cell_length_b   6.04009381
_cell_length_c   11.83687201
_cell_angle_alpha   89.66342157
_cell_angle_beta   89.49618899
_cell_angle_gamma   124.14491153
_symmetry_Int_Tables_number   1
_chemical_formula_structural   Sr3Ca4Yb(VN3)4
_chemical_formula_sum   'Sr3 Ca4 Yb1 V4 N12'
_cell_volume   359.04377556
_cell_formula_units_Z   1
loop_
 _symmetry_equiv_pos_site_id
 _symmetry_equiv_pos_as_xyz
  1  'x, y, z'
loop_
 _atom_site_type_symbol
 _atom_site_label
 _atom_site_symmetry_multiplicity
 _atom_site_fract_x
 _atom_site_fract_y
 _atom_site_fract_z
 _atom_site_occupancy
  Sr  Sr0  1  0.480202  0.066301  0.347532  1
  Sr  Sr1  1  0.058624  0.468479  0.853468  1
  Sr  Sr2  1  0.534313  0.937716  0.648072  1
  Ca  Ca3  1  0.383719  0.163721  0.924890  1
  Ca  Ca4  1  0.839448  0.616424  0.576094  1
  Ca  Ca5  1  0.168119  0.385837  0.422069  1
  Ca  Ca6  1  0.956224  0.554802  0.142903  1
  Yb  Yb7  1  0.608691  0.832294  0.079860  1
  V  V8  1  0.756486  0.765160  0.842101  1
  V  V9  1  0.235252  0.242008  0.662052  1
  V  V10  1  0.234123  0.231367  0.161447  1
  V  V11  1  0.768829  0.755048  0.335967  1
  N  N12  1  0.068243  0.931398  0.752768  1
  N  N13  1  0.920610  0.068550  0.247676  1
  N  N14  1  0.515128  0.486060  0.751433  1
  N  N15  1  0.487516  0.508641  0.248854  1
  N  N16  1  0.347045  0.020527  0.124475  1
  N  N17  1  0.967601  0.628963  0.367327  1
  N  N18  1  0.629613  0.961732  0.876716  1
  N  N19  1  0.040471  0.371285  0.626132  1
  N  N20  1  0.802730  0.633399  0.966324  1
  N  N21  1  0.638694  0.801641  0.460098  1
  N  N22  1  0.193328  0.379044  0.042311  1
  N  N23  1  0.364989  0.189602  0.539428  1
