# generated using pymatgen
data_YbYPaIr3
_symmetry_space_group_name_H-M   'P 1'
_cell_length_a   5.35410685
_cell_length_b   5.35410756
_cell_length_c   5.35410691
_cell_angle_alpha   65.74620847
_cell_angle_beta   65.74620307
_cell_angle_gamma   65.74620472
_symmetry_Int_Tables_number   1
_chemical_formula_structural   YbYPaIr3
_chemical_formula_sum   'Yb1 Y1 Pa1 Ir3'
_cell_volume   122.05645867
_cell_formula_units_Z   1
loop_
 _symmetry_equiv_pos_site_id
 _symmetry_equiv_pos_as_xyz
  1  'x, y, z'
loop_
 _atom_site_type_symbol
 _atom_site_label
 _atom_site_symmetry_multiplicity
 _atom_site_fract_x
 _atom_site_fract_y
 _atom_site_fract_z
 _atom_site_occupancy
  Yb  Yb0  1  0.999979  0.999979  0.999979  1
  Y  Y1  1  0.245775  0.245775  0.245775  1
  Pa  Pa2  1  0.626922  0.626922  0.626922  1
  Ir  Ir3  1  0.625217  0.625217  0.126889  1
  Ir  Ir4  1  0.625217  0.126889  0.625217  1
  Ir  Ir5  1  0.126889  0.625217  0.625217  1
