# generated using pymatgen
data_Er4Al18CrPd5
_symmetry_space_group_name_H-M   'P 1'
_cell_length_a   7.59442894
_cell_length_b   7.59442919
_cell_length_c   9.47600433
_cell_angle_alpha   89.75613409
_cell_angle_beta   89.75613837
_cell_angle_gamma   119.15945267
_symmetry_Int_Tables_number   1
_chemical_formula_structural   Er4Al18CrPd5
_chemical_formula_sum   'Er4 Al18 Cr1 Pd5'
_cell_volume   477.25146479
_cell_formula_units_Z   1
loop_
 _symmetry_equiv_pos_site_id
 _symmetry_equiv_pos_as_xyz
  1  'x, y, z'
loop_
 _atom_site_type_symbol
 _atom_site_label
 _atom_site_symmetry_multiplicity
 _atom_site_fract_x
 _atom_site_fract_y
 _atom_site_fract_z
 _atom_site_occupancy
  Er  Er0  1  0.994917  0.673513  0.247622  1
  Er  Er1  1  0.005083  0.326487  0.752378  1
  Er  Er2  1  0.673513  0.994917  0.247622  1
  Er  Er3  1  0.326487  0.005083  0.752378  1
  Al  Al4  1  0.126708  0.126708  0.243852  1
  Al  Al5  1  0.873292  0.873292  0.756148  1
  Al  Al6  1  0.000740  0.327912  0.073577  1
  Al  Al7  1  0.999260  0.672088  0.926423  1
  Al  Al8  1  0.998928  0.663481  0.578067  1
  Al  Al9  1  0.336519  0.001072  0.421933  1
  Al  Al10  1  0.001072  0.336519  0.421933  1
  Al  Al11  1  0.663481  0.998928  0.578067  1
  Al  Al12  1  0.672088  0.999260  0.926423  1
  Al  Al13  1  0.327912  0.000740  0.073577  1
  Al  Al14  1  0.333502  0.333502  0.557391  1
  Al  Al15  1  0.666498  0.666498  0.442609  1
  Al  Al16  1  0.673439  0.673439  0.053271  1
  Al  Al17  1  0.326561  0.326561  0.946729  1
  Al  Al18  1  0.340044  0.547532  0.249326  1
  Al  Al19  1  0.659956  0.452468  0.750674  1
  Al  Al20  1  0.547532  0.340044  0.249326  1
  Al  Al21  1  0.452468  0.659956  0.750674  1
  Cr  Cr22  1  0.000000  0.000000  0.000000  1
  Pd  Pd23  1  0.672600  0.327400  0.000000  1
  Pd  Pd24  1  0.327400  0.672600  0.000000  1
  Pd  Pd25  1  0.327890  0.672110  0.500000  1
  Pd  Pd26  1  0.672110  0.327890  0.500000  1
  Pd  Pd27  1  0.000000  0.000000  0.500000  1
