# generated using pymatgen
data_La5PrPd7Rh
_symmetry_space_group_name_H-M   'P 1'
_cell_length_a   8.22299038
_cell_length_b   8.23082267
_cell_length_c   8.23000218
_cell_angle_alpha   114.53739014
_cell_angle_beta   114.40097438
_cell_angle_gamma   114.29561546
_symmetry_Int_Tables_number   1
_chemical_formula_structural   La5PrPd7Rh
_chemical_formula_sum   'La5 Pr1 Pd7 Rh1'
_cell_volume   327.84205699
_cell_formula_units_Z   1
loop_
 _symmetry_equiv_pos_site_id
 _symmetry_equiv_pos_as_xyz
  1  'x, y, z'
loop_
 _atom_site_type_symbol
 _atom_site_label
 _atom_site_symmetry_multiplicity
 _atom_site_fract_x
 _atom_site_fract_y
 _atom_site_fract_z
 _atom_site_occupancy
  La  La0  1  0.397596  0.028067  0.276070  1
  La  La1  1  0.028429  0.275291  0.398359  1
  La  La2  1  0.275584  0.398002  0.027470  1
  La  La3  1  0.601846  0.972237  0.724698  1
  La  La4  1  0.971809  0.724447  0.601611  1
  Pr  Pr5  1  0.724210  0.601819  0.972759  1
  Pd  Pd6  1  0.500139  0.500069  0.500237  1
  Pd  Pd7  1  0.222994  0.057947  0.554631  1
  Pd  Pd8  1  0.059109  0.554994  0.223820  1
  Pd  Pd9  1  0.555183  0.223615  0.058250  1
  Pd  Pd10  1  0.776167  0.940934  0.444054  1
  Pd  Pd11  1  0.941156  0.444931  0.776595  1
  Pd  Pd12  1  0.445009  0.776481  0.941360  1
  Rh  Rh13  1  0.000768  0.001167  0.000086  1
