# generated using pymatgen
data_Sr6Cd2CoIrO12
_symmetry_space_group_name_H-M   'P 1'
_cell_length_a   6.81400224
_cell_length_b   6.81400220
_cell_length_c   6.81400329
_cell_angle_alpha   90.62843998
_cell_angle_beta   90.62844523
_cell_angle_gamma   90.62843761
_symmetry_Int_Tables_number   1
_chemical_formula_structural   Sr6Cd2CoIrO12
_chemical_formula_sum   'Sr6 Cd2 Co1 Ir1 O12'
_cell_volume   316.32092717
_cell_formula_units_Z   1
loop_
 _symmetry_equiv_pos_site_id
 _symmetry_equiv_pos_as_xyz
  1  'x, y, z'
loop_
 _atom_site_type_symbol
 _atom_site_label
 _atom_site_symmetry_multiplicity
 _atom_site_fract_x
 _atom_site_fract_y
 _atom_site_fract_z
 _atom_site_occupancy
  Sr  Sr0  1  0.739515  0.392002  0.117881  1
  Sr  Sr1  1  0.117881  0.739515  0.392002  1
  Sr  Sr2  1  0.260485  0.607998  0.882119  1
  Sr  Sr3  1  0.392002  0.117881  0.739515  1
  Sr  Sr4  1  0.607998  0.882119  0.260485  1
  Sr  Sr5  1  0.882119  0.260485  0.607998  1
  Cd  Cd6  1  0.258464  0.258464  0.258464  1
  Cd  Cd7  1  0.741536  0.741536  0.741536  1
  Co  Co8  1  0.500000  0.500000  0.500000  1
  Ir  Ir9  1  0.000000  0.000000  0.000000  1
  O  O10  1  0.079681  0.279329  0.950220  1
  O  O11  1  0.950220  0.079681  0.279329  1
  O  O12  1  0.279329  0.950220  0.079681  1
  O  O13  1  0.418322  0.555379  0.222810  1
  O  O14  1  0.222810  0.418322  0.555379  1
  O  O15  1  0.555379  0.222810  0.418322  1
  O  O16  1  0.920319  0.720671  0.049780  1
  O  O17  1  0.049780  0.920319  0.720671  1
  O  O18  1  0.720671  0.049780  0.920319  1
  O  O19  1  0.581678  0.444621  0.777190  1
  O  O20  1  0.444621  0.777190  0.581678  1
  O  O21  1  0.777190  0.581678  0.444621  1
