# generated using pymatgen
data_Er8Tm2In8Pt3Rh
_symmetry_space_group_name_H-M   'P 1'
_cell_length_a   3.61347800
_cell_length_b   8.08494259
_cell_length_c   18.12159707
_cell_angle_alpha   90.07824986
_cell_angle_beta   90.00000000
_cell_angle_gamma   90.00000000
_symmetry_Int_Tables_number   1
_chemical_formula_structural   Er8Tm2In8Pt3Rh
_chemical_formula_sum   'Er8 Tm2 In8 Pt3 Rh1'
_cell_volume   529.41765506
_cell_formula_units_Z   1
loop_
 _symmetry_equiv_pos_site_id
 _symmetry_equiv_pos_as_xyz
  1  'x, y, z'
loop_
 _atom_site_type_symbol
 _atom_site_label
 _atom_site_symmetry_multiplicity
 _atom_site_fract_x
 _atom_site_fract_y
 _atom_site_fract_z
 _atom_site_occupancy
  Er  Er0  1  0.000000  0.384194  0.914914  1
  Er  Er1  1  0.000000  0.617284  0.086770  1
  Er  Er2  1  0.000000  0.239799  0.222272  1
  Er  Er3  1  0.000000  0.756932  0.778176  1
  Er  Er4  1  0.000000  0.256270  0.721399  1
  Er  Er5  1  0.000000  0.748557  0.278846  1
  Er  Er6  1  0.000000  0.000745  0.000436  1
  Er  Er7  1  0.000000  0.500814  0.499305  1
  Tm  Tm8  1  0.000000  0.114404  0.411937  1
  Tm  Tm9  1  0.000000  0.883192  0.585492  1
  In  In10  1  0.500000  0.422654  0.352137  1
  In  In11  1  0.500000  0.573997  0.647342  1
  In  In12  1  0.500000  0.074749  0.852360  1
  In  In13  1  0.500000  0.928525  0.149103  1
  In  In14  1  0.500000  0.292164  0.067509  1
  In  In15  1  0.500000  0.709571  0.933383  1
  In  In16  1  0.500000  0.206595  0.565426  1
  In  In17  1  0.500000  0.793641  0.431835  1
  Pt  Pt18  1  0.500000  0.975844  0.695555  1
  Pt  Pt19  1  0.500000  0.476334  0.804008  1
  Pt  Pt20  1  0.500000  0.521621  0.196708  1
  Rh  Rh21  1  0.500000  0.022113  0.305089  1
