# generated using pymatgen
data_P2RuBrF6
_symmetry_space_group_name_H-M   'P 1'
_cell_length_a   10.45768300
_cell_length_b   10.74182962
_cell_length_c   13.39634000
_cell_angle_alpha   101.19571909
_cell_angle_beta   90.00000000
_cell_angle_gamma   90.00000000
_symmetry_Int_Tables_number   1
_chemical_formula_structural   P2RuBrF6
_chemical_formula_sum   'P16 Ru8 Br8 F48'
_cell_volume   1476.23491112
_cell_formula_units_Z   8
loop_
 _symmetry_equiv_pos_site_id
 _symmetry_equiv_pos_as_xyz
  1  'x, y, z'
loop_
 _atom_site_type_symbol
 _atom_site_label
 _atom_site_symmetry_multiplicity
 _atom_site_fract_x
 _atom_site_fract_y
 _atom_site_fract_z
 _atom_site_occupancy
  P  P0  1  0.105501  0.003169  0.764718  1
  P  P1  1  0.367724  0.998084  0.251231  1
  P  P2  1  0.394499  0.503169  0.264718  1
  P  P3  1  0.109268  0.799814  0.561948  1
  P  P4  1  0.894499  0.996831  0.235282  1
  P  P5  1  0.605501  0.496831  0.735282  1
  P  P6  1  0.365800  0.209502  0.446563  1
  P  P7  1  0.609268  0.700186  0.938052  1
  P  P8  1  0.132276  0.498084  0.751231  1
  P  P9  1  0.390732  0.299814  0.061948  1
  P  P10  1  0.632276  0.001916  0.748769  1
  P  P11  1  0.134200  0.709502  0.946563  1
  P  P12  1  0.634200  0.790498  0.553437  1
  P  P13  1  0.890732  0.200186  0.438052  1
  P  P14  1  0.865800  0.290498  0.053437  1
  P  P15  1  0.867724  0.501916  0.248769  1
  Ru  Ru16  1  0.716820  0.814706  0.704773  1
  Ru  Ru17  1  0.976080  0.183829  0.288314  1
  Ru  Ru18  1  0.476080  0.316171  0.211686  1
  Ru  Ru19  1  0.783180  0.314706  0.204773  1
  Ru  Ru20  1  0.283180  0.185294  0.295227  1
  Ru  Ru21  1  0.216820  0.685294  0.795227  1
  Ru  Ru22  1  0.523920  0.683829  0.788314  1
  Ru  Ru23  1  0.023920  0.816171  0.711686  1
  Br  Br24  1  0.634515  0.362867  0.357878  1
  Br  Br25  1  0.365485  0.637133  0.642122  1
  Br  Br26  1  0.626764  0.136420  0.135689  1
  Br  Br27  1  0.865485  0.862867  0.857878  1
  Br  Br28  1  0.134515  0.137134  0.142122  1
  Br  Br29  1  0.373236  0.863580  0.864311  1
  Br  Br30  1  0.873236  0.636420  0.635689  1
  Br  Br31  1  0.126764  0.363580  0.364311  1
  F  F32  1  0.606522  0.654421  0.487837  1
  F  F33  1  0.114305  0.432830  0.635774  1
  F  F34  1  0.237114  0.866983  0.539529  1
  F  F35  1  0.225922  0.661371  0.025220  1
  F  F36  1  0.282030  0.890694  0.283773  1
  F  F37  1  0.001400  0.457502  0.793592  1
  F  F38  1  0.274078  0.161371  0.525220  1
  F  F39  1  0.614305  0.067170  0.864226  1
  F  F40  1  0.479461  0.357124  0.986146  1
  F  F41  1  0.513019  0.386023  0.752691  1
  F  F42  1  0.885695  0.567170  0.364226  1
  F  F43  1  0.230071  0.052278  0.718872  1
  F  F44  1  0.717970  0.109306  0.716227  1
  F  F45  1  0.020539  0.857124  0.486146  1
  F  F46  1  0.367568  0.166279  0.990655  1
  F  F47  1  0.366382  0.555724  0.381132  1
  F  F48  1  0.893478  0.154421  0.987837  1
  F  F49  1  0.508919  0.859151  0.527392  1
  F  F50  1  0.782030  0.609306  0.216227  1
  F  F51  1  0.632432  0.833721  0.009345  1
  F  F52  1  0.998600  0.542498  0.206408  1
  F  F53  1  0.013019  0.113977  0.747309  1
  F  F54  1  0.866382  0.944276  0.118868  1
  F  F55  1  0.774078  0.338629  0.974780  1
  F  F56  1  0.725922  0.838629  0.474780  1
  F  F57  1  0.498600  0.957502  0.293592  1
  F  F58  1  0.633618  0.444276  0.618868  1
  F  F59  1  0.385695  0.932830  0.135774  1
  F  F60  1  0.737114  0.633017  0.960471  1
  F  F61  1  0.979461  0.142876  0.513854  1
  F  F62  1  0.491081  0.140849  0.472608  1
  F  F63  1  0.217970  0.390694  0.783773  1
  F  F64  1  0.133618  0.055724  0.881132  1
  F  F65  1  0.762886  0.133017  0.460471  1
  F  F66  1  0.393478  0.345579  0.512163  1
  F  F67  1  0.269929  0.552278  0.218872  1
  F  F68  1  0.867568  0.333721  0.509345  1
  F  F69  1  0.008919  0.640849  0.972608  1
  F  F70  1  0.262886  0.366983  0.039529  1
  F  F71  1  0.730071  0.447722  0.781128  1
  F  F72  1  0.520539  0.642876  0.013854  1
  F  F73  1  0.501400  0.042498  0.706408  1
  F  F74  1  0.106522  0.845579  0.012163  1
  F  F75  1  0.132432  0.666279  0.490655  1
  F  F76  1  0.986981  0.886023  0.252691  1
  F  F77  1  0.769929  0.947722  0.281128  1
  F  F78  1  0.991081  0.359151  0.027392  1
  F  F79  1  0.486981  0.613977  0.247309  1
