# generated using pymatgen
data_Tb10FeCoSb4
_symmetry_space_group_name_H-M   'P 1'
_cell_length_a   7.91896800
_cell_length_b   8.79885400
_cell_length_c   12.23318600
_cell_angle_alpha   90.00000000
_cell_angle_beta   90.00000000
_cell_angle_gamma   90.00000000
_symmetry_Int_Tables_number   1
_chemical_formula_structural   Tb10FeCoSb4
_chemical_formula_sum   'Tb20 Fe2 Co2 Sb8'
_cell_volume   852.38201671
_cell_formula_units_Z   2
loop_
 _symmetry_equiv_pos_site_id
 _symmetry_equiv_pos_as_xyz
  1  'x, y, z'
loop_
 _atom_site_type_symbol
 _atom_site_label
 _atom_site_symmetry_multiplicity
 _atom_site_fract_x
 _atom_site_fract_y
 _atom_site_fract_z
 _atom_site_occupancy
  Tb  Tb0  1  0.155414  0.750000  0.204749  1
  Tb  Tb1  1  0.655414  0.250000  0.295251  1
  Tb  Tb2  1  0.845991  0.250000  0.796875  1
  Tb  Tb3  1  0.345991  0.750000  0.703125  1
  Tb  Tb4  1  0.452670  0.750000  0.996881  1
  Tb  Tb5  1  0.952670  0.250000  0.503119  1
  Tb  Tb6  1  0.546852  0.250000  0.002782  1
  Tb  Tb7  1  0.046852  0.750000  0.497218  1
  Tb  Tb8  1  0.622149  0.750000  0.305576  1
  Tb  Tb9  1  0.122149  0.250000  0.194424  1
  Tb  Tb10  1  0.377339  0.250000  0.694579  1
  Tb  Tb11  1  0.877339  0.750000  0.805421  1
  Tb  Tb12  1  0.822219  0.966150  0.064067  1
  Tb  Tb13  1  0.322219  0.033850  0.435933  1
  Tb  Tb14  1  0.179160  0.462329  0.935489  1
  Tb  Tb15  1  0.679160  0.537671  0.564511  1
  Tb  Tb16  1  0.179160  0.037671  0.935489  1
  Tb  Tb17  1  0.679160  0.962329  0.564511  1
  Tb  Tb18  1  0.822219  0.533850  0.064067  1
  Tb  Tb19  1  0.322219  0.466150  0.435933  1
  Fe  Fe20  1  0.427926  0.750000  0.487973  1
  Fe  Fe21  1  0.927926  0.250000  0.012027  1
  Co  Co22  1  0.569517  0.250000  0.510497  1
  Co  Co23  1  0.069517  0.750000  0.989503  1
  Sb  Sb24  1  0.927321  0.992154  0.327215  1
  Sb  Sb25  1  0.427321  0.007846  0.172785  1
  Sb  Sb26  1  0.072371  0.492087  0.672934  1
  Sb  Sb27  1  0.572371  0.507913  0.827066  1
  Sb  Sb28  1  0.072371  0.007913  0.672934  1
  Sb  Sb29  1  0.572371  0.992087  0.827066  1
  Sb  Sb30  1  0.927321  0.507846  0.327215  1
  Sb  Sb31  1  0.427321  0.492154  0.172785  1
