# generated using pymatgen
data_TbTlAg2(Pt2O7)2
_symmetry_space_group_name_H-M   'P 1'
_cell_length_a   7.16946543
_cell_length_b   7.24721484
_cell_length_c   7.26051450
_cell_angle_alpha   61.07770209
_cell_angle_beta   60.41396590
_cell_angle_gamma   60.35424889
_symmetry_Int_Tables_number   1
_chemical_formula_structural   TbTlAg2(Pt2O7)2
_chemical_formula_sum   'Tb1 Tl1 Ag2 Pt4 O14'
_cell_volume   270.43404052
_cell_formula_units_Z   1
loop_
 _symmetry_equiv_pos_site_id
 _symmetry_equiv_pos_as_xyz
  1  'x, y, z'
loop_
 _atom_site_type_symbol
 _atom_site_label
 _atom_site_symmetry_multiplicity
 _atom_site_fract_x
 _atom_site_fract_y
 _atom_site_fract_z
 _atom_site_occupancy
  Tb  Tb0  1  0.625000  0.125000  0.625000  1
  Tl  Tl1  1  0.625000  0.625000  0.125000  1
  Ag  Ag2  1  0.625000  0.625000  0.625000  1
  Ag  Ag3  1  0.125000  0.625000  0.625000  1
  Pt  Pt4  1  0.125000  0.125000  0.125000  1
  Pt  Pt5  1  0.625000  0.125000  0.125000  1
  Pt  Pt6  1  0.125000  0.625000  0.125000  1
  Pt  Pt7  1  0.125000  0.125000  0.625000  1
  O  O8  1  0.046152  0.453273  0.454423  1
  O  O9  1  0.789201  0.793448  0.205637  1
  O  O10  1  0.785278  0.208325  0.221119  1
  O  O11  1  0.459755  0.055924  0.455785  1
  O  O12  1  0.038285  0.456552  0.044363  1
  O  O13  1  0.766683  0.735028  0.731606  1
  O  O14  1  0.028534  0.055924  0.455785  1
  O  O15  1  0.211715  0.793448  0.205637  1
  O  O16  1  0.221466  0.194076  0.794215  1
  O  O17  1  0.483317  0.514972  0.518394  1
  O  O18  1  0.790245  0.194076  0.794215  1
  O  O19  1  0.464722  0.041675  0.028881  1
  O  O20  1  0.460799  0.456552  0.044363  1
  O  O21  1  0.203848  0.796727  0.795577  1
