# generated using pymatgen
data_CaYbSiPd14
_symmetry_space_group_name_H-M   'P 1'
_cell_length_a   8.93721100
_cell_length_b   8.93721100
_cell_length_c   7.02726500
_cell_angle_alpha   90.00000000
_cell_angle_beta   90.00000000
_cell_angle_gamma   90.00000000
_symmetry_Int_Tables_number   1
_chemical_formula_structural   CaYbSiPd14
_chemical_formula_sum   'Ca2 Yb2 Si2 Pd28'
_cell_volume   561.29394074
_cell_formula_units_Z   2
loop_
 _symmetry_equiv_pos_site_id
 _symmetry_equiv_pos_as_xyz
  1  'x, y, z'
loop_
 _atom_site_type_symbol
 _atom_site_label
 _atom_site_symmetry_multiplicity
 _atom_site_fract_x
 _atom_site_fract_y
 _atom_site_fract_z
 _atom_site_occupancy
  Ca  Ca0  1  0.500000  0.000000  0.939106  1
  Ca  Ca1  1  0.000000  0.500000  0.060894  1
  Yb  Yb2  1  0.000000  0.000000  0.500000  1
  Yb  Yb3  1  0.500000  0.500000  0.500000  1
  Si  Si4  1  0.500000  0.000000  0.447762  1
  Si  Si5  1  0.000000  0.500000  0.552238  1
  Pd  Pd6  1  0.333724  0.833724  0.616417  1
  Pd  Pd7  1  0.333724  0.166276  0.616417  1
  Pd  Pd8  1  0.666276  0.833724  0.616417  1
  Pd  Pd9  1  0.666276  0.166276  0.616417  1
  Pd  Pd10  1  0.166276  0.666276  0.383583  1
  Pd  Pd11  1  0.166276  0.333724  0.383583  1
  Pd  Pd12  1  0.833724  0.666276  0.383583  1
  Pd  Pd13  1  0.833724  0.333724  0.383583  1
  Pd  Pd14  1  0.500000  0.768939  0.258545  1
  Pd  Pd15  1  0.500000  0.231061  0.258545  1
  Pd  Pd16  1  0.268939  0.000000  0.258545  1
  Pd  Pd17  1  0.731061  0.000000  0.258545  1
  Pd  Pd18  1  0.000000  0.731061  0.741455  1
  Pd  Pd19  1  0.000000  0.268939  0.741455  1
  Pd  Pd20  1  0.231061  0.500000  0.741455  1
  Pd  Pd21  1  0.768939  0.500000  0.741455  1
  Pd  Pd22  1  0.500000  0.349349  0.854092  1
  Pd  Pd23  1  0.500000  0.650651  0.854092  1
  Pd  Pd24  1  0.849349  0.000000  0.854092  1
  Pd  Pd25  1  0.150651  0.000000  0.854092  1
  Pd  Pd26  1  0.000000  0.150651  0.145908  1
  Pd  Pd27  1  0.000000  0.849349  0.145908  1
  Pd  Pd28  1  0.650651  0.500000  0.145908  1
  Pd  Pd29  1  0.349349  0.500000  0.145908  1
  Pd  Pd30  1  0.250000  0.750000  0.000000  1
  Pd  Pd31  1  0.250000  0.250000  0.000000  1
  Pd  Pd32  1  0.750000  0.750000  0.000000  1
  Pd  Pd33  1  0.750000  0.250000  0.000000  1
