# generated using pymatgen
data_Ta6CrFe(B3Ru2)2
_symmetry_space_group_name_H-M   'P 1'
_cell_length_a   3.12626900
_cell_length_b   6.34335600
_cell_length_c   10.81559100
_cell_angle_alpha   90.00000000
_cell_angle_beta   90.00000000
_cell_angle_gamma   90.00000000
_symmetry_Int_Tables_number   1
_chemical_formula_structural   Ta6CrFe(B3Ru2)2
_chemical_formula_sum   'Ta6 Cr1 Fe1 B6 Ru4'
_cell_volume   214.48438766
_cell_formula_units_Z   1
loop_
 _symmetry_equiv_pos_site_id
 _symmetry_equiv_pos_as_xyz
  1  'x, y, z'
loop_
 _atom_site_type_symbol
 _atom_site_label
 _atom_site_symmetry_multiplicity
 _atom_site_fract_x
 _atom_site_fract_y
 _atom_site_fract_z
 _atom_site_occupancy
  Ta  Ta0  1  0.000000  0.224580  0.951106  1
  Ta  Ta1  1  0.000000  0.775916  0.048523  1
  Ta  Ta2  1  0.000000  0.224580  0.548894  1
  Ta  Ta3  1  0.000000  0.775916  0.451477  1
  Ta  Ta4  1  0.000000  0.137510  0.250000  1
  Ta  Ta5  1  0.000000  0.861091  0.750000  1
  Cr  Cr6  1  0.500000  0.197285  0.750000  1
  Fe  Fe7  1  0.500000  0.797505  0.250000  1
  B  B8  1  0.500000  0.048414  0.087252  1
  B  B9  1  0.500000  0.951251  0.914639  1
  B  B10  1  0.500000  0.048414  0.412748  1
  B  B11  1  0.500000  0.951251  0.585361  1
  B  B12  1  0.000000  0.565780  0.250000  1
  B  B13  1  0.000000  0.436795  0.750000  1
  Ru  Ru14  1  0.500000  0.427861  0.124207  1
  Ru  Ru15  1  0.500000  0.573995  0.876664  1
  Ru  Ru16  1  0.500000  0.427861  0.375793  1
  Ru  Ru17  1  0.500000  0.573995  0.623336  1
