# generated using pymatgen
data_Yb6HoLu(Si4Mo3)4
_symmetry_space_group_name_H-M   'P 1'
_cell_length_a   6.72159502
_cell_length_b   6.92461371
_cell_length_c   13.00548336
_cell_angle_alpha   89.82411546
_cell_angle_beta   89.99900868
_cell_angle_gamma   89.97951351
_symmetry_Int_Tables_number   1
_chemical_formula_structural   Yb6HoLu(Si4Mo3)4
_chemical_formula_sum   'Yb6 Ho1 Lu1 Si16 Mo12'
_cell_volume   605.33016632
_cell_formula_units_Z   1
loop_
 _symmetry_equiv_pos_site_id
 _symmetry_equiv_pos_as_xyz
  1  'x, y, z'
loop_
 _atom_site_type_symbol
 _atom_site_label
 _atom_site_symmetry_multiplicity
 _atom_site_fract_x
 _atom_site_fract_y
 _atom_site_fract_z
 _atom_site_occupancy
  Yb  Yb0  1  0.498176  0.334518  0.090444  1
  Yb  Yb1  1  0.998135  0.165431  0.409574  1
  Yb  Yb2  1  0.501269  0.668100  0.592598  1
  Yb  Yb3  1  0.001014  0.831475  0.907851  1
  Yb  Yb4  1  0.501149  0.667127  0.908996  1
  Yb  Yb5  1  0.001458  0.833063  0.591437  1
  Ho  Ho6  1  0.499340  0.331474  0.406605  1
  Lu  Lu7  1  0.998376  0.169416  0.093407  1
  Si  Si8  1  0.658553  0.042093  0.545265  1
  Si  Si9  1  0.158566  0.457029  0.955390  1
  Si  Si10  1  0.339158  0.958454  0.045657  1
  Si  Si11  1  0.841023  0.543242  0.454442  1
  Si  Si12  1  0.341254  0.956167  0.454684  1
  Si  Si13  1  0.841542  0.541993  0.045351  1
  Si  Si14  1  0.660279  0.041854  0.955218  1
  Si  Si15  1  0.159617  0.458122  0.545367  1
  Si  Si16  1  0.535088  0.372971  0.750855  1
  Si  Si17  1  0.034995  0.126653  0.749547  1
  Si  Si18  1  0.464981  0.631436  0.249014  1
  Si  Si19  1  0.965335  0.869956  0.250050  1
  Si  Si20  1  0.800807  0.630060  0.750113  1
  Si  Si21  1  0.300683  0.869553  0.750334  1
  Si  Si22  1  0.197142  0.368283  0.249298  1
  Si  Si23  1  0.698772  0.131216  0.249242  1
  Mo  Mo24  1  0.833700  0.331704  0.627154  1
  Mo  Mo25  1  0.333556  0.168203  0.873264  1
  Mo  Mo26  1  0.166023  0.667227  0.126475  1
  Mo  Mo27  1  0.666128  0.833369  0.372880  1
  Mo  Mo28  1  0.167881  0.665973  0.372456  1
  Mo  Mo29  1  0.668601  0.834501  0.126756  1
  Mo  Mo30  1  0.836130  0.329716  0.873796  1
  Mo  Mo31  1  0.335810  0.169428  0.626845  1
  Mo  Mo32  1  0.661409  0.008824  0.750234  1
  Mo  Mo33  1  0.161364  0.490734  0.750238  1
  Mo  Mo34  1  0.335990  0.995885  0.249865  1
  Mo  Mo35  1  0.836694  0.504755  0.249304  1
