# generated using pymatgen
data_Dy2Y2Al4Pd3Rh
_symmetry_space_group_name_H-M   'P 1'
_cell_length_a   4.43080700
_cell_length_b   6.84646622
_cell_length_c   7.84169352
_cell_angle_alpha   89.64238184
_cell_angle_beta   90.00000000
_cell_angle_gamma   90.00000000
_symmetry_Int_Tables_number   1
_chemical_formula_structural   Dy2Y2Al4Pd3Rh
_chemical_formula_sum   'Dy2 Y2 Al4 Pd3 Rh1'
_cell_volume   237.87604437
_cell_formula_units_Z   1
loop_
 _symmetry_equiv_pos_site_id
 _symmetry_equiv_pos_as_xyz
  1  'x, y, z'
loop_
 _atom_site_type_symbol
 _atom_site_label
 _atom_site_symmetry_multiplicity
 _atom_site_fract_x
 _atom_site_fract_y
 _atom_site_fract_z
 _atom_site_occupancy
  Dy  Dy0  1  0.750000  0.972541  0.679048  1
  Dy  Dy1  1  0.250000  0.037467  0.323479  1
  Y  Y2  1  0.250000  0.534120  0.179993  1
  Y  Y3  1  0.750000  0.463563  0.817841  1
  Al  Al4  1  0.250000  0.635974  0.561687  1
  Al  Al5  1  0.750000  0.357598  0.441179  1
  Al  Al6  1  0.750000  0.857658  0.059742  1
  Al  Al7  1  0.250000  0.144073  0.937570  1
  Pd  Pd8  1  0.250000  0.772711  0.878388  1
  Pd  Pd9  1  0.750000  0.228473  0.122665  1
  Pd  Pd10  1  0.750000  0.731435  0.380560  1
  Rh  Rh11  1  0.250000  0.264387  0.617848  1
