# generated using pymatgen
data_Pr2DyCd3Sn2Au
_symmetry_space_group_name_H-M   'P 1'
_cell_length_a   7.55780092
_cell_length_b   7.55779985
_cell_length_c   4.66901600
_cell_angle_alpha   90.00000000
_cell_angle_beta   90.00000000
_cell_angle_gamma   119.41667441
_symmetry_Int_Tables_number   1
_chemical_formula_structural   Pr2DyCd3Sn2Au
_chemical_formula_sum   'Pr2 Dy1 Cd3 Sn2 Au1'
_cell_volume   232.31096409
_cell_formula_units_Z   1
loop_
 _symmetry_equiv_pos_site_id
 _symmetry_equiv_pos_as_xyz
  1  'x, y, z'
loop_
 _atom_site_type_symbol
 _atom_site_label
 _atom_site_symmetry_multiplicity
 _atom_site_fract_x
 _atom_site_fract_y
 _atom_site_fract_z
 _atom_site_occupancy
  Pr  Pr0  1  0.591933  0.998958  0.000000  1
  Pr  Pr1  1  0.998958  0.591933  0.000000  1
  Dy  Dy2  1  0.402834  0.402834  0.000000  1
  Cd  Cd3  1  0.237879  0.999667  0.500000  1
  Cd  Cd4  1  0.999667  0.237879  0.500000  1
  Cd  Cd5  1  0.763311  0.763311  0.500000  1
  Sn  Sn6  1  0.335860  0.661193  0.500000  1
  Sn  Sn7  1  0.661193  0.335860  0.500000  1
  Au  Au8  1  0.008364  0.008364  0.000000  1
