# generated using pymatgen
data_Zr10ZnSnSb4
_symmetry_space_group_name_H-M   'P 1'
_cell_length_a   5.59644281
_cell_length_b   8.40848361
_cell_length_c   8.40848318
_cell_angle_alpha   96.35833383
_cell_angle_beta   109.43793775
_cell_angle_gamma   70.56205841
_symmetry_Int_Tables_number   1
_chemical_formula_structural   Zr10ZnSnSb4
_chemical_formula_sum   'Zr10 Zn1 Sn1 Sb4'
_cell_volume   351.86259658
_cell_formula_units_Z   1
loop_
 _symmetry_equiv_pos_site_id
 _symmetry_equiv_pos_as_xyz
  1  'x, y, z'
loop_
 _atom_site_type_symbol
 _atom_site_label
 _atom_site_symmetry_multiplicity
 _atom_site_fract_x
 _atom_site_fract_y
 _atom_site_fract_z
 _atom_site_occupancy
  Zr  Zr0  1  0.428169  0.859289  0.703937  1
  Zr  Zr1  1  0.583521  0.140711  0.296063  1
  Zr  Zr2  1  0.916479  0.296063  0.140711  1
  Zr  Zr3  1  0.071831  0.703937  0.859289  1
  Zr  Zr4  1  0.724231  0.703937  0.140711  1
  Zr  Zr5  1  0.287458  0.296063  0.859289  1
  Zr  Zr6  1  0.775769  0.140711  0.703937  1
  Zr  Zr7  1  0.212542  0.859289  0.296063  1
  Zr  Zr8  1  0.250000  0.500000  0.500000  1
  Zr  Zr9  1  0.750000  0.500000  0.500000  1
  Zn  Zn10  1  0.750000  0.000000  0.000000  1
  Sn  Sn11  1  0.250000  0.000000  0.000000  1
  Sb  Sb12  1  0.337049  0.500000  0.174099  1
  Sb  Sb13  1  0.662951  0.500000  0.825901  1
  Sb  Sb14  1  0.837049  0.825901  0.500000  1
  Sb  Sb15  1  0.162951  0.174099  0.500000  1
