# generated using pymatgen
data_AlV(Ni2Pt)2
_symmetry_space_group_name_H-M   'P 1'
_cell_length_a   3.70428500
_cell_length_b   3.70394000
_cell_length_c   7.35265100
_cell_angle_alpha   90.00000000
_cell_angle_beta   90.00000000
_cell_angle_gamma   90.00000000
_symmetry_Int_Tables_number   1
_chemical_formula_structural   AlV(Ni2Pt)2
_chemical_formula_sum   'Al1 V1 Ni4 Pt2'
_cell_volume   100.88167588
_cell_formula_units_Z   1
loop_
 _symmetry_equiv_pos_site_id
 _symmetry_equiv_pos_as_xyz
  1  'x, y, z'
loop_
 _atom_site_type_symbol
 _atom_site_label
 _atom_site_symmetry_multiplicity
 _atom_site_fract_x
 _atom_site_fract_y
 _atom_site_fract_z
 _atom_site_occupancy
  Al  Al0  1  0.000000  0.000000  0.000000  1
  V  V1  1  0.000000  0.000000  0.500000  1
  Ni  Ni2  1  0.500000  0.500000  0.000000  1
  Ni  Ni3  1  0.500000  0.500000  0.500000  1
  Ni  Ni4  1  0.000000  0.500000  0.259128  1
  Ni  Ni5  1  0.000000  0.500000  0.740872  1
  Pt  Pt6  1  0.500000  0.000000  0.251970  1
  Pt  Pt7  1  0.500000  0.000000  0.748030  1
