# generated using pymatgen
data_Yb6Tm3LuSi8
_symmetry_space_group_name_H-M   'P 1'
_cell_length_a   7.33844800
_cell_length_b   7.77250701
_cell_length_c   14.99639202
_cell_angle_alpha   90.00520403
_cell_angle_beta   90.00000000
_cell_angle_gamma   90.00000000
_symmetry_Int_Tables_number   1
_chemical_formula_structural   Yb6Tm3LuSi8
_chemical_formula_sum   'Yb12 Tm6 Lu2 Si16'
_cell_volume   855.36628137
_cell_formula_units_Z   2
loop_
 _symmetry_equiv_pos_site_id
 _symmetry_equiv_pos_as_xyz
  1  'x, y, z'
loop_
 _atom_site_type_symbol
 _atom_site_label
 _atom_site_symmetry_multiplicity
 _atom_site_fract_x
 _atom_site_fract_y
 _atom_site_fract_z
 _atom_site_occupancy
  Yb  Yb0  1  0.974059  0.816902  0.404036  1
  Yb  Yb1  1  0.474059  0.683098  0.095964  1
  Yb  Yb2  1  0.525917  0.316991  0.596043  1
  Yb  Yb3  1  0.025917  0.183009  0.903957  1
  Yb  Yb4  1  0.026049  0.183057  0.596039  1
  Yb  Yb5  1  0.526049  0.316943  0.903961  1
  Yb  Yb6  1  0.473934  0.683053  0.404022  1
  Yb  Yb7  1  0.973934  0.816947  0.095978  1
  Yb  Yb8  1  0.351713  0.019922  0.749983  1
  Yb  Yb9  1  0.851713  0.480078  0.750017  1
  Yb  Yb10  1  0.148354  0.520107  0.250017  1
  Yb  Yb11  1  0.648354  0.979893  0.249983  1
  Tm  Tm12  1  0.314962  0.176448  0.121006  1
  Tm  Tm13  1  0.814962  0.323552  0.378994  1
  Tm  Tm14  1  0.185048  0.676638  0.878846  1
  Tm  Tm15  1  0.685048  0.823362  0.621154  1
  Tm  Tm16  1  0.314898  0.176473  0.378964  1
  Tm  Tm17  1  0.814898  0.323527  0.121036  1
  Lu  Lu18  1  0.185102  0.676346  0.621142  1
  Lu  Lu19  1  0.685102  0.823654  0.878858  1
  Si  Si20  1  0.856668  0.534191  0.538415  1
  Si  Si21  1  0.356668  0.965809  0.961585  1
  Si  Si22  1  0.643622  0.033927  0.461739  1
  Si  Si23  1  0.143622  0.466073  0.038261  1
  Si  Si24  1  0.143883  0.466222  0.461911  1
  Si  Si25  1  0.643883  0.033778  0.038089  1
  Si  Si26  1  0.355878  0.965703  0.538427  1
  Si  Si27  1  0.855878  0.534297  0.961573  1
  Si  Si28  1  0.977132  0.878297  0.750081  1
  Si  Si29  1  0.477132  0.621703  0.749919  1
  Si  Si30  1  0.522907  0.378703  0.249997  1
  Si  Si31  1  0.022907  0.121297  0.250003  1
  Si  Si32  1  0.248672  0.397185  0.749863  1
  Si  Si33  1  0.748672  0.102815  0.750137  1
  Si  Si34  1  0.251200  0.896918  0.250001  1
  Si  Si35  1  0.751200  0.603082  0.249999  1
