# generated using pymatgen
data_H2SN10
_symmetry_space_group_name_H-M   'P 1'
_cell_length_a   5.04754599
_cell_length_b   5.94230923
_cell_length_c   12.30684215
_cell_angle_alpha   95.78248302
_cell_angle_beta   85.62160456
_cell_angle_gamma   86.10029757
_symmetry_Int_Tables_number   1
_chemical_formula_structural   H2SN10
_chemical_formula_sum   'H2 S1 N10'
_cell_volume   365.11451326
_cell_formula_units_Z   1
loop_
 _symmetry_equiv_pos_site_id
 _symmetry_equiv_pos_as_xyz
  1  'x, y, z'
loop_
 _atom_site_type_symbol
 _atom_site_label
 _atom_site_symmetry_multiplicity
 _atom_site_fract_x
 _atom_site_fract_y
 _atom_site_fract_z
 _atom_site_occupancy
  H  H0  1  0.369720  0.192464  0.846490  1
  H  H1  1  0.084010  0.040805  0.779844  1
  S  S2  1  0.248385  0.000012  0.858227  1
  N  N3  1  0.236790  0.842539  0.209533  1
  N  N4  1  0.307768  0.119266  0.538224  1
  N  N5  1  0.826952  0.360589  0.230331  1
  N  N6  1  0.617018  0.333081  0.257056  1
  N  N7  1  0.800537  0.819734  0.640684  1
  N  N8  1  0.824593  0.634007  0.614850  1
  N  N9  1  0.749638  0.515230  0.948222  1
  N  N10  1  0.785652  0.666498  0.004704  1
  N  N11  1  0.142130  0.849023  0.294605  1
  N  N12  1  0.385992  0.282377  0.518491  1
