# generated using pymatgen
data_Tb2Ta3P7(Ir2Rh)3
_symmetry_space_group_name_H-M   'P 1'
_cell_length_a   3.97640300
_cell_length_b   9.64286867
_cell_length_c   9.64300900
_cell_angle_alpha   119.99967602
_cell_angle_beta   89.99998784
_cell_angle_gamma   89.99999419
_symmetry_Int_Tables_number   1
_chemical_formula_structural   Tb2Ta3P7(Ir2Rh)3
_chemical_formula_sum   'Tb2 Ta3 P7 Ir6 Rh3'
_cell_volume   320.21470128
_cell_formula_units_Z   1
loop_
 _symmetry_equiv_pos_site_id
 _symmetry_equiv_pos_as_xyz
  1  'x, y, z'
loop_
 _atom_site_type_symbol
 _atom_site_label
 _atom_site_symmetry_multiplicity
 _atom_site_fract_x
 _atom_site_fract_y
 _atom_site_fract_z
 _atom_site_occupancy
  Tb  Tb0  1  0.261359  0.666673  0.333344  1
  Tb  Tb1  1  0.762155  0.333343  0.666667  1
  Ta  Ta2  1  0.761980  0.093879  0.871200  1
  Ta  Ta3  1  0.761972  0.128802  0.222681  1
  Ta  Ta4  1  0.761983  0.777306  0.906108  1
  P  P5  1  0.262119  0.999991  0.000002  1
  P  P6  1  0.761714  0.876895  0.588926  1
  P  P7  1  0.761690  0.411074  0.287948  1
  P  P8  1  0.761714  0.712045  0.123130  1
  P  P9  1  0.261993  0.118210  0.417013  1
  P  P10  1  0.261998  0.582988  0.701198  1
  P  P11  1  0.261985  0.298801  0.881795  1
  Ir  Ir12  1  0.261875  0.887860  0.161193  1
  Ir  Ir13  1  0.261874  0.838808  0.726678  1
  Ir  Ir14  1  0.261861  0.273316  0.112135  1
  Ir  Ir15  1  0.262017  0.366665  0.439861  1
  Ir  Ir16  1  0.262033  0.560138  0.926801  1
  Ir  Ir17  1  0.262040  0.073198  0.633334  1
  Rh  Rh18  1  0.761879  0.611600  0.555739  1
  Rh  Rh19  1  0.761871  0.444242  0.055833  1
  Rh  Rh20  1  0.761888  0.944171  0.388413  1
