# generated using pymatgen
data_YbDyU2F12
_symmetry_space_group_name_H-M   'P 1'
_cell_length_a   4.53871921
_cell_length_b   6.54128613
_cell_length_c   7.07883200
_cell_angle_alpha   90.00000000
_cell_angle_beta   90.00000000
_cell_angle_gamma   89.20746447
_symmetry_Int_Tables_number   1
_chemical_formula_structural   YbDyU2F12
_chemical_formula_sum   'Yb1 Dy1 U2 F12'
_cell_volume   210.14376992
_cell_formula_units_Z   1
loop_
 _symmetry_equiv_pos_site_id
 _symmetry_equiv_pos_as_xyz
  1  'x, y, z'
loop_
 _atom_site_type_symbol
 _atom_site_label
 _atom_site_symmetry_multiplicity
 _atom_site_fract_x
 _atom_site_fract_y
 _atom_site_fract_z
 _atom_site_occupancy
  Yb  Yb0  1  0.048844  0.369710  0.250000  1
  Dy  Dy1  1  0.946074  0.626862  0.750000  1
  U  U2  1  0.432108  0.861621  0.250000  1
  U  U3  1  0.557152  0.138225  0.750000  1
  F  F4  1  0.091955  0.968425  0.750000  1
  F  F5  1  0.598718  0.533762  0.250000  1
  F  F6  1  0.409146  0.486812  0.750000  1
  F  F7  1  0.905015  0.016127  0.250000  1
  F  F8  1  0.372251  0.166647  0.063577  1
  F  F9  1  0.880104  0.341182  0.932030  1
  F  F10  1  0.123114  0.662053  0.442653  1
  F  F11  1  0.630025  0.829348  0.567443  1
  F  F12  1  0.630025  0.829348  0.932557  1
  F  F13  1  0.123114  0.662053  0.057347  1
  F  F14  1  0.880104  0.341182  0.567970  1
  F  F15  1  0.372251  0.166647  0.436423  1
