# generated using pymatgen
data_NaSc(Cu2P)4
_symmetry_space_group_name_H-M   'P 1'
_cell_length_a   7.20878339
_cell_length_b   7.20878329
_cell_length_c   3.73667700
_cell_angle_alpha   90.00000000
_cell_angle_beta   90.00000000
_cell_angle_gamma   88.50418184
_symmetry_Int_Tables_number   1
_chemical_formula_structural   NaSc(Cu2P)4
_chemical_formula_sum   'Na1 Sc1 Cu8 P4'
_cell_volume   194.11606831
_cell_formula_units_Z   1
loop_
 _symmetry_equiv_pos_site_id
 _symmetry_equiv_pos_as_xyz
  1  'x, y, z'
loop_
 _atom_site_type_symbol
 _atom_site_label
 _atom_site_symmetry_multiplicity
 _atom_site_fract_x
 _atom_site_fract_y
 _atom_site_fract_z
 _atom_site_occupancy
  Na  Na0  1  0.500000  0.500000  0.500000  1
  Sc  Sc1  1  0.000000  0.000000  0.000000  1
  Cu  Cu2  1  0.666381  0.916289  0.500000  1
  Cu  Cu3  1  0.162908  0.586078  0.000000  1
  Cu  Cu4  1  0.413922  0.837092  0.000000  1
  Cu  Cu5  1  0.916289  0.666381  0.500000  1
  Cu  Cu6  1  0.837092  0.413922  0.000000  1
  Cu  Cu7  1  0.586078  0.162908  0.000000  1
  Cu  Cu8  1  0.083711  0.333619  0.500000  1
  Cu  Cu9  1  0.333619  0.083711  0.500000  1
  P  P10  1  0.274638  0.274638  0.000000  1
  P  P11  1  0.725362  0.725362  0.000000  1
  P  P12  1  0.791488  0.208512  0.500000  1
  P  P13  1  0.208512  0.791488  0.500000  1
