# generated using pymatgen
data_Ho3Al8(SiOs)4
_symmetry_space_group_name_H-M   'P 1'
_cell_length_a   8.69701599
_cell_length_b   8.69701509
_cell_length_c   9.41897800
_cell_angle_alpha   90.00000000
_cell_angle_beta   90.00000000
_cell_angle_gamma   120.09508978
_symmetry_Int_Tables_number   1
_chemical_formula_structural   Ho3Al8(SiOs)4
_chemical_formula_sum   'Ho6 Al16 Si8 Os8'
_cell_volume   616.39339022
_cell_formula_units_Z   2
loop_
 _symmetry_equiv_pos_site_id
 _symmetry_equiv_pos_as_xyz
  1  'x, y, z'
loop_
 _atom_site_type_symbol
 _atom_site_label
 _atom_site_symmetry_multiplicity
 _atom_site_fract_x
 _atom_site_fract_y
 _atom_site_fract_z
 _atom_site_occupancy
  Ho  Ho0  1  0.192289  0.388065  0.250000  1
  Ho  Ho1  1  0.807711  0.611935  0.750000  1
  Ho  Ho2  1  0.611935  0.807711  0.250000  1
  Ho  Ho3  1  0.388065  0.192289  0.750000  1
  Ho  Ho4  1  0.194794  0.805206  0.250000  1
  Ho  Ho5  1  0.805206  0.194794  0.750000  1
  Al  Al6  1  0.165411  0.328970  0.578456  1
  Al  Al7  1  0.834589  0.671030  0.421544  1
  Al  Al8  1  0.671030  0.834589  0.578456  1
  Al  Al9  1  0.834589  0.671030  0.078456  1
  Al  Al10  1  0.328970  0.165411  0.421544  1
  Al  Al11  1  0.165411  0.328970  0.921544  1
  Al  Al12  1  0.164457  0.835543  0.578442  1
  Al  Al13  1  0.328970  0.165411  0.078456  1
  Al  Al14  1  0.835543  0.164457  0.421558  1
  Al  Al15  1  0.671030  0.834589  0.921544  1
  Al  Al16  1  0.835543  0.164457  0.078442  1
  Al  Al17  1  0.164457  0.835543  0.921558  1
  Al  Al18  1  0.564834  0.435166  0.250000  1
  Al  Al19  1  0.435166  0.564834  0.750000  1
  Al  Al20  1  0.999971  0.000029  0.250000  1
  Al  Al21  1  0.000029  0.999971  0.750000  1
  Si  Si22  1  0.334925  0.665075  0.040016  1
  Si  Si23  1  0.665075  0.334925  0.959984  1
  Si  Si24  1  0.665075  0.334925  0.540016  1
  Si  Si25  1  0.334925  0.665075  0.459984  1
  Si  Si26  1  0.563841  0.124046  0.250000  1
  Si  Si27  1  0.436159  0.875954  0.750000  1
  Si  Si28  1  0.875954  0.436159  0.250000  1
  Si  Si29  1  0.124046  0.563841  0.750000  1
  Os  Os30  1  0.500000  0.000000  0.000000  1
  Os  Os31  1  0.000000  0.500000  0.000000  1
  Os  Os32  1  0.500000  0.000000  0.500000  1
  Os  Os33  1  0.500000  0.500000  0.000000  1
  Os  Os34  1  0.000000  0.500000  0.500000  1
  Os  Os35  1  0.500000  0.500000  0.500000  1
  Os  Os36  1  0.000000  0.000000  0.000000  1
  Os  Os37  1  0.000000  0.000000  0.500000  1
