# generated using pymatgen
data_Y2Pa(AlNi)3
_symmetry_space_group_name_H-M   'P 1'
_cell_length_a   7.03401189
_cell_length_b   7.09851484
_cell_length_c   3.78064800
_cell_angle_alpha   90.00000000
_cell_angle_beta   90.00000000
_cell_angle_gamma   120.30380030
_symmetry_Int_Tables_number   1
_chemical_formula_structural   Y2Pa(AlNi)3
_chemical_formula_sum   'Y2 Pa1 Al3 Ni3'
_cell_volume   162.97830947
_cell_formula_units_Z   1
loop_
 _symmetry_equiv_pos_site_id
 _symmetry_equiv_pos_as_xyz
  1  'x, y, z'
loop_
 _atom_site_type_symbol
 _atom_site_label
 _atom_site_symmetry_multiplicity
 _atom_site_fract_x
 _atom_site_fract_y
 _atom_site_fract_z
 _atom_site_occupancy
  Y  Y0  1  0.582831  0.000977  0.000000  1
  Y  Y1  1  0.417169  0.418146  0.000000  1
  Pa  Pa2  1  0.000000  0.576366  0.000000  1
  Al  Al3  1  0.238676  0.001990  0.500000  1
  Al  Al4  1  0.761324  0.763314  0.500000  1
  Al  Al5  1  0.000000  0.228527  0.500000  1
  Ni  Ni6  1  0.696083  0.359691  0.500000  1
  Ni  Ni7  1  0.000000  0.987380  0.000000  1
  Ni  Ni8  1  0.303917  0.663610  0.500000  1
