# generated using pymatgen
data_Tb2Lu3Bi3O14
_symmetry_space_group_name_H-M   'P 1'
_cell_length_a   6.53305722
_cell_length_b   6.55120899
_cell_length_c   7.66240400
_cell_angle_alpha   106.81606463
_cell_angle_beta   89.70488361
_cell_angle_gamma   99.14245215
_symmetry_Int_Tables_number   1
_chemical_formula_structural   Tb2Lu3Bi3O14
_chemical_formula_sum   'Tb2 Lu3 Bi3 O14'
_cell_volume   309.64581431
_cell_formula_units_Z   1
loop_
 _symmetry_equiv_pos_site_id
 _symmetry_equiv_pos_as_xyz
  1  'x, y, z'
loop_
 _atom_site_type_symbol
 _atom_site_label
 _atom_site_symmetry_multiplicity
 _atom_site_fract_x
 _atom_site_fract_y
 _atom_site_fract_z
 _atom_site_occupancy
  Tb  Tb0  1  0.734565  0.458602  0.111480  1
  Tb  Tb1  1  0.739710  0.478794  0.620247  1
  Lu  Lu2  1  0.463793  0.007766  0.253067  1
  Lu  Lu3  1  0.534603  0.996207  0.750389  1
  Lu  Lu4  1  0.273903  0.537104  0.883416  1
  Bi  Bi5  1  0.995796  0.002020  0.502047  1
  Bi  Bi6  1  0.001903  0.996595  0.996822  1
  Bi  Bi7  1  0.276785  0.531516  0.387129  1
  O  O8  1  0.451189  0.658646  0.162087  1
  O  O9  1  0.544509  0.344790  0.833641  1
  O  O10  1  0.306717  0.920435  0.950135  1
  O  O11  1  0.698063  0.074155  0.052445  1
  O  O12  1  0.302602  0.934741  0.518809  1
  O  O13  1  0.695724  0.080104  0.488559  1
  O  O14  1  0.545954  0.357975  0.342462  1
  O  O15  1  0.458567  0.643574  0.663815  1
  O  O16  1  0.931944  0.657796  0.946530  1
  O  O17  1  0.074738  0.329206  0.026786  1
  O  O18  1  0.069385  0.345812  0.632974  1
  O  O19  1  0.908107  0.661945  0.380986  1
  O  O20  1  0.862128  0.902268  0.726037  1
  O  O21  1  0.129316  0.079948  0.270138  1
