# generated using pymatgen
data_Ho2CoSi5Rh2
_symmetry_space_group_name_H-M   'P 1'
_cell_length_a   8.02994006
_cell_length_b   8.02994077
_cell_length_c   8.02994012
_cell_angle_alpha   138.58542147
_cell_angle_beta   105.01586073
_cell_angle_gamma   89.48265999
_symmetry_Int_Tables_number   1
_chemical_formula_structural   Ho2CoSi5Rh2
_chemical_formula_sum   'Ho4 Co2 Si10 Rh4'
_cell_volume   316.59735745
_cell_formula_units_Z   2
loop_
 _symmetry_equiv_pos_site_id
 _symmetry_equiv_pos_as_xyz
  1  'x, y, z'
loop_
 _atom_site_type_symbol
 _atom_site_label
 _atom_site_symmetry_multiplicity
 _atom_site_fract_x
 _atom_site_fract_y
 _atom_site_fract_z
 _atom_site_occupancy
  Ho  Ho0  1  0.599088  0.867181  0.731908  1
  Ho  Ho1  1  0.136057  0.367593  0.768462  1
  Ho  Ho2  1  0.864726  0.632819  0.231908  1
  Ho  Ho3  1  0.400869  0.132407  0.268462  1
  Co  Co4  1  0.471552  0.362395  0.109158  1
  Co  Co5  1  0.746764  0.137605  0.609158  1
  Si  Si6  1  0.776313  0.035583  0.265732  1
  Si  Si7  1  0.230149  0.989419  0.765732  1
  Si  Si8  1  0.776313  0.510581  0.740730  1
  Si  Si9  1  0.941037  0.107878  0.833160  1
  Si  Si10  1  0.048468  0.893662  0.154806  1
  Si  Si11  1  0.509882  0.250000  0.759882  1
  Si  Si12  1  0.509882  0.750000  0.259882  1
  Si  Si13  1  0.725282  0.392122  0.333160  1
  Si  Si14  1  0.261144  0.606338  0.654806  1
  Si  Si15  1  0.230149  0.464417  0.240730  1
  Rh  Rh16  1  0.995092  0.250000  0.245092  1
  Rh  Rh17  1  0.995092  0.750000  0.745092  1
  Rh  Rh18  1  0.252462  0.861393  0.391070  1
  Rh  Rh19  1  0.529678  0.638607  0.891070  1
