# generated using pymatgen
data_DyHoAg2(WO4)4
_symmetry_space_group_name_H-M   'P 1'
_cell_length_a   7.41510218
_cell_length_b   7.41510308
_cell_length_c   7.29478501
_cell_angle_alpha   65.77055691
_cell_angle_beta   65.77055009
_cell_angle_gamma   94.61441840
_symmetry_Int_Tables_number   1
_chemical_formula_structural   DyHoAg2(WO4)4
_chemical_formula_sum   'Dy1 Ho1 Ag2 W4 O16'
_cell_volume   318.25439297
_cell_formula_units_Z   1
loop_
 _symmetry_equiv_pos_site_id
 _symmetry_equiv_pos_as_xyz
  1  'x, y, z'
loop_
 _atom_site_type_symbol
 _atom_site_label
 _atom_site_symmetry_multiplicity
 _atom_site_fract_x
 _atom_site_fract_y
 _atom_site_fract_z
 _atom_site_occupancy
  Dy  Dy0  1  0.699936  0.300064  0.000000  1
  Ho  Ho1  1  0.299787  0.700213  0.000000  1
  Ag  Ag2  1  0.685243  0.685274  0.476823  1
  Ag  Ag3  1  0.314726  0.314757  0.523177  1
  W  W4  1  0.162719  0.837281  0.500000  1
  W  W5  1  0.837611  0.162389  0.500000  1
  W  W6  1  0.785401  0.785230  0.973751  1
  W  W7  1  0.214770  0.214599  0.026249  1
  O  O8  1  0.895847  0.645616  0.760393  1
  O  O9  1  0.644944  0.895517  0.760887  1
  O  O10  1  0.104483  0.355056  0.239113  1
  O  O11  1  0.354384  0.104153  0.239607  1
  O  O12  1  0.784508  0.310567  0.650870  1
  O  O13  1  0.310317  0.784319  0.651591  1
  O  O14  1  0.215681  0.689683  0.348409  1
  O  O15  1  0.689433  0.215492  0.349130  1
  O  O16  1  0.448157  0.448391  0.857652  1
  O  O17  1  0.551609  0.551843  0.142348  1
  O  O18  1  0.043508  0.301903  0.908739  1
  O  O19  1  0.301815  0.042946  0.909103  1
  O  O20  1  0.957054  0.698185  0.090897  1
  O  O21  1  0.698097  0.956492  0.091261  1
  O  O22  1  0.020488  0.020520  0.660119  1
  O  O23  1  0.979480  0.979512  0.339881  1
