# generated using pymatgen
data_Tb7Y3Ga3Bi2Pt
_symmetry_space_group_name_H-M   'P 1'
_cell_length_a   8.65603726
_cell_length_b   8.65518679
_cell_length_c   8.80274314
_cell_angle_alpha   124.20487073
_cell_angle_beta   124.18324939
_cell_angle_gamma   81.75884523
_symmetry_Int_Tables_number   1
_chemical_formula_structural   Tb7Y3Ga3Bi2Pt
_chemical_formula_sum   'Tb7 Y3 Ga3 Bi2 Pt1'
_cell_volume   436.62378426
_cell_formula_units_Z   1
loop_
 _symmetry_equiv_pos_site_id
 _symmetry_equiv_pos_as_xyz
  1  'x, y, z'
loop_
 _atom_site_type_symbol
 _atom_site_label
 _atom_site_symmetry_multiplicity
 _atom_site_fract_x
 _atom_site_fract_y
 _atom_site_fract_z
 _atom_site_occupancy
  Tb  Tb0  1  0.203313  0.715465  0.200822  1
  Tb  Tb1  1  0.485367  0.997510  0.200822  1
  Tb  Tb2  1  0.300895  0.466780  0.500058  1
  Tb  Tb3  1  0.033058  0.199244  0.500024  1
  Tb  Tb4  1  0.502498  0.014635  0.799168  1
  Tb  Tb5  1  0.705360  0.515517  0.500032  1
  Tb  Tb6  1  0.984343  0.794816  0.499954  1
  Y  Y7  1  0.995092  0.997390  0.992450  1
  Y  Y8  1  0.502583  0.504870  0.007431  1
  Y  Y9  1  0.785099  0.296847  0.799642  1
  Ga  Ga10  1  0.146240  0.645319  0.791543  1
  Ga  Ga11  1  0.854470  0.353613  0.208286  1
  Ga  Ga12  1  0.638098  0.862195  0.500207  1
  Bi  Bi13  1  0.245812  0.254110  0.999938  1
  Bi  Bi14  1  0.746003  0.753819  0.999903  1
  Pt  Pt15  1  0.371769  0.127872  0.499721  1
