# generated using pymatgen
data_Er5Mo3(As3Rh4)4
_symmetry_space_group_name_H-M   'P 1'
_cell_length_a   13.00069700
_cell_length_b   13.00069723
_cell_length_c   4.01870600
_cell_angle_alpha   90.00000000
_cell_angle_beta   90.00000000
_cell_angle_gamma   119.99999178
_symmetry_Int_Tables_number   1
_chemical_formula_structural   Er5Mo3(As3Rh4)4
_chemical_formula_sum   'Er5 Mo3 As12 Rh16'
_cell_volume   588.23408200
_cell_formula_units_Z   1
loop_
 _symmetry_equiv_pos_site_id
 _symmetry_equiv_pos_as_xyz
  1  'x, y, z'
loop_
 _atom_site_type_symbol
 _atom_site_label
 _atom_site_symmetry_multiplicity
 _atom_site_fract_x
 _atom_site_fract_y
 _atom_site_fract_z
 _atom_site_occupancy
  Er  Er0  1  0.666667  0.333333  0.000000  1
  Er  Er1  1  0.333333  0.666667  0.000000  1
  Er  Er2  1  0.188279  0.188279  0.500000  1
  Er  Er3  1  0.811721  0.000000  0.500000  1
  Er  Er4  1  0.000000  0.811721  0.500000  1
  Mo  Mo5  1  0.550719  0.550719  0.000000  1
  Mo  Mo6  1  0.449281  0.000000  0.000000  1
  Mo  Mo7  1  0.000000  0.449281  0.000000  1
  As  As8  1  0.361121  0.361121  0.000000  1
  As  As9  1  0.638879  0.000000  0.000000  1
  As  As10  1  0.000000  0.638879  0.000000  1
  As  As11  1  0.834446  0.319262  0.500000  1
  As  As12  1  0.680738  0.515183  0.500000  1
  As  As13  1  0.484817  0.165554  0.500000  1
  As  As14  1  0.319262  0.834446  0.500000  1
  As  As15  1  0.515183  0.680738  0.500000  1
  As  As16  1  0.165554  0.484817  0.500000  1
  As  As17  1  0.824073  0.824073  0.000000  1
  As  As18  1  0.175927  0.000000  0.000000  1
  As  As19  1  0.000000  0.175927  0.000000  1
  Rh  Rh20  1  0.822581  0.198029  0.000000  1
  Rh  Rh21  1  0.801971  0.624554  0.000000  1
  Rh  Rh22  1  0.375446  0.177419  0.000000  1
  Rh  Rh23  1  0.198029  0.822581  0.000000  1
  Rh  Rh24  1  0.624554  0.801971  0.000000  1
  Rh  Rh25  1  0.177419  0.375446  0.000000  1
  Rh  Rh26  1  0.645750  0.129273  0.500000  1
  Rh  Rh27  1  0.870727  0.516477  0.500000  1
  Rh  Rh28  1  0.483523  0.354250  0.500000  1
  Rh  Rh29  1  0.129273  0.645750  0.500000  1
  Rh  Rh30  1  0.516477  0.870727  0.500000  1
  Rh  Rh31  1  0.354250  0.483523  0.500000  1
  Rh  Rh32  1  0.718157  0.718157  0.500000  1
  Rh  Rh33  1  0.281843  0.000000  0.500000  1
  Rh  Rh34  1  0.000000  0.281843  0.500000  1
  Rh  Rh35  1  0.000000  0.000000  0.000000  1
