# generated using pymatgen
data_Cs2NaNdBr6
_symmetry_space_group_name_H-M   'P 1'
_cell_length_a   8.07076539
_cell_length_b   8.46516900
_cell_length_c   14.12689684
_cell_angle_alpha   90.00000000
_cell_angle_beta   124.47580091
_cell_angle_gamma   90.00000000
_symmetry_Int_Tables_number   1
_chemical_formula_structural   Cs2NaNdBr6
_chemical_formula_sum   'Cs4 Na2 Nd2 Br12'
_cell_volume   795.64044741
_cell_formula_units_Z   2
loop_
 _symmetry_equiv_pos_site_id
 _symmetry_equiv_pos_as_xyz
  1  'x, y, z'
loop_
 _atom_site_type_symbol
 _atom_site_label
 _atom_site_symmetry_multiplicity
 _atom_site_fract_x
 _atom_site_fract_y
 _atom_site_fract_z
 _atom_site_occupancy
  Cs  Cs0  1  0.271651  0.438194  0.249058  1
  Cs  Cs1  1  0.728349  0.938195  0.250943  1
  Cs  Cs2  1  0.271650  0.061806  0.749057  1
  Cs  Cs3  1  0.728349  0.561805  0.750943  1
  Na  Na4  1  0.500000  0.500001  0.000000  1
  Na  Na5  1  0.499999  0.000000  0.500000  1
  Nd  Nd6  1  0.000000  0.000000  0.000000  1
  Nd  Nd7  1  0.000000  0.500001  0.500000  1
  Br  Br8  1  0.230498  0.717015  0.030759  1
  Br  Br9  1  0.321337  0.198795  0.032046  1
  Br  Br10  1  0.185070  0.006384  0.245741  1
  Br  Br11  1  0.814930  0.506384  0.254259  1
  Br  Br12  1  0.678665  0.698796  0.467954  1
  Br  Br13  1  0.769501  0.217014  0.469241  1
  Br  Br14  1  0.230500  0.782986  0.530759  1
  Br  Br15  1  0.321336  0.301205  0.532046  1
  Br  Br16  1  0.185070  0.493617  0.745741  1
  Br  Br17  1  0.814931  0.993616  0.754259  1
  Br  Br18  1  0.678664  0.801205  0.967954  1
  Br  Br19  1  0.769501  0.282985  0.969241  1
