# generated using pymatgen
data_ZrPa3(AlCo2)2
_symmetry_space_group_name_H-M   'P 1'
_cell_length_a   7.10715526
_cell_length_b   7.10715598
_cell_length_c   3.46783700
_cell_angle_alpha   90.00000000
_cell_angle_beta   90.00000000
_cell_angle_gamma   87.71237121
_symmetry_Int_Tables_number   1
_chemical_formula_structural   ZrPa3(AlCo2)2
_chemical_formula_sum   'Zr1 Pa3 Al2 Co4'
_cell_volume   175.02660593
_cell_formula_units_Z   1
loop_
 _symmetry_equiv_pos_site_id
 _symmetry_equiv_pos_as_xyz
  1  'x, y, z'
loop_
 _atom_site_type_symbol
 _atom_site_label
 _atom_site_symmetry_multiplicity
 _atom_site_fract_x
 _atom_site_fract_y
 _atom_site_fract_z
 _atom_site_occupancy
  Zr  Zr0  1  0.321227  0.821227  0.500000  1
  Pa  Pa1  1  0.672574  0.172574  0.500000  1
  Pa  Pa2  1  0.177936  0.326285  0.500000  1
  Pa  Pa3  1  0.826285  0.677936  0.500000  1
  Al  Al4  1  0.012393  0.995769  0.000000  1
  Al  Al5  1  0.495769  0.512393  0.000000  1
  Co  Co6  1  0.859682  0.359682  0.000000  1
  Co  Co7  1  0.370295  0.143134  0.000000  1
  Co  Co8  1  0.643134  0.870295  0.000000  1
  Co  Co9  1  0.120704  0.620704  0.000000  1
