# generated using pymatgen
data_LiTbNdSi3Ag
_symmetry_space_group_name_H-M   'P 1'
_cell_length_a   9.36823711
_cell_length_b   9.36823676
_cell_length_c   6.94579100
_cell_angle_alpha   90.00000000
_cell_angle_beta   90.00000000
_cell_angle_gamma   153.34094840
_symmetry_Int_Tables_number   1
_chemical_formula_structural   LiTbNdSi3Ag
_chemical_formula_sum   'Li2 Tb2 Nd2 Si6 Ag2'
_cell_volume   273.51084231
_cell_formula_units_Z   2
loop_
 _symmetry_equiv_pos_site_id
 _symmetry_equiv_pos_as_xyz
  1  'x, y, z'
loop_
 _atom_site_type_symbol
 _atom_site_label
 _atom_site_symmetry_multiplicity
 _atom_site_fract_x
 _atom_site_fract_y
 _atom_site_fract_z
 _atom_site_occupancy
  Li  Li0  1  0.808859  0.191141  0.939482  1
  Li  Li1  1  0.808859  0.191141  0.560518  1
  Tb  Tb2  1  0.346859  0.653141  0.250000  1
  Tb  Tb3  1  0.652798  0.347202  0.750000  1
  Nd  Nd4  1  0.554460  0.445540  0.250000  1
  Nd  Nd5  1  0.447188  0.552812  0.750000  1
  Si  Si6  1  0.725126  0.274874  0.250000  1
  Si  Si7  1  0.278469  0.721531  0.750000  1
  Si  Si8  1  0.057471  0.942529  0.923043  1
  Si  Si9  1  0.940323  0.059677  0.076511  1
  Si  Si10  1  0.940323  0.059677  0.423489  1
  Si  Si11  1  0.057471  0.942529  0.576957  1
  Ag  Ag12  1  0.190897  0.809103  0.048900  1
  Ag  Ag13  1  0.190897  0.809103  0.451100  1
