# generated using pymatgen
data_Er2CO5
_symmetry_space_group_name_H-M   'P 1'
_cell_length_a   3.88610552
_cell_length_b   3.88610577
_cell_length_c   15.05788400
_cell_angle_alpha   90.00000000
_cell_angle_beta   90.00000000
_cell_angle_gamma   121.84874922
_symmetry_Int_Tables_number   1
_chemical_formula_structural   Er2CO5
_chemical_formula_sum   'Er4 C2 O10'
_cell_volume   193.16477100
_cell_formula_units_Z   2
loop_
 _symmetry_equiv_pos_site_id
 _symmetry_equiv_pos_as_xyz
  1  'x, y, z'
loop_
 _atom_site_type_symbol
 _atom_site_label
 _atom_site_symmetry_multiplicity
 _atom_site_fract_x
 _atom_site_fract_y
 _atom_site_fract_z
 _atom_site_occupancy
  Er  Er0  1  0.336911  0.663089  0.907297  1
  Er  Er1  1  0.663089  0.336911  0.092703  1
  Er  Er2  1  0.663089  0.336911  0.407297  1
  Er  Er3  1  0.336911  0.663089  0.592703  1
  C  C4  1  0.081254  0.918746  0.750000  1
  C  C5  1  0.918746  0.081254  0.250000  1
  O  O6  1  0.992529  0.007471  0.826593  1
  O  O7  1  0.007471  0.992529  0.173407  1
  O  O8  1  0.007471  0.992529  0.326593  1
  O  O9  1  0.992529  0.007471  0.673407  1
  O  O10  1  0.333584  0.666416  0.442656  1
  O  O11  1  0.666416  0.333584  0.557344  1
  O  O12  1  0.666416  0.333584  0.942656  1
  O  O13  1  0.333584  0.666416  0.057344  1
  O  O14  1  0.269684  0.730316  0.750000  1
  O  O15  1  0.730316  0.269684  0.250000  1
