# generated using pymatgen
data_Tb5Y8Er7(CoSb2)4
_symmetry_space_group_name_H-M   'P 1'
_cell_length_a   7.90456319
_cell_length_b   8.74916111
_cell_length_c   12.20249223
_cell_angle_alpha   90.00987589
_cell_angle_beta   89.98017877
_cell_angle_gamma   90.01529077
_symmetry_Int_Tables_number   1
_chemical_formula_structural   Tb5Y8Er7(CoSb2)4
_chemical_formula_sum   'Tb5 Y8 Er7 Co4 Sb8'
_cell_volume   843.90348666
_cell_formula_units_Z   1
loop_
 _symmetry_equiv_pos_site_id
 _symmetry_equiv_pos_as_xyz
  1  'x, y, z'
loop_
 _atom_site_type_symbol
 _atom_site_label
 _atom_site_symmetry_multiplicity
 _atom_site_fract_x
 _atom_site_fract_y
 _atom_site_fract_z
 _atom_site_occupancy
  Tb  Tb0  1  0.623645  0.750449  0.306048  1
  Tb  Tb1  1  0.122925  0.250145  0.193264  1
  Tb  Tb2  1  0.377586  0.249375  0.693920  1
  Tb  Tb3  1  0.877031  0.750015  0.806618  1
  Tb  Tb4  1  0.320948  0.465845  0.435151  1
  Y  Y5  1  0.154165  0.750071  0.203408  1
  Y  Y6  1  0.654679  0.249688  0.296175  1
  Y  Y7  1  0.845791  0.249981  0.796415  1
  Y  Y8  1  0.345614  0.750201  0.703912  1
  Y  Y9  1  0.455475  0.750093  0.998073  1
  Y  Y10  1  0.954654  0.249639  0.501874  1
  Y  Y11  1  0.544574  0.249898  0.001802  1
  Y  Y12  1  0.043318  0.750536  0.498260  1
  Er  Er13  1  0.823542  0.965486  0.064889  1
  Er  Er14  1  0.323521  0.034367  0.435204  1
  Er  Er15  1  0.176566  0.465355  0.935106  1
  Er  Er16  1  0.676872  0.534836  0.565154  1
  Er  Er17  1  0.176534  0.034607  0.935026  1
  Er  Er18  1  0.676541  0.964937  0.565127  1
  Er  Er19  1  0.823452  0.534471  0.064856  1
  Co  Co20  1  0.438587  0.750480  0.490465  1
  Co  Co21  1  0.937842  0.249976  0.009484  1
  Co  Co22  1  0.563839  0.249178  0.510031  1
  Co  Co23  1  0.062119  0.750023  0.990433  1
  Sb  Sb24  1  0.929230  0.992051  0.327180  1
  Sb  Sb25  1  0.429077  0.008001  0.172712  1
  Sb  Sb26  1  0.071370  0.492019  0.672653  1
  Sb  Sb27  1  0.571027  0.508013  0.827320  1
  Sb  Sb28  1  0.071076  0.007989  0.672737  1
  Sb  Sb29  1  0.571172  0.991902  0.827496  1
  Sb  Sb30  1  0.927814  0.508255  0.326939  1
  Sb  Sb31  1  0.429411  0.492119  0.172268  1
