# generated using pymatgen
data_Ac3YbAu8
_symmetry_space_group_name_H-M   'P 1'
_cell_length_a   6.12911808
_cell_length_b   6.19909919
_cell_length_c   9.13340647
_cell_angle_alpha   108.09172040
_cell_angle_beta   71.03101213
_cell_angle_gamma   97.10800924
_symmetry_Int_Tables_number   1
_chemical_formula_structural   Ac3YbAu8
_chemical_formula_sum   'Ac3 Yb1 Au8'
_cell_volume   311.85334545
_cell_formula_units_Z   1
loop_
 _symmetry_equiv_pos_site_id
 _symmetry_equiv_pos_as_xyz
  1  'x, y, z'
loop_
 _atom_site_type_symbol
 _atom_site_label
 _atom_site_symmetry_multiplicity
 _atom_site_fract_x
 _atom_site_fract_y
 _atom_site_fract_z
 _atom_site_occupancy
  Ac  Ac0  1  0.425306  0.937367  0.593950  1
  Ac  Ac1  1  0.915678  0.453142  0.088796  1
  Ac  Ac2  1  0.155814  0.184265  0.341740  1
  Yb  Yb3  1  0.669325  0.690853  0.840210  1
  Au  Au4  1  0.615856  0.390257  0.459607  1
  Au  Au5  1  0.462078  0.251198  0.958672  1
  Au  Au6  1  0.370505  0.639812  0.221413  1
  Au  Au7  1  0.120598  0.902682  0.961159  1
  Au  Au8  1  0.221192  0.489997  0.724248  1
  Au  Au9  1  0.954733  0.730627  0.475146  1
  Au  Au10  1  0.703410  0.984725  0.207482  1
  Au  Au11  1  0.883671  0.137432  0.722329  1
