# generated using pymatgen
data_Sc4CrFe3Os4
_symmetry_space_group_name_H-M   'P 1'
_cell_length_a   5.12205604
_cell_length_b   5.03237112
_cell_length_c   8.45908200
_cell_angle_alpha   90.00000000
_cell_angle_beta   90.00000000
_cell_angle_gamma   121.30114274
_symmetry_Int_Tables_number   1
_chemical_formula_structural   Sc4CrFe3Os4
_chemical_formula_sum   'Sc4 Cr1 Fe3 Os4'
_cell_volume   186.30568068
_cell_formula_units_Z   1
loop_
 _symmetry_equiv_pos_site_id
 _symmetry_equiv_pos_as_xyz
  1  'x, y, z'
loop_
 _atom_site_type_symbol
 _atom_site_label
 _atom_site_symmetry_multiplicity
 _atom_site_fract_x
 _atom_site_fract_y
 _atom_site_fract_z
 _atom_site_occupancy
  Sc  Sc0  1  0.331684  0.666560  0.435541  1
  Sc  Sc1  1  0.665093  0.336485  0.562747  1
  Sc  Sc2  1  0.665093  0.336485  0.937253  1
  Sc  Sc3  1  0.331684  0.666560  0.064459  1
  Cr  Cr4  1  0.172357  0.336130  0.750000  1
  Fe  Fe5  1  0.168696  0.822411  0.750000  1
  Fe  Fe6  1  0.344575  0.168686  0.250000  1
  Fe  Fe7  1  0.833094  0.659351  0.250000  1
  Os  Os8  1  0.647230  0.819329  0.750000  1
  Os  Os9  1  0.006293  0.009016  0.998962  1
  Os  Os10  1  0.827907  0.169972  0.250000  1
  Os  Os11  1  0.006293  0.009016  0.501038  1
