# generated using pymatgen
data_Er2Tm2C7
_symmetry_space_group_name_H-M   'P 1'
_cell_length_a   13.65456900
_cell_length_b   3.65770057
_cell_length_c   6.37590948
_cell_angle_alpha   74.86978255
_cell_angle_beta   90.00000000
_cell_angle_gamma   90.00000000
_symmetry_Int_Tables_number   1
_chemical_formula_structural   Er2Tm2C7
_chemical_formula_sum   'Er4 Tm4 C14'
_cell_volume   307.40178873
_cell_formula_units_Z   2
loop_
 _symmetry_equiv_pos_site_id
 _symmetry_equiv_pos_as_xyz
  1  'x, y, z'
loop_
 _atom_site_type_symbol
 _atom_site_label
 _atom_site_symmetry_multiplicity
 _atom_site_fract_x
 _atom_site_fract_y
 _atom_site_fract_z
 _atom_site_occupancy
  Er  Er0  1  0.054641  0.632165  0.740082  1
  Er  Er1  1  0.945359  0.367835  0.259918  1
  Er  Er2  1  0.554641  0.367835  0.759918  1
  Er  Er3  1  0.445359  0.632165  0.240082  1
  Tm  Tm4  1  0.338751  0.945034  0.660303  1
  Tm  Tm5  1  0.661249  0.054966  0.339697  1
  Tm  Tm6  1  0.838751  0.054966  0.839697  1
  Tm  Tm7  1  0.161249  0.945034  0.160303  1
  C  C8  1  0.895526  0.737507  0.550147  1
  C  C9  1  0.104474  0.262493  0.449853  1
  C  C10  1  0.395526  0.262493  0.949853  1
  C  C11  1  0.604474  0.737507  0.050147  1
  C  C12  1  0.215371  0.538077  0.926433  1
  C  C13  1  0.784629  0.461923  0.073567  1
  C  C14  1  0.715371  0.461923  0.573567  1
  C  C15  1  0.284629  0.538077  0.426433  1
  C  C16  1  0.803076  0.622026  0.544959  1
  C  C17  1  0.196924  0.377974  0.455041  1
  C  C18  1  0.303076  0.377974  0.955041  1
  C  C19  1  0.696924  0.622026  0.044959  1
  C  C20  1  0.500000  0.000000  0.500000  1
  C  C21  1  0.000000  0.000000  0.000000  1
