# generated using pymatgen
data_Dy2HfZr(NiAs)4
_symmetry_space_group_name_H-M   'P 1'
_cell_length_a   4.00570200
_cell_length_b   4.00570140
_cell_length_c   14.85803900
_cell_angle_alpha   90.00000000
_cell_angle_beta   90.00000000
_cell_angle_gamma   120.00000495
_symmetry_Int_Tables_number   1
_chemical_formula_structural   Dy2HfZr(NiAs)4
_chemical_formula_sum   'Dy2 Hf1 Zr1 Ni4 As4'
_cell_volume   206.46636587
_cell_formula_units_Z   1
loop_
 _symmetry_equiv_pos_site_id
 _symmetry_equiv_pos_as_xyz
  1  'x, y, z'
loop_
 _atom_site_type_symbol
 _atom_site_label
 _atom_site_symmetry_multiplicity
 _atom_site_fract_x
 _atom_site_fract_y
 _atom_site_fract_z
 _atom_site_occupancy
  Dy  Dy0  1  0.000000  0.000000  0.999731  1
  Dy  Dy1  1  0.000000  0.000000  0.500269  1
  Hf  Hf2  1  0.000000  0.000000  0.750000  1
  Zr  Zr3  1  0.000000  0.000000  0.250000  1
  Ni  Ni4  1  0.333333  0.666667  0.155777  1
  Ni  Ni5  1  0.666667  0.333333  0.842338  1
  Ni  Ni6  1  0.666667  0.333333  0.657662  1
  Ni  Ni7  1  0.333333  0.666667  0.344223  1
  As  As8  1  0.333333  0.666667  0.622168  1
  As  As9  1  0.666667  0.333333  0.378227  1
  As  As10  1  0.666667  0.333333  0.121773  1
  As  As11  1  0.333333  0.666667  0.877832  1
