# generated using pymatgen
data_Rb4ZrTeBr12
_symmetry_space_group_name_H-M   'P 1'
_cell_length_a   7.80877400
_cell_length_b   7.80877400
_cell_length_c   11.20000100
_cell_angle_alpha   90.00000000
_cell_angle_beta   90.00000000
_cell_angle_gamma   90.00000000
_symmetry_Int_Tables_number   1
_chemical_formula_structural   Rb4ZrTeBr12
_chemical_formula_sum   'Rb4 Zr1 Te1 Br12'
_cell_volume   682.94191647
_cell_formula_units_Z   1
loop_
 _symmetry_equiv_pos_site_id
 _symmetry_equiv_pos_as_xyz
  1  'x, y, z'
loop_
 _atom_site_type_symbol
 _atom_site_label
 _atom_site_symmetry_multiplicity
 _atom_site_fract_x
 _atom_site_fract_y
 _atom_site_fract_z
 _atom_site_occupancy
  Rb  Rb0  1  0.500000  0.000000  0.750921  1
  Rb  Rb1  1  0.500000  0.000000  0.249079  1
  Rb  Rb2  1  0.000000  0.500000  0.249079  1
  Rb  Rb3  1  0.000000  0.500000  0.750921  1
  Zr  Zr4  1  0.000000  0.000000  0.000000  1
  Te  Te5  1  0.500000  0.500000  0.500000  1
  Br  Br6  1  0.793067  0.270170  0.000000  1
  Br  Br7  1  0.206933  0.729830  0.000000  1
  Br  Br8  1  0.500000  0.500000  0.255839  1
  Br  Br9  1  0.287569  0.221163  0.500000  1
  Br  Br10  1  0.270170  0.206933  0.000000  1
  Br  Br11  1  0.778837  0.287569  0.500000  1
  Br  Br12  1  0.000000  0.000000  0.237262  1
  Br  Br13  1  0.712431  0.778837  0.500000  1
  Br  Br14  1  0.221163  0.712431  0.500000  1
  Br  Br15  1  0.500000  0.500000  0.744161  1
  Br  Br16  1  0.729830  0.793067  0.000000  1
  Br  Br17  1  0.000000  0.000000  0.762738  1
