# generated using pymatgen
data_Tb2Ho2Ga16Rh3
_symmetry_space_group_name_H-M   'P 1'
_cell_length_a   6.15275100
_cell_length_b   6.15275100
_cell_length_c   11.25823500
_cell_angle_alpha   90.00000000
_cell_angle_beta   90.00000000
_cell_angle_gamma   90.00000000
_symmetry_Int_Tables_number   1
_chemical_formula_structural   Tb2Ho2Ga16Rh3
_chemical_formula_sum   'Tb2 Ho2 Ga16 Rh3'
_cell_volume   426.19562676
_cell_formula_units_Z   1
loop_
 _symmetry_equiv_pos_site_id
 _symmetry_equiv_pos_as_xyz
  1  'x, y, z'
loop_
 _atom_site_type_symbol
 _atom_site_label
 _atom_site_symmetry_multiplicity
 _atom_site_fract_x
 _atom_site_fract_y
 _atom_site_fract_z
 _atom_site_occupancy
  Tb  Tb0  1  0.500000  0.000000  0.192960  1
  Tb  Tb1  1  0.000000  0.500000  0.192960  1
  Ho  Ho2  1  0.500000  0.000000  0.806412  1
  Ho  Ho3  1  0.000000  0.500000  0.806412  1
  Ga  Ga4  1  0.249500  0.249500  0.620103  1
  Ga  Ga5  1  0.750500  0.750500  0.620103  1
  Ga  Ga6  1  0.750500  0.249500  0.620103  1
  Ga  Ga7  1  0.249500  0.750500  0.620103  1
  Ga  Ga8  1  0.750361  0.750361  0.380722  1
  Ga  Ga9  1  0.249639  0.249639  0.380722  1
  Ga  Ga10  1  0.249639  0.750361  0.380722  1
  Ga  Ga11  1  0.750361  0.249639  0.380722  1
  Ga  Ga12  1  0.286982  0.286982  0.999190  1
  Ga  Ga13  1  0.713018  0.713018  0.999190  1
  Ga  Ga14  1  0.713018  0.286982  0.999190  1
  Ga  Ga15  1  0.286982  0.713018  0.999190  1
  Ga  Ga16  1  0.500000  0.500000  0.805204  1
  Ga  Ga17  1  0.500000  0.500000  0.194614  1
  Ga  Ga18  1  0.000000  0.000000  0.777039  1
  Ga  Ga19  1  0.000000  0.000000  0.223573  1
  Rh  Rh20  1  0.500000  0.000000  0.500259  1
  Rh  Rh21  1  0.000000  0.500000  0.500259  1
  Rh  Rh22  1  0.000000  0.000000  0.000246  1
