# generated using pymatgen
data_Ac(TaIr)2
_symmetry_space_group_name_H-M   'P 1'
_cell_length_a   6.31087553
_cell_length_b   6.31087454
_cell_length_c   6.31087434
_cell_angle_alpha   138.02396892
_cell_angle_beta   138.02395380
_cell_angle_gamma   60.86629558
_symmetry_Int_Tables_number   1
_chemical_formula_structural   Ac(TaIr)2
_chemical_formula_sum   'Ac1 Ta2 Ir2'
_cell_volume   111.20701706
_cell_formula_units_Z   1
loop_
 _symmetry_equiv_pos_site_id
 _symmetry_equiv_pos_as_xyz
  1  'x, y, z'
loop_
 _atom_site_type_symbol
 _atom_site_label
 _atom_site_symmetry_multiplicity
 _atom_site_fract_x
 _atom_site_fract_y
 _atom_site_fract_z
 _atom_site_occupancy
  Ac  Ac0  1  0.000000  0.000000  0.000000  1
  Ta  Ta1  1  0.250000  0.750000  0.500000  1
  Ta  Ta2  1  0.750000  0.250000  0.500000  1
  Ir  Ir3  1  0.630301  0.630301  0.000000  1
  Ir  Ir4  1  0.369699  0.369699  0.000000  1
