# generated using pymatgen
data_YHoGa4PdAu
_symmetry_space_group_name_H-M   'P 1'
_cell_length_a   5.57572664
_cell_length_b   5.57572698
_cell_length_c   6.65206800
_cell_angle_alpha   90.00000000
_cell_angle_beta   90.00000000
_cell_angle_gamma   132.62786558
_symmetry_Int_Tables_number   1
_chemical_formula_structural   YHoGa4PdAu
_chemical_formula_sum   'Y1 Ho1 Ga4 Pd1 Au1'
_cell_volume   152.15997682
_cell_formula_units_Z   1
loop_
 _symmetry_equiv_pos_site_id
 _symmetry_equiv_pos_as_xyz
  1  'x, y, z'
loop_
 _atom_site_type_symbol
 _atom_site_label
 _atom_site_symmetry_multiplicity
 _atom_site_fract_x
 _atom_site_fract_y
 _atom_site_fract_z
 _atom_site_occupancy
  Y  Y0  1  0.090720  0.909280  0.250000  1
  Ho  Ho1  1  0.911728  0.088272  0.750000  1
  Ga  Ga2  1  0.374419  0.625581  0.046040  1
  Ga  Ga3  1  0.624566  0.375434  0.556233  1
  Ga  Ga4  1  0.624566  0.375434  0.943767  1
  Ga  Ga5  1  0.374419  0.625581  0.453960  1
  Pd  Pd6  1  0.200035  0.799965  0.750000  1
  Au  Au7  1  0.799550  0.200450  0.250000  1
