# generated using pymatgen
data_Zr12TiSn3(Ir2N)4
_symmetry_space_group_name_H-M   'P 1'
_cell_length_a   8.68330636
_cell_length_b   8.77952984
_cell_length_c   8.68330500
_cell_angle_alpha   60.36189717
_cell_angle_beta   60.00000137
_cell_angle_gamma   60.36189455
_symmetry_Int_Tables_number   1
_chemical_formula_structural   Zr12TiSn3(Ir2N)4
_chemical_formula_sum   'Zr12 Ti1 Sn3 Ir8 N4'
_cell_volume   470.63099682
_cell_formula_units_Z   1
loop_
 _symmetry_equiv_pos_site_id
 _symmetry_equiv_pos_as_xyz
  1  'x, y, z'
loop_
 _atom_site_type_symbol
 _atom_site_label
 _atom_site_symmetry_multiplicity
 _atom_site_fract_x
 _atom_site_fract_y
 _atom_site_fract_z
 _atom_site_occupancy
  Zr  Zr0  1  0.811956  0.816300  0.185871  1
  Zr  Zr1  1  0.189287  0.189444  0.810634  1
  Zr  Zr2  1  0.810634  0.189444  0.810634  1
  Zr  Zr3  1  0.185871  0.816300  0.185871  1
  Zr  Zr4  1  0.185871  0.816300  0.811956  1
  Zr  Zr5  1  0.810634  0.189444  0.189287  1
  Zr  Zr6  1  0.438044  0.433700  0.064129  1
  Zr  Zr7  1  0.060713  0.060556  0.439366  1
  Zr  Zr8  1  0.439366  0.060556  0.439366  1
  Zr  Zr9  1  0.064129  0.433700  0.064129  1
  Zr  Zr10  1  0.064129  0.433700  0.438044  1
  Zr  Zr11  1  0.439366  0.060556  0.060713  1
  Ti  Ti12  1  0.625000  0.125000  0.625000  1
  Sn  Sn13  1  0.125000  0.625000  0.625000  1
  Sn  Sn14  1  0.625000  0.625000  0.125000  1
  Sn  Sn15  1  0.625000  0.625000  0.625000  1
  Ir  Ir16  1  0.764717  0.394034  0.420625  1
  Ir  Ir17  1  0.408089  0.775732  0.408089  1
  Ir  Ir18  1  0.420625  0.394034  0.764717  1
  Ir  Ir19  1  0.420625  0.394034  0.420625  1
  Ir  Ir20  1  0.485283  0.855966  0.829375  1
  Ir  Ir21  1  0.841911  0.474268  0.841911  1
  Ir  Ir22  1  0.829375  0.855966  0.485283  1
  Ir  Ir23  1  0.829375  0.855966  0.829375  1
  N  N24  1  0.625000  0.125000  0.125000  1
  N  N25  1  0.125000  0.625000  0.125000  1
  N  N26  1  0.125000  0.125000  0.625000  1
  N  N27  1  0.125000  0.125000  0.125000  1
