# generated using pymatgen
data_YbEr(ZnRh)2
_symmetry_space_group_name_H-M   'P 1'
_cell_length_a   4.07700700
_cell_length_b   6.90360695
_cell_length_c   7.98945959
_cell_angle_alpha   90.29831512
_cell_angle_beta   90.00000000
_cell_angle_gamma   90.00000000
_symmetry_Int_Tables_number   1
_chemical_formula_structural   YbEr(ZnRh)2
_chemical_formula_sum   'Yb2 Er2 Zn4 Rh4'
_cell_volume   224.86871200
_cell_formula_units_Z   2
loop_
 _symmetry_equiv_pos_site_id
 _symmetry_equiv_pos_as_xyz
  1  'x, y, z'
loop_
 _atom_site_type_symbol
 _atom_site_label
 _atom_site_symmetry_multiplicity
 _atom_site_fract_x
 _atom_site_fract_y
 _atom_site_fract_z
 _atom_site_occupancy
  Yb  Yb0  1  0.250000  0.531390  0.181014  1
  Yb  Yb1  1  0.750000  0.468610  0.818986  1
  Er  Er2  1  0.750000  0.967313  0.681672  1
  Er  Er3  1  0.250000  0.032687  0.318328  1
  Zn  Zn4  1  0.250000  0.640892  0.564484  1
  Zn  Zn5  1  0.750000  0.359108  0.435516  1
  Zn  Zn6  1  0.750000  0.855739  0.063059  1
  Zn  Zn7  1  0.250000  0.144261  0.936941  1
  Rh  Rh8  1  0.250000  0.770426  0.871833  1
  Rh  Rh9  1  0.750000  0.229574  0.128167  1
  Rh  Rh10  1  0.750000  0.739771  0.377759  1
  Rh  Rh11  1  0.250000  0.260229  0.622241  1
