# generated using pymatgen
data_SmPa2(GaCo)3
_symmetry_space_group_name_H-M   'P 1'
_cell_length_a   6.95316000
_cell_length_b   7.03748445
_cell_length_c   3.76164400
_cell_angle_alpha   90.00000000
_cell_angle_beta   90.00000000
_cell_angle_gamma   119.60441777
_symmetry_Int_Tables_number   1
_chemical_formula_structural   SmPa2(GaCo)3
_chemical_formula_sum   'Sm1 Pa2 Ga3 Co3'
_cell_volume   160.03883900
_cell_formula_units_Z   1
loop_
 _symmetry_equiv_pos_site_id
 _symmetry_equiv_pos_as_xyz
  1  'x, y, z'
loop_
 _atom_site_type_symbol
 _atom_site_label
 _atom_site_symmetry_multiplicity
 _atom_site_fract_x
 _atom_site_fract_y
 _atom_site_fract_z
 _atom_site_occupancy
  Sm  Sm0  1  0.586867  0.000000  0.500000  1
  Pa  Pa1  1  0.997153  0.580343  0.500000  1
  Pa  Pa2  1  0.416810  0.419657  0.500000  1
  Ga  Ga3  1  0.249641  0.000000  0.000000  1
  Ga  Ga4  1  0.762745  0.768682  0.000000  1
  Ga  Ga5  1  0.994063  0.231318  0.000000  1
  Co  Co6  1  0.670422  0.371357  0.000000  1
  Co  Co7  1  0.299063  0.628643  0.000000  1
  Co  Co8  1  0.023235  0.000000  0.500000  1
