# generated using pymatgen
data_Tm2Ni7B2Au
_symmetry_space_group_name_H-M   'P 1'
_cell_length_a   4.98608781
_cell_length_b   4.97562382
_cell_length_c   14.08862900
_cell_angle_alpha   90.00000000
_cell_angle_beta   90.00000000
_cell_angle_gamma   119.97185212
_symmetry_Int_Tables_number   1
_chemical_formula_structural   Tm2Ni7B2Au
_chemical_formula_sum   'Tm4 Ni14 B4 Au2'
_cell_volume   302.78191915
_cell_formula_units_Z   2
loop_
 _symmetry_equiv_pos_site_id
 _symmetry_equiv_pos_as_xyz
  1  'x, y, z'
loop_
 _atom_site_type_symbol
 _atom_site_label
 _atom_site_symmetry_multiplicity
 _atom_site_fract_x
 _atom_site_fract_y
 _atom_site_fract_z
 _atom_site_occupancy
  Tm  Tm0  1  0.666692  0.333358  0.472962  1
  Tm  Tm1  1  0.333308  0.666642  0.972962  1
  Tm  Tm2  1  0.333333  0.666671  0.740320  1
  Tm  Tm3  1  0.666667  0.333329  0.240320  1
  Ni  Ni4  1  0.999987  0.999995  0.001135  1
  Ni  Ni5  1  0.000013  0.000005  0.501135  1
  Ni  Ni6  1  0.165042  0.330092  0.147981  1
  Ni  Ni7  1  0.834958  0.669908  0.647981  1
  Ni  Ni8  1  0.669922  0.834959  0.148029  1
  Ni  Ni9  1  0.165038  0.834946  0.148018  1
  Ni  Ni10  1  0.834962  0.165054  0.648018  1
  Ni  Ni11  1  0.330078  0.165041  0.648029  1
  Ni  Ni12  1  0.833546  0.667084  0.852835  1
  Ni  Ni13  1  0.833547  0.166451  0.852817  1
  Ni  Ni14  1  0.332898  0.166443  0.852810  1
  Ni  Ni15  1  0.667102  0.833557  0.352810  1
  Ni  Ni16  1  0.166453  0.833549  0.352817  1
  Ni  Ni17  1  0.166454  0.332916  0.352835  1
  B  B18  1  0.333338  0.666666  0.250122  1
  B  B19  1  0.666662  0.333334  0.750122  1
  B  B20  1  0.999968  0.999985  0.253278  1
  B  B21  1  0.000032  0.000015  0.753278  1
  Au  Au22  1  0.333321  0.666658  0.529694  1
  Au  Au23  1  0.666679  0.333342  0.029694  1
