# generated using pymatgen
data_Tb15Ce(HgRu)4
_symmetry_space_group_name_H-M   'P 1'
_cell_length_a   9.64505757
_cell_length_b   9.64505750
_cell_length_c   9.64505752
_cell_angle_alpha   59.59581727
_cell_angle_beta   59.59581312
_cell_angle_gamma   59.59581853
_symmetry_Int_Tables_number   1
_chemical_formula_structural   Tb15Ce(HgRu)4
_chemical_formula_sum   'Tb15 Ce1 Hg4 Ru4'
_cell_volume   628.62438953
_cell_formula_units_Z   1
loop_
 _symmetry_equiv_pos_site_id
 _symmetry_equiv_pos_as_xyz
  1  'x, y, z'
loop_
 _atom_site_type_symbol
 _atom_site_label
 _atom_site_symmetry_multiplicity
 _atom_site_fract_x
 _atom_site_fract_y
 _atom_site_fract_z
 _atom_site_occupancy
  Tb  Tb0  1  0.561456  0.561456  0.939072  1
  Tb  Tb1  1  0.938417  0.561379  0.938417  1
  Tb  Tb2  1  0.561379  0.938417  0.938417  1
  Tb  Tb3  1  0.938417  0.938417  0.561379  1
  Tb  Tb4  1  0.561456  0.939072  0.561456  1
  Tb  Tb5  1  0.939072  0.561456  0.561456  1
  Tb  Tb6  1  0.189943  0.189943  0.811650  1
  Tb  Tb7  1  0.810754  0.189223  0.810754  1
  Tb  Tb8  1  0.189222  0.810755  0.810754  1
  Tb  Tb9  1  0.810754  0.810755  0.189223  1
  Tb  Tb10  1  0.189942  0.811650  0.189942  1
  Tb  Tb11  1  0.811650  0.189943  0.189943  1
  Tb  Tb12  1  0.347744  0.347744  0.952647  1
  Tb  Tb13  1  0.347744  0.952647  0.347744  1
  Tb  Tb14  1  0.952647  0.347744  0.347744  1
  Ce  Ce15  1  0.342668  0.342668  0.342668  1
  Hg  Hg16  1  0.583153  0.583153  0.248022  1
  Hg  Hg17  1  0.583153  0.248022  0.583153  1
  Hg  Hg18  1  0.248022  0.583153  0.583153  1
  Hg  Hg19  1  0.583820  0.583820  0.583820  1
  Ru  Ru20  1  0.147271  0.147271  0.574562  1
  Ru  Ru21  1  0.147271  0.574562  0.147271  1
  Ru  Ru22  1  0.574562  0.147271  0.147271  1
  Ru  Ru23  1  0.139486  0.139486  0.139486  1
