# generated using pymatgen
data_Sm(ZnAu2)2
_symmetry_space_group_name_H-M   'P 1'
_cell_length_a   5.66217962
_cell_length_b   5.66217991
_cell_length_c   5.66217940
_cell_angle_alpha   103.01713904
_cell_angle_beta   103.01713422
_cell_angle_gamma   123.33375329
_symmetry_Int_Tables_number   1
_chemical_formula_structural   Sm(ZnAu2)2
_chemical_formula_sum   'Sm1 Zn2 Au4'
_cell_volume   133.49710717
_cell_formula_units_Z   1
loop_
 _symmetry_equiv_pos_site_id
 _symmetry_equiv_pos_as_xyz
  1  'x, y, z'
loop_
 _atom_site_type_symbol
 _atom_site_label
 _atom_site_symmetry_multiplicity
 _atom_site_fract_x
 _atom_site_fract_y
 _atom_site_fract_z
 _atom_site_occupancy
  Sm  Sm0  1  0.000000  0.000000  0.000000  1
  Zn  Zn1  1  0.250000  0.750000  0.500000  1
  Zn  Zn2  1  0.750000  0.250000  0.500000  1
  Au  Au3  1  0.300749  0.300749  0.601498  1
  Au  Au4  1  0.699251  0.699251  0.398502  1
  Au  Au5  1  0.699251  0.300749  0.000000  1
  Au  Au6  1  0.300749  0.699251  0.000000  1
