# generated using pymatgen
data_TmNp3(MoN2)4
_symmetry_space_group_name_H-M   'P 1'
_cell_length_a   3.16964600
_cell_length_b   5.60997003
_cell_length_c   10.85230891
_cell_angle_alpha   89.86212812
_cell_angle_beta   90.00000000
_cell_angle_gamma   90.00000000
_symmetry_Int_Tables_number   1
_chemical_formula_structural   TmNp3(MoN2)4
_chemical_formula_sum   'Tm1 Np3 Mo4 N8'
_cell_volume   192.97106440
_cell_formula_units_Z   1
loop_
 _symmetry_equiv_pos_site_id
 _symmetry_equiv_pos_as_xyz
  1  'x, y, z'
loop_
 _atom_site_type_symbol
 _atom_site_label
 _atom_site_symmetry_multiplicity
 _atom_site_fract_x
 _atom_site_fract_y
 _atom_site_fract_z
 _atom_site_occupancy
  Tm  Tm0  1  0.750000  0.425716  0.353829  1
  Np  Np1  1  0.250000  0.074303  0.856247  1
  Np  Np2  1  0.250000  0.570430  0.641661  1
  Np  Np3  1  0.750000  0.925550  0.145428  1
  Mo  Mo4  1  0.250000  0.429532  0.102338  1
  Mo  Mo5  1  0.250000  0.933966  0.403405  1
  Mo  Mo6  1  0.750000  0.569697  0.900023  1
  Mo  Mo7  1  0.750000  0.068094  0.598686  1
  N  N8  1  0.250000  0.162708  0.246023  1
  N  N9  1  0.250000  0.667857  0.256303  1
  N  N10  1  0.750000  0.833865  0.754107  1
  N  N11  1  0.750000  0.334758  0.744403  1
  N  N12  1  0.250000  0.755901  0.996672  1
  N  N13  1  0.250000  0.262200  0.501396  1
  N  N14  1  0.750000  0.242119  0.004253  1
  N  N15  1  0.750000  0.743304  0.495225  1
