# generated using pymatgen
data_Pr5Bi3P
_symmetry_space_group_name_H-M   'P 1'
_cell_length_a   9.61275900
_cell_length_b   9.61275832
_cell_length_c   6.89792800
_cell_angle_alpha   90.00000000
_cell_angle_beta   90.00000000
_cell_angle_gamma   119.99999889
_symmetry_Int_Tables_number   1
_chemical_formula_structural   Pr5Bi3P
_chemical_formula_sum   'Pr10 Bi6 P2'
_cell_volume   552.00799956
_cell_formula_units_Z   2
loop_
 _symmetry_equiv_pos_site_id
 _symmetry_equiv_pos_as_xyz
  1  'x, y, z'
loop_
 _atom_site_type_symbol
 _atom_site_label
 _atom_site_symmetry_multiplicity
 _atom_site_fract_x
 _atom_site_fract_y
 _atom_site_fract_z
 _atom_site_occupancy
  Pr  Pr0  1  0.666667  0.333333  0.000000  1
  Pr  Pr1  1  0.333333  0.666667  0.000000  1
  Pr  Pr2  1  0.333333  0.666667  0.500000  1
  Pr  Pr3  1  0.666667  0.333333  0.500000  1
  Pr  Pr4  1  0.761182  0.761182  0.750000  1
  Pr  Pr5  1  0.238818  0.000000  0.750000  1
  Pr  Pr6  1  0.000000  0.238818  0.750000  1
  Pr  Pr7  1  0.238818  0.238818  0.250000  1
  Pr  Pr8  1  0.761182  0.000000  0.250000  1
  Pr  Pr9  1  0.000000  0.761182  0.250000  1
  Bi  Bi10  1  0.396463  0.396463  0.750000  1
  Bi  Bi11  1  0.603537  0.000000  0.750000  1
  Bi  Bi12  1  0.000000  0.603537  0.750000  1
  Bi  Bi13  1  0.603537  0.603537  0.250000  1
  Bi  Bi14  1  0.396463  0.000000  0.250000  1
  Bi  Bi15  1  0.000000  0.396463  0.250000  1
  P  P16  1  0.000000  0.000000  0.000000  1
  P  P17  1  0.000000  0.000000  0.500000  1
