# generated using pymatgen
data_Dy9Er(TmIn10)2
_symmetry_space_group_name_H-M   'P 1'
_cell_length_a   6.51688750
_cell_length_b   10.41558800
_cell_length_c   12.26959800
_cell_angle_alpha   90.00000000
_cell_angle_beta   90.02249846
_cell_angle_gamma   90.00000000
_symmetry_Int_Tables_number   1
_chemical_formula_structural   Dy9Er(TmIn10)2
_chemical_formula_sum   'Dy9 Er1 Tm2 In20'
_cell_volume   832.82608049
_cell_formula_units_Z   1
loop_
 _symmetry_equiv_pos_site_id
 _symmetry_equiv_pos_as_xyz
  1  'x, y, z'
loop_
 _atom_site_type_symbol
 _atom_site_label
 _atom_site_symmetry_multiplicity
 _atom_site_fract_x
 _atom_site_fract_y
 _atom_site_fract_z
 _atom_site_occupancy
  Dy  Dy0  1  0.851011  0.250000  0.444068  1
  Dy  Dy1  1  0.890003  0.491933  0.141740  1
  Dy  Dy2  1  0.609587  0.007322  0.642154  1
  Dy  Dy3  1  0.110169  0.991617  0.858523  1
  Dy  Dy4  1  0.389838  0.507364  0.358242  1
  Dy  Dy5  1  0.110169  0.508383  0.858523  1
  Dy  Dy6  1  0.389838  0.992636  0.358242  1
  Dy  Dy7  1  0.890003  0.008067  0.141740  1
  Dy  Dy8  1  0.609587  0.492678  0.642154  1
  Er  Er9  1  0.149011  0.750000  0.555186  1
  Tm  Tm10  1  0.350197  0.750000  0.055029  1
  Tm  Tm11  1  0.649997  0.250000  0.945113  1
  In  In12  1  0.614289  0.750000  0.504854  1
  In  In13  1  0.885947  0.750000  0.005578  1
  In  In14  1  0.384112  0.250000  0.495607  1
  In  In15  1  0.114500  0.250000  0.994045  1
  In  In16  1  0.650871  0.750000  0.243777  1
  In  In17  1  0.848367  0.750000  0.744747  1
  In  In18  1  0.349207  0.250000  0.756501  1
  In  In19  1  0.153096  0.250000  0.254441  1
  In  In20  1  0.124742  0.750000  0.282318  1
  In  In21  1  0.376056  0.750000  0.782865  1
  In  In22  1  0.875445  0.250000  0.718056  1
  In  In23  1  0.624277  0.250000  0.215955  1
  In  In24  1  0.874727  0.544344  0.401008  1
  In  In25  1  0.625283  0.956543  0.901152  1
  In  In26  1  0.124988  0.043575  0.599412  1
  In  In27  1  0.374843  0.456560  0.098699  1
  In  In28  1  0.124988  0.456425  0.599412  1
  In  In29  1  0.374843  0.043440  0.098699  1
  In  In30  1  0.874727  0.955656  0.401008  1
  In  In31  1  0.625283  0.543457  0.901152  1
