# generated using pymatgen
data_Ba15(SnBi6)2
_symmetry_space_group_name_H-M   'P 1'
_cell_length_a   10.78715917
_cell_length_b   10.78715844
_cell_length_c   10.78715820
_cell_angle_alpha   88.70645427
_cell_angle_beta   88.70645637
_cell_angle_gamma   88.70645021
_symmetry_Int_Tables_number   1
_chemical_formula_structural   Ba15(SnBi6)2
_chemical_formula_sum   'Ba15 Sn2 Bi12'
_cell_volume   1254.27843719
_cell_formula_units_Z   1
loop_
 _symmetry_equiv_pos_site_id
 _symmetry_equiv_pos_as_xyz
  1  'x, y, z'
loop_
 _atom_site_type_symbol
 _atom_site_label
 _atom_site_symmetry_multiplicity
 _atom_site_fract_x
 _atom_site_fract_y
 _atom_site_fract_z
 _atom_site_occupancy
  Ba  Ba0  1  0.410425  0.283906  0.771824  1
  Ba  Ba1  1  0.771824  0.410425  0.283906  1
  Ba  Ba2  1  0.283906  0.771824  0.410425  1
  Ba  Ba3  1  0.012823  0.526842  0.663166  1
  Ba  Ba4  1  0.663166  0.012823  0.526842  1
  Ba  Ba5  1  0.526842  0.663166  0.012823  1
  Ba  Ba6  1  0.174539  0.530204  0.027613  1
  Ba  Ba7  1  0.027613  0.174539  0.530204  1
  Ba  Ba8  1  0.530204  0.027613  0.174539  1
  Ba  Ba9  1  0.776093  0.289692  0.925796  1
  Ba  Ba10  1  0.925796  0.776093  0.289692  1
  Ba  Ba11  1  0.289692  0.925796  0.776093  1
  Ba  Ba12  1  0.167491  0.167491  0.167491  1
  Ba  Ba13  1  0.400699  0.400699  0.400699  1
  Ba  Ba14  1  0.944751  0.944751  0.944751  1
  Sn  Sn15  1  0.757033  0.757033  0.757033  1
  Sn  Sn16  1  0.602091  0.602091  0.602091  1
  Bi  Bi17  1  0.709933  0.345338  0.603297  1
  Bi  Bi18  1  0.603297  0.709933  0.345338  1
  Bi  Bi19  1  0.345338  0.603297  0.709933  1
  Bi  Bi20  1  0.614429  0.978731  0.856364  1
  Bi  Bi21  1  0.856364  0.614429  0.978731  1
  Bi  Bi22  1  0.978731  0.856364  0.614429  1
  Bi  Bi23  1  0.473604  0.342859  0.086876  1
  Bi  Bi24  1  0.086876  0.473604  0.342859  1
  Bi  Bi25  1  0.342859  0.086876  0.473604  1
  Bi  Bi26  1  0.094896  0.236455  0.846962  1
  Bi  Bi27  1  0.846962  0.094896  0.236455  1
  Bi  Bi28  1  0.236455  0.846962  0.094896  1
