# generated using pymatgen
data_Nd4Ni(RhO4)3
_symmetry_space_group_name_H-M   'P 1'
_cell_length_a   5.41148139
_cell_length_b   5.86093266
_cell_length_c   7.80977759
_cell_angle_alpha   89.86700653
_cell_angle_beta   90.03164538
_cell_angle_gamma   90.46756698
_symmetry_Int_Tables_number   1
_chemical_formula_structural   Nd4Ni(RhO4)3
_chemical_formula_sum   'Nd4 Ni1 Rh3 O12'
_cell_volume   247.68851749
_cell_formula_units_Z   1
loop_
 _symmetry_equiv_pos_site_id
 _symmetry_equiv_pos_as_xyz
  1  'x, y, z'
loop_
 _atom_site_type_symbol
 _atom_site_label
 _atom_site_symmetry_multiplicity
 _atom_site_fract_x
 _atom_site_fract_y
 _atom_site_fract_z
 _atom_site_occupancy
  Nd  Nd0  1  0.474752  0.578628  0.742068  1
  Nd  Nd1  1  0.979177  0.928237  0.256815  1
  Nd  Nd2  1  0.020823  0.071763  0.743185  1
  Nd  Nd3  1  0.525248  0.421372  0.257932  1
  Ni  Ni4  1  0.500000  0.000000  0.500000  1
  Rh  Rh5  1  0.000000  0.500000  0.500000  1
  Rh  Rh6  1  0.000000  0.500000  0.000000  1
  Rh  Rh7  1  0.500000  0.000000  0.000000  1
  O  O8  1  0.815056  0.198344  0.449455  1
  O  O9  1  0.308776  0.305505  0.548264  1
  O  O10  1  0.686653  0.696440  0.056059  1
  O  O11  1  0.185623  0.804648  0.945073  1
  O  O12  1  0.184944  0.801656  0.550545  1
  O  O13  1  0.691224  0.694495  0.451736  1
  O  O14  1  0.313347  0.303560  0.943941  1
  O  O15  1  0.814377  0.195352  0.054927  1
  O  O16  1  0.396302  0.032368  0.249845  1
  O  O17  1  0.889903  0.463746  0.749989  1
  O  O18  1  0.110097  0.536254  0.250011  1
  O  O19  1  0.603698  0.967632  0.750155  1
