# generated using pymatgen
data_Y5Ho6In9Co4
_symmetry_space_group_name_H-M   'P 1'
_cell_length_a   12.90736577
_cell_length_b   12.90833797
_cell_length_c   3.64124600
_cell_angle_alpha   90.00000000
_cell_angle_beta   90.00000000
_cell_angle_gamma   111.24803068
_symmetry_Int_Tables_number   1
_chemical_formula_structural   Y5Ho6In9Co4
_chemical_formula_sum   'Y5 Ho6 In9 Co4'
_cell_volume   565.43586184
_cell_formula_units_Z   1
loop_
 _symmetry_equiv_pos_site_id
 _symmetry_equiv_pos_as_xyz
  1  'x, y, z'
loop_
 _atom_site_type_symbol
 _atom_site_label
 _atom_site_symmetry_multiplicity
 _atom_site_fract_x
 _atom_site_fract_y
 _atom_site_fract_z
 _atom_site_occupancy
  Y  Y0  1  0.838179  0.161809  0.000000  1
  Y  Y1  1  0.161821  0.838191  0.000000  1
  Y  Y2  1  0.000000  0.000000  0.000000  1
  Y  Y3  1  0.314324  0.314340  0.000000  1
  Y  Y4  1  0.685676  0.685660  0.000000  1
  Ho  Ho5  1  0.081896  0.419439  0.000000  1
  Ho  Ho6  1  0.918104  0.580561  0.000000  1
  Ho  Ho7  1  0.419445  0.081893  0.000000  1
  Ho  Ho8  1  0.580555  0.918107  0.000000  1
  Ho  Ho9  1  0.624072  0.375907  0.000000  1
  Ho  Ho10  1  0.375928  0.624093  0.000000  1
  In  In11  1  0.839092  0.370675  0.500000  1
  In  In12  1  0.160908  0.629325  0.500000  1
  In  In13  1  0.370670  0.839097  0.500000  1
  In  In14  1  0.629330  0.160903  0.500000  1
  In  In15  1  0.078512  0.221673  0.500000  1
  In  In16  1  0.921488  0.778327  0.500000  1
  In  In17  1  0.221700  0.078535  0.500000  1
  In  In18  1  0.778300  0.921465  0.500000  1
  In  In19  1  0.500000  0.500000  0.500000  1
  Co  Co20  1  0.245495  0.450206  0.500000  1
  Co  Co21  1  0.754505  0.549794  0.500000  1
  Co  Co22  1  0.450220  0.245496  0.500000  1
  Co  Co23  1  0.549780  0.754504  0.500000  1
