# generated using pymatgen
data_Dy13Ho3Cd4Co3Ni
_symmetry_space_group_name_H-M   'P 1'
_cell_length_a   9.50632209
_cell_length_b   9.49917934
_cell_length_c   9.51024626
_cell_angle_alpha   59.91001791
_cell_angle_beta   59.94123881
_cell_angle_gamma   60.06535205
_symmetry_Int_Tables_number   1
_chemical_formula_structural   Dy13Ho3Cd4Co3Ni
_chemical_formula_sum   'Dy13 Ho3 Cd4 Co3 Ni1'
_cell_volume   606.87570051
_cell_formula_units_Z   1
loop_
 _symmetry_equiv_pos_site_id
 _symmetry_equiv_pos_as_xyz
  1  'x, y, z'
loop_
 _atom_site_type_symbol
 _atom_site_label
 _atom_site_symmetry_multiplicity
 _atom_site_fract_x
 _atom_site_fract_y
 _atom_site_fract_z
 _atom_site_occupancy
  Dy  Dy0  1  0.938663  0.561578  0.562485  1
  Dy  Dy1  1  0.541631  0.150486  0.153970  1
  Dy  Dy2  1  0.152681  0.153400  0.538509  1
  Dy  Dy3  1  0.936870  0.937255  0.562560  1
  Dy  Dy4  1  0.311786  0.689093  0.311599  1
  Dy  Dy5  1  0.561565  0.936002  0.938911  1
  Dy  Dy6  1  0.561937  0.938530  0.562390  1
  Dy  Dy7  1  0.688545  0.687808  0.314501  1
  Dy  Dy8  1  0.561736  0.561303  0.940756  1
  Dy  Dy9  1  0.936061  0.561236  0.939147  1
  Dy  Dy10  1  0.313518  0.692478  0.685065  1
  Dy  Dy11  1  0.152269  0.152592  0.156376  1
  Dy  Dy12  1  0.312083  0.311789  0.685713  1
  Ho  Ho13  1  0.150350  0.541117  0.154439  1
  Ho  Ho14  1  0.692352  0.313391  0.684907  1
  Ho  Ho15  1  0.689443  0.311386  0.312033  1
  Cd  Cd16  1  0.919530  0.242482  0.919517  1
  Cd  Cd17  1  0.920012  0.920148  0.920287  1
  Cd  Cd18  1  0.919105  0.919264  0.243305  1
  Cd  Cd19  1  0.242481  0.919510  0.919403  1
  Co  Co20  1  0.357838  0.923549  0.357149  1
  Co  Co21  1  0.923141  0.358326  0.356897  1
  Co  Co22  1  0.358362  0.359240  0.356283  1
  Ni  Ni23  1  0.358042  0.358033  0.923796  1
