# generated using pymatgen
data_CaNp(SeO4)2
_symmetry_space_group_name_H-M   'P 1'
_cell_length_a   5.50711110
_cell_length_b   6.65660142
_cell_length_c   10.93377200
_cell_angle_alpha   104.22937696
_cell_angle_beta   92.42654452
_cell_angle_gamma   110.78439532
_symmetry_Int_Tables_number   1
_chemical_formula_structural   CaNp(SeO4)2
_chemical_formula_sum   'Ca2 Np2 Se4 O16'
_cell_volume   359.50459959
_cell_formula_units_Z   2
loop_
 _symmetry_equiv_pos_site_id
 _symmetry_equiv_pos_as_xyz
  1  'x, y, z'
loop_
 _atom_site_type_symbol
 _atom_site_label
 _atom_site_symmetry_multiplicity
 _atom_site_fract_x
 _atom_site_fract_y
 _atom_site_fract_z
 _atom_site_occupancy
  Ca  Ca0  1  0.667701  0.249849  0.437928  1
  Ca  Ca1  1  0.332298  0.750151  0.562072  1
  Np  Np2  1  0.168213  0.264088  0.168682  1
  Np  Np3  1  0.831788  0.735912  0.831319  1
  Se  Se4  1  0.316689  0.810907  0.125171  1
  Se  Se5  1  0.744207  0.706566  0.347075  1
  Se  Se6  1  0.255794  0.293434  0.652925  1
  Se  Se7  1  0.683313  0.189094  0.874829  1
  O  O8  1  0.111091  0.872177  0.027267  1
  O  O9  1  0.455185  0.357426  0.092971  1
  O  O10  1  0.102255  0.577031  0.160005  1
  O  O11  1  0.884533  0.172385  0.249896  1
  O  O12  1  0.321864  0.020236  0.256248  1
  O  O13  1  0.437883  0.483936  0.350660  1
  O  O14  1  0.932823  0.619937  0.431192  1
  O  O15  1  0.686220  0.910000  0.455103  1
  O  O16  1  0.313781  0.090001  0.544897  1
  O  O17  1  0.067178  0.380063  0.568808  1
  O  O18  1  0.562118  0.516063  0.649339  1
  O  O19  1  0.678137  0.979763  0.743752  1
  O  O20  1  0.115468  0.827615  0.750104  1
  O  O21  1  0.897746  0.422968  0.839995  1
  O  O22  1  0.544816  0.642574  0.907029  1
  O  O23  1  0.888908  0.127823  0.972733  1
