# generated using pymatgen
data_Ho10In3Os
_symmetry_space_group_name_H-M   'P 1'
_cell_length_a   9.65596200
_cell_length_b   9.65596116
_cell_length_c   9.76036200
_cell_angle_alpha   90.00000000
_cell_angle_beta   90.00000000
_cell_angle_gamma   119.99999602
_symmetry_Int_Tables_number   1
_chemical_formula_structural   Ho10In3Os
_chemical_formula_sum   'Ho20 In6 Os2'
_cell_volume   788.11144211
_cell_formula_units_Z   2
loop_
 _symmetry_equiv_pos_site_id
 _symmetry_equiv_pos_as_xyz
  1  'x, y, z'
loop_
 _atom_site_type_symbol
 _atom_site_label
 _atom_site_symmetry_multiplicity
 _atom_site_fract_x
 _atom_site_fract_y
 _atom_site_fract_z
 _atom_site_occupancy
  Ho  Ho0  1  0.000000  0.000000  0.500000  1
  Ho  Ho1  1  0.000000  0.000000  0.000000  1
  Ho  Ho2  1  0.209843  0.790157  0.439769  1
  Ho  Ho3  1  0.209843  0.419685  0.439769  1
  Ho  Ho4  1  0.580315  0.790157  0.439769  1
  Ho  Ho5  1  0.790157  0.209843  0.560231  1
  Ho  Ho6  1  0.790157  0.580315  0.560231  1
  Ho  Ho7  1  0.419685  0.209843  0.560231  1
  Ho  Ho8  1  0.790157  0.209843  0.939769  1
  Ho  Ho9  1  0.790157  0.580315  0.939769  1
  Ho  Ho10  1  0.419685  0.209843  0.939769  1
  Ho  Ho11  1  0.209843  0.790157  0.060231  1
  Ho  Ho12  1  0.209843  0.419685  0.060231  1
  Ho  Ho13  1  0.580315  0.790157  0.060231  1
  Ho  Ho14  1  0.538383  0.461617  0.250000  1
  Ho  Ho15  1  0.538383  0.076766  0.250000  1
  Ho  Ho16  1  0.923234  0.461617  0.250000  1
  Ho  Ho17  1  0.461617  0.538383  0.750000  1
  Ho  Ho18  1  0.461617  0.923234  0.750000  1
  Ho  Ho19  1  0.076766  0.538383  0.750000  1
  In  In20  1  0.885086  0.114914  0.250000  1
  In  In21  1  0.885086  0.770174  0.250000  1
  In  In22  1  0.229826  0.114914  0.250000  1
  In  In23  1  0.114914  0.885086  0.750000  1
  In  In24  1  0.114914  0.229826  0.750000  1
  In  In25  1  0.770174  0.885086  0.750000  1
  Os  Os26  1  0.333333  0.666667  0.250000  1
  Os  Os27  1  0.666667  0.333333  0.750000  1
