# generated using pymatgen
data_Li2Sm2Si2Sn
_symmetry_space_group_name_H-M   'P 1'
_cell_length_a   9.71193412
_cell_length_b   9.71193347
_cell_length_c   6.81253200
_cell_angle_alpha   90.00000000
_cell_angle_beta   90.00000000
_cell_angle_gamma   153.27043594
_symmetry_Int_Tables_number   1
_chemical_formula_structural   Li2Sm2Si2Sn
_chemical_formula_sum   'Li4 Sm4 Si4 Sn2'
_cell_volume   289.01476762
_cell_formula_units_Z   2
loop_
 _symmetry_equiv_pos_site_id
 _symmetry_equiv_pos_as_xyz
  1  'x, y, z'
loop_
 _atom_site_type_symbol
 _atom_site_label
 _atom_site_symmetry_multiplicity
 _atom_site_fract_x
 _atom_site_fract_y
 _atom_site_fract_z
 _atom_site_occupancy
  Li  Li0  1  0.815353  0.184647  0.553885  1
  Li  Li1  1  0.184647  0.815353  0.446115  1
  Li  Li2  1  0.184647  0.815353  0.053885  1
  Li  Li3  1  0.815353  0.184647  0.946115  1
  Sm  Sm4  1  0.548122  0.451878  0.250000  1
  Sm  Sm5  1  0.451878  0.548122  0.750000  1
  Sm  Sm6  1  0.350847  0.649153  0.250000  1
  Sm  Sm7  1  0.649153  0.350847  0.750000  1
  Si  Si8  1  0.942407  0.057593  0.073361  1
  Si  Si9  1  0.057593  0.942407  0.926639  1
  Si  Si10  1  0.057593  0.942407  0.573361  1
  Si  Si11  1  0.942407  0.057593  0.426639  1
  Sn  Sn12  1  0.718964  0.281036  0.250000  1
  Sn  Sn13  1  0.281036  0.718964  0.750000  1
