# generated using pymatgen
data_YbFe2(P6Ir)2
_symmetry_space_group_name_H-M   'P 1'
_cell_length_a   6.86671965
_cell_length_b   6.89352073
_cell_length_c   6.89352102
_cell_angle_alpha   109.66441590
_cell_angle_beta   109.42825940
_cell_angle_gamma   109.47848664
_symmetry_Int_Tables_number   1
_chemical_formula_structural   YbFe2(P6Ir)2
_chemical_formula_sum   'Yb1 Fe2 P12 Ir2'
_cell_volume   250.70386839
_cell_formula_units_Z   1
loop_
 _symmetry_equiv_pos_site_id
 _symmetry_equiv_pos_as_xyz
  1  'x, y, z'
loop_
 _atom_site_type_symbol
 _atom_site_label
 _atom_site_symmetry_multiplicity
 _atom_site_fract_x
 _atom_site_fract_y
 _atom_site_fract_z
 _atom_site_occupancy
  Yb  Yb0  1  0.000000  0.000000  0.000000  1
  Fe  Fe1  1  0.000000  0.500000  0.000000  1
  Fe  Fe2  1  0.000000  0.000000  0.500000  1
  P  P3  1  0.134422  0.791854  0.636742  1
  P  P4  1  0.134422  0.497680  0.342568  1
  P  P5  1  0.865578  0.502320  0.657432  1
  P  P6  1  0.342695  0.134448  0.497969  1
  P  P7  1  0.802455  0.652906  0.149549  1
  P  P8  1  0.865578  0.208146  0.363258  1
  P  P9  1  0.657305  0.155274  0.791752  1
  P  P10  1  0.501054  0.640405  0.860649  1
  P  P11  1  0.657305  0.865552  0.502031  1
  P  P12  1  0.498946  0.359595  0.139351  1
  P  P13  1  0.342695  0.844726  0.208248  1
  P  P14  1  0.197545  0.347094  0.850451  1
  Ir  Ir15  1  0.500000  0.000000  0.000000  1
  Ir  Ir16  1  0.500000  0.500000  0.500000  1
