# generated using pymatgen
data_Tm5Tc2BC6
_symmetry_space_group_name_H-M   'P 1'
_cell_length_a   8.20512099
_cell_length_b   8.20512081
_cell_length_c   3.38342600
_cell_angle_alpha   90.00000000
_cell_angle_beta   90.00000000
_cell_angle_gamma   121.81694956
_symmetry_Int_Tables_number   1
_chemical_formula_structural   Tm5Tc2BC6
_chemical_formula_sum   'Tm5 Tc2 B1 C6'
_cell_volume   193.55797190
_cell_formula_units_Z   1
loop_
 _symmetry_equiv_pos_site_id
 _symmetry_equiv_pos_as_xyz
  1  'x, y, z'
loop_
 _atom_site_type_symbol
 _atom_site_label
 _atom_site_symmetry_multiplicity
 _atom_site_fract_x
 _atom_site_fract_y
 _atom_site_fract_z
 _atom_site_occupancy
  Tm  Tm0  1  0.500000  0.500000  0.000000  1
  Tm  Tm1  1  0.080578  0.332388  0.500000  1
  Tm  Tm2  1  0.919422  0.667612  0.500000  1
  Tm  Tm3  1  0.667612  0.919422  0.500000  1
  Tm  Tm4  1  0.332388  0.080578  0.500000  1
  Tc  Tc5  1  0.714129  0.285871  0.000000  1
  Tc  Tc6  1  0.285871  0.714129  0.000000  1
  B  B7  1  0.000000  0.000000  0.000000  1
  C  C8  1  0.625306  0.374694  0.500000  1
  C  C9  1  0.374694  0.625306  0.500000  1
  C  C10  1  0.184103  0.184103  0.000000  1
  C  C11  1  0.815897  0.815897  0.000000  1
  C  C12  1  0.000000  0.500000  0.000000  1
  C  C13  1  0.500000  0.000000  0.000000  1
