# generated using pymatgen
data_Er5TmCo14(P3Ir)4
_symmetry_space_group_name_H-M   'P 1'
_cell_length_a   3.71782700
_cell_length_b   10.63568903
_cell_length_c   12.35992703
_cell_angle_alpha   90.00845732
_cell_angle_beta   90.00000000
_cell_angle_gamma   90.00000000
_symmetry_Int_Tables_number   1
_chemical_formula_structural   Er5TmCo14(P3Ir)4
_chemical_formula_sum   'Er5 Tm1 Co14 P12 Ir4'
_cell_volume   488.73192615
_cell_formula_units_Z   1
loop_
 _symmetry_equiv_pos_site_id
 _symmetry_equiv_pos_as_xyz
  1  'x, y, z'
loop_
 _atom_site_type_symbol
 _atom_site_label
 _atom_site_symmetry_multiplicity
 _atom_site_fract_x
 _atom_site_fract_y
 _atom_site_fract_z
 _atom_site_occupancy
  Er  Er0  1  0.000000  0.500062  0.520267  1
  Er  Er1  1  0.500000  0.999913  0.479811  1
  Er  Er2  1  0.500000  0.813491  0.206075  1
  Er  Er3  1  0.500000  0.186495  0.205871  1
  Er  Er4  1  0.000000  0.686570  0.793883  1
  Tm  Tm5  1  0.000000  0.313531  0.794004  1
  Co  Co6  1  0.000000  0.499873  0.988300  1
  Co  Co7  1  0.500000  0.000107  0.011580  1
  Co  Co8  1  0.500000  0.332311  0.993100  1
  Co  Co9  1  0.500000  0.667612  0.993269  1
  Co  Co10  1  0.000000  0.167778  0.006580  1
  Co  Co11  1  0.000000  0.832337  0.006705  1
  Co  Co12  1  0.500000  0.299925  0.429272  1
  Co  Co13  1  0.500000  0.700051  0.429242  1
  Co  Co14  1  0.000000  0.200151  0.570907  1
  Co  Co15  1  0.000000  0.799908  0.570769  1
  Co  Co16  1  0.500000  0.880276  0.710564  1
  Co  Co17  1  0.500000  0.119993  0.710707  1
  Co  Co18  1  0.000000  0.619734  0.289441  1
  Co  Co19  1  0.000000  0.380270  0.289466  1
  P  P20  1  0.500000  0.499768  0.889104  1
  P  P21  1  0.000000  0.000032  0.110746  1
  P  P22  1  0.500000  0.500042  0.351567  1
  P  P23  1  0.000000  0.999919  0.648479  1
  P  P24  1  0.500000  0.302794  0.613619  1
  P  P25  1  0.500000  0.697167  0.613323  1
  P  P26  1  0.000000  0.197250  0.386682  1
  P  P27  1  0.000000  0.802726  0.386700  1
  P  P28  1  0.500000  0.844619  0.894201  1
  P  P29  1  0.500000  0.155736  0.893908  1
  P  P30  1  0.000000  0.655389  0.105806  1
  P  P31  1  0.000000  0.344629  0.105849  1
  Ir  Ir32  1  0.500000  0.499939  0.161286  1
  Ir  Ir33  1  0.000000  0.000063  0.838691  1
  Ir  Ir34  1  0.500000  0.499523  0.703145  1
  Ir  Ir35  1  0.000000  0.000017  0.297083  1
