# generated using pymatgen
data_CaTm3(Rh2O7)2
_symmetry_space_group_name_H-M   'P 1'
_cell_length_a   7.20332728
_cell_length_b   7.18322037
_cell_length_c   7.18322100
_cell_angle_alpha   60.00000169
_cell_angle_beta   60.09229548
_cell_angle_gamma   60.09229574
_symmetry_Int_Tables_number   1
_chemical_formula_structural   CaTm3(Rh2O7)2
_chemical_formula_sum   'Ca1 Tm3 Rh4 O14'
_cell_volume   263.18493598
_cell_formula_units_Z   1
loop_
 _symmetry_equiv_pos_site_id
 _symmetry_equiv_pos_as_xyz
  1  'x, y, z'
loop_
 _atom_site_type_symbol
 _atom_site_label
 _atom_site_symmetry_multiplicity
 _atom_site_fract_x
 _atom_site_fract_y
 _atom_site_fract_z
 _atom_site_occupancy
  Ca  Ca0  1  0.125000  0.625000  0.625000  1
  Tm  Tm1  1  0.625000  0.625000  0.125000  1
  Tm  Tm2  1  0.625000  0.625000  0.625000  1
  Tm  Tm3  1  0.625000  0.125000  0.625000  1
  Rh  Rh4  1  0.125000  0.125000  0.125000  1
  Rh  Rh5  1  0.625000  0.125000  0.125000  1
  Rh  Rh6  1  0.125000  0.625000  0.125000  1
  Rh  Rh7  1  0.125000  0.125000  0.625000  1
  O  O8  1  0.031048  0.458332  0.458332  1
  O  O9  1  0.787169  0.789719  0.211556  1
  O  O10  1  0.787169  0.211556  0.211556  1
  O  O11  1  0.462831  0.038444  0.460281  1
  O  O12  1  0.031048  0.052287  0.458332  1
  O  O13  1  0.031048  0.458332  0.052287  1
  O  O14  1  0.738906  0.753698  0.753698  1
  O  O15  1  0.511094  0.496302  0.496302  1
  O  O16  1  0.787169  0.211556  0.789719  1
  O  O17  1  0.218952  0.791668  0.197713  1
  O  O18  1  0.218952  0.197713  0.791668  1
  O  O19  1  0.462831  0.038444  0.038444  1
  O  O20  1  0.462831  0.460281  0.038444  1
  O  O21  1  0.218952  0.791668  0.791668  1
