# generated using pymatgen
data_Ca4YbY3Cd8
_symmetry_space_group_name_H-M   'P 1'
_cell_length_a   7.54832100
_cell_length_b   7.53094100
_cell_length_c   7.46204600
_cell_angle_alpha   90.00000000
_cell_angle_beta   90.00068315
_cell_angle_gamma   90.00000000
_symmetry_Int_Tables_number   1
_chemical_formula_structural   Ca4YbY3Cd8
_chemical_formula_sum   'Ca4 Yb1 Y3 Cd8'
_cell_volume   424.18716918
_cell_formula_units_Z   1
loop_
 _symmetry_equiv_pos_site_id
 _symmetry_equiv_pos_as_xyz
  1  'x, y, z'
loop_
 _atom_site_type_symbol
 _atom_site_label
 _atom_site_symmetry_multiplicity
 _atom_site_fract_x
 _atom_site_fract_y
 _atom_site_fract_z
 _atom_site_occupancy
  Ca  Ca0  1  0.749512  0.250000  0.000099  1
  Ca  Ca1  1  0.249519  0.750000  0.499900  1
  Ca  Ca2  1  0.750482  0.250000  0.500099  1
  Ca  Ca3  1  0.250490  0.750000  0.999900  1
  Yb  Yb4  1  0.250602  0.250000  0.999997  1
  Y  Y5  1  0.749377  0.750000  0.000001  1
  Y  Y6  1  0.750636  0.750000  0.499990  1
  Y  Y7  1  0.249373  0.250000  0.500008  1
  Cd  Cd8  1  0.000152  0.500116  0.248708  1
  Cd  Cd9  1  0.000152  0.999886  0.248708  1
  Cd  Cd10  1  0.500188  0.000074  0.251265  1
  Cd  Cd11  1  0.500188  0.499926  0.251265  1
  Cd  Cd12  1  0.499856  0.500131  0.748736  1
  Cd  Cd13  1  0.499856  0.999871  0.748736  1
  Cd  Cd14  1  0.999808  0.000079  0.751294  1
  Cd  Cd15  1  0.999808  0.499921  0.751294  1
