# generated using pymatgen
data_Ho4Sc3AlIr4
_symmetry_space_group_name_H-M   'P 1'
_cell_length_a   4.34352900
_cell_length_b   7.02258906
_cell_length_c   8.34047717
_cell_angle_alpha   88.28948929
_cell_angle_beta   90.00000000
_cell_angle_gamma   90.00000000
_symmetry_Int_Tables_number   1
_chemical_formula_structural   Ho4Sc3AlIr4
_chemical_formula_sum   'Ho4 Sc3 Al1 Ir4'
_cell_volume   254.29470374
_cell_formula_units_Z   1
loop_
 _symmetry_equiv_pos_site_id
 _symmetry_equiv_pos_as_xyz
  1  'x, y, z'
loop_
 _atom_site_type_symbol
 _atom_site_label
 _atom_site_symmetry_multiplicity
 _atom_site_fract_x
 _atom_site_fract_y
 _atom_site_fract_z
 _atom_site_occupancy
  Ho  Ho0  1  0.250000  0.513826  0.163915  1
  Ho  Ho1  1  0.750000  0.456805  0.830916  1
  Ho  Ho2  1  0.750000  0.980655  0.683755  1
  Ho  Ho3  1  0.250000  0.034679  0.318825  1
  Sc  Sc4  1  0.250000  0.639335  0.566946  1
  Sc  Sc5  1  0.750000  0.364694  0.428948  1
  Sc  Sc6  1  0.750000  0.863252  0.062177  1
  Al  Al7  1  0.250000  0.138586  0.937746  1
  Ir  Ir8  1  0.250000  0.763659  0.883959  1
  Ir  Ir9  1  0.750000  0.233666  0.114157  1
  Ir  Ir10  1  0.750000  0.751003  0.393298  1
  Ir  Ir11  1  0.250000  0.259841  0.615357  1
