# generated using pymatgen
data_Eu2GaNiF10
_symmetry_space_group_name_H-M   'P 1'
_cell_length_a   5.71104993
_cell_length_b   5.69588075
_cell_length_c   7.86958876
_cell_angle_alpha   70.19582774
_cell_angle_beta   69.69618330
_cell_angle_gamma   71.72264608
_symmetry_Int_Tables_number   1
_chemical_formula_structural   Eu2GaNiF10
_chemical_formula_sum   'Eu2 Ga1 Ni1 F10'
_cell_volume   220.24183378
_cell_formula_units_Z   1
loop_
 _symmetry_equiv_pos_site_id
 _symmetry_equiv_pos_as_xyz
  1  'x, y, z'
loop_
 _atom_site_type_symbol
 _atom_site_label
 _atom_site_symmetry_multiplicity
 _atom_site_fract_x
 _atom_site_fract_y
 _atom_site_fract_z
 _atom_site_occupancy
  Eu  Eu0  1  0.547873  0.447207  0.255986  1
  Eu  Eu1  1  0.452127  0.552793  0.744014  1
  Ga  Ga2  1  0.000000  0.000000  0.000000  1
  Ni  Ni3  1  0.000000  0.000000  0.500000  1
  F  F4  1  0.077813  0.922590  0.760306  1
  F  F5  1  0.922187  0.077410  0.239694  1
  F  F6  1  0.208871  0.238236  0.888493  1
  F  F7  1  0.749264  0.784030  0.618957  1
  F  F8  1  0.706934  0.308800  0.527735  1
  F  F9  1  0.700729  0.281412  0.966524  1
  F  F10  1  0.293066  0.691200  0.472265  1
  F  F11  1  0.299271  0.718588  0.033476  1
  F  F12  1  0.250736  0.215970  0.381043  1
  F  F13  1  0.791129  0.761764  0.111507  1
