# generated using pymatgen
data_Tm3ZrAl17GaRh6
_symmetry_space_group_name_H-M   'P 1'
_cell_length_a   7.51088335
_cell_length_b   7.49617569
_cell_length_c   9.40493200
_cell_angle_alpha   90.00000000
_cell_angle_beta   90.00000000
_cell_angle_gamma   119.33722482
_symmetry_Int_Tables_number   1
_chemical_formula_structural   Tm3ZrAl17GaRh6
_chemical_formula_sum   'Tm3 Zr1 Al17 Ga1 Rh6'
_cell_volume   461.61398420
_cell_formula_units_Z   1
loop_
 _symmetry_equiv_pos_site_id
 _symmetry_equiv_pos_as_xyz
  1  'x, y, z'
loop_
 _atom_site_type_symbol
 _atom_site_label
 _atom_site_symmetry_multiplicity
 _atom_site_fract_x
 _atom_site_fract_y
 _atom_site_fract_z
 _atom_site_occupancy
  Tm  Tm0  1  0.006711  0.324368  0.750000  1
  Tm  Tm1  1  0.672348  0.996091  0.250000  1
  Tm  Tm2  1  0.325705  0.007245  0.750000  1
  Zr  Zr3  1  0.996113  0.671504  0.250000  1
  Al  Al4  1  0.125114  0.122768  0.250000  1
  Al  Al5  1  0.000004  0.338188  0.079209  1
  Al  Al6  1  0.999706  0.664408  0.927802  1
  Al  Al7  1  0.999706  0.664408  0.572198  1
  Al  Al8  1  0.332926  0.997866  0.420697  1
  Al  Al9  1  0.000004  0.338188  0.420791  1
  Al  Al10  1  0.663698  0.998546  0.575653  1
  Al  Al11  1  0.663698  0.998546  0.924347  1
  Al  Al12  1  0.332926  0.997866  0.079303  1
  Al  Al13  1  0.334313  0.334447  0.549265  1
  Al  Al14  1  0.669664  0.667804  0.441447  1
  Al  Al15  1  0.669664  0.667804  0.058553  1
  Al  Al16  1  0.334313  0.334447  0.950735  1
  Al  Al17  1  0.335913  0.552090  0.250000  1
  Al  Al18  1  0.661736  0.449445  0.750000  1
  Al  Al19  1  0.556732  0.343265  0.250000  1
  Al  Al20  1  0.447624  0.659890  0.750000  1
  Ga  Ga21  1  0.868873  0.867448  0.750000  1
  Rh  Rh22  1  0.673026  0.328096  0.000805  1
  Rh  Rh23  1  0.328416  0.673175  0.001210  1
  Rh  Rh24  1  0.328416  0.673175  0.498790  1
  Rh  Rh25  1  0.673026  0.328096  0.499195  1
  Rh  Rh26  1  0.999815  0.000413  0.002916  1
  Rh  Rh27  1  0.999815  0.000413  0.497084  1
