# generated using pymatgen
data_Sr14MgSb11
_symmetry_space_group_name_H-M   'P 1'
_cell_length_a   17.08800905
_cell_length_b   17.08800862
_cell_length_c   17.08800900
_cell_angle_alpha   117.77309881
_cell_angle_beta   117.77309805
_cell_angle_gamma   93.90242172
_symmetry_Int_Tables_number   1
_chemical_formula_structural   Sr14MgSb11
_chemical_formula_sum   'Sr56 Mg4 Sb44'
_cell_volume   3637.88176850
_cell_formula_units_Z   4
loop_
 _symmetry_equiv_pos_site_id
 _symmetry_equiv_pos_as_xyz
  1  'x, y, z'
loop_
 _atom_site_type_symbol
 _atom_site_label
 _atom_site_symmetry_multiplicity
 _atom_site_fract_x
 _atom_site_fract_y
 _atom_site_fract_z
 _atom_site_occupancy
  Sr  Sr0  1  0.351145  0.688271  0.976037  1
  Sr  Sr1  1  0.938271  0.101145  0.476037  1
  Sr  Sr2  1  0.775140  0.496074  0.366321  1
  Sr  Sr3  1  0.125000  0.518622  0.893622  1
  Sr  Sr4  1  0.625000  0.231378  0.106378  1
  Sr  Sr5  1  0.712234  0.375108  0.023963  1
  Sr  Sr6  1  0.003926  0.724860  0.633679  1
  Sr  Sr7  1  0.851145  0.875108  0.662874  1
  Sr  Sr8  1  0.125108  0.601145  0.162874  1
  Sr  Sr9  1  0.496997  0.144816  0.396467  1
  Sr  Sr10  1  0.894816  0.998350  0.147820  1
  Sr  Sr11  1  0.355184  0.003003  0.603533  1
  Sr  Sr12  1  0.974860  0.753926  0.133679  1
  Sr  Sr13  1  0.037766  0.874892  0.476037  1
  Sr  Sr14  1  0.537766  0.061729  0.162874  1
  Sr  Sr15  1  0.474860  0.341179  0.220934  1
  Sr  Sr16  1  0.399470  0.751650  0.396467  1
  Sr  Sr17  1  0.394816  0.246997  0.896467  1
  Sr  Sr18  1  0.898855  0.374892  0.837126  1
  Sr  Sr19  1  0.350530  0.498350  0.103533  1
  Sr  Sr20  1  0.481378  0.375000  0.606378  1
  Sr  Sr21  1  0.438271  0.962234  0.837126  1
  Sr  Sr22  1  0.629754  0.996074  0.720934  1
  Sr  Sr23  1  0.753003  0.649470  0.147820  1
  Sr  Sr24  1  0.311729  0.287766  0.662874  1
  Sr  Sr25  1  0.124892  0.787766  0.976037  1
  Sr  Sr26  1  0.246074  0.379754  0.220934  1
  Sr  Sr27  1  0.501650  0.605184  0.852180  1
  Sr  Sr28  1  0.811729  0.148855  0.023963  1
  Sr  Sr29  1  0.768622  0.875000  0.393622  1
  Sr  Sr30  1  0.658821  0.879754  0.133679  1
  Sr  Sr31  1  0.158821  0.025140  0.779066  1
  Sr  Sr32  1  0.996997  0.600530  0.352180  1
  Sr  Sr33  1  0.591179  0.224860  0.720934  1
  Sr  Sr34  1  0.850530  0.746997  0.852180  1
  Sr  Sr35  1  0.620246  0.841179  0.866321  1
  Sr  Sr36  1  0.625108  0.462234  0.523963  1
  Sr  Sr37  1  0.268622  0.875000  0.893622  1
  Sr  Sr38  1  0.275140  0.908821  0.279066  1
  Sr  Sr39  1  0.746074  0.525140  0.866321  1
  Sr  Sr40  1  0.899470  0.503003  0.647820  1
  Sr  Sr41  1  0.125000  0.018622  0.393622  1
  Sr  Sr42  1  0.248350  0.644816  0.647820  1
  Sr  Sr43  1  0.748350  0.100530  0.603533  1
  Sr  Sr44  1  0.981378  0.375000  0.106378  1
  Sr  Sr45  1  0.001650  0.149470  0.896467  1
  Sr  Sr46  1  0.212234  0.188271  0.337126  1
  Sr  Sr47  1  0.625000  0.731378  0.606378  1
  Sr  Sr48  1  0.855184  0.251650  0.352180  1
  Sr  Sr49  1  0.120246  0.253926  0.779066  1
  Sr  Sr50  1  0.503926  0.870246  0.279066  1
  Sr  Sr51  1  0.129754  0.408821  0.633679  1
  Sr  Sr52  1  0.624892  0.648855  0.337126  1
  Sr  Sr53  1  0.253003  0.105184  0.103533  1
  Sr  Sr54  1  0.091179  0.370246  0.366321  1
  Sr  Sr55  1  0.398855  0.561729  0.523963  1
  Mg  Mg56  1  0.500000  0.500000  0.000000  1
  Mg  Mg57  1  0.750000  0.250000  0.500000  1
  Mg  Mg58  1  0.250000  0.750000  0.500000  1
  Mg  Mg59  1  0.000000  0.000000  0.000000  1
  Sb  Sb60  1  0.896992  0.540858  0.093708  1
  Sb  Sb61  1  0.453592  0.810987  0.636374  1
  Sb  Sb62  1  0.853008  0.709142  0.406292  1
  Sb  Sb63  1  0.689013  0.046408  0.363626  1
  Sb  Sb64  1  0.553284  0.146992  0.856133  1
  Sb  Sb65  1  0.560987  0.424613  0.857395  1
  Sb  Sb66  1  0.882638  0.882638  0.265276  1
  Sb  Sb67  1  0.802849  0.209142  0.856133  1
  Sb  Sb68  1  0.500000  0.000000  0.500000  1
  Sb  Sb69  1  0.674613  0.310987  0.357395  1
  Sb  Sb70  1  0.075387  0.939013  0.142605  1
  Sb  Sb71  1  0.290858  0.697151  0.143867  1
  Sb  Sb72  1  0.575387  0.432782  0.136374  1
  Sb  Sb73  1  0.196716  0.103008  0.643867  1
  Sb  Sb74  1  0.750000  0.750000  0.000000  1
  Sb  Sb75  1  0.117362  0.382638  0.000000  1
  Sb  Sb76  1  0.067218  0.924613  0.863626  1
  Sb  Sb77  1  0.174613  0.817218  0.363626  1
  Sb  Sb78  1  0.796408  0.932782  0.857395  1
  Sb  Sb79  1  0.459142  0.552849  0.356133  1
  Sb  Sb80  1  0.189013  0.825387  0.642605  1
  Sb  Sb81  1  0.947151  0.040858  0.643867  1
  Sb  Sb82  1  0.250000  0.250000  0.000000  1
  Sb  Sb83  1  0.060987  0.203592  0.136374  1
  Sb  Sb84  1  0.132638  0.632638  0.765276  1
  Sb  Sb85  1  0.182782  0.546408  0.357395  1
  Sb  Sb86  1  0.959142  0.603008  0.906292  1
  Sb  Sb87  1  0.567218  0.703592  0.142605  1
  Sb  Sb88  1  0.302849  0.446716  0.593708  1
  Sb  Sb89  1  0.867362  0.367362  0.234724  1
  Sb  Sb90  1  0.617362  0.617362  0.734724  1
  Sb  Sb91  1  0.353008  0.946716  0.143867  1
  Sb  Sb92  1  0.367362  0.132638  0.500000  1
  Sb  Sb93  1  0.396992  0.303284  0.356133  1
  Sb  Sb94  1  0.296408  0.439013  0.863626  1
  Sb  Sb95  1  0.696716  0.052849  0.093708  1
  Sb  Sb96  1  0.447151  0.803284  0.906292  1
  Sb  Sb97  1  0.632638  0.867362  0.500000  1
  Sb  Sb98  1  0.000000  0.500000  0.500000  1
  Sb  Sb99  1  0.382638  0.117362  0.000000  1
  Sb  Sb100  1  0.953592  0.317218  0.642605  1
  Sb  Sb101  1  0.053284  0.197151  0.406292  1
  Sb  Sb102  1  0.682782  0.325387  0.636374  1
  Sb  Sb103  1  0.790858  0.646992  0.593708  1
