# generated using pymatgen
data_Tm8Fe(B8Ir)3
_symmetry_space_group_name_H-M   'P 1'
_cell_length_a   3.58936600
_cell_length_b   9.10770733
_cell_length_c   11.43277803
_cell_angle_alpha   89.95039452
_cell_angle_beta   90.00000000
_cell_angle_gamma   90.00000000
_symmetry_Int_Tables_number   1
_chemical_formula_structural   Tm8Fe(B8Ir)3
_chemical_formula_sum   'Tm8 Fe1 B24 Ir3'
_cell_volume   373.74760641
_cell_formula_units_Z   1
loop_
 _symmetry_equiv_pos_site_id
 _symmetry_equiv_pos_as_xyz
  1  'x, y, z'
loop_
 _atom_site_type_symbol
 _atom_site_label
 _atom_site_symmetry_multiplicity
 _atom_site_fract_x
 _atom_site_fract_y
 _atom_site_fract_z
 _atom_site_occupancy
  Tm  Tm0  1  0.000000  0.319822  0.413922  1
  Tm  Tm1  1  0.000000  0.682145  0.589521  1
  Tm  Tm2  1  0.000000  0.821517  0.082329  1
  Tm  Tm3  1  0.000000  0.175645  0.912238  1
  Tm  Tm4  1  0.000000  0.943824  0.374454  1
  Tm  Tm5  1  0.000000  0.052418  0.629277  1
  Tm  Tm6  1  0.000000  0.444213  0.125015  1
  Tm  Tm7  1  0.000000  0.560584  0.873556  1
  Fe  Fe8  1  0.000000  0.861928  0.820631  1
  B  B9  1  0.500000  0.553694  0.435232  1
  B  B10  1  0.500000  0.446338  0.565672  1
  B  B11  1  0.500000  0.053032  0.064303  1
  B  B12  1  0.500000  0.945293  0.932222  1
  B  B13  1  0.500000  0.749801  0.421941  1
  B  B14  1  0.500000  0.249196  0.579472  1
  B  B15  1  0.500000  0.249252  0.077949  1
  B  B16  1  0.500000  0.753546  0.918407  1
  B  B17  1  0.500000  0.793424  0.264471  1
  B  B18  1  0.500000  0.206047  0.735318  1
  B  B19  1  0.500000  0.293553  0.235435  1
  B  B20  1  0.500000  0.709440  0.766017  1
  B  B21  1  0.500000  0.632409  0.183100  1
  B  B22  1  0.500000  0.368355  0.816272  1
  B  B23  1  0.500000  0.132172  0.316605  1
  B  B24  1  0.500000  0.868022  0.686491  1
  B  B25  1  0.500000  0.981001  0.212870  1
  B  B26  1  0.500000  0.014610  0.787697  1
  B  B27  1  0.500000  0.481254  0.286296  1
  B  B28  1  0.500000  0.519276  0.713900  1
  B  B29  1  0.500000  0.610354  0.029563  1
  B  B30  1  0.500000  0.390933  0.969614  1
  B  B31  1  0.500000  0.108280  0.470774  1
  B  B32  1  0.500000  0.890935  0.530418  1
  Ir  Ir33  1  0.000000  0.637800  0.321575  1
  Ir  Ir34  1  0.000000  0.362081  0.678770  1
  Ir  Ir35  1  0.000000  0.137805  0.178675  1
