# generated using pymatgen
data_Ce3Tl2F13
_symmetry_space_group_name_H-M   'P 1'
_cell_length_a   11.46150046
_cell_length_b   11.46150089
_cell_length_c   11.46150000
_cell_angle_alpha   42.65142448
_cell_angle_beta   42.65142214
_cell_angle_gamma   42.65141735
_symmetry_Int_Tables_number   1
_chemical_formula_structural   Ce3Tl2F13
_chemical_formula_sum   'Ce6 Tl4 F26'
_cell_volume   626.04008835
_cell_formula_units_Z   2
loop_
 _symmetry_equiv_pos_site_id
 _symmetry_equiv_pos_as_xyz
  1  'x, y, z'
loop_
 _atom_site_type_symbol
 _atom_site_label
 _atom_site_symmetry_multiplicity
 _atom_site_fract_x
 _atom_site_fract_y
 _atom_site_fract_z
 _atom_site_occupancy
  Ce  Ce0  1  0.573336  0.573336  0.043474  1
  Ce  Ce1  1  0.043474  0.573336  0.573336  1
  Ce  Ce2  1  0.573336  0.043474  0.573336  1
  Ce  Ce3  1  0.426664  0.956526  0.426664  1
  Ce  Ce4  1  0.956526  0.426664  0.426664  1
  Ce  Ce5  1  0.426664  0.426664  0.956526  1
  Tl  Tl6  1  0.000000  0.000000  0.000000  1
  Tl  Tl7  1  0.500000  0.500000  0.500000  1
  Tl  Tl8  1  0.140137  0.140137  0.140137  1
  Tl  Tl9  1  0.859863  0.859863  0.859863  1
  F  F10  1  0.293329  0.293329  0.293329  1
  F  F11  1  0.706671  0.706671  0.706671  1
  F  F12  1  0.365806  0.700375  0.700375  1
  F  F13  1  0.700375  0.365806  0.700375  1
  F  F14  1  0.700375  0.700375  0.365806  1
  F  F15  1  0.634194  0.299625  0.299625  1
  F  F16  1  0.299625  0.634194  0.299625  1
  F  F17  1  0.299625  0.299625  0.634194  1
  F  F18  1  0.094316  0.578954  0.094316  1
  F  F19  1  0.094316  0.094316  0.578954  1
  F  F20  1  0.000000  0.350264  0.649736  1
  F  F21  1  0.350264  0.649736  0.000000  1
  F  F22  1  0.649736  0.000000  0.350264  1
  F  F23  1  0.000000  0.649736  0.350264  1
  F  F24  1  0.649736  0.350264  0.000000  1
  F  F25  1  0.350264  0.000000  0.649736  1
  F  F26  1  0.084145  0.656861  0.656861  1
  F  F27  1  0.656861  0.656861  0.084145  1
  F  F28  1  0.656861  0.084145  0.656861  1
  F  F29  1  0.343139  0.915855  0.343139  1
  F  F30  1  0.915855  0.343139  0.343139  1
  F  F31  1  0.343139  0.343139  0.915855  1
  F  F32  1  0.905684  0.421046  0.905684  1
  F  F33  1  0.421046  0.905684  0.905684  1
  F  F34  1  0.905684  0.905684  0.421046  1
  F  F35  1  0.578954  0.094316  0.094316  1
