# generated using pymatgen
data_La2Ga3Co23
_symmetry_space_group_name_H-M   'P 1'
_cell_length_a   8.00482100
_cell_length_b   8.00482085
_cell_length_c   8.08004326
_cell_angle_alpha   119.69251080
_cell_angle_beta   89.99999995
_cell_angle_gamma   119.99999891
_symmetry_Int_Tables_number   1
_chemical_formula_structural   La2Ga3Co23
_chemical_formula_sum   'La2 Ga3 Co23'
_cell_volume   367.79417629
_cell_formula_units_Z   1
loop_
 _symmetry_equiv_pos_site_id
 _symmetry_equiv_pos_as_xyz
  1  'x, y, z'
loop_
 _atom_site_type_symbol
 _atom_site_label
 _atom_site_symmetry_multiplicity
 _atom_site_fract_x
 _atom_site_fract_y
 _atom_site_fract_z
 _atom_site_occupancy
  La  La0  1  0.752680  0.505362  0.258043  1
  La  La1  1  0.247461  0.494921  0.742381  1
  Ga  Ga2  1  0.692903  0.998301  0.056740  1
  Ga  Ga3  1  0.058439  0.751342  0.056740  1
  Ga  Ga4  1  0.305398  0.363836  0.056740  1
  Co  Co5  1  0.000263  0.000527  0.000790  1
  Co  Co6  1  0.571087  0.778583  0.215344  1
  Co  Co7  1  0.436762  0.007848  0.215344  1
  Co  Co8  1  0.207496  0.644258  0.215344  1
  Co  Co9  1  0.943122  0.001771  0.298065  1
  Co  Co10  1  0.296295  0.239417  0.298066  1
  Co  Co11  1  0.058649  0.354943  0.298066  1
  Co  Co12  1  0.796248  0.232540  0.439751  1
  Co  Co13  1  0.207212  0.003460  0.439752  1
  Co  Co14  1  0.436292  0.643505  0.439752  1
  Co  Co15  1  0.500855  0.001709  0.502564  1
  Co  Co16  1  0.795236  0.998178  0.561110  1
  Co  Co17  1  0.562933  0.358169  0.561111  1
  Co  Co18  1  0.202942  0.765875  0.561111  1
  Co  Co19  1  0.940229  0.645279  0.703309  1
  Co  Co20  1  0.058032  0.998261  0.703310  1
  Co  Co21  1  0.705049  0.763081  0.703310  1
  Co  Co22  1  0.557981  0.996386  0.783663  1
  Co  Co23  1  0.787277  0.345259  0.783663  1
  Co  Co24  1  0.438403  0.225681  0.783663  1
  Co  Co25  1  0.300801  0.001683  0.940758  1
  Co  Co26  1  0.939075  0.239877  0.940758  1
  Co  Co27  1  0.700881  0.639958  0.940758  1
