# generated using pymatgen
data_TbEr3Fe5(Co3B2)3
_symmetry_space_group_name_H-M   'P 1'
_cell_length_a   5.04241900
_cell_length_b   5.04241929
_cell_length_c   12.73905500
_cell_angle_alpha   90.00000000
_cell_angle_beta   90.00000000
_cell_angle_gamma   120.00000464
_symmetry_Int_Tables_number   1
_chemical_formula_structural   TbEr3Fe5(Co3B2)3
_chemical_formula_sum   'Tb1 Er3 Fe5 Co9 B6'
_cell_volume   280.50829625
_cell_formula_units_Z   1
loop_
 _symmetry_equiv_pos_site_id
 _symmetry_equiv_pos_as_xyz
  1  'x, y, z'
loop_
 _atom_site_type_symbol
 _atom_site_label
 _atom_site_symmetry_multiplicity
 _atom_site_fract_x
 _atom_site_fract_y
 _atom_site_fract_z
 _atom_site_occupancy
  Tb  Tb0  1  0.000000  0.000000  0.001045  1
  Er  Er1  1  0.000000  0.000000  0.498500  1
  Er  Er2  1  0.000000  0.000000  0.733628  1
  Er  Er3  1  0.000000  0.000000  0.261146  1
  Fe  Fe4  1  0.666667  0.333333  0.003494  1
  Fe  Fe5  1  0.333333  0.666667  0.003494  1
  Fe  Fe6  1  0.500000  0.500000  0.845747  1
  Fe  Fe7  1  0.500000  0.000000  0.845747  1
  Fe  Fe8  1  0.000000  0.500000  0.845747  1
  Co  Co9  1  0.500000  0.500000  0.157890  1
  Co  Co10  1  0.500000  0.000000  0.157890  1
  Co  Co11  1  0.000000  0.500000  0.157890  1
  Co  Co12  1  0.500000  0.500000  0.613387  1
  Co  Co13  1  0.500000  0.000000  0.613387  1
  Co  Co14  1  0.000000  0.500000  0.613387  1
  Co  Co15  1  0.500000  0.500000  0.384590  1
  Co  Co16  1  0.500000  0.000000  0.384590  1
  Co  Co17  1  0.000000  0.500000  0.384590  1
  B  B18  1  0.666667  0.333333  0.499010  1
  B  B19  1  0.333333  0.666667  0.499010  1
  B  B20  1  0.666667  0.333333  0.728956  1
  B  B21  1  0.333333  0.666667  0.728956  1
  B  B22  1  0.333333  0.666667  0.268959  1
  B  B23  1  0.666667  0.333333  0.268959  1
