# generated using pymatgen
data_Nd3GeI3
_symmetry_space_group_name_H-M   'P 1'
_cell_length_a   10.86749216
_cell_length_b   10.86749272
_cell_length_c   10.86749200
_cell_angle_alpha   109.47121742
_cell_angle_beta   109.47121848
_cell_angle_gamma   109.47122173
_symmetry_Int_Tables_number   1
_chemical_formula_structural   Nd3GeI3
_chemical_formula_sum   'Nd12 Ge4 I12'
_cell_volume   988.02095275
_cell_formula_units_Z   4
loop_
 _symmetry_equiv_pos_site_id
 _symmetry_equiv_pos_as_xyz
  1  'x, y, z'
loop_
 _atom_site_type_symbol
 _atom_site_label
 _atom_site_symmetry_multiplicity
 _atom_site_fract_x
 _atom_site_fract_y
 _atom_site_fract_z
 _atom_site_occupancy
  Nd  Nd0  1  0.466060  0.483030  0.233030  1
  Nd  Nd1  1  0.750000  0.233030  0.266970  1
  Nd  Nd2  1  0.750000  0.016970  0.483030  1
  Nd  Nd3  1  0.233030  0.466060  0.483030  1
  Nd  Nd4  1  0.266970  0.750000  0.233030  1
  Nd  Nd5  1  0.033940  0.266970  0.016970  1
  Nd  Nd6  1  0.016970  0.033940  0.266970  1
  Nd  Nd7  1  0.483030  0.750000  0.016970  1
  Nd  Nd8  1  0.483030  0.233030  0.466060  1
  Nd  Nd9  1  0.016970  0.483030  0.750000  1
  Nd  Nd10  1  0.266970  0.016970  0.033940  1
  Nd  Nd11  1  0.233030  0.266970  0.750000  1
  Ge  Ge12  1  0.250000  0.250000  0.250000  1
  Ge  Ge13  1  0.500000  0.000000  0.250000  1
  Ge  Ge14  1  0.000000  0.250000  0.500000  1
  Ge  Ge15  1  0.250000  0.500000  0.000000  1
  I  I16  1  0.250000  0.757464  0.742536  1
  I  I17  1  0.514928  0.507464  0.757464  1
  I  I18  1  0.985072  0.742536  0.992536  1
  I  I19  1  0.742536  0.250000  0.757464  1
  I  I20  1  0.992536  0.985072  0.742536  1
  I  I21  1  0.250000  0.992536  0.507464  1
  I  I22  1  0.757464  0.514928  0.507464  1
  I  I23  1  0.507464  0.250000  0.992536  1
  I  I24  1  0.757464  0.742536  0.250000  1
  I  I25  1  0.742536  0.992536  0.985072  1
  I  I26  1  0.992536  0.507464  0.250000  1
  I  I27  1  0.507464  0.757464  0.514928  1
