# generated using pymatgen
data_TeCF34
_symmetry_space_group_name_H-M   'P 1'
_cell_length_a   8.58117633
_cell_length_b   8.11990320
_cell_length_c   10.82522383
_cell_angle_alpha   80.23897288
_cell_angle_beta   90.43759862
_cell_angle_gamma   68.73297469
_symmetry_Int_Tables_number   1
_chemical_formula_structural   TeCF34
_chemical_formula_sum   'Te1 C1 F34'
_cell_volume   690.77565193
_cell_formula_units_Z   1
loop_
 _symmetry_equiv_pos_site_id
 _symmetry_equiv_pos_as_xyz
  1  'x, y, z'
loop_
 _atom_site_type_symbol
 _atom_site_label
 _atom_site_symmetry_multiplicity
 _atom_site_fract_x
 _atom_site_fract_y
 _atom_site_fract_z
 _atom_site_occupancy
  Te  Te0  1  0.864364  0.251484  0.766329  1
  C  C1  1  0.168042  0.739091  0.160615  1
  F  F2  1  0.603099  0.210133  0.474319  1
  F  F3  1  0.388198  0.781903  0.514181  1
  F  F4  1  0.784539  0.770266  0.708197  1
  F  F5  1  0.163954  0.315464  0.304323  1
  F  F6  1  0.109254  0.717571  0.845402  1
  F  F7  1  0.917063  0.224949  0.146241  1
  F  F8  1  0.559146  0.142210  0.371470  1
  F  F9  1  0.442507  0.856341  0.608642  1
  F  F10  1  0.640882  0.332468  0.703454  1
  F  F11  1  0.272789  0.707061  0.262479  1
  F  F12  1  0.922014  0.074463  0.667549  1
  F  F13  1  0.998397  0.918007  0.444387  1
  F  F14  1  0.904597  0.407008  0.634185  1
  F  F15  1  0.088153  0.675071  0.466954  1
  F  F16  1  0.887353  0.774195  0.605243  1
  F  F17  1  0.151862  0.163987  0.386139  1
  F  F18  1  0.808958  0.430011  0.864277  1
  F  F19  1  0.196731  0.584020  0.119100  1
  F  F20  1  0.235693  0.687013  0.758270  1
  F  F21  1  0.791432  0.301024  0.227273  1
  F  F22  1  0.008378  0.805023  0.189908  1
  F  F23  1  0.086642  0.170356  0.831159  1
  F  F24  1  0.821993  0.094595  0.896895  1
  F  F25  1  0.195741  0.858716  0.070082  1
  F  F26  1  0.504534  0.584516  0.987507  1
  F  F27  1  0.517312  0.401952  0.004681  1
  F  F28  1  0.453827  0.099969  0.868743  1
  F  F29  1  0.530624  0.920517  0.131265  1
  F  F30  1  0.287736  0.247842  0.606828  1
  F  F31  1  0.709553  0.750099  0.376968  1
  F  F32  1  0.268697  0.393844  0.670041  1
  F  F33  1  0.756724  0.597242  0.317063  1
  F  F34  1  0.524028  0.917132  0.853784  1
  F  F35  1  0.435182  0.094453  0.156048  1
