# generated using pymatgen
data_Y4LuPt15
_symmetry_space_group_name_H-M   'P 1'
_cell_length_a   4.12764700
_cell_length_b   4.12764700
_cell_length_c   20.52485100
_cell_angle_alpha   90.00000000
_cell_angle_beta   90.00000000
_cell_angle_gamma   90.00000000
_symmetry_Int_Tables_number   1
_chemical_formula_structural   Y4LuPt15
_chemical_formula_sum   'Y4 Lu1 Pt15'
_cell_volume   349.69152817
_cell_formula_units_Z   1
loop_
 _symmetry_equiv_pos_site_id
 _symmetry_equiv_pos_as_xyz
  1  'x, y, z'
loop_
 _atom_site_type_symbol
 _atom_site_label
 _atom_site_symmetry_multiplicity
 _atom_site_fract_x
 _atom_site_fract_y
 _atom_site_fract_z
 _atom_site_occupancy
  Y  Y0  1  0.000000  0.000000  0.198844  1
  Y  Y1  1  0.000000  0.000000  0.399593  1
  Y  Y2  1  0.000000  0.000000  0.600407  1
  Y  Y3  1  0.000000  0.000000  0.801156  1
  Lu  Lu4  1  0.000000  0.000000  0.000000  1
  Pt  Pt5  1  0.500000  0.500000  0.000000  1
  Pt  Pt6  1  0.500000  0.500000  0.198707  1
  Pt  Pt7  1  0.500000  0.500000  0.399676  1
  Pt  Pt8  1  0.500000  0.500000  0.600324  1
  Pt  Pt9  1  0.500000  0.500000  0.801293  1
  Pt  Pt10  1  0.500000  0.000000  0.097737  1
  Pt  Pt11  1  0.500000  0.000000  0.299294  1
  Pt  Pt12  1  0.500000  0.000000  0.500000  1
  Pt  Pt13  1  0.500000  0.000000  0.700706  1
  Pt  Pt14  1  0.500000  0.000000  0.902263  1
  Pt  Pt15  1  0.000000  0.500000  0.097737  1
  Pt  Pt16  1  0.000000  0.500000  0.299294  1
  Pt  Pt17  1  0.000000  0.500000  0.500000  1
  Pt  Pt18  1  0.000000  0.500000  0.700706  1
  Pt  Pt19  1  0.000000  0.500000  0.902263  1
