# generated using pymatgen
data_Pr6P13IrRh19
_symmetry_space_group_name_H-M   'P 1'
_cell_length_a   13.49079000
_cell_length_b   13.49078876
_cell_length_c   3.99648500
_cell_angle_alpha   90.00000000
_cell_angle_beta   90.00000000
_cell_angle_gamma   119.99999814
_symmetry_Int_Tables_number   1
_chemical_formula_structural   Pr6P13IrRh19
_chemical_formula_sum   'Pr6 P13 Ir1 Rh19'
_cell_volume   629.91732210
_cell_formula_units_Z   1
loop_
 _symmetry_equiv_pos_site_id
 _symmetry_equiv_pos_as_xyz
  1  'x, y, z'
loop_
 _atom_site_type_symbol
 _atom_site_label
 _atom_site_symmetry_multiplicity
 _atom_site_fract_x
 _atom_site_fract_y
 _atom_site_fract_z
 _atom_site_occupancy
  Pr  Pr0  1  0.530404  0.717302  0.247146  1
  Pr  Pr1  1  0.282698  0.813102  0.247146  1
  Pr  Pr2  1  0.186898  0.469596  0.247146  1
  Pr  Pr3  1  0.469714  0.282678  0.753055  1
  Pr  Pr4  1  0.717322  0.187036  0.753055  1
  Pr  Pr5  1  0.812964  0.530286  0.753055  1
  P  P6  1  0.521622  0.135324  0.251012  1
  P  P7  1  0.864676  0.386299  0.251012  1
  P  P8  1  0.613701  0.478378  0.251012  1
  P  P9  1  0.948648  0.719529  0.255233  1
  P  P10  1  0.280471  0.229119  0.255233  1
  P  P11  1  0.770881  0.051352  0.255233  1
  P  P12  1  0.385666  0.522181  0.748897  1
  P  P13  1  0.477819  0.863484  0.748897  1
  P  P14  1  0.136516  0.614334  0.748897  1
  P  P15  1  0.719690  0.771089  0.744841  1
  P  P16  1  0.228911  0.948601  0.744841  1
  P  P17  1  0.051399  0.280310  0.744841  1
  P  P18  1  0.000000  0.000000  0.000292  1
  Ir  Ir19  1  0.333333  0.666667  0.750331  1
  Rh  Rh20  1  0.923454  0.248837  0.256453  1
  Rh  Rh21  1  0.751163  0.674617  0.256453  1
  Rh  Rh22  1  0.325383  0.076546  0.256453  1
  Rh  Rh23  1  0.439266  0.024826  0.752080  1
  Rh  Rh24  1  0.975174  0.414441  0.752080  1
  Rh  Rh25  1  0.585559  0.560734  0.752080  1
  Rh  Rh26  1  0.666667  0.333333  0.249414  1
  Rh  Rh27  1  0.092502  0.184565  0.245151  1
  Rh  Rh28  1  0.815435  0.907936  0.245151  1
  Rh  Rh29  1  0.092064  0.907498  0.245151  1
  Rh  Rh30  1  0.024565  0.585357  0.247874  1
  Rh  Rh31  1  0.414643  0.439206  0.247874  1
  Rh  Rh32  1  0.560794  0.975435  0.247874  1
  Rh  Rh33  1  0.674505  0.923461  0.743471  1
  Rh  Rh34  1  0.076539  0.751044  0.743471  1
  Rh  Rh35  1  0.248956  0.325495  0.743471  1
  Rh  Rh36  1  0.907543  0.815589  0.754777  1
  Rh  Rh37  1  0.184411  0.091956  0.754777  1
  Rh  Rh38  1  0.908044  0.092457  0.754777  1
