# generated using pymatgen
data_La8Zn8Ir3Pt5
_symmetry_space_group_name_H-M   'P 1'
_cell_length_a   4.09086800
_cell_length_b   7.49088744
_cell_length_c   16.91169111
_cell_angle_alpha   90.16680946
_cell_angle_beta   90.00000000
_cell_angle_gamma   90.00000000
_symmetry_Int_Tables_number   1
_chemical_formula_structural   La8Zn8Ir3Pt5
_chemical_formula_sum   'La8 Zn8 Ir3 Pt5'
_cell_volume   518.24358436
_cell_formula_units_Z   1
loop_
 _symmetry_equiv_pos_site_id
 _symmetry_equiv_pos_as_xyz
  1  'x, y, z'
loop_
 _atom_site_type_symbol
 _atom_site_label
 _atom_site_symmetry_multiplicity
 _atom_site_fract_x
 _atom_site_fract_y
 _atom_site_fract_z
 _atom_site_occupancy
  La  La0  1  0.750000  0.327499  0.437690  1
  La  La1  1  0.250000  0.051109  0.719473  1
  La  La2  1  0.250000  0.544549  0.786730  1
  La  La3  1  0.250000  0.669541  0.559528  1
  La  La4  1  0.750000  0.828403  0.055660  1
  La  La5  1  0.250000  0.169590  0.937149  1
  La  La6  1  0.750000  0.448841  0.218796  1
  La  La7  1  0.750000  0.958053  0.283526  1
  Zn  Zn8  1  0.250000  0.128378  0.150560  1
  Zn  Zn9  1  0.250000  0.999766  0.438495  1
  Zn  Zn10  1  0.750000  0.874106  0.852355  1
  Zn  Zn11  1  0.750000  0.002002  0.560984  1
  Zn  Zn12  1  0.250000  0.499903  0.059133  1
  Zn  Zn13  1  0.750000  0.372100  0.651084  1
  Zn  Zn14  1  0.750000  0.502503  0.938417  1
  Zn  Zn15  1  0.250000  0.623681  0.350139  1
  Ir  Ir16  1  0.750000  0.249895  0.814766  1
  Ir  Ir17  1  0.250000  0.249782  0.315242  1
  Ir  Ir18  1  0.250000  0.739353  0.934951  1
  Pt  Pt19  1  0.250000  0.240231  0.565412  1
  Pt  Pt20  1  0.250000  0.748427  0.185710  1
  Pt  Pt21  1  0.750000  0.759568  0.434692  1
  Pt  Pt22  1  0.750000  0.260536  0.065269  1
  Pt  Pt23  1  0.750000  0.752186  0.684242  1
