# generated using pymatgen
data_Dy2Mn2Co2Ni8P7
_symmetry_space_group_name_H-M   'P 1'
_cell_length_a   9.07729765
_cell_length_b   9.07986941
_cell_length_c   3.66849000
_cell_angle_alpha   90.00000000
_cell_angle_beta   90.00000000
_cell_angle_gamma   119.85998935
_symmetry_Int_Tables_number   1
_chemical_formula_structural   Dy2Mn2Co2Ni8P7
_chemical_formula_sum   'Dy2 Mn2 Co2 Ni8 P7'
_cell_volume   262.21959558
_cell_formula_units_Z   1
loop_
 _symmetry_equiv_pos_site_id
 _symmetry_equiv_pos_as_xyz
  1  'x, y, z'
loop_
 _atom_site_type_symbol
 _atom_site_label
 _atom_site_symmetry_multiplicity
 _atom_site_fract_x
 _atom_site_fract_y
 _atom_site_fract_z
 _atom_site_occupancy
  Dy  Dy0  1  0.665192  0.331848  0.000000  1
  Dy  Dy1  1  0.333446  0.666087  0.500000  1
  Mn  Mn2  1  0.095542  0.217131  0.500000  1
  Mn  Mn3  1  0.784228  0.880178  0.500000  1
  Co  Co4  1  0.275335  0.153805  0.000000  1
  Co  Co5  1  0.843652  0.123420  0.000000  1
  Ni  Ni6  1  0.373468  0.936582  0.000000  1
  Ni  Ni7  1  0.062409  0.434744  0.000000  1
  Ni  Ni8  1  0.567232  0.628775  0.000000  1
  Ni  Ni9  1  0.879670  0.723573  0.000000  1
  Ni  Ni10  1  0.951597  0.565138  0.500000  1
  Ni  Ni11  1  0.434763  0.384176  0.500000  1
  Ni  Ni12  1  0.613981  0.052128  0.500000  1
  Ni  Ni13  1  0.123267  0.902195  0.500000  1
  P  P14  1  0.114398  0.706895  0.000000  1
  P  P15  1  0.295456  0.405836  0.000000  1
  P  P16  1  0.594695  0.889245  0.000000  1
  P  P17  1  0.708481  0.595092  0.500000  1
  P  P18  1  0.397644  0.112782  0.500000  1
  P  P19  1  0.885017  0.287082  0.500000  1
  P  P20  1  0.000528  0.003288  0.000000  1
