# generated using pymatgen
data_NdDyY4(Al3Os)8
_symmetry_space_group_name_H-M   'P 1'
_cell_length_a   8.83625600
_cell_length_b   8.84384542
_cell_length_c   9.64243400
_cell_angle_alpha   90.00000000
_cell_angle_beta   90.00000000
_cell_angle_gamma   119.97160893
_symmetry_Int_Tables_number   1
_chemical_formula_structural   NdDyY4(Al3Os)8
_chemical_formula_sum   'Nd1 Dy1 Y4 Al24 Os8'
_cell_volume   652.75606267
_cell_formula_units_Z   1
loop_
 _symmetry_equiv_pos_site_id
 _symmetry_equiv_pos_as_xyz
  1  'x, y, z'
loop_
 _atom_site_type_symbol
 _atom_site_label
 _atom_site_symmetry_multiplicity
 _atom_site_fract_x
 _atom_site_fract_y
 _atom_site_fract_z
 _atom_site_occupancy
  Nd  Nd0  1  0.191497  0.382995  0.250000  1
  Dy  Dy1  1  0.806947  0.613894  0.750000  1
  Y  Y2  1  0.613522  0.807165  0.250000  1
  Y  Y3  1  0.385844  0.193070  0.750000  1
  Y  Y4  1  0.193644  0.807165  0.250000  1
  Y  Y5  1  0.807226  0.193070  0.750000  1
  Al  Al6  1  0.333845  0.667689  0.014780  1
  Al  Al7  1  0.666515  0.333028  0.982077  1
  Al  Al8  1  0.666515  0.333028  0.517923  1
  Al  Al9  1  0.333845  0.667689  0.485220  1
  Al  Al10  1  0.163687  0.327374  0.576869  1
  Al  Al11  1  0.836485  0.672969  0.426283  1
  Al  Al12  1  0.673147  0.836440  0.574631  1
  Al  Al13  1  0.836485  0.672969  0.073717  1
  Al  Al14  1  0.328243  0.163318  0.426907  1
  Al  Al15  1  0.163687  0.327374  0.923131  1
  Al  Al16  1  0.163293  0.836440  0.574631  1
  Al  Al17  1  0.328243  0.163318  0.073093  1
  Al  Al18  1  0.835075  0.163318  0.426907  1
  Al  Al19  1  0.673147  0.836440  0.925369  1
  Al  Al20  1  0.835075  0.163318  0.073093  1
  Al  Al21  1  0.163293  0.836440  0.925369  1
  Al  Al22  1  0.561252  0.122505  0.250000  1
  Al  Al23  1  0.439016  0.878031  0.750000  1
  Al  Al24  1  0.875853  0.439449  0.250000  1
  Al  Al25  1  0.122059  0.561356  0.750000  1
  Al  Al26  1  0.563598  0.439449  0.250000  1
  Al  Al27  1  0.439297  0.561356  0.750000  1
  Al  Al28  1  0.998279  0.996557  0.250000  1
  Al  Al29  1  0.999326  0.998652  0.750000  1
  Os  Os30  1  0.500107  0.000212  0.999820  1
  Os  Os31  1  0.999142  0.500728  0.998860  1
  Os  Os32  1  0.500107  0.000212  0.500180  1
  Os  Os33  1  0.501586  0.500728  0.998860  1
  Os  Os34  1  0.999142  0.500728  0.501140  1
  Os  Os35  1  0.501586  0.500728  0.501140  1
  Os  Os36  1  0.000199  0.000398  0.999977  1
  Os  Os37  1  0.000199  0.000398  0.500023  1
