# generated using pymatgen
data_K8CaHf6Mn(PO4)12
_symmetry_space_group_name_H-M   'P 1'
_cell_length_a   10.28287900
_cell_length_b   10.30264521
_cell_length_c   10.30312700
_cell_angle_alpha   89.98854935
_cell_angle_beta   90.00000000
_cell_angle_gamma   90.00000000
_symmetry_Int_Tables_number   1
_chemical_formula_structural   K8CaHf6Mn(PO4)12
_chemical_formula_sum   'K8 Ca1 Hf6 Mn1 P12 O48'
_cell_volume   1091.52205177
_cell_formula_units_Z   1
loop_
 _symmetry_equiv_pos_site_id
 _symmetry_equiv_pos_as_xyz
  1  'x, y, z'
loop_
 _atom_site_type_symbol
 _atom_site_label
 _atom_site_symmetry_multiplicity
 _atom_site_fract_x
 _atom_site_fract_y
 _atom_site_fract_z
 _atom_site_occupancy
  K  K0  1  0.566322  0.173158  0.426032  1
  K  K1  1  0.301902  0.041986  0.811011  1
  K  K2  1  0.801426  0.957234  0.183654  1
  K  K3  1  0.067989  0.827044  0.571820  1
  K  K4  1  0.439024  0.699762  0.056913  1
  K  K5  1  0.697782  0.562957  0.717449  1
  K  K6  1  0.197057  0.441598  0.284493  1
  K  K7  1  0.938262  0.302554  0.941234  1
  Ca  Ca8  1  0.151658  0.098843  0.148028  1
  Hf  Hf9  1  0.909823  0.160470  0.586215  1
  Hf  Hf10  1  0.410660  0.840255  0.411994  1
  Hf  Hf11  1  0.084462  0.667727  0.912672  1
  Hf  Hf12  1  0.856338  0.605800  0.356584  1
  Hf  Hf13  1  0.358577  0.394841  0.645484  1
  Hf  Hf14  1  0.583643  0.333967  0.086121  1
  Mn  Mn15  1  0.648778  0.898227  0.853369  1
  P  P16  1  0.623357  0.211957  0.770149  1
  P  P17  1  0.232971  0.129890  0.468723  1
  P  P18  1  0.469748  0.015236  0.122643  1
  P  P19  1  0.961158  0.979847  0.869330  1
  P  P20  1  0.730136  0.873163  0.536458  1
  P  P21  1  0.120776  0.782627  0.232960  1
  P  P22  1  0.370369  0.715964  0.727139  1
  P  P23  1  0.773839  0.617866  0.038376  1
  P  P24  1  0.535761  0.522916  0.371941  1
  P  P25  1  0.037211  0.476303  0.627981  1
  P  P26  1  0.274455  0.386636  0.961135  1
  P  P27  1  0.865082  0.286768  0.274372  1
  O  O28  1  0.846258  0.245945  0.418178  1
  O  O29  1  0.755852  0.225055  0.697968  1
  O  O30  1  0.301228  0.218652  0.571473  1
  O  O31  1  0.960997  0.203560  0.200914  1
  O  O32  1  0.248505  0.188215  0.334589  1
  O  O33  1  0.501680  0.163302  0.141913  1
  O  O34  1  0.088113  0.110783  0.506776  1
  O  O35  1  0.566443  0.076446  0.761304  1
  O  O36  1  0.970388  0.039976  0.729369  1
  O  O37  1  0.060939  0.051070  0.951945  1
  O  O38  1  0.334441  0.999058  0.064809  1
  O  O39  1  0.798967  0.006438  0.515914  1
  O  O40  1  0.300653  0.994828  0.482275  1
  O  O41  1  0.823389  0.990523  0.922268  1
  O  O42  1  0.575612  0.947072  0.044981  1
  O  O43  1  0.473917  0.955282  0.263694  1
  O  O44  1  0.059190  0.915369  0.247586  1
  O  O45  1  0.587049  0.890983  0.491901  1
  O  O46  1  0.999805  0.833474  0.851060  1
  O  O47  1  0.739944  0.821430  0.673945  1
  O  O48  1  0.468005  0.798312  0.799921  1
  O  O49  1  0.800907  0.777540  0.440942  1
  O  O50  1  0.255086  0.773172  0.302642  1
  O  O51  1  0.350784  0.756922  0.583301  1
  O  O52  1  0.142130  0.744440  0.088532  1
  O  O53  1  0.235212  0.730908  0.793611  1
  O  O54  1  0.701855  0.711413  0.950922  1
  O  O55  1  0.034330  0.676364  0.299263  1
  O  O56  1  0.774819  0.664788  0.182980  1
  O  O57  1  0.490430  0.664173  0.352048  1
  O  O58  1  0.917532  0.595923  0.995857  1
  O  O59  1  0.412705  0.570216  0.727196  1
  O  O60  1  0.022456  0.551531  0.756744  1
  O  O61  1  0.949450  0.546529  0.527414  1
  O  O62  1  0.679108  0.521972  0.418978  1
  O  O63  1  0.208434  0.521610  0.969907  1
  O  O64  1  0.705728  0.483296  0.030498  1
  O  O65  1  0.180449  0.476432  0.580180  1
  O  O66  1  0.449328  0.452302  0.473570  1
  O  O67  1  0.518565  0.448743  0.243020  1
  O  O68  1  0.908929  0.431526  0.273722  1
  O  O69  1  0.418560  0.406826  0.002179  1
  O  O70  1  0.990922  0.335501  0.649374  1
  O  O71  1  0.273478  0.339396  0.817309  1
  O  O72  1  0.531853  0.313553  0.702306  1
  O  O73  1  0.202001  0.293439  0.048302  1
  O  O74  1  0.729367  0.273153  0.209637  1
  O  O75  1  0.645634  0.256961  0.912501  1
