# generated using pymatgen
data_Nd5YHo2(MoO6)4
_symmetry_space_group_name_H-M   'P 1'
_cell_length_a   10.14922453
_cell_length_b   10.14922419
_cell_length_c   5.49518542
_cell_angle_alpha   75.09217945
_cell_angle_beta   75.09217833
_cell_angle_gamma   68.38985622
_symmetry_Int_Tables_number   1
_chemical_formula_structural   Nd5YHo2(MoO6)4
_chemical_formula_sum   'Nd5 Y1 Ho2 Mo4 O24'
_cell_volume   500.15223068
_cell_formula_units_Z   1
loop_
 _symmetry_equiv_pos_site_id
 _symmetry_equiv_pos_as_xyz
  1  'x, y, z'
loop_
 _atom_site_type_symbol
 _atom_site_label
 _atom_site_symmetry_multiplicity
 _atom_site_fract_x
 _atom_site_fract_y
 _atom_site_fract_z
 _atom_site_occupancy
  Nd  Nd0  1  0.447609  0.213293  0.380716  1
  Nd  Nd1  1  0.786707  0.552391  0.119284  1
  Nd  Nd2  1  0.550254  0.786628  0.620209  1
  Nd  Nd3  1  0.213372  0.449746  0.879791  1
  Nd  Nd4  1  0.865378  0.134622  0.250000  1
  Y  Y5  1  0.137256  0.862744  0.750000  1
  Ho  Ho6  1  0.395612  0.604388  0.250000  1
  Ho  Ho7  1  0.602121  0.397879  0.750000  1
  Mo  Mo8  1  0.294257  0.008312  0.065291  1
  Mo  Mo9  1  0.991688  0.705743  0.434709  1
  Mo  Mo10  1  0.704950  0.991001  0.934277  1
  Mo  Mo11  1  0.008999  0.295050  0.565723  1
  O  O12  1  0.604935  0.570643  0.924270  1
  O  O13  1  0.429357  0.395065  0.575730  1
  O  O14  1  0.394328  0.429855  0.077272  1
  O  O15  1  0.570145  0.605672  0.422728  1
  O  O16  1  0.332387  0.805654  0.930842  1
  O  O17  1  0.194346  0.667613  0.569158  1
  O  O18  1  0.663438  0.192741  0.061461  1
  O  O19  1  0.807259  0.336562  0.438539  1
  O  O20  1  0.324381  0.887813  0.375695  1
  O  O21  1  0.112187  0.675619  0.124305  1
  O  O22  1  0.671486  0.111119  0.624955  1
  O  O23  1  0.888881  0.328514  0.875045  1
  O  O24  1  0.179190  0.288260  0.634782  1
  O  O25  1  0.711740  0.820810  0.865218  1
  O  O26  1  0.821723  0.713537  0.365137  1
  O  O27  1  0.286463  0.178277  0.134863  1
  O  O28  1  0.047649  0.111543  0.522991  1
  O  O29  1  0.888457  0.952351  0.977009  1
  O  O30  1  0.955851  0.886182  0.486761  1
  O  O31  1  0.113818  0.044149  0.013239  1
  O  O32  1  0.024444  0.426894  0.264131  1
  O  O33  1  0.573106  0.975556  0.235869  1
  O  O34  1  0.978194  0.571966  0.732439  1
  O  O35  1  0.428034  0.021806  0.767561  1
