# generated using pymatgen
data_CsDyThS4
_symmetry_space_group_name_H-M   'P 1'
_cell_length_a   4.08669400
_cell_length_b   6.90484582
_cell_length_c   8.60527600
_cell_angle_alpha   74.78686808
_cell_angle_beta   90.00000000
_cell_angle_gamma   90.00000000
_symmetry_Int_Tables_number   1
_chemical_formula_structural   CsDyThS4
_chemical_formula_sum   'Cs1 Dy1 Th1 S4'
_cell_volume   234.31418995
_cell_formula_units_Z   1
loop_
 _symmetry_equiv_pos_site_id
 _symmetry_equiv_pos_as_xyz
  1  'x, y, z'
loop_
 _atom_site_type_symbol
 _atom_site_label
 _atom_site_symmetry_multiplicity
 _atom_site_fract_x
 _atom_site_fract_y
 _atom_site_fract_z
 _atom_site_occupancy
  Cs  Cs0  1  0.000000  0.500000  0.500000  1
  Dy  Dy1  1  0.500000  0.500000  0.000000  1
  Th  Th2  1  0.000000  0.000000  0.000000  1
  S  S3  1  0.500000  0.772956  0.182650  1
  S  S4  1  0.000000  0.278834  0.175796  1
  S  S5  1  0.500000  0.227044  0.817350  1
  S  S6  1  0.000000  0.721166  0.824204  1
