# generated using pymatgen
data_Tb20Co3Si8Ir
_symmetry_space_group_name_H-M   'P 1'
_cell_length_a   7.58541342
_cell_length_b   8.63102000
_cell_length_c   11.86337520
_cell_angle_alpha   90.00000000
_cell_angle_beta   89.85030766
_cell_angle_gamma   90.00000000
_symmetry_Int_Tables_number   1
_chemical_formula_structural   Tb20Co3Si8Ir
_chemical_formula_sum   'Tb20 Co3 Si8 Ir1'
_cell_volume   776.69080287
_cell_formula_units_Z   1
loop_
 _symmetry_equiv_pos_site_id
 _symmetry_equiv_pos_as_xyz
  1  'x, y, z'
loop_
 _atom_site_type_symbol
 _atom_site_label
 _atom_site_symmetry_multiplicity
 _atom_site_fract_x
 _atom_site_fract_y
 _atom_site_fract_z
 _atom_site_occupancy
  Tb  Tb0  1  0.670339  0.750000  0.719795  1
  Tb  Tb1  1  0.329706  0.250000  0.284133  1
  Tb  Tb2  1  0.169349  0.250000  0.785389  1
  Tb  Tb3  1  0.830445  0.750000  0.216120  1
  Tb  Tb4  1  0.145172  0.750000  0.799136  1
  Tb  Tb5  1  0.855603  0.250000  0.200034  1
  Tb  Tb6  1  0.646041  0.250000  0.701873  1
  Tb  Tb7  1  0.351583  0.750000  0.296326  1
  Tb  Tb8  1  0.534109  0.750000  0.998663  1
  Tb  Tb9  1  0.465322  0.250000  0.001276  1
  Tb  Tb10  1  0.035820  0.250000  0.501631  1
  Tb  Tb11  1  0.966207  0.750000  0.498570  1
  Tb  Tb12  1  0.821568  0.470433  0.925244  1
  Tb  Tb13  1  0.178829  0.527606  0.074303  1
  Tb  Tb14  1  0.320079  0.525359  0.576033  1
  Tb  Tb15  1  0.178829  0.972394  0.074303  1
  Tb  Tb16  1  0.680272  0.462548  0.422156  1
  Tb  Tb17  1  0.821568  0.029567  0.925244  1
  Tb  Tb18  1  0.680272  0.037452  0.422156  1
  Tb  Tb19  1  0.320079  0.974641  0.576033  1
  Co  Co20  1  0.929364  0.750000  0.988480  1
  Co  Co21  1  0.070694  0.250000  0.011506  1
  Co  Co22  1  0.428095  0.250000  0.511928  1
  Si  Si23  1  0.940268  0.003991  0.671070  1
  Si  Si24  1  0.060546  0.996341  0.329162  1
  Si  Si25  1  0.439141  0.996593  0.830118  1
  Si  Si26  1  0.060546  0.503659  0.329162  1
  Si  Si27  1  0.560449  0.003878  0.169758  1
  Si  Si28  1  0.940268  0.496009  0.671070  1
  Si  Si29  1  0.560449  0.496122  0.169758  1
  Si  Si30  1  0.439141  0.503407  0.830118  1
  Ir  Ir31  1  0.569847  0.750000  0.489452  1
