# generated using pymatgen
data_La4CeCo2
_symmetry_space_group_name_H-M   'P 1'
_cell_length_a   8.94665021
_cell_length_b   8.94664997
_cell_length_c   6.90811400
_cell_angle_alpha   85.41871988
_cell_angle_beta   85.41872643
_cell_angle_gamma   42.41650946
_symmetry_Int_Tables_number   1
_chemical_formula_structural   La4CeCo2
_chemical_formula_sum   'La8 Ce2 Co4'
_cell_volume   371.59707498
_cell_formula_units_Z   2
loop_
 _symmetry_equiv_pos_site_id
 _symmetry_equiv_pos_as_xyz
  1  'x, y, z'
loop_
 _atom_site_type_symbol
 _atom_site_label
 _atom_site_symmetry_multiplicity
 _atom_site_fract_x
 _atom_site_fract_y
 _atom_site_fract_z
 _atom_site_occupancy
  La  La0  1  0.023065  0.794468  0.919876  1
  La  La1  1  0.205532  0.976935  0.580124  1
  La  La2  1  0.976935  0.205532  0.080124  1
  La  La3  1  0.794468  0.023065  0.419876  1
  La  La4  1  0.362818  0.214921  0.826528  1
  La  La5  1  0.785079  0.637182  0.673472  1
  La  La6  1  0.637182  0.785079  0.173472  1
  La  La7  1  0.214921  0.362818  0.326528  1
  Ce  Ce8  1  0.570895  0.429105  0.750000  1
  Ce  Ce9  1  0.429105  0.570895  0.250000  1
  Co  Co10  1  0.237391  0.574519  0.567771  1
  Co  Co11  1  0.425481  0.762609  0.932229  1
  Co  Co12  1  0.762609  0.425481  0.432229  1
  Co  Co13  1  0.574519  0.237391  0.067771  1
