# generated using pymatgen
data_YbHo(NiB4)2
_symmetry_space_group_name_H-M   'P 1'
_cell_length_a   6.81212171
_cell_length_b   6.81212175
_cell_length_c   6.81212249
_cell_angle_alpha   112.85599628
_cell_angle_beta   112.85599752
_cell_angle_gamma   102.89513220
_symmetry_Int_Tables_number   1
_chemical_formula_structural   YbHo(NiB4)2
_chemical_formula_sum   'Yb2 Ho2 Ni4 B16'
_cell_volume   240.98047183
_cell_formula_units_Z   2
loop_
 _symmetry_equiv_pos_site_id
 _symmetry_equiv_pos_as_xyz
  1  'x, y, z'
loop_
 _atom_site_type_symbol
 _atom_site_label
 _atom_site_symmetry_multiplicity
 _atom_site_fract_x
 _atom_site_fract_y
 _atom_site_fract_z
 _atom_site_occupancy
  Yb  Yb0  1  0.795685  0.795685  0.000000  1
  Yb  Yb1  1  0.204315  0.204315  0.000000  1
  Ho  Ho2  1  0.750000  0.250000  0.500000  1
  Ho  Ho3  1  0.250000  0.750000  0.500000  1
  Ni  Ni4  1  0.273076  0.500000  0.773076  1
  Ni  Ni5  1  0.726924  0.500000  0.226924  1
  Ni  Ni6  1  0.500000  0.726924  0.226924  1
  Ni  Ni7  1  0.500000  0.273076  0.773076  1
  B  B8  1  0.276212  0.112071  0.388283  1
  B  B9  1  0.723788  0.887929  0.611717  1
  B  B10  1  0.276212  0.887929  0.164142  1
  B  B11  1  0.723788  0.112071  0.835858  1
  B  B12  1  0.112071  0.723788  0.835858  1
  B  B13  1  0.887929  0.276212  0.164142  1
  B  B14  1  0.112071  0.276212  0.388283  1
  B  B15  1  0.887929  0.723788  0.611717  1
  B  B16  1  0.113153  0.113153  0.530275  1
  B  B17  1  0.582878  0.582878  0.469725  1
  B  B18  1  0.113153  0.582878  0.000000  1
  B  B19  1  0.582878  0.113153  0.000000  1
  B  B20  1  0.886847  0.886847  0.469725  1
  B  B21  1  0.417122  0.417122  0.530275  1
  B  B22  1  0.886847  0.417122  0.000000  1
  B  B23  1  0.417122  0.886847  0.000000  1
