# generated using pymatgen
data_CeNi4Ge
_symmetry_space_group_name_H-M   'P 1'
_cell_length_a   5.03641200
_cell_length_b   4.86659844
_cell_length_c   4.06989100
_cell_angle_alpha   90.00000000
_cell_angle_beta   90.00000000
_cell_angle_gamma   121.16114608
_symmetry_Int_Tables_number   1
_chemical_formula_structural   CeNi4Ge
_chemical_formula_sum   'Ce1 Ni4 Ge1'
_cell_volume   85.36087624
_cell_formula_units_Z   1
loop_
 _symmetry_equiv_pos_site_id
 _symmetry_equiv_pos_as_xyz
  1  'x, y, z'
loop_
 _atom_site_type_symbol
 _atom_site_label
 _atom_site_symmetry_multiplicity
 _atom_site_fract_x
 _atom_site_fract_y
 _atom_site_fract_z
 _atom_site_occupancy
  Ce  Ce0  1  0.000000  0.000000  0.000000  1
  Ni  Ni1  1  0.000000  0.500000  0.500000  1
  Ni  Ni2  1  0.331452  0.662904  0.000000  1
  Ni  Ni3  1  0.668548  0.337096  0.000000  1
  Ni  Ni4  1  0.500000  0.500000  0.500000  1
  Ge  Ge5  1  0.500000  0.000000  0.500000  1
