# generated using pymatgen
data_TbEr15(In3Os)2
_symmetry_space_group_name_H-M   'P 1'
_cell_length_a   10.31474500
_cell_length_b   10.31061963
_cell_length_c   7.03079126
_cell_angle_alpha   89.94054601
_cell_angle_beta   90.00000000
_cell_angle_gamma   120.01323317
_symmetry_Int_Tables_number   1
_chemical_formula_structural   TbEr15(In3Os)2
_chemical_formula_sum   'Tb1 Er15 In6 Os2'
_cell_volume   647.47030988
_cell_formula_units_Z   1
loop_
 _symmetry_equiv_pos_site_id
 _symmetry_equiv_pos_as_xyz
  1  'x, y, z'
loop_
 _atom_site_type_symbol
 _atom_site_label
 _atom_site_symmetry_multiplicity
 _atom_site_fract_x
 _atom_site_fract_y
 _atom_site_fract_z
 _atom_site_occupancy
  Tb  Tb0  1  0.532526  0.065051  0.793394  1
  Er  Er1  1  0.934555  0.467377  0.793855  1
  Er  Er2  1  0.532822  0.467377  0.793855  1
  Er  Er3  1  0.467003  0.934007  0.293622  1
  Er  Er4  1  0.065726  0.532877  0.293850  1
  Er  Er5  1  0.467150  0.532877  0.293850  1
  Er  Er6  1  0.822570  0.645140  0.499153  1
  Er  Er7  1  0.354270  0.177356  0.498982  1
  Er  Er8  1  0.823087  0.177356  0.498982  1
  Er  Er9  1  0.177352  0.354704  0.999226  1
  Er  Er10  1  0.645603  0.822531  0.999526  1
  Er  Er11  1  0.176929  0.822531  0.999526  1
  Er  Er12  1  0.666914  0.333828  0.171540  1
  Er  Er13  1  0.333095  0.666191  0.671136  1
  Er  Er14  1  0.999985  0.999970  0.777807  1
  Er  Er15  1  0.999972  0.999943  0.277762  1
  In  In16  1  0.836943  0.673886  0.039805  1
  In  In17  1  0.325838  0.163215  0.040091  1
  In  In18  1  0.837377  0.163215  0.040091  1
  In  In19  1  0.163066  0.326130  0.539743  1
  In  In20  1  0.673881  0.836831  0.539768  1
  In  In21  1  0.162951  0.836831  0.539768  1
  Os  Os22  1  0.667027  0.334054  0.570046  1
  Os  Os23  1  0.333359  0.666719  0.070526  1
