# generated using pymatgen
data_La16Cd3Tc3HgPd
_symmetry_space_group_name_H-M   'P 1'
_cell_length_a   10.05560132
_cell_length_b   10.18871803
_cell_length_c   10.18871740
_cell_angle_alpha   59.92884872
_cell_angle_beta   59.44847147
_cell_angle_gamma   59.44847819
_symmetry_Int_Tables_number   1
_chemical_formula_structural   La16Cd3Tc3HgPd
_chemical_formula_sum   'La16 Cd3 Tc3 Hg1 Pd1'
_cell_volume   731.52781647
_cell_formula_units_Z   1
loop_
 _symmetry_equiv_pos_site_id
 _symmetry_equiv_pos_as_xyz
  1  'x, y, z'
loop_
 _atom_site_type_symbol
 _atom_site_label
 _atom_site_symmetry_multiplicity
 _atom_site_fract_x
 _atom_site_fract_y
 _atom_site_fract_z
 _atom_site_occupancy
  La  La0  1  0.341976  0.349050  0.349050  1
  La  La1  1  0.341989  0.349079  0.957013  1
  La  La2  1  0.341989  0.957013  0.349079  1
  La  La3  1  0.962599  0.345370  0.345370  1
  La  La4  1  0.820211  0.189484  0.189484  1
  La  La5  1  0.191496  0.810840  0.810840  1
  La  La6  1  0.190076  0.810853  0.188058  1
  La  La7  1  0.822156  0.189948  0.799418  1
  La  La8  1  0.190076  0.188058  0.810853  1
  La  La9  1  0.822156  0.799418  0.189948  1
  La  La10  1  0.938309  0.558827  0.558827  1
  La  La11  1  0.555296  0.941723  0.941723  1
  La  La12  1  0.557772  0.938909  0.562731  1
  La  La13  1  0.941215  0.557804  0.944203  1
  La  La14  1  0.557772  0.562731  0.938909  1
  La  La15  1  0.941215  0.944203  0.557804  1
  Cd  Cd16  1  0.577995  0.578582  0.263670  1
  Cd  Cd17  1  0.577995  0.263670  0.578582  1
  Cd  Cd18  1  0.264042  0.577987  0.577987  1
  Tc  Tc19  1  0.134956  0.135058  0.135058  1
  Tc  Tc20  1  0.133613  0.134604  0.595820  1
  Tc  Tc21  1  0.133613  0.595820  0.134604  1
  Hg  Hg22  1  0.581072  0.581897  0.581897  1
  Pd  Pd23  1  0.580415  0.139071  0.139071  1
