# generated using pymatgen
data_Ho2Er6Cd2CoOs
_symmetry_space_group_name_H-M   'P 1'
_cell_length_a   9.48961532
_cell_length_b   9.48733592
_cell_length_c   9.60627220
_cell_angle_alpha   59.60020150
_cell_angle_beta   59.57674098
_cell_angle_gamma   59.22978615
_symmetry_Int_Tables_number   1
_chemical_formula_structural   Ho2Er6Cd2CoOs
_chemical_formula_sum   'Ho4 Er12 Cd4 Co2 Os2'
_cell_volume   604.14711566
_cell_formula_units_Z   2
loop_
 _symmetry_equiv_pos_site_id
 _symmetry_equiv_pos_as_xyz
  1  'x, y, z'
loop_
 _atom_site_type_symbol
 _atom_site_label
 _atom_site_symmetry_multiplicity
 _atom_site_fract_x
 _atom_site_fract_y
 _atom_site_fract_z
 _atom_site_occupancy
  Ho  Ho0  1  0.805663  0.189743  0.814278  1
  Ho  Ho1  1  0.189743  0.805663  0.190316  1
  Ho  Ho2  1  0.812759  0.812759  0.187241  1
  Ho  Ho3  1  0.191492  0.191492  0.808508  1
  Er  Er4  1  0.600020  0.599975  0.589618  1
  Er  Er5  1  0.599975  0.600020  0.210387  1
  Er  Er6  1  0.602464  0.210398  0.593640  1
  Er  Er7  1  0.210398  0.602464  0.593499  1
  Er  Er8  1  0.057838  0.435913  0.439999  1
  Er  Er9  1  0.435913  0.057838  0.066248  1
  Er  Er10  1  0.436079  0.057658  0.440102  1
  Er  Er11  1  0.057658  0.436079  0.066160  1
  Er  Er12  1  0.438696  0.438696  0.061304  1
  Er  Er13  1  0.060652  0.060652  0.439348  1
  Er  Er14  1  0.190216  0.804982  0.813845  1
  Er  Er15  1  0.804982  0.190216  0.190958  1
  Cd  Cd16  1  0.830026  0.829621  0.831490  1
  Cd  Cd17  1  0.829621  0.830026  0.508863  1
  Cd  Cd18  1  0.829988  0.507299  0.831502  1
  Cd  Cd19  1  0.507299  0.829988  0.831211  1
  Co  Co20  1  0.393369  0.830343  0.388313  1
  Co  Co21  1  0.830343  0.393369  0.387974  1
  Os  Os22  1  0.392763  0.392039  0.386928  1
  Os  Os23  1  0.392039  0.392763  0.828272  1
