# generated using pymatgen
data_Yb3Pr8Sm9Sn16
_symmetry_space_group_name_H-M   'P 1'
_cell_length_a   8.11415261
_cell_length_b   8.44950765
_cell_length_c   16.02993400
_cell_angle_alpha   90.00000000
_cell_angle_beta   90.00000000
_cell_angle_gamma   89.95531275
_symmetry_Int_Tables_number   1
_chemical_formula_structural   Yb3Pr8Sm9Sn16
_chemical_formula_sum   'Yb3 Pr8 Sm9 Sn16'
_cell_volume   1099.02147136
_cell_formula_units_Z   1
loop_
 _symmetry_equiv_pos_site_id
 _symmetry_equiv_pos_as_xyz
  1  'x, y, z'
loop_
 _atom_site_type_symbol
 _atom_site_label
 _atom_site_symmetry_multiplicity
 _atom_site_fract_x
 _atom_site_fract_y
 _atom_site_fract_z
 _atom_site_occupancy
  Yb  Yb0  1  0.664729  0.001511  0.750000  1
  Yb  Yb1  1  0.834749  0.502307  0.250000  1
  Yb  Yb2  1  0.335465  0.998298  0.250000  1
  Pr  Pr3  1  0.495494  0.318395  0.902744  1
  Pr  Pr4  1  0.992805  0.180023  0.596332  1
  Pr  Pr5  1  0.506818  0.681503  0.403480  1
  Pr  Pr6  1  0.007467  0.817637  0.096397  1
  Pr  Pr7  1  0.506818  0.681503  0.096520  1
  Pr  Pr8  1  0.007467  0.817637  0.403603  1
  Pr  Pr9  1  0.495494  0.318395  0.597256  1
  Pr  Pr10  1  0.992805  0.180023  0.903668  1
  Sm  Sm11  1  0.336092  0.829338  0.875560  1
  Sm  Sm12  1  0.833940  0.671238  0.624108  1
  Sm  Sm13  1  0.664246  0.172262  0.375892  1
  Sm  Sm14  1  0.164023  0.329723  0.123548  1
  Sm  Sm15  1  0.664246  0.172262  0.124108  1
  Sm  Sm16  1  0.164023  0.329723  0.376452  1
  Sm  Sm17  1  0.336092  0.829338  0.624440  1
  Sm  Sm18  1  0.833940  0.671238  0.875892  1
  Sm  Sm19  1  0.165237  0.497834  0.750000  1
  Sn  Sn20  1  0.325281  0.040436  0.037245  1
  Sn  Sn21  1  0.823620  0.462654  0.461706  1
  Sn  Sn22  1  0.674750  0.960891  0.537350  1
  Sn  Sn23  1  0.174887  0.537043  0.959401  1
  Sn  Sn24  1  0.674750  0.960891  0.962650  1
  Sn  Sn25  1  0.174887  0.537043  0.540599  1
  Sn  Sn26  1  0.325281  0.040436  0.462755  1
  Sn  Sn27  1  0.823620  0.462654  0.038294  1
  Sn  Sn28  1  0.533821  0.610264  0.750000  1
  Sn  Sn29  1  0.033290  0.884314  0.750000  1
  Sn  Sn30  1  0.464710  0.389035  0.250000  1
  Sn  Sn31  1  0.966075  0.111430  0.250000  1
  Sn  Sn32  1  0.291947  0.141519  0.750000  1
  Sn  Sn33  1  0.796461  0.360275  0.750000  1
  Sn  Sn34  1  0.707752  0.861834  0.250000  1
  Sn  Sn35  1  0.206919  0.639096  0.250000  1
