# generated using pymatgen
data_YbSc9(Si5Ir2)4
_symmetry_space_group_name_H-M   'P 1'
_cell_length_a   12.43806426
_cell_length_b   12.43806426
_cell_length_c   4.11196200
_cell_angle_alpha   90.00000000
_cell_angle_beta   90.00000000
_cell_angle_gamma   90.05158344
_symmetry_Int_Tables_number   1
_chemical_formula_structural   YbSc9(Si5Ir2)4
_chemical_formula_sum   'Yb1 Sc9 Si20 Ir8'
_cell_volume   636.14264311
_cell_formula_units_Z   1
loop_
 _symmetry_equiv_pos_site_id
 _symmetry_equiv_pos_as_xyz
  1  'x, y, z'
loop_
 _atom_site_type_symbol
 _atom_site_label
 _atom_site_symmetry_multiplicity
 _atom_site_fract_x
 _atom_site_fract_y
 _atom_site_fract_z
 _atom_site_occupancy
  Yb  Yb0  1  0.115540  0.615540  0.500000  1
  Sc  Sc1  1  0.883496  0.383496  0.500000  1
  Sc  Sc2  1  0.615614  0.884643  0.500000  1
  Sc  Sc3  1  0.384643  0.115614  0.500000  1
  Sc  Sc4  1  0.673754  0.173754  0.500000  1
  Sc  Sc5  1  0.327442  0.827442  0.500000  1
  Sc  Sc6  1  0.174689  0.325313  0.500000  1
  Sc  Sc7  1  0.825313  0.674689  0.500000  1
  Sc  Sc8  1  0.999850  0.000327  0.000000  1
  Sc  Sc9  1  0.500327  0.499850  0.000000  1
  Si  Si10  1  0.566305  0.066305  0.000000  1
  Si  Si11  1  0.433997  0.933997  0.000000  1
  Si  Si12  1  0.066115  0.432142  0.000000  1
  Si  Si13  1  0.932142  0.566115  0.000000  1
  Si  Si14  1  0.200164  0.165005  0.000000  1
  Si  Si15  1  0.798105  0.835232  0.000000  1
  Si  Si16  1  0.165857  0.800958  0.000000  1
  Si  Si17  1  0.700230  0.334261  0.000000  1
  Si  Si18  1  0.834261  0.200230  0.000000  1
  Si  Si19  1  0.300958  0.665857  0.000000  1
  Si  Si20  1  0.665005  0.700164  0.000000  1
  Si  Si21  1  0.335232  0.298105  0.000000  1
  Si  Si22  1  0.005406  0.151277  0.500000  1
  Si  Si23  1  0.994303  0.849724  0.500000  1
  Si  Si24  1  0.152221  0.993791  0.500000  1
  Si  Si25  1  0.505950  0.348193  0.500000  1
  Si  Si26  1  0.848193  0.005950  0.500000  1
  Si  Si27  1  0.493791  0.652221  0.500000  1
  Si  Si28  1  0.651277  0.505406  0.500000  1
  Si  Si29  1  0.349724  0.494303  0.500000  1
  Ir  Ir30  1  0.019173  0.245542  0.000000  1
  Ir  Ir31  1  0.977959  0.756004  0.000000  1
  Ir  Ir32  1  0.246997  0.980976  0.000000  1
  Ir  Ir33  1  0.520138  0.253308  0.000000  1
  Ir  Ir34  1  0.753308  0.020138  0.000000  1
  Ir  Ir35  1  0.480976  0.746997  0.000000  1
  Ir  Ir36  1  0.745542  0.519173  0.000000  1
  Ir  Ir37  1  0.256004  0.477959  0.000000  1
