# generated using pymatgen
data_Ho5Er5(SiBi)4
_symmetry_space_group_name_H-M   'P 1'
_cell_length_a   8.60707513
_cell_length_b   8.60218077
_cell_length_c   7.87753508
_cell_angle_alpha   90.00060790
_cell_angle_beta   90.01329066
_cell_angle_gamma   125.63388057
_symmetry_Int_Tables_number   1
_chemical_formula_structural   Ho5Er5(SiBi)4
_chemical_formula_sum   'Ho5 Er5 Si4 Bi4'
_cell_volume   474.03988127
_cell_formula_units_Z   1
loop_
 _symmetry_equiv_pos_site_id
 _symmetry_equiv_pos_as_xyz
  1  'x, y, z'
loop_
 _atom_site_type_symbol
 _atom_site_label
 _atom_site_symmetry_multiplicity
 _atom_site_fract_x
 _atom_site_fract_y
 _atom_site_fract_z
 _atom_site_occupancy
  Ho  Ho0  1  0.042461  0.286154  0.336073  1
  Ho  Ho1  1  0.957501  0.713844  0.663954  1
  Ho  Ho2  1  0.457482  0.213788  0.836017  1
  Ho  Ho3  1  0.786170  0.542474  0.163948  1
  Ho  Ho4  1  0.542456  0.786225  0.163935  1
  Er  Er5  1  0.214122  0.457370  0.836169  1
  Er  Er6  1  0.714214  0.957358  0.663826  1
  Er  Er7  1  0.285770  0.042664  0.336177  1
  Er  Er8  1  0.000070  0.000159  0.999939  1
  Er  Er9  1  0.499910  0.499984  0.500094  1
  Si  Si10  1  0.364693  0.364570  0.134024  1
  Si  Si11  1  0.635022  0.635375  0.865795  1
  Si  Si12  1  0.135074  0.135321  0.634014  1
  Si  Si13  1  0.864931  0.864912  0.366114  1
  Bi  Bi14  1  0.792884  0.207396  0.999601  1
  Bi  Bi15  1  0.207371  0.792592  0.000137  1
  Bi  Bi16  1  0.707022  0.292228  0.499911  1
  Bi  Bi17  1  0.292849  0.707588  0.500272  1
