# generated using pymatgen
data_Dy10Ho6InAg2HgIr4
_symmetry_space_group_name_H-M   'P 1'
_cell_length_a   9.57696093
_cell_length_b   9.57931431
_cell_length_c   9.59257600
_cell_angle_alpha   59.93796135
_cell_angle_beta   59.96227733
_cell_angle_gamma   60.25659276
_symmetry_Int_Tables_number   1
_chemical_formula_structural   Dy10Ho6InAg2HgIr4
_chemical_formula_sum   'Dy10 Ho6 In1 Ag2 Hg1 Ir4'
_cell_volume   623.00041746
_cell_formula_units_Z   1
loop_
 _symmetry_equiv_pos_site_id
 _symmetry_equiv_pos_as_xyz
  1  'x, y, z'
loop_
 _atom_site_type_symbol
 _atom_site_label
 _atom_site_symmetry_multiplicity
 _atom_site_fract_x
 _atom_site_fract_y
 _atom_site_fract_z
 _atom_site_occupancy
  Dy  Dy0  1  0.439447  0.059348  0.442164  1
  Dy  Dy1  1  0.060477  0.438748  0.059909  1
  Dy  Dy2  1  0.440641  0.442443  0.058462  1
  Dy  Dy3  1  0.060931  0.060497  0.439290  1
  Dy  Dy4  1  0.184405  0.811450  0.813361  1
  Dy  Dy5  1  0.810391  0.186298  0.189741  1
  Dy  Dy6  1  0.810268  0.186287  0.813533  1
  Dy  Dy7  1  0.184409  0.811322  0.190921  1
  Dy  Dy8  1  0.809382  0.810128  0.190236  1
  Dy  Dy9  1  0.185353  0.189503  0.812575  1
  Ho  Ho10  1  0.599505  0.599585  0.600090  1
  Ho  Ho11  1  0.599194  0.599846  0.200879  1
  Ho  Ho12  1  0.600043  0.201109  0.599509  1
  Ho  Ho13  1  0.200160  0.600590  0.599478  1
  Ho  Ho14  1  0.060048  0.439024  0.441205  1
  Ho  Ho15  1  0.439676  0.058971  0.058918  1
  In  In16  1  0.509527  0.832747  0.828931  1
  Ag  Ag17  1  0.833659  0.834284  0.831328  1
  Ag  Ag18  1  0.833852  0.834112  0.500729  1
  Hg  Hg19  1  0.836900  0.500294  0.831317  1
  Ir  Ir20  1  0.391645  0.392734  0.391269  1
  Ir  Ir21  1  0.392456  0.391954  0.824320  1
  Ir  Ir22  1  0.393080  0.824973  0.390605  1
  Ir  Ir23  1  0.824554  0.393756  0.391230  1
