# generated using pymatgen
data_LuPa3Pt4
_symmetry_space_group_name_H-M   'P 1'
_cell_length_a   4.38654200
_cell_length_b   5.68641825
_cell_length_c   7.15003813
_cell_angle_alpha   90.75525684
_cell_angle_beta   90.00000000
_cell_angle_gamma   90.00000000
_symmetry_Int_Tables_number   1
_chemical_formula_structural   LuPa3Pt4
_chemical_formula_sum   'Lu1 Pa3 Pt4'
_cell_volume   178.33300062
_cell_formula_units_Z   1
loop_
 _symmetry_equiv_pos_site_id
 _symmetry_equiv_pos_as_xyz
  1  'x, y, z'
loop_
 _atom_site_type_symbol
 _atom_site_label
 _atom_site_symmetry_multiplicity
 _atom_site_fract_x
 _atom_site_fract_y
 _atom_site_fract_z
 _atom_site_occupancy
  Lu  Lu0  1  0.250000  0.853592  0.680223  1
  Pa  Pa1  1  0.250000  0.649596  0.180528  1
  Pa  Pa2  1  0.750000  0.352948  0.814025  1
  Pa  Pa3  1  0.750000  0.140725  0.323523  1
  Pt  Pt4  1  0.250000  0.171093  0.049826  1
  Pt  Pt5  1  0.750000  0.836484  0.950553  1
  Pt  Pt6  1  0.750000  0.659944  0.453663  1
  Pt  Pt7  1  0.250000  0.335617  0.547659  1
