# generated using pymatgen
data_Li4DyIn3O8
_symmetry_space_group_name_H-M   'P 1'
_cell_length_a   3.28923200
_cell_length_b   5.26115827
_cell_length_c   10.93141314
_cell_angle_alpha   90.47535505
_cell_angle_beta   90.00000000
_cell_angle_gamma   90.00000000
_symmetry_Int_Tables_number   1
_chemical_formula_structural   Li4DyIn3O8
_chemical_formula_sum   'Li4 Dy1 In3 O8'
_cell_volume   189.16345394
_cell_formula_units_Z   1
loop_
 _symmetry_equiv_pos_site_id
 _symmetry_equiv_pos_as_xyz
  1  'x, y, z'
loop_
 _atom_site_type_symbol
 _atom_site_label
 _atom_site_symmetry_multiplicity
 _atom_site_fract_x
 _atom_site_fract_y
 _atom_site_fract_z
 _atom_site_occupancy
  Li  Li0  1  0.250000  0.099844  0.071931  1
  Li  Li1  1  0.250000  0.402872  0.566364  1
  Li  Li2  1  0.750000  0.597767  0.423830  1
  Li  Li3  1  0.750000  0.894341  0.935580  1
  Dy  Dy4  1  0.750000  0.948592  0.641192  1
  In  In5  1  0.250000  0.049864  0.357991  1
  In  In6  1  0.250000  0.450046  0.863701  1
  In  In7  1  0.750000  0.546886  0.140226  1
  O  O8  1  0.250000  0.194718  0.709898  1
  O  O9  1  0.750000  0.241444  0.469910  1
  O  O10  1  0.750000  0.255417  0.974619  1
  O  O11  1  0.250000  0.321470  0.210692  1
  O  O12  1  0.750000  0.680247  0.795160  1
  O  O13  1  0.250000  0.738287  0.029033  1
  O  O14  1  0.250000  0.755340  0.523053  1
  O  O15  1  0.750000  0.822865  0.286822  1
