# generated using pymatgen
data_Nd4Zn10GaSn
_symmetry_space_group_name_H-M   'P 1'
_cell_length_a   8.49121683
_cell_length_b   8.49121607
_cell_length_c   8.99665900
_cell_angle_alpha   90.00000000
_cell_angle_beta   90.00000000
_cell_angle_gamma   149.39399763
_symmetry_Int_Tables_number   1
_chemical_formula_structural   Nd4Zn10GaSn
_chemical_formula_sum   'Nd4 Zn10 Ga1 Sn1'
_cell_volume   330.25630954
_cell_formula_units_Z   1
loop_
 _symmetry_equiv_pos_site_id
 _symmetry_equiv_pos_as_xyz
  1  'x, y, z'
loop_
 _atom_site_type_symbol
 _atom_site_label
 _atom_site_symmetry_multiplicity
 _atom_site_fract_x
 _atom_site_fract_y
 _atom_site_fract_z
 _atom_site_occupancy
  Nd  Nd0  1  0.202425  0.797575  0.250000  1
  Nd  Nd1  1  0.795287  0.204713  0.750000  1
  Nd  Nd2  1  0.000422  0.999578  0.491554  1
  Nd  Nd3  1  0.000422  0.999578  0.008446  1
  Zn  Zn4  1  0.813005  0.186995  0.391166  1
  Zn  Zn5  1  0.186066  0.813934  0.606236  1
  Zn  Zn6  1  0.813005  0.186995  0.108834  1
  Zn  Zn7  1  0.186066  0.813934  0.893764  1
  Zn  Zn8  1  0.649721  0.350279  0.477741  1
  Zn  Zn9  1  0.344993  0.655007  0.512931  1
  Zn  Zn10  1  0.649721  0.350279  0.022259  1
  Zn  Zn11  1  0.344993  0.655007  0.987069  1
  Zn  Zn12  1  0.404504  0.595496  0.250000  1
  Zn  Zn13  1  0.606202  0.393798  0.750000  1
  Ga  Ga14  1  0.557616  0.442384  0.250000  1
  Sn  Sn15  1  0.445554  0.554446  0.750000  1
