# generated using pymatgen
data_Th3In3Ag2Rh
_symmetry_space_group_name_H-M   'P 1'
_cell_length_a   7.75768300
_cell_length_b   7.75768227
_cell_length_c   4.23509300
_cell_angle_alpha   90.00000000
_cell_angle_beta   90.00000000
_cell_angle_gamma   119.99999884
_symmetry_Int_Tables_number   1
_chemical_formula_structural   Th3In3Ag2Rh
_chemical_formula_sum   'Th3 In3 Ag2 Rh1'
_cell_volume   220.72809034
_cell_formula_units_Z   1
loop_
 _symmetry_equiv_pos_site_id
 _symmetry_equiv_pos_as_xyz
  1  'x, y, z'
loop_
 _atom_site_type_symbol
 _atom_site_label
 _atom_site_symmetry_multiplicity
 _atom_site_fract_x
 _atom_site_fract_y
 _atom_site_fract_z
 _atom_site_occupancy
  Th  Th0  1  0.980481  0.406737  0.500000  1
  Th  Th1  1  0.593263  0.573744  0.500000  1
  Th  Th2  1  0.426256  0.019519  0.500000  1
  In  In3  1  0.250083  0.254451  0.000000  1
  In  In4  1  0.004367  0.749917  0.000000  1
  In  In5  1  0.745549  0.995633  0.000000  1
  Ag  Ag6  1  0.333333  0.666667  0.000000  1
  Ag  Ag7  1  0.000000  0.000000  0.500000  1
  Rh  Rh8  1  0.666667  0.333333  0.000000  1
