# generated using pymatgen
data_ScMn2P6BrN12
_symmetry_space_group_name_H-M   'P 1'
_cell_length_a   7.34686209
_cell_length_b   7.29554077
_cell_length_c   7.34686258
_cell_angle_alpha   109.31204271
_cell_angle_beta   110.35656512
_cell_angle_gamma   109.31203083
_symmetry_Int_Tables_number   1
_chemical_formula_structural   ScMn2P6BrN12
_chemical_formula_sum   'Sc1 Mn2 P6 Br1 N12'
_cell_volume   300.97248484
_cell_formula_units_Z   1
loop_
 _symmetry_equiv_pos_site_id
 _symmetry_equiv_pos_as_xyz
  1  'x, y, z'
loop_
 _atom_site_type_symbol
 _atom_site_label
 _atom_site_symmetry_multiplicity
 _atom_site_fract_x
 _atom_site_fract_y
 _atom_site_fract_z
 _atom_site_occupancy
  Sc  Sc0  1  0.029213  0.384581  0.029213  1
  Mn  Mn1  1  0.002462  0.000264  0.372356  1
  Mn  Mn2  1  0.372356  0.000264  0.002462  1
  P  P3  1  0.505635  0.258086  0.751011  1
  P  P4  1  0.250814  0.748266  0.496311  1
  P  P5  1  0.740689  0.498728  0.256854  1
  P  P6  1  0.751011  0.258086  0.505635  1
  P  P7  1  0.496311  0.748266  0.250814  1
  P  P8  1  0.256854  0.498728  0.740689  1
  Br  Br9  1  0.004705  0.001142  0.004705  1
  N  N10  1  0.382113  0.665310  0.382113  1
  N  N11  1  0.709286  0.429506  0.431910  1
  N  N12  1  0.431910  0.429506  0.709286  1
  N  N13  1  0.734069  0.293268  0.734069  1
  N  N14  1  0.990121  0.571595  0.281859  1
  N  N15  1  0.281859  0.571595  0.990121  1
  N  N16  1  0.290536  0.001090  0.560252  1
  N  N17  1  0.999105  0.277921  0.566562  1
  N  N18  1  0.716812  0.722391  0.287325  1
  N  N19  1  0.560252  0.001090  0.290536  1
  N  N20  1  0.287325  0.722391  0.716812  1
  N  N21  1  0.566562  0.277921  0.999105  1
