# generated using pymatgen
data_YTi2(GaPd)2
_symmetry_space_group_name_H-M   'P 1'
_cell_length_a   5.53590860
_cell_length_b   5.53590815
_cell_length_c   5.53590867
_cell_angle_alpha   100.57437258
_cell_angle_beta   102.82784430
_cell_angle_gamma   126.47457163
_symmetry_Int_Tables_number   1
_chemical_formula_structural   YTi2(GaPd)2
_chemical_formula_sum   'Y1 Ti2 Ga2 Pd2'
_cell_volume   121.77381044
_cell_formula_units_Z   1
loop_
 _symmetry_equiv_pos_site_id
 _symmetry_equiv_pos_as_xyz
  1  'x, y, z'
loop_
 _atom_site_type_symbol
 _atom_site_label
 _atom_site_symmetry_multiplicity
 _atom_site_fract_x
 _atom_site_fract_y
 _atom_site_fract_z
 _atom_site_occupancy
  Y  Y0  1  0.002122  0.000000  0.002122  1
  Ti  Ti1  1  0.248622  0.749705  0.498917  1
  Ti  Ti2  1  0.749213  0.250295  0.498917  1
  Ga  Ga3  1  0.306535  0.300484  0.607018  1
  Ga  Ga4  1  0.306535  0.699516  0.006051  1
  Pd  Pd5  1  0.693486  0.299222  0.992709  1
  Pd  Pd6  1  0.693486  0.700778  0.394265  1
