# generated using pymatgen
data_La7Y4ThIn20
_symmetry_space_group_name_H-M   'P 1'
_cell_length_a   6.76599509
_cell_length_b   10.72953183
_cell_length_c   12.49968500
_cell_angle_alpha   90.05951973
_cell_angle_beta   90.00923880
_cell_angle_gamma   90.02517922
_symmetry_Int_Tables_number   1
_chemical_formula_structural   La7Y4ThIn20
_chemical_formula_sum   'La7 Y4 Th1 In20'
_cell_volume   907.42603857
_cell_formula_units_Z   1
loop_
 _symmetry_equiv_pos_site_id
 _symmetry_equiv_pos_as_xyz
  1  'x, y, z'
loop_
 _atom_site_type_symbol
 _atom_site_label
 _atom_site_symmetry_multiplicity
 _atom_site_fract_x
 _atom_site_fract_y
 _atom_site_fract_z
 _atom_site_occupancy
  La  La0  1  0.888497  0.490099  0.143898  1
  La  La1  1  0.611242  0.011131  0.644371  1
  La  La2  1  0.111465  0.989655  0.855025  1
  La  La3  1  0.389155  0.510420  0.356360  1
  La  La4  1  0.111530  0.510263  0.855786  1
  La  La5  1  0.389271  0.989536  0.356287  1
  La  La6  1  0.888774  0.009844  0.144162  1
  Y  Y7  1  0.350204  0.750097  0.060813  1
  Y  Y8  1  0.150167  0.749584  0.560781  1
  Y  Y9  1  0.649281  0.249925  0.939085  1
  Y  Y10  1  0.849726  0.250646  0.439630  1
  Th  Th11  1  0.611550  0.488989  0.643926  1
  In  In12  1  0.618822  0.749003  0.503426  1
  In  In13  1  0.880471  0.749976  0.002131  1
  In  In14  1  0.382329  0.250662  0.498149  1
  In  In15  1  0.119743  0.249977  0.997485  1
  In  In16  1  0.656336  0.750162  0.243848  1
  In  In17  1  0.843007  0.748698  0.742951  1
  In  In18  1  0.343661  0.251338  0.755644  1
  In  In19  1  0.156097  0.249801  0.256425  1
  In  In20  1  0.106919  0.750062  0.285352  1
  In  In21  1  0.393031  0.748964  0.784633  1
  In  In22  1  0.891993  0.251184  0.714852  1
  In  In23  1  0.606960  0.250036  0.214809  1
  In  In24  1  0.874542  0.545693  0.405849  1
  In  In25  1  0.625369  0.953784  0.905408  1
  In  In26  1  0.124600  0.046491  0.594664  1
  In  In27  1  0.375238  0.453637  0.094358  1
  In  In28  1  0.125273  0.454629  0.595152  1
  In  In29  1  0.374714  0.046109  0.094730  1
  In  In30  1  0.875328  0.953637  0.405592  1
  In  In31  1  0.624705  0.545968  0.904424  1
