# generated using pymatgen
data_LuSc7(Ga3Pt)4
_symmetry_space_group_name_H-M   'P 1'
_cell_length_a   8.65791508
_cell_length_b   8.65901792
_cell_length_c   6.72569000
_cell_angle_alpha   90.00000000
_cell_angle_beta   90.00000000
_cell_angle_gamma   120.01228817
_symmetry_Int_Tables_number   1
_chemical_formula_structural   LuSc7(Ga3Pt)4
_chemical_formula_sum   'Lu1 Sc7 Ga12 Pt4'
_cell_volume   436.61198081
_cell_formula_units_Z   1
loop_
 _symmetry_equiv_pos_site_id
 _symmetry_equiv_pos_as_xyz
  1  'x, y, z'
loop_
 _atom_site_type_symbol
 _atom_site_label
 _atom_site_symmetry_multiplicity
 _atom_site_fract_x
 _atom_site_fract_y
 _atom_site_fract_z
 _atom_site_occupancy
  Lu  Lu0  1  0.041481  0.520702  0.750000  1
  Sc  Sc1  1  0.000102  0.999838  0.250000  1
  Sc  Sc2  1  0.999825  0.000122  0.750000  1
  Sc  Sc3  1  0.520782  0.041479  0.250000  1
  Sc  Sc4  1  0.520655  0.479538  0.250000  1
  Sc  Sc5  1  0.957985  0.479045  0.250000  1
  Sc  Sc6  1  0.479684  0.958976  0.750000  1
  Sc  Sc7  1  0.479810  0.520466  0.750000  1
  Ga  Ga8  1  0.166222  0.331300  0.048816  1
  Ga  Ga9  1  0.166446  0.834836  0.451177  1
  Ga  Ga10  1  0.668407  0.834267  0.452389  1
  Ga  Ga11  1  0.668407  0.834267  0.047611  1
  Ga  Ga12  1  0.166446  0.834836  0.048823  1
  Ga  Ga13  1  0.833279  0.668835  0.953397  1
  Ga  Ga14  1  0.833057  0.164530  0.953404  1
  Ga  Ga15  1  0.331781  0.165825  0.952205  1
  Ga  Ga16  1  0.166222  0.331300  0.451184  1
  Ga  Ga17  1  0.331781  0.165825  0.547795  1
  Ga  Ga18  1  0.833279  0.668835  0.546603  1
  Ga  Ga19  1  0.833057  0.164530  0.546596  1
  Pt  Pt20  1  0.334272  0.667063  0.027635  1
  Pt  Pt21  1  0.334272  0.667063  0.472365  1
  Pt  Pt22  1  0.666374  0.333261  0.974501  1
  Pt  Pt23  1  0.666374  0.333261  0.525499  1
