# generated using pymatgen
data_Zr10AlSiSn5Sb
_symmetry_space_group_name_H-M   'P 1'
_cell_length_a   8.70523667
_cell_length_b   8.72085212
_cell_length_c   5.90457898
_cell_angle_alpha   90.06667256
_cell_angle_beta   89.96660062
_cell_angle_gamma   120.05936164
_symmetry_Int_Tables_number   1
_chemical_formula_structural   Zr10AlSiSn5Sb
_chemical_formula_sum   'Zr10 Al1 Si1 Sn5 Sb1'
_cell_volume   387.97048454
_cell_formula_units_Z   1
loop_
 _symmetry_equiv_pos_site_id
 _symmetry_equiv_pos_as_xyz
  1  'x, y, z'
loop_
 _atom_site_type_symbol
 _atom_site_label
 _atom_site_symmetry_multiplicity
 _atom_site_fract_x
 _atom_site_fract_y
 _atom_site_fract_z
 _atom_site_occupancy
  Zr  Zr0  1  0.735717  0.735388  0.759178  1
  Zr  Zr1  1  0.264283  0.999671  0.759178  1
  Zr  Zr2  1  0.000000  0.264799  0.756198  1
  Zr  Zr3  1  0.261200  0.263422  0.241904  1
  Zr  Zr4  1  0.738800  0.002222  0.241904  1
  Zr  Zr5  1  0.000000  0.735874  0.241695  1
  Zr  Zr6  1  0.667143  0.333076  0.999423  1
  Zr  Zr7  1  0.332857  0.665934  0.999423  1
  Zr  Zr8  1  0.332147  0.665325  0.500472  1
  Zr  Zr9  1  0.667853  0.333178  0.500472  1
  Al  Al10  1  0.000000  0.998720  0.502099  1
  Si  Si11  1  0.000000  0.999686  0.997886  1
  Sn  Sn12  1  0.390481  0.389484  0.746326  1
  Sn  Sn13  1  0.609519  0.999004  0.746326  1
  Sn  Sn14  1  0.000000  0.611169  0.747116  1
  Sn  Sn15  1  0.609932  0.610010  0.253710  1
  Sn  Sn16  1  0.390068  0.000077  0.253710  1
  Sb  Sb17  1  0.000000  0.392958  0.252985  1
