# generated using pymatgen
data_ErTh2Tl5
_symmetry_space_group_name_H-M   'P 1'
_cell_length_a   6.66714490
_cell_length_b   6.66714354
_cell_length_c   10.38969600
_cell_angle_alpha   90.00000000
_cell_angle_beta   90.00000000
_cell_angle_gamma   102.10468035
_symmetry_Int_Tables_number   1
_chemical_formula_structural   ErTh2Tl5
_chemical_formula_sum   'Er2 Th4 Tl10'
_cell_volume   451.56213680
_cell_formula_units_Z   2
loop_
 _symmetry_equiv_pos_site_id
 _symmetry_equiv_pos_as_xyz
  1  'x, y, z'
loop_
 _atom_site_type_symbol
 _atom_site_label
 _atom_site_symmetry_multiplicity
 _atom_site_fract_x
 _atom_site_fract_y
 _atom_site_fract_z
 _atom_site_occupancy
  Er  Er0  1  0.118095  0.118095  0.750000  1
  Er  Er1  1  0.881905  0.881905  0.250000  1
  Th  Th2  1  0.708759  0.291241  0.000000  1
  Th  Th3  1  0.708759  0.291241  0.500000  1
  Th  Th4  1  0.291241  0.708759  0.000000  1
  Th  Th5  1  0.291241  0.708759  0.500000  1
  Tl  Tl6  1  0.501473  0.501473  0.750000  1
  Tl  Tl7  1  0.498527  0.498527  0.250000  1
  Tl  Tl8  1  0.806191  0.806191  0.540136  1
  Tl  Tl9  1  0.193809  0.193809  0.459864  1
  Tl  Tl10  1  0.806191  0.806191  0.959864  1
  Tl  Tl11  1  0.193809  0.193809  0.040136  1
  Tl  Tl12  1  0.995796  0.556328  0.750000  1
  Tl  Tl13  1  0.443672  0.004204  0.250000  1
  Tl  Tl14  1  0.004204  0.443672  0.250000  1
  Tl  Tl15  1  0.556328  0.995796  0.750000  1
