# generated using pymatgen
data_Ta10ZnSi4As
_symmetry_space_group_name_H-M   'P 1'
_cell_length_a   7.58445815
_cell_length_b   7.58445767
_cell_length_c   7.58445894
_cell_angle_alpha   128.37648087
_cell_angle_beta   128.37646230
_cell_angle_gamma   76.01594486
_symmetry_Int_Tables_number   1
_chemical_formula_structural   Ta10ZnSi4As
_chemical_formula_sum   'Ta10 Zn1 Si4 As1'
_cell_volume   260.69174179
_cell_formula_units_Z   1
loop_
 _symmetry_equiv_pos_site_id
 _symmetry_equiv_pos_as_xyz
  1  'x, y, z'
loop_
 _atom_site_type_symbol
 _atom_site_label
 _atom_site_symmetry_multiplicity
 _atom_site_fract_x
 _atom_site_fract_y
 _atom_site_fract_z
 _atom_site_occupancy
  Ta  Ta0  1  0.015058  0.188100  0.500693  1
  Ta  Ta1  1  0.687407  0.514365  0.499307  1
  Ta  Ta2  1  0.514365  0.015058  0.826958  1
  Ta  Ta3  1  0.188100  0.687407  0.173042  1
  Ta  Ta4  1  0.985635  0.812593  0.500693  1
  Ta  Ta5  1  0.311900  0.484942  0.499307  1
  Ta  Ta6  1  0.484942  0.985635  0.173042  1
  Ta  Ta7  1  0.812593  0.311900  0.826958  1
  Ta  Ta8  1  0.997672  0.997672  0.000000  1
  Ta  Ta9  1  0.502328  0.502328  0.000000  1
  Zn  Zn10  1  0.750000  0.750000  0.000000  1
  Si  Si11  1  0.369535  0.130465  0.500000  1
  Si  Si12  1  0.630465  0.869535  0.500000  1
  Si  Si13  1  0.869535  0.369535  0.239069  1
  Si  Si14  1  0.130465  0.630465  0.760931  1
  As  As15  1  0.250000  0.250000  0.000000  1
