# generated using pymatgen
data_KTi6CBr14
_symmetry_space_group_name_H-M   'P 1'
_cell_length_a   9.90667000
_cell_length_b   9.90666966
_cell_length_c   11.74890100
_cell_angle_alpha   90.00000000
_cell_angle_beta   90.00000000
_cell_angle_gamma   94.45679596
_symmetry_Int_Tables_number   1
_chemical_formula_structural   KTi6CBr14
_chemical_formula_sum   'K2 Ti12 C2 Br28'
_cell_volume   1149.57528678
_cell_formula_units_Z   2
loop_
 _symmetry_equiv_pos_site_id
 _symmetry_equiv_pos_as_xyz
  1  'x, y, z'
loop_
 _atom_site_type_symbol
 _atom_site_label
 _atom_site_symmetry_multiplicity
 _atom_site_fract_x
 _atom_site_fract_y
 _atom_site_fract_z
 _atom_site_occupancy
  K  K0  1  0.500000  0.500000  0.000000  1
  K  K1  1  0.000000  0.000000  0.500000  1
  Ti  Ti2  1  0.371358  0.371358  0.403729  1
  Ti  Ti3  1  0.628642  0.628642  0.596271  1
  Ti  Ti4  1  0.128642  0.128642  0.903729  1
  Ti  Ti5  1  0.871358  0.871358  0.096271  1
  Ti  Ti6  1  0.955587  0.168285  0.109107  1
  Ti  Ti7  1  0.044413  0.831715  0.890893  1
  Ti  Ti8  1  0.544413  0.331715  0.609107  1
  Ti  Ti9  1  0.668285  0.455587  0.390893  1
  Ti  Ti10  1  0.455587  0.668285  0.390893  1
  Ti  Ti11  1  0.331715  0.544413  0.609107  1
  Ti  Ti12  1  0.831715  0.044413  0.890893  1
  Ti  Ti13  1  0.168285  0.955587  0.109107  1
  C  C14  1  0.000000  0.000000  0.000000  1
  C  C15  1  0.500000  0.500000  0.500000  1
  Br  Br16  1  0.108761  0.351349  0.006726  1
  Br  Br17  1  0.891239  0.648651  0.993274  1
  Br  Br18  1  0.391239  0.148651  0.506726  1
  Br  Br19  1  0.851349  0.608761  0.493274  1
  Br  Br20  1  0.608761  0.851349  0.493274  1
  Br  Br21  1  0.148651  0.391239  0.506726  1
  Br  Br22  1  0.648651  0.891239  0.993274  1
  Br  Br23  1  0.351349  0.108761  0.006726  1
  Br  Br24  1  0.754486  0.245514  0.000000  1
  Br  Br25  1  0.245514  0.754486  0.000000  1
  Br  Br26  1  0.745514  0.254486  0.500000  1
  Br  Br27  1  0.254486  0.745514  0.500000  1
  Br  Br28  1  0.894313  0.394313  0.250000  1
  Br  Br29  1  0.105687  0.605687  0.750000  1
  Br  Br30  1  0.605687  0.105687  0.750000  1
  Br  Br31  1  0.394313  0.894313  0.250000  1
  Br  Br32  1  0.147730  0.147730  0.257514  1
  Br  Br33  1  0.852270  0.852270  0.742486  1
  Br  Br34  1  0.352270  0.352270  0.757514  1
  Br  Br35  1  0.647730  0.647730  0.242486  1
  Br  Br36  1  0.292644  0.533910  0.255120  1
  Br  Br37  1  0.707356  0.466090  0.744880  1
  Br  Br38  1  0.207356  0.966090  0.755120  1
  Br  Br39  1  0.033909  0.792644  0.244880  1
  Br  Br40  1  0.792644  0.033910  0.244880  1
  Br  Br41  1  0.966091  0.207356  0.755120  1
  Br  Br42  1  0.466091  0.707356  0.744880  1
  Br  Br43  1  0.533910  0.292644  0.255120  1
