# generated using pymatgen
data_Rb3Ba(Si2Au5)4
_symmetry_space_group_name_H-M   'P 1'
_cell_length_a   6.97254800
_cell_length_b   9.21052791
_cell_length_c   10.80259707
_cell_angle_alpha   90.05089138
_cell_angle_beta   90.00000000
_cell_angle_gamma   90.00000000
_symmetry_Int_Tables_number   1
_chemical_formula_structural   Rb3Ba(Si2Au5)4
_chemical_formula_sum   'Rb3 Ba1 Si8 Au20'
_cell_volume   693.75166989
_cell_formula_units_Z   1
loop_
 _symmetry_equiv_pos_site_id
 _symmetry_equiv_pos_as_xyz
  1  'x, y, z'
loop_
 _atom_site_type_symbol
 _atom_site_label
 _atom_site_symmetry_multiplicity
 _atom_site_fract_x
 _atom_site_fract_y
 _atom_site_fract_z
 _atom_site_occupancy
  Rb  Rb0  1  0.250000  0.744913  0.380694  1
  Rb  Rb1  1  0.750000  0.755141  0.880386  1
  Rb  Rb2  1  0.750000  0.255263  0.619135  1
  Ba  Ba3  1  0.250000  0.245694  0.120047  1
  Si  Si4  1  0.250000  0.046642  0.664012  1
  Si  Si5  1  0.250000  0.546437  0.834688  1
  Si  Si6  1  0.750000  0.952736  0.336506  1
  Si  Si7  1  0.750000  0.453419  0.164853  1
  Si  Si8  1  0.250000  0.307033  0.451858  1
  Si  Si9  1  0.250000  0.806891  0.048560  1
  Si  Si10  1  0.750000  0.692734  0.548480  1
  Si  Si11  1  0.750000  0.193674  0.951373  1
  Au  Au12  1  0.041040  0.090059  0.389362  1
  Au  Au13  1  0.458450  0.589405  0.109754  1
  Au  Au14  1  0.540382  0.910240  0.609296  1
  Au  Au15  1  0.960060  0.410080  0.890593  1
  Au  Au16  1  0.959618  0.910240  0.609296  1
  Au  Au17  1  0.539940  0.410080  0.890593  1
  Au  Au18  1  0.458960  0.090059  0.389362  1
  Au  Au19  1  0.041550  0.589405  0.109754  1
  Au  Au20  1  0.036513  0.079505  0.865735  1
  Au  Au21  1  0.464951  0.579105  0.634352  1
  Au  Au22  1  0.534342  0.920992  0.135151  1
  Au  Au23  1  0.965385  0.421061  0.365295  1
  Au  Au24  1  0.965658  0.920992  0.135151  1
  Au  Au25  1  0.534615  0.421061  0.365295  1
  Au  Au26  1  0.463487  0.079505  0.865735  1
  Au  Au27  1  0.035049  0.579105  0.634352  1
  Au  Au28  1  0.250000  0.313201  0.677692  1
  Au  Au29  1  0.250000  0.812472  0.822236  1
  Au  Au30  1  0.750000  0.686699  0.321648  1
  Au  Au31  1  0.750000  0.186160  0.178756  1
