# generated using pymatgen
data_Y(ScZn4)3
_symmetry_space_group_name_H-M   'P 1'
_cell_length_a   4.26936200
_cell_length_b   6.54497764
_cell_length_c   9.85320177
_cell_angle_alpha   89.16779885
_cell_angle_beta   90.00000000
_cell_angle_gamma   90.00000000
_symmetry_Int_Tables_number   1
_chemical_formula_structural   Y(ScZn4)3
_chemical_formula_sum   'Y1 Sc3 Zn12'
_cell_volume   275.29778130
_cell_formula_units_Z   1
loop_
 _symmetry_equiv_pos_site_id
 _symmetry_equiv_pos_as_xyz
  1  'x, y, z'
loop_
 _atom_site_type_symbol
 _atom_site_label
 _atom_site_symmetry_multiplicity
 _atom_site_fract_x
 _atom_site_fract_y
 _atom_site_fract_z
 _atom_site_occupancy
  Y  Y0  1  0.750000  0.220753  0.170063  1
  Sc  Sc1  1  0.250000  0.277643  0.665138  1
  Sc  Sc2  1  0.750000  0.723289  0.337289  1
  Sc  Sc3  1  0.250000  0.781527  0.833332  1
  Zn  Zn4  1  0.250000  0.534517  0.096409  1
  Zn  Zn5  1  0.750000  0.463188  0.894520  1
  Zn  Zn6  1  0.250000  0.039875  0.399356  1
  Zn  Zn7  1  0.750000  0.962274  0.598420  1
  Zn  Zn8  1  0.750000  0.297124  0.465403  1
  Zn  Zn9  1  0.250000  0.712745  0.544163  1
  Zn  Zn10  1  0.750000  0.778693  0.042236  1
  Zn  Zn11  1  0.250000  0.210718  0.951148  1
  Zn  Zn12  1  0.750000  0.577602  0.652633  1
  Zn  Zn13  1  0.250000  0.433806  0.353960  1
  Zn  Zn14  1  0.750000  0.073900  0.845227  1
  Zn  Zn15  1  0.250000  0.912346  0.150705  1
