# generated using pymatgen
data_SmSn6IrRu3
_symmetry_space_group_name_H-M   'P 1'
_cell_length_a   6.97587052
_cell_length_b   6.97586969
_cell_length_c   6.96533994
_cell_angle_alpha   120.20612531
_cell_angle_beta   120.20612011
_cell_angle_gamma   89.64766013
_symmetry_Int_Tables_number   1
_chemical_formula_structural   SmSn6IrRu3
_chemical_formula_sum   'Sm1 Sn6 Ir1 Ru3'
_cell_volume   238.91508686
_cell_formula_units_Z   1
loop_
 _symmetry_equiv_pos_site_id
 _symmetry_equiv_pos_as_xyz
  1  'x, y, z'
loop_
 _atom_site_type_symbol
 _atom_site_label
 _atom_site_symmetry_multiplicity
 _atom_site_fract_x
 _atom_site_fract_y
 _atom_site_fract_z
 _atom_site_occupancy
  Sm  Sm0  1  0.000195  0.000195  0.999326  1
  Sn  Sn1  1  0.996751  0.500643  0.500905  1
  Sn  Sn2  1  0.470152  0.470152  0.348625  1
  Sn  Sn3  1  0.530920  0.884965  0.003959  1
  Sn  Sn4  1  0.884965  0.530920  0.003959  1
  Sn  Sn5  1  0.117861  0.117861  0.650325  1
  Sn  Sn6  1  0.500643  0.996751  0.500905  1
  Ir  Ir7  1  0.403367  0.403367  0.649273  1
  Ru  Ru8  1  0.751127  0.751127  0.345425  1
  Ru  Ru9  1  0.249786  0.594232  0.998649  1
  Ru  Ru10  1  0.594232  0.249786  0.998649  1
