# generated using pymatgen
data_HoEr11Ni4
_symmetry_space_group_name_H-M   'P 1'
_cell_length_a   6.27339102
_cell_length_b   6.74861701
_cell_length_c   9.49398300
_cell_angle_alpha   90.00000000
_cell_angle_beta   90.00000000
_cell_angle_gamma   90.00703909
_symmetry_Int_Tables_number   1
_chemical_formula_structural   HoEr11Ni4
_chemical_formula_sum   'Ho1 Er11 Ni4'
_cell_volume   401.94403343
_cell_formula_units_Z   1
loop_
 _symmetry_equiv_pos_site_id
 _symmetry_equiv_pos_as_xyz
  1  'x, y, z'
loop_
 _atom_site_type_symbol
 _atom_site_label
 _atom_site_symmetry_multiplicity
 _atom_site_fract_x
 _atom_site_fract_y
 _atom_site_fract_z
 _atom_site_occupancy
  Ho  Ho0  1  0.861972  0.531614  0.250000  1
  Er  Er1  1  0.320324  0.679094  0.065856  1
  Er  Er2  1  0.180128  0.178838  0.434184  1
  Er  Er3  1  0.679821  0.320881  0.566266  1
  Er  Er4  1  0.820075  0.821279  0.933884  1
  Er  Er5  1  0.679821  0.320881  0.933734  1
  Er  Er6  1  0.820075  0.821279  0.566116  1
  Er  Er7  1  0.320324  0.679094  0.434144  1
  Er  Er8  1  0.180128  0.178838  0.065816  1
  Er  Er9  1  0.637980  0.032461  0.250000  1
  Er  Er10  1  0.138246  0.467606  0.750000  1
  Er  Er11  1  0.361713  0.967698  0.750000  1
  Ni  Ni12  1  0.052632  0.892638  0.250000  1
  Ni  Ni13  1  0.446647  0.392069  0.250000  1
  Ni  Ni14  1  0.947406  0.107792  0.750000  1
  Ni  Ni15  1  0.552708  0.607939  0.750000  1
