# generated using pymatgen
data_YbPu2PbCl12
_symmetry_space_group_name_H-M   'P 1'
_cell_length_a   6.71940000
_cell_length_b   6.71939941
_cell_length_c   12.63799600
_cell_angle_alpha   90.00000000
_cell_angle_beta   90.00000000
_cell_angle_gamma   119.99999303
_symmetry_Int_Tables_number   1
_chemical_formula_structural   YbPu2PbCl12
_chemical_formula_sum   'Yb1 Pu2 Pb1 Cl12'
_cell_volume   494.16254840
_cell_formula_units_Z   1
loop_
 _symmetry_equiv_pos_site_id
 _symmetry_equiv_pos_as_xyz
  1  'x, y, z'
loop_
 _atom_site_type_symbol
 _atom_site_label
 _atom_site_symmetry_multiplicity
 _atom_site_fract_x
 _atom_site_fract_y
 _atom_site_fract_z
 _atom_site_occupancy
  Yb  Yb0  1  0.666667  0.333333  0.750000  1
  Pu  Pu1  1  0.000000  0.000000  0.506102  1
  Pu  Pu2  1  0.000000  0.000000  0.993898  1
  Pb  Pb3  1  0.333333  0.666667  0.250000  1
  Cl  Cl4  1  0.683591  0.006589  0.624182  1
  Cl  Cl5  1  0.319784  0.013124  0.384187  1
  Cl  Cl6  1  0.993411  0.677001  0.624182  1
  Cl  Cl7  1  0.683591  0.677001  0.875818  1
  Cl  Cl8  1  0.986876  0.306660  0.384187  1
  Cl  Cl9  1  0.319784  0.306660  0.115813  1
  Cl  Cl10  1  0.322999  0.316409  0.624182  1
  Cl  Cl11  1  0.993411  0.316409  0.875818  1
  Cl  Cl12  1  0.693340  0.680216  0.384187  1
  Cl  Cl13  1  0.986876  0.680216  0.115813  1
  Cl  Cl14  1  0.322999  0.006589  0.875818  1
  Cl  Cl15  1  0.693340  0.013124  0.115813  1
