# generated using pymatgen
data_PaTlPdSe3
_symmetry_space_group_name_H-M   'P 1'
_cell_length_a   7.92708600
_cell_length_b   7.92708544
_cell_length_c   10.32710500
_cell_angle_alpha   90.00000000
_cell_angle_beta   90.00000000
_cell_angle_gamma   150.96048465
_symmetry_Int_Tables_number   1
_chemical_formula_structural   PaTlPdSe3
_chemical_formula_sum   'Pa2 Tl2 Pd2 Se6'
_cell_volume   315.00456127
_cell_formula_units_Z   2
loop_
 _symmetry_equiv_pos_site_id
 _symmetry_equiv_pos_as_xyz
  1  'x, y, z'
loop_
 _atom_site_type_symbol
 _atom_site_label
 _atom_site_symmetry_multiplicity
 _atom_site_fract_x
 _atom_site_fract_y
 _atom_site_fract_z
 _atom_site_occupancy
  Pa  Pa0  1  0.000000  0.000000  0.000000  1
  Pa  Pa1  1  0.000000  0.000000  0.500000  1
  Tl  Tl2  1  0.240109  0.759893  0.250000  1
  Tl  Tl3  1  0.759893  0.240109  0.750000  1
  Pd  Pd4  1  0.536115  0.463887  0.250000  1
  Pd  Pd5  1  0.463887  0.536115  0.750000  1
  Se  Se6  1  0.629301  0.370701  0.044948  1
  Se  Se7  1  0.928635  0.071367  0.250000  1
  Se  Se8  1  0.629301  0.370701  0.455052  1
  Se  Se9  1  0.370701  0.629301  0.544948  1
  Se  Se10  1  0.071367  0.928635  0.750000  1
  Se  Se11  1  0.370701  0.629301  0.955053  1
