# generated using pymatgen
data_YbSmNiPt3
_symmetry_space_group_name_H-M   'P 1'
_cell_length_a   5.46385731
_cell_length_b   5.46385771
_cell_length_c   5.24780023
_cell_angle_alpha   58.62847747
_cell_angle_beta   58.62846890
_cell_angle_gamma   59.99999888
_symmetry_Int_Tables_number   1
_chemical_formula_structural   YbSmNiPt3
_chemical_formula_sum   'Yb1 Sm1 Ni1 Pt3'
_cell_volume   108.42754586
_cell_formula_units_Z   1
loop_
 _symmetry_equiv_pos_site_id
 _symmetry_equiv_pos_as_xyz
  1  'x, y, z'
loop_
 _atom_site_type_symbol
 _atom_site_label
 _atom_site_symmetry_multiplicity
 _atom_site_fract_x
 _atom_site_fract_y
 _atom_site_fract_z
 _atom_site_occupancy
  Yb  Yb0  1  0.252872  0.252872  0.241383  1
  Sm  Sm1  1  0.000047  0.000047  0.999859  1
  Ni  Ni2  1  0.623618  0.623618  0.129146  1
  Pt  Pt3  1  0.623880  0.125702  0.626537  1
  Pt  Pt4  1  0.125702  0.623880  0.626537  1
  Pt  Pt5  1  0.623880  0.623880  0.626537  1
