# generated using pymatgen
data_TbDy4Co19Si11P
_symmetry_space_group_name_H-M   'P 1'
_cell_length_a   12.15734503
_cell_length_b   12.18603766
_cell_length_c   3.73370300
_cell_angle_alpha   90.00000000
_cell_angle_beta   90.00000000
_cell_angle_gamma   120.08185095
_symmetry_Int_Tables_number   1
_chemical_formula_structural   TbDy4Co19Si11P
_chemical_formula_sum   'Tb1 Dy4 Co19 Si11 P1'
_cell_volume   478.64427429
_cell_formula_units_Z   1
loop_
 _symmetry_equiv_pos_site_id
 _symmetry_equiv_pos_as_xyz
  1  'x, y, z'
loop_
 _atom_site_type_symbol
 _atom_site_label
 _atom_site_symmetry_multiplicity
 _atom_site_fract_x
 _atom_site_fract_y
 _atom_site_fract_z
 _atom_site_occupancy
  Tb  Tb0  1  0.667307  0.333501  0.000000  1
  Dy  Dy1  1  0.332691  0.666237  0.000000  1
  Dy  Dy2  1  0.185052  0.186003  0.500000  1
  Dy  Dy3  1  0.814970  0.001043  0.500000  1
  Dy  Dy4  1  0.999969  0.813719  0.500000  1
  Co  Co5  1  0.558809  0.559207  0.000000  1
  Co  Co6  1  0.441175  0.000380  0.000000  1
  Co  Co7  1  0.000004  0.441212  0.000000  1
  Co  Co8  1  0.823709  0.197557  0.000000  1
  Co  Co9  1  0.802492  0.622382  0.000000  1
  Co  Co10  1  0.377578  0.180153  0.000000  1
  Co  Co11  1  0.197623  0.819681  0.000000  1
  Co  Co12  1  0.622091  0.802453  0.000000  1
  Co  Co13  1  0.176484  0.374153  0.000000  1
  Co  Co14  1  0.644607  0.123281  0.500000  1
  Co  Co15  1  0.877439  0.520321  0.500000  1
  Co  Co16  1  0.479080  0.356774  0.500000  1
  Co  Co17  1  0.122830  0.642907  0.500000  1
  Co  Co18  1  0.520679  0.877454  0.500000  1
  Co  Co19  1  0.355397  0.478929  0.500000  1
  Co  Co20  1  0.718129  0.718299  0.500000  1
  Co  Co21  1  0.281656  0.999764  0.500000  1
  Co  Co22  1  0.000185  0.278524  0.500000  1
  Co  Co23  1  0.000025  0.004726  0.000000  1
  Si  Si24  1  0.371522  0.371867  0.000000  1
  Si  Si25  1  0.628458  0.000284  0.000000  1
  Si  Si26  1  0.000035  0.628147  0.000000  1
  Si  Si27  1  0.840643  0.317952  0.500000  1
  Si  Si28  1  0.682820  0.522549  0.500000  1
  Si  Si29  1  0.477968  0.160574  0.500000  1
  Si  Si30  1  0.317172  0.839313  0.500000  1
  Si  Si31  1  0.521626  0.682643  0.500000  1
  Si  Si32  1  0.159755  0.477717  0.500000  1
  Si  Si33  1  0.816245  0.816221  0.000000  1
  Si  Si34  1  0.183659  0.999751  0.000000  1
  P  P35  1  0.000113  0.184325  0.000000  1
