# generated using pymatgen
data_Li8YHo7Sn7Sb
_symmetry_space_group_name_H-M   'P 1'
_cell_length_a   9.37690600
_cell_length_b   9.37660963
_cell_length_c   7.23916807
_cell_angle_alpha   90.07221706
_cell_angle_beta   90.00000000
_cell_angle_gamma   120.00105261
_symmetry_Int_Tables_number   1
_chemical_formula_structural   Li8YHo7Sn7Sb
_chemical_formula_sum   'Li8 Y1 Ho7 Sn7 Sb1'
_cell_volume   551.21321782
_cell_formula_units_Z   1
loop_
 _symmetry_equiv_pos_site_id
 _symmetry_equiv_pos_as_xyz
  1  'x, y, z'
loop_
 _atom_site_type_symbol
 _atom_site_label
 _atom_site_symmetry_multiplicity
 _atom_site_fract_x
 _atom_site_fract_y
 _atom_site_fract_z
 _atom_site_occupancy
  Li  Li0  1  0.166820  0.333641  0.288150  1
  Li  Li1  1  0.167042  0.833208  0.288336  1
  Li  Li2  1  0.666165  0.833208  0.288336  1
  Li  Li3  1  0.833275  0.666549  0.787977  1
  Li  Li4  1  0.832250  0.166142  0.789208  1
  Li  Li5  1  0.333893  0.166142  0.789208  1
  Li  Li6  1  0.333668  0.667338  0.670650  1
  Li  Li7  1  0.666687  0.333373  0.171720  1
  Y  Y8  1  0.512211  0.024419  0.493886  1
  Ho  Ho9  1  0.514764  0.489763  0.491787  1
  Ho  Ho10  1  0.974998  0.489763  0.491787  1
  Ho  Ho11  1  0.487843  0.975689  0.994315  1
  Ho  Ho12  1  0.490033  0.512452  0.995127  1
  Ho  Ho13  1  0.022418  0.512452  0.995127  1
  Ho  Ho14  1  0.998904  0.997808  0.498454  1
  Ho  Ho15  1  0.999041  0.998082  0.001437  1
  Sn  Sn16  1  0.166264  0.832627  0.730497  1
  Sn  Sn17  1  0.666361  0.832627  0.730497  1
  Sn  Sn18  1  0.833511  0.667022  0.231173  1
  Sn  Sn19  1  0.834177  0.167546  0.230417  1
  Sn  Sn20  1  0.333370  0.167546  0.230417  1
  Sn  Sn21  1  0.332657  0.665315  0.260214  1
  Sn  Sn22  1  0.666961  0.333920  0.761107  1
  Sb  Sb23  1  0.166685  0.333371  0.732141  1
