# generated using pymatgen
data_SmSc6Co6Sn23
_symmetry_space_group_name_H-M   'P 1'
_cell_length_a   9.57322700
_cell_length_b   9.57322744
_cell_length_c   9.81076200
_cell_angle_alpha   90.00000000
_cell_angle_beta   90.00000000
_cell_angle_gamma   120.00000193
_symmetry_Int_Tables_number   1
_chemical_formula_structural   SmSc6Co6Sn23
_chemical_formula_sum   'Sm1 Sc6 Co6 Sn23'
_cell_volume   778.66400212
_cell_formula_units_Z   1
loop_
 _symmetry_equiv_pos_site_id
 _symmetry_equiv_pos_as_xyz
  1  'x, y, z'
loop_
 _atom_site_type_symbol
 _atom_site_label
 _atom_site_symmetry_multiplicity
 _atom_site_fract_x
 _atom_site_fract_y
 _atom_site_fract_z
 _atom_site_occupancy
  Sm  Sm0  1  0.000000  0.000000  0.000000  1
  Sc  Sc1  1  0.517926  0.482074  0.692167  1
  Sc  Sc2  1  0.517926  0.035850  0.692167  1
  Sc  Sc3  1  0.964150  0.482074  0.692167  1
  Sc  Sc4  1  0.035850  0.517926  0.307833  1
  Sc  Sc5  1  0.482074  0.964150  0.307833  1
  Sc  Sc6  1  0.482074  0.517926  0.307833  1
  Co  Co7  1  0.169112  0.830888  0.801198  1
  Co  Co8  1  0.169112  0.338224  0.801198  1
  Co  Co9  1  0.661776  0.830888  0.801198  1
  Co  Co10  1  0.338224  0.169112  0.198802  1
  Co  Co11  1  0.830888  0.661776  0.198802  1
  Co  Co12  1  0.830888  0.169112  0.198802  1
  Sn  Sn13  1  0.666667  0.333333  0.177736  1
  Sn  Sn14  1  0.666667  0.333333  0.863262  1
  Sn  Sn15  1  0.333333  0.666667  0.136738  1
  Sn  Sn16  1  0.348394  0.348394  0.000000  1
  Sn  Sn17  1  0.000000  0.651606  0.000000  1
  Sn  Sn18  1  0.651606  0.000000  0.000000  1
  Sn  Sn19  1  0.651606  0.651606  0.000000  1
  Sn  Sn20  1  0.333333  0.666667  0.822264  1
  Sn  Sn21  1  0.441728  0.220864  0.453379  1
  Sn  Sn22  1  0.220864  0.779136  0.546621  1
  Sn  Sn23  1  0.220864  0.441728  0.546621  1
  Sn  Sn24  1  0.558272  0.779136  0.546621  1
  Sn  Sn25  1  0.121976  0.878024  0.277031  1
  Sn  Sn26  1  0.779136  0.558272  0.453379  1
  Sn  Sn27  1  0.779136  0.220864  0.453379  1
  Sn  Sn28  1  0.348394  0.000000  0.000000  1
  Sn  Sn29  1  0.121976  0.243952  0.277031  1
  Sn  Sn30  1  0.756048  0.878024  0.277031  1
  Sn  Sn31  1  0.243952  0.121976  0.722969  1
  Sn  Sn32  1  0.878024  0.756048  0.722969  1
  Sn  Sn33  1  0.878024  0.121976  0.722969  1
  Sn  Sn34  1  0.000000  0.000000  0.500000  1
  Sn  Sn35  1  0.000000  0.348394  0.000000  1
