# generated using pymatgen
data_Ho5Lu5Si5As
_symmetry_space_group_name_H-M   'P 1'
_cell_length_a   8.32924208
_cell_length_b   8.34086022
_cell_length_c   6.18592000
_cell_angle_alpha   90.00000000
_cell_angle_beta   90.00000000
_cell_angle_gamma   119.87291797
_symmetry_Int_Tables_number   1
_chemical_formula_structural   Ho5Lu5Si5As
_chemical_formula_sum   'Ho5 Lu5 Si5 As1'
_cell_volume   372.65416283
_cell_formula_units_Z   1
loop_
 _symmetry_equiv_pos_site_id
 _symmetry_equiv_pos_as_xyz
  1  'x, y, z'
loop_
 _atom_site_type_symbol
 _atom_site_label
 _atom_site_symmetry_multiplicity
 _atom_site_fract_x
 _atom_site_fract_y
 _atom_site_fract_z
 _atom_site_occupancy
  Ho  Ho0  1  0.758501  0.000169  0.750000  1
  Ho  Ho1  1  0.755736  0.755314  0.250000  1
  Ho  Ho2  1  0.000772  0.243890  0.250000  1
  Ho  Ho3  1  0.996656  0.753942  0.750000  1
  Ho  Ho4  1  0.243186  0.000352  0.250000  1
  Lu  Lu5  1  0.668760  0.335964  0.001219  1
  Lu  Lu6  1  0.332953  0.663730  0.498789  1
  Lu  Lu7  1  0.332953  0.663730  0.001211  1
  Lu  Lu8  1  0.668760  0.335964  0.498781  1
  Lu  Lu9  1  0.242868  0.246719  0.750000  1
  Si  Si10  1  0.395674  0.394363  0.250000  1
  Si  Si11  1  0.001418  0.605951  0.250000  1
  Si  Si12  1  0.000615  0.394790  0.750000  1
  Si  Si13  1  0.603407  0.603764  0.750000  1
  Si  Si14  1  0.605900  0.000166  0.250000  1
  As  As15  1  0.391841  0.001191  0.750000  1
