# generated using pymatgen
data_Nd3ThS6
_symmetry_space_group_name_H-M   'P 1'
_cell_length_a   4.02821900
_cell_length_b   10.71795530
_cell_length_c   10.97625410
_cell_angle_alpha   89.49410366
_cell_angle_beta   90.00000000
_cell_angle_gamma   90.00000000
_symmetry_Int_Tables_number   1
_chemical_formula_structural   Nd3ThS6
_chemical_formula_sum   'Nd6 Th2 S12'
_cell_volume   473.87329824
_cell_formula_units_Z   2
loop_
 _symmetry_equiv_pos_site_id
 _symmetry_equiv_pos_as_xyz
  1  'x, y, z'
loop_
 _atom_site_type_symbol
 _atom_site_label
 _atom_site_symmetry_multiplicity
 _atom_site_fract_x
 _atom_site_fract_y
 _atom_site_fract_z
 _atom_site_occupancy
  Nd  Nd0  1  0.250000  0.007268  0.309868  1
  Nd  Nd1  1  0.750000  0.992732  0.690132  1
  Nd  Nd2  1  0.750000  0.503796  0.191908  1
  Nd  Nd3  1  0.250000  0.496203  0.808092  1
  Nd  Nd4  1  0.250000  0.686349  0.488064  1
  Nd  Nd5  1  0.750000  0.313651  0.511936  1
  Th  Th6  1  0.750000  0.186872  0.012366  1
  Th  Th7  1  0.250000  0.813128  0.987634  1
  S  S8  1  0.250000  0.055694  0.880113  1
  S  S9  1  0.750000  0.944306  0.119887  1
  S  S10  1  0.750000  0.552923  0.622049  1
  S  S11  1  0.250000  0.447077  0.377951  1
  S  S12  1  0.250000  0.127901  0.548008  1
  S  S13  1  0.750000  0.872099  0.451992  1
  S  S14  1  0.750000  0.628258  0.950923  1
  S  S15  1  0.250000  0.371742  0.049077  1
  S  S16  1  0.250000  0.703084  0.222568  1
  S  S17  1  0.750000  0.296916  0.777432  1
  S  S18  1  0.750000  0.202330  0.269460  1
  S  S19  1  0.250000  0.797670  0.730540  1
