# generated using pymatgen
data_Ti3ReSi(TcGe)2
_symmetry_space_group_name_H-M   'P 1'
_cell_length_a   6.89063001
_cell_length_b   6.88691831
_cell_length_c   3.25555300
_cell_angle_alpha   90.00000000
_cell_angle_beta   90.00000000
_cell_angle_gamma   119.98218090
_symmetry_Int_Tables_number   1
_chemical_formula_structural   Ti3ReSi(TcGe)2
_chemical_formula_sum   'Ti3 Re1 Si1 Tc2 Ge2'
_cell_volume   133.81882639
_cell_formula_units_Z   1
loop_
 _symmetry_equiv_pos_site_id
 _symmetry_equiv_pos_as_xyz
  1  'x, y, z'
loop_
 _atom_site_type_symbol
 _atom_site_label
 _atom_site_symmetry_multiplicity
 _atom_site_fract_x
 _atom_site_fract_y
 _atom_site_fract_z
 _atom_site_occupancy
  Ti  Ti0  1  0.397063  0.398890  0.500000  1
  Ti  Ti1  1  0.602937  0.001828  0.500000  1
  Ti  Ti2  1  0.000000  0.598694  0.500000  1
  Re  Re3  1  0.000000  0.258212  0.000000  1
  Si  Si4  1  0.000000  0.996725  0.500000  1
  Tc  Tc5  1  0.742015  0.742604  0.000000  1
  Tc  Tc6  1  0.257985  0.000589  0.000000  1
  Ge  Ge7  1  0.665469  0.333964  0.000000  1
  Ge  Ge8  1  0.334531  0.668495  0.000000  1
