# generated using pymatgen
data_Li10(Tl3Pd)3
_symmetry_space_group_name_H-M   'P 1'
_cell_length_a   7.35815833
_cell_length_b   7.35815868
_cell_length_c   10.16250568
_cell_angle_alpha   62.61828241
_cell_angle_beta   62.61827962
_cell_angle_gamma   77.78956411
_symmetry_Int_Tables_number   1
_chemical_formula_structural   Li10(Tl3Pd)3
_chemical_formula_sum   'Li10 Tl9 Pd3'
_cell_volume   433.83841990
_cell_formula_units_Z   1
loop_
 _symmetry_equiv_pos_site_id
 _symmetry_equiv_pos_as_xyz
  1  'x, y, z'
loop_
 _atom_site_type_symbol
 _atom_site_label
 _atom_site_symmetry_multiplicity
 _atom_site_fract_x
 _atom_site_fract_y
 _atom_site_fract_z
 _atom_site_occupancy
  Li  Li0  1  0.544334  0.060669  0.158477  1
  Li  Li1  1  0.547343  0.547343  0.678784  1
  Li  Li2  1  0.060669  0.544334  0.158477  1
  Li  Li3  1  0.452657  0.452657  0.321216  1
  Li  Li4  1  0.274938  0.725062  0.500000  1
  Li  Li5  1  0.256291  0.256291  0.977527  1
  Li  Li6  1  0.939331  0.455666  0.841523  1
  Li  Li7  1  0.743709  0.743709  0.022473  1
  Li  Li8  1  0.455666  0.939331  0.841523  1
  Li  Li9  1  0.725062  0.274938  0.500000  1
  Tl  Tl10  1  0.229062  0.828380  0.199500  1
  Tl  Tl11  1  0.169414  0.169414  0.397946  1
  Tl  Tl12  1  0.267386  0.267386  0.666949  1
  Tl  Tl13  1  0.828380  0.229062  0.199500  1
  Tl  Tl14  1  0.732614  0.732614  0.333051  1
  Tl  Tl15  1  0.500000  0.500000  0.000000  1
  Tl  Tl16  1  0.770938  0.171620  0.800500  1
  Tl  Tl17  1  0.171620  0.770938  0.800500  1
  Tl  Tl18  1  0.830586  0.830586  0.602054  1
  Pd  Pd19  1  0.500000  0.000000  0.500000  1
  Pd  Pd20  1  0.000000  0.000000  0.000000  1
  Pd  Pd21  1  0.000000  0.500000  0.500000  1
