# generated using pymatgen
data_Tb3PtRh2Pb3
_symmetry_space_group_name_H-M   'P 1'
_cell_length_a   7.77305300
_cell_length_b   7.77305467
_cell_length_c   3.90347100
_cell_angle_alpha   90.00000000
_cell_angle_beta   90.00000000
_cell_angle_gamma   119.99999716
_symmetry_Int_Tables_number   1
_chemical_formula_structural   Tb3PtRh2Pb3
_chemical_formula_sum   'Tb3 Pt1 Rh2 Pb3'
_cell_volume   204.25135785
_cell_formula_units_Z   1
loop_
 _symmetry_equiv_pos_site_id
 _symmetry_equiv_pos_as_xyz
  1  'x, y, z'
loop_
 _atom_site_type_symbol
 _atom_site_label
 _atom_site_symmetry_multiplicity
 _atom_site_fract_x
 _atom_site_fract_y
 _atom_site_fract_z
 _atom_site_occupancy
  Tb  Tb0  1  0.003971  0.594384  0.000000  1
  Tb  Tb1  1  0.405616  0.409588  0.000000  1
  Tb  Tb2  1  0.590412  0.996029  0.000000  1
  Pt  Pt3  1  0.666667  0.333333  0.500000  1
  Rh  Rh4  1  0.000000  0.000000  0.000000  1
  Rh  Rh5  1  0.333333  0.666667  0.500000  1
  Pb  Pb6  1  0.736082  0.740987  0.500000  1
  Pb  Pb7  1  0.004905  0.263918  0.500000  1
  Pb  Pb8  1  0.259013  0.995095  0.500000  1
