# generated using pymatgen
data_ErNb8CuS16
_symmetry_space_group_name_H-M   'P 1'
_cell_length_a   6.76226100
_cell_length_b   6.76226141
_cell_length_c   12.82206500
_cell_angle_alpha   90.00000000
_cell_angle_beta   90.00000000
_cell_angle_gamma   120.00000288
_symmetry_Int_Tables_number   1
_chemical_formula_structural   ErNb8CuS16
_chemical_formula_sum   'Er1 Nb8 Cu1 S16'
_cell_volume   507.77635970
_cell_formula_units_Z   1
loop_
 _symmetry_equiv_pos_site_id
 _symmetry_equiv_pos_as_xyz
  1  'x, y, z'
loop_
 _atom_site_type_symbol
 _atom_site_label
 _atom_site_symmetry_multiplicity
 _atom_site_fract_x
 _atom_site_fract_y
 _atom_site_fract_z
 _atom_site_occupancy
  Er  Er0  1  0.000000  0.000000  0.500000  1
  Nb  Nb1  1  0.989986  0.494993  0.236849  1
  Nb  Nb2  1  0.010014  0.505007  0.763151  1
  Nb  Nb3  1  0.494993  0.505007  0.763151  1
  Nb  Nb4  1  0.505007  0.010014  0.236849  1
  Nb  Nb5  1  0.000000  0.000000  0.765153  1
  Nb  Nb6  1  0.000000  0.000000  0.234847  1
  Nb  Nb7  1  0.505007  0.494993  0.236849  1
  Nb  Nb8  1  0.494993  0.989986  0.763151  1
  Cu  Cu9  1  0.000000  0.000000  0.000000  1
  S  S10  1  0.333333  0.666667  0.638184  1
  S  S11  1  0.666667  0.333333  0.115069  1
  S  S12  1  0.666667  0.333333  0.361816  1
  S  S13  1  0.333333  0.666667  0.884931  1
  S  S14  1  0.167719  0.335439  0.357896  1
  S  S15  1  0.830294  0.169706  0.882913  1
  S  S16  1  0.339412  0.169706  0.882913  1
  S  S17  1  0.664561  0.832281  0.357896  1
  S  S18  1  0.167719  0.832281  0.357896  1
  S  S19  1  0.830294  0.660588  0.882913  1
  S  S20  1  0.169706  0.339412  0.117087  1
  S  S21  1  0.832281  0.167719  0.642104  1
  S  S22  1  0.335439  0.167719  0.642104  1
  S  S23  1  0.660588  0.830294  0.117087  1
  S  S24  1  0.169706  0.830294  0.117087  1
  S  S25  1  0.832281  0.664561  0.642104  1
