# generated using pymatgen
data_Er12Co2Ni3Sn
_symmetry_space_group_name_H-M   'P 1'
_cell_length_a   8.21849637
_cell_length_b   8.21849667
_cell_length_c   8.21849666
_cell_angle_alpha   109.39231202
_cell_angle_beta   111.31910059
_cell_angle_gamma   107.72228292
_symmetry_Int_Tables_number   1
_chemical_formula_structural   Er12Co2Ni3Sn
_chemical_formula_sum   'Er12 Co2 Ni3 Sn1'
_cell_volume   426.89977481
_cell_formula_units_Z   1
loop_
 _symmetry_equiv_pos_site_id
 _symmetry_equiv_pos_as_xyz
  1  'x, y, z'
loop_
 _atom_site_type_symbol
 _atom_site_label
 _atom_site_symmetry_multiplicity
 _atom_site_fract_x
 _atom_site_fract_y
 _atom_site_fract_z
 _atom_site_occupancy
  Er  Er0  1  0.291149  0.183452  0.474601  1
  Er  Er1  1  0.708851  0.816548  0.525399  1
  Er  Er2  1  0.291149  0.816548  0.107697  1
  Er  Er3  1  0.708851  0.183452  0.892303  1
  Er  Er4  1  0.624269  0.317326  0.306942  1
  Er  Er5  1  0.375731  0.682674  0.693058  1
  Er  Er6  1  0.010385  0.317326  0.693058  1
  Er  Er7  1  0.989615  0.682674  0.306942  1
  Er  Er8  1  0.213555  0.406779  0.193224  1
  Er  Er9  1  0.786445  0.593221  0.806776  1
  Er  Er10  1  0.213555  0.020332  0.806776  1
  Er  Er11  1  0.786445  0.979668  0.193224  1
  Co  Co12  1  0.384649  0.884649  0.500000  1
  Co  Co13  1  0.615351  0.115351  0.500000  1
  Ni  Ni14  1  0.000000  0.364982  0.364982  1
  Ni  Ni15  1  0.000000  0.635018  0.635018  1
  Ni  Ni16  1  0.000000  0.000000  0.000000  1
  Sn  Sn17  1  0.500000  0.500000  0.000000  1
