# generated using pymatgen
data_Tm3Pa(Ni2Sn)2
_symmetry_space_group_name_H-M   'P 1'
_cell_length_a   7.42306183
_cell_length_b   7.42306183
_cell_length_c   3.52574900
_cell_angle_alpha   90.00000000
_cell_angle_beta   90.00000000
_cell_angle_gamma   92.00288269
_symmetry_Int_Tables_number   1
_chemical_formula_structural   Tm3Pa(Ni2Sn)2
_chemical_formula_sum   'Tm3 Pa1 Ni4 Sn2'
_cell_volume   194.15659308
_cell_formula_units_Z   1
loop_
 _symmetry_equiv_pos_site_id
 _symmetry_equiv_pos_as_xyz
  1  'x, y, z'
loop_
 _atom_site_type_symbol
 _atom_site_label
 _atom_site_symmetry_multiplicity
 _atom_site_fract_x
 _atom_site_fract_y
 _atom_site_fract_z
 _atom_site_occupancy
  Tm  Tm0  1  0.326354  0.826354  0.500000  1
  Tm  Tm1  1  0.169453  0.328136  0.500000  1
  Tm  Tm2  1  0.828136  0.669453  0.500000  1
  Pa  Pa3  1  0.671656  0.171656  0.500000  1
  Ni  Ni4  1  0.865127  0.365127  0.000000  1
  Ni  Ni5  1  0.115669  0.615669  0.000000  1
  Ni  Ni6  1  0.393598  0.131435  0.000000  1
  Ni  Ni7  1  0.631435  0.893598  0.000000  1
  Sn  Sn8  1  0.490847  0.507724  0.000000  1
  Sn  Sn9  1  0.007724  0.990847  0.000000  1
