# generated using pymatgen
data_Dy4As5Ir7Au
_symmetry_space_group_name_H-M   'P 1'
_cell_length_a   7.32139189
_cell_length_b   7.32207612
_cell_length_c   7.32207658
_cell_angle_alpha   107.33186621
_cell_angle_beta   110.55414370
_cell_angle_gamma   110.55413573
_symmetry_Int_Tables_number   1
_chemical_formula_structural   Dy4As5Ir7Au
_chemical_formula_sum   'Dy4 As5 Ir7 Au1'
_cell_volume   301.82677416
_cell_formula_units_Z   1
loop_
 _symmetry_equiv_pos_site_id
 _symmetry_equiv_pos_as_xyz
  1  'x, y, z'
loop_
 _atom_site_type_symbol
 _atom_site_label
 _atom_site_symmetry_multiplicity
 _atom_site_fract_x
 _atom_site_fract_y
 _atom_site_fract_z
 _atom_site_occupancy
  Dy  Dy0  1  0.999992  0.991604  0.488507  1
  Dy  Dy1  1  0.999992  0.488507  0.991604  1
  Dy  Dy2  1  0.503009  0.991431  0.991431  1
  Dy  Dy3  1  0.496817  0.488326  0.488326  1
  As  As4  1  0.684418  0.680652  0.995960  1
  As  As5  1  0.315750  0.996464  0.311929  1
  As  As6  1  0.000049  0.336450  0.336450  1
  As  As7  1  0.315750  0.311929  0.996464  1
  As  As8  1  0.684418  0.995960  0.680652  1
  Ir  Ir9  1  0.746179  0.238722  0.492559  1
  Ir  Ir10  1  0.746179  0.492559  0.238722  1
  Ir  Ir11  1  0.499963  0.244093  0.744039  1
  Ir  Ir12  1  0.253757  0.492606  0.746379  1
  Ir  Ir13  1  0.253757  0.746379  0.492606  1
  Ir  Ir14  1  0.499963  0.744039  0.244093  1
  Ir  Ir15  1  0.000315  0.043234  0.043234  1
  Au  Au16  1  0.999692  0.717041  0.717041  1
