# generated using pymatgen
data_Pr5Ir2Rh
_symmetry_space_group_name_H-M   'P 1'
_cell_length_a   11.32229100
_cell_length_b   11.32229100
_cell_length_c   6.67123600
_cell_angle_alpha   90.00000000
_cell_angle_beta   90.00000000
_cell_angle_gamma   90.00000000
_symmetry_Int_Tables_number   1
_chemical_formula_structural   Pr5Ir2Rh
_chemical_formula_sum   'Pr20 Ir8 Rh4'
_cell_volume   855.21425229
_cell_formula_units_Z   4
loop_
 _symmetry_equiv_pos_site_id
 _symmetry_equiv_pos_as_xyz
  1  'x, y, z'
loop_
 _atom_site_type_symbol
 _atom_site_label
 _atom_site_symmetry_multiplicity
 _atom_site_fract_x
 _atom_site_fract_y
 _atom_site_fract_z
 _atom_site_occupancy
  Pr  Pr0  1  0.291113  0.090388  0.383098  1
  Pr  Pr1  1  0.291113  0.909612  0.883098  1
  Pr  Pr2  1  0.708887  0.090388  0.883098  1
  Pr  Pr3  1  0.708887  0.909612  0.383098  1
  Pr  Pr4  1  0.590388  0.791113  0.883098  1
  Pr  Pr5  1  0.590388  0.208887  0.383098  1
  Pr  Pr6  1  0.409612  0.791113  0.383098  1
  Pr  Pr7  1  0.409612  0.208887  0.883098  1
  Pr  Pr8  1  0.208887  0.409612  0.616902  1
  Pr  Pr9  1  0.208887  0.590388  0.116902  1
  Pr  Pr10  1  0.791113  0.409612  0.116902  1
  Pr  Pr11  1  0.791113  0.590388  0.616902  1
  Pr  Pr12  1  0.909612  0.708887  0.116902  1
  Pr  Pr13  1  0.909612  0.291113  0.616902  1
  Pr  Pr14  1  0.090388  0.708887  0.616902  1
  Pr  Pr15  1  0.090388  0.291113  0.116902  1
  Pr  Pr16  1  0.000000  0.000000  0.500000  1
  Pr  Pr17  1  0.000000  0.000000  0.000000  1
  Pr  Pr18  1  0.500000  0.500000  0.000000  1
  Pr  Pr19  1  0.500000  0.500000  0.500000  1
  Ir  Ir20  1  0.845864  0.154136  0.250000  1
  Ir  Ir21  1  0.845864  0.845864  0.750000  1
  Ir  Ir22  1  0.154136  0.154136  0.750000  1
  Ir  Ir23  1  0.154136  0.845864  0.250000  1
  Ir  Ir24  1  0.654136  0.345864  0.750000  1
  Ir  Ir25  1  0.654136  0.654136  0.250000  1
  Ir  Ir26  1  0.345864  0.345864  0.250000  1
  Ir  Ir27  1  0.345864  0.654136  0.750000  1
  Rh  Rh28  1  0.500000  0.000000  0.115447  1
  Rh  Rh29  1  0.500000  0.000000  0.615447  1
  Rh  Rh30  1  0.000000  0.500000  0.884553  1
  Rh  Rh31  1  0.000000  0.500000  0.384553  1
