# generated using pymatgen
data_Zn22NiRh3
_symmetry_space_group_name_H-M   'P 1'
_cell_length_a   7.86164229
_cell_length_b   7.86164172
_cell_length_c   7.86164229
_cell_angle_alpha   109.41131304
_cell_angle_beta   109.41130652
_cell_angle_gamma   109.41131039
_symmetry_Int_Tables_number   1
_chemical_formula_structural   Zn22NiRh3
_chemical_formula_sum   'Zn22 Ni1 Rh3'
_cell_volume   374.86726082
_cell_formula_units_Z   1
loop_
 _symmetry_equiv_pos_site_id
 _symmetry_equiv_pos_as_xyz
  1  'x, y, z'
loop_
 _atom_site_type_symbol
 _atom_site_label
 _atom_site_symmetry_multiplicity
 _atom_site_fract_x
 _atom_site_fract_y
 _atom_site_fract_z
 _atom_site_occupancy
  Zn  Zn0  1  0.214658  0.003316  0.003316  1
  Zn  Zn1  1  0.003316  0.214658  0.003316  1
  Zn  Zn2  1  0.003316  0.003316  0.214658  1
  Zn  Zn3  1  0.792093  0.792093  0.792093  1
  Zn  Zn4  1  0.996173  0.641010  0.641010  1
  Zn  Zn5  1  0.356062  0.001826  0.356062  1
  Zn  Zn6  1  0.356062  0.356062  0.001826  1
  Zn  Zn7  1  0.001826  0.356062  0.356062  1
  Zn  Zn8  1  0.641010  0.996173  0.641010  1
  Zn  Zn9  1  0.641010  0.641010  0.996173  1
  Zn  Zn10  1  0.350309  0.734508  0.999544  1
  Zn  Zn11  1  0.613827  0.268274  0.268274  1
  Zn  Zn12  1  0.350309  0.999544  0.734508  1
  Zn  Zn13  1  0.734508  0.350309  0.999544  1
  Zn  Zn14  1  0.999544  0.350309  0.734508  1
  Zn  Zn15  1  0.268274  0.613827  0.268274  1
  Zn  Zn16  1  0.268274  0.268274  0.613827  1
  Zn  Zn17  1  0.999544  0.734508  0.350309  1
  Zn  Zn18  1  0.734508  0.999544  0.350309  1
  Zn  Zn19  1  0.644213  0.644213  0.386877  1
  Zn  Zn20  1  0.386877  0.644213  0.644213  1
  Zn  Zn21  1  0.644213  0.386877  0.644213  1
  Ni  Ni22  1  0.343399  0.343399  0.343399  1
  Rh  Rh23  1  0.653986  0.001343  0.001343  1
  Rh  Rh24  1  0.001343  0.653986  0.001343  1
  Rh  Rh25  1  0.001343  0.001343  0.653986  1
