# generated using pymatgen
data_K2Cd2Se3
_symmetry_space_group_name_H-M   'P 1'
_cell_length_a   11.48566038
_cell_length_b   11.48566029
_cell_length_c   7.61906472
_cell_angle_alpha   70.47456085
_cell_angle_beta   70.47455828
_cell_angle_gamma   84.18627338
_symmetry_Int_Tables_number   1
_chemical_formula_structural   K2Cd2Se3
_chemical_formula_sum   'K8 Cd8 Se12'
_cell_volume   892.77125480
_cell_formula_units_Z   4
loop_
 _symmetry_equiv_pos_site_id
 _symmetry_equiv_pos_as_xyz
  1  'x, y, z'
loop_
 _atom_site_type_symbol
 _atom_site_label
 _atom_site_symmetry_multiplicity
 _atom_site_fract_x
 _atom_site_fract_y
 _atom_site_fract_z
 _atom_site_occupancy
  K  K0  1  0.430559  0.569441  0.750000  1
  K  K1  1  0.569441  0.430559  0.250000  1
  K  K2  1  0.715237  0.284763  0.750000  1
  K  K3  1  0.284763  0.715237  0.250000  1
  K  K4  1  0.805405  0.979233  0.622179  1
  K  K5  1  0.020767  0.194595  0.877821  1
  K  K6  1  0.194595  0.020767  0.377821  1
  K  K7  1  0.979233  0.805405  0.122179  1
  Cd  Cd8  1  0.358881  0.205311  0.799942  1
  Cd  Cd9  1  0.794689  0.641119  0.700058  1
  Cd  Cd10  1  0.641119  0.794689  0.200058  1
  Cd  Cd11  1  0.205311  0.358881  0.299942  1
  Cd  Cd12  1  0.082401  0.544467  0.758174  1
  Cd  Cd13  1  0.455533  0.917599  0.741826  1
  Cd  Cd14  1  0.917599  0.455533  0.241826  1
  Cd  Cd15  1  0.544467  0.082401  0.258174  1
  Se  Se16  1  0.270458  0.416779  0.575841  1
  Se  Se17  1  0.583221  0.729542  0.924159  1
  Se  Se18  1  0.729542  0.583221  0.424159  1
  Se  Se19  1  0.416779  0.270458  0.075841  1
  Se  Se20  1  0.572023  0.146995  0.555570  1
  Se  Se21  1  0.853005  0.427977  0.944430  1
  Se  Se22  1  0.427977  0.853005  0.444430  1
  Se  Se23  1  0.146995  0.572023  0.055570  1
  Se  Se24  1  0.009908  0.764537  0.562612  1
  Se  Se25  1  0.235463  0.990092  0.937388  1
  Se  Se26  1  0.990092  0.235463  0.437388  1
  Se  Se27  1  0.764537  0.009908  0.062612  1
