# generated using pymatgen
data_Ho5Er7InCo4Ir
_symmetry_space_group_name_H-M   'P 1'
_cell_length_a   8.23494101
_cell_length_b   8.23553456
_cell_length_c   8.23494069
_cell_angle_alpha   111.13781758
_cell_angle_beta   110.82126265
_cell_angle_gamma   106.49233630
_symmetry_Int_Tables_number   1
_chemical_formula_structural   Ho5Er7InCo4Ir
_chemical_formula_sum   'Ho5 Er7 In1 Co4 Ir1'
_cell_volume   429.06943877
_cell_formula_units_Z   1
loop_
 _symmetry_equiv_pos_site_id
 _symmetry_equiv_pos_as_xyz
  1  'x, y, z'
loop_
 _atom_site_type_symbol
 _atom_site_label
 _atom_site_symmetry_multiplicity
 _atom_site_fract_x
 _atom_site_fract_y
 _atom_site_fract_z
 _atom_site_occupancy
  Ho  Ho0  1  0.183593  0.284582  0.468458  1
  Ho  Ho1  1  0.816541  0.715305  0.531690  1
  Ho  Ho2  1  0.183614  0.715305  0.898764  1
  Ho  Ho3  1  0.816124  0.284582  0.100988  1
  Ho  Ho4  1  0.315112  0.620514  0.305402  1
  Er  Er5  1  0.684724  0.378919  0.694195  1
  Er  Er6  1  0.315307  0.009658  0.694352  1
  Er  Er7  1  0.684880  0.990723  0.305842  1
  Er  Er8  1  0.412564  0.217836  0.194489  1
  Er  Er9  1  0.587651  0.782124  0.805794  1
  Er  Er10  1  0.023347  0.217836  0.805272  1
  Er  Er11  1  0.976331  0.782124  0.194473  1
  In  In12  1  0.500097  0.499993  0.999897  1
  Co  Co13  1  0.111987  0.612119  0.500131  1
  Co  Co14  1  0.887832  0.387799  0.499967  1
  Co  Co15  1  0.377480  0.000274  0.377460  1
  Co  Co16  1  0.622813  0.000274  0.622793  1
  Ir  Ir17  1  0.000001  0.000032  0.000031  1
