# generated using pymatgen
data_Tm3Ag2RuPb3
_symmetry_space_group_name_H-M   'P 1'
_cell_length_a   8.09056700
_cell_length_b   8.09056664
_cell_length_c   3.75058600
_cell_angle_alpha   90.00000000
_cell_angle_beta   90.00000000
_cell_angle_gamma   119.99999630
_symmetry_Int_Tables_number   1
_chemical_formula_structural   Tm3Ag2RuPb3
_chemical_formula_sum   'Tm3 Ag2 Ru1 Pb3'
_cell_volume   212.61195165
_cell_formula_units_Z   1
loop_
 _symmetry_equiv_pos_site_id
 _symmetry_equiv_pos_as_xyz
  1  'x, y, z'
loop_
 _atom_site_type_symbol
 _atom_site_label
 _atom_site_symmetry_multiplicity
 _atom_site_fract_x
 _atom_site_fract_y
 _atom_site_fract_z
 _atom_site_occupancy
  Tm  Tm0  1  0.588071  0.960712  0.000000  1
  Tm  Tm1  1  0.039288  0.627358  0.000000  1
  Tm  Tm2  1  0.372642  0.411929  0.000000  1
  Ag  Ag3  1  0.666667  0.333333  0.500000  1
  Ag  Ag4  1  0.000000  0.000000  0.000000  1
  Ru  Ru5  1  0.333333  0.666667  0.500000  1
  Pb  Pb6  1  0.284279  0.009565  0.500000  1
  Pb  Pb7  1  0.990435  0.274714  0.500000  1
  Pb  Pb8  1  0.725286  0.715721  0.500000  1
