# generated using pymatgen
data_Ho2Er2Ga18Co5Pd
_symmetry_space_group_name_H-M   'P 1'
_cell_length_a   7.38986716
_cell_length_b   7.39030254
_cell_length_c   9.37997915
_cell_angle_alpha   90.12731797
_cell_angle_beta   90.12470469
_cell_angle_gamma   119.65931372
_symmetry_Int_Tables_number   1
_chemical_formula_structural   Ho2Er2Ga18Co5Pd
_chemical_formula_sum   'Ho2 Er2 Ga18 Co5 Pd1'
_cell_volume   445.15156700
_cell_formula_units_Z   1
loop_
 _symmetry_equiv_pos_site_id
 _symmetry_equiv_pos_as_xyz
  1  'x, y, z'
loop_
 _atom_site_type_symbol
 _atom_site_label
 _atom_site_symmetry_multiplicity
 _atom_site_fract_x
 _atom_site_fract_y
 _atom_site_fract_z
 _atom_site_occupancy
  Ho  Ho0  1  0.502907  0.827082  0.751515  1
  Ho  Ho1  1  0.497093  0.172918  0.248485  1
  Er  Er2  1  0.172897  0.497098  0.248478  1
  Er  Er3  1  0.827103  0.502902  0.751522  1
  Ga  Ga4  1  0.164263  0.945671  0.751513  1
  Ga  Ga5  1  0.835737  0.054329  0.248487  1
  Ga  Ga6  1  0.054259  0.835607  0.248489  1
  Ga  Ga7  1  0.945741  0.164393  0.751511  1
  Ga  Ga8  1  0.629422  0.629480  0.241701  1
  Ga  Ga9  1  0.370578  0.370520  0.758299  1
  Ga  Ga10  1  0.167262  0.167340  0.057681  1
  Ga  Ga11  1  0.843005  0.842937  0.563674  1
  Ga  Ga12  1  0.832738  0.832660  0.942319  1
  Ga  Ga13  1  0.156995  0.157063  0.436326  1
  Ga  Ga14  1  0.497781  0.835285  0.072350  1
  Ga  Ga15  1  0.500379  0.155812  0.576767  1
  Ga  Ga16  1  0.164544  0.502136  0.927722  1
  Ga  Ga17  1  0.844365  0.499697  0.423284  1
  Ga  Ga18  1  0.502219  0.164715  0.927650  1
  Ga  Ga19  1  0.499621  0.844188  0.423233  1
  Ga  Ga20  1  0.835456  0.497864  0.072278  1
  Ga  Ga21  1  0.155635  0.500303  0.576716  1
  Co  Co22  1  0.171003  0.828970  0.999998  1
  Co  Co23  1  0.500000  0.500000  0.000000  1
  Co  Co24  1  0.829049  0.170974  0.499999  1
  Co  Co25  1  0.828997  0.171030  0.000002  1
  Co  Co26  1  0.170951  0.829026  0.500001  1
  Pd  Pd27  1  0.500000  0.500000  0.500000  1
