# generated using pymatgen
data_Tm4IrPd3O14
_symmetry_space_group_name_H-M   'P 1'
_cell_length_a   7.17426211
_cell_length_b   7.17426312
_cell_length_c   7.19688005
_cell_angle_alpha   60.10391584
_cell_angle_beta   60.10390727
_cell_angle_gamma   60.00000158
_symmetry_Int_Tables_number   1
_chemical_formula_structural   Tm4IrPd3O14
_chemical_formula_sum   'Tm4 Ir1 Pd3 O14'
_cell_volume   262.33977520
_cell_formula_units_Z   1
loop_
 _symmetry_equiv_pos_site_id
 _symmetry_equiv_pos_as_xyz
  1  'x, y, z'
loop_
 _atom_site_type_symbol
 _atom_site_label
 _atom_site_symmetry_multiplicity
 _atom_site_fract_x
 _atom_site_fract_y
 _atom_site_fract_z
 _atom_site_occupancy
  Tm  Tm0  1  0.625000  0.125000  0.125000  1
  Tm  Tm1  1  0.125000  0.625000  0.125000  1
  Tm  Tm2  1  0.125000  0.125000  0.625000  1
  Tm  Tm3  1  0.125000  0.125000  0.125000  1
  Ir  Ir4  1  0.625000  0.625000  0.125000  1
  Pd  Pd5  1  0.125000  0.625000  0.625000  1
  Pd  Pd6  1  0.625000  0.125000  0.625000  1
  Pd  Pd7  1  0.625000  0.625000  0.625000  1
  O  O8  1  0.715513  0.715513  0.281670  1
  O  O9  1  0.281045  0.281045  0.720813  1
  O  O10  1  0.717097  0.281045  0.720813  1
  O  O11  1  0.287304  0.715513  0.281670  1
  O  O12  1  0.281045  0.717097  0.720813  1
  O  O13  1  0.715513  0.287304  0.281670  1
  O  O14  1  0.534487  0.534487  0.968330  1
  O  O15  1  0.968955  0.968955  0.529187  1
  O  O16  1  0.532903  0.968955  0.529187  1
  O  O17  1  0.962696  0.534487  0.968330  1
  O  O18  1  0.968955  0.532903  0.529187  1
  O  O19  1  0.534487  0.962696  0.968330  1
  O  O20  1  0.250320  0.250320  0.249040  1
  O  O21  1  0.999680  0.999680  0.000960  1
