# generated using pymatgen
data_Ho4Er6Ru3Rh
_symmetry_space_group_name_H-M   'P 1'
_cell_length_a   6.30547271
_cell_length_b   7.28454800
_cell_length_c   8.41824023
_cell_angle_alpha   96.80029868
_cell_angle_beta   111.89615355
_cell_angle_gamma   90.05131672
_symmetry_Int_Tables_number   1
_chemical_formula_structural   Ho4Er6Ru3Rh
_chemical_formula_sum   'Ho4 Er6 Ru3 Rh1'
_cell_volume   355.82679911
_cell_formula_units_Z   1
loop_
 _symmetry_equiv_pos_site_id
 _symmetry_equiv_pos_as_xyz
  1  'x, y, z'
loop_
 _atom_site_type_symbol
 _atom_site_label
 _atom_site_symmetry_multiplicity
 _atom_site_fract_x
 _atom_site_fract_y
 _atom_site_fract_z
 _atom_site_occupancy
  Ho  Ho0  1  0.792836  0.582102  0.814572  1
  Ho  Ho1  1  0.980159  0.915156  0.188990  1
  Ho  Ho2  1  0.208347  0.415426  0.186369  1
  Ho  Ho3  1  0.024084  0.085960  0.814497  1
  Er  Er4  1  0.203676  0.683143  0.563803  1
  Er  Er5  1  0.642504  0.815042  0.432833  1
  Er  Er6  1  0.792989  0.314941  0.434813  1
  Er  Er7  1  0.356884  0.186622  0.563734  1
  Er  Er8  1  0.419295  0.749138  0.000821  1
  Er  Er9  1  0.580354  0.252086  0.001310  1
  Ru  Ru10  1  0.823722  0.576799  0.219806  1
  Ru  Ru11  1  0.396450  0.075488  0.220958  1
  Ru  Ru12  1  0.177687  0.424219  0.779287  1
  Rh  Rh13  1  0.601013  0.923878  0.778205  1
