# generated using pymatgen
data_Eu4Dy3Y(BO4)4
_symmetry_space_group_name_H-M   'P 1'
_cell_length_a   3.66963500
_cell_length_b   9.71598101
_cell_length_c   10.90592001
_cell_angle_alpha   90.00561502
_cell_angle_beta   90.00000000
_cell_angle_gamma   90.00000000
_symmetry_Int_Tables_number   1
_chemical_formula_structural   Eu4Dy3Y(BO4)4
_chemical_formula_sum   'Eu4 Dy3 Y1 B4 O16'
_cell_volume   388.84080427
_cell_formula_units_Z   1
loop_
 _symmetry_equiv_pos_site_id
 _symmetry_equiv_pos_as_xyz
  1  'x, y, z'
loop_
 _atom_site_type_symbol
 _atom_site_label
 _atom_site_symmetry_multiplicity
 _atom_site_fract_x
 _atom_site_fract_y
 _atom_site_fract_z
 _atom_site_occupancy
  Eu  Eu0  1  0.250000  0.657329  0.081115  1
  Eu  Eu1  1  0.750000  0.342431  0.919117  1
  Eu  Eu2  1  0.750000  0.157448  0.418811  1
  Eu  Eu3  1  0.250000  0.842731  0.581094  1
  Dy  Dy4  1  0.250000  0.083260  0.111349  1
  Dy  Dy5  1  0.750000  0.916536  0.888870  1
  Dy  Dy6  1  0.750000  0.583548  0.388423  1
  Y  Y7  1  0.250000  0.417044  0.611457  1
  B  B8  1  0.250000  0.364400  0.205929  1
  B  B9  1  0.750000  0.635826  0.794245  1
  B  B10  1  0.750000  0.864124  0.293809  1
  B  B11  1  0.250000  0.135485  0.706114  1
  O  O12  1  0.250000  0.492415  0.262010  1
  O  O13  1  0.750000  0.507685  0.738371  1
  O  O14  1  0.750000  0.992227  0.237657  1
  O  O15  1  0.250000  0.007514  0.762450  1
  O  O16  1  0.250000  0.242674  0.273396  1
  O  O17  1  0.750000  0.757400  0.726714  1
  O  O18  1  0.750000  0.742424  0.226207  1
  O  O19  1  0.250000  0.257341  0.773576  1
  O  O20  1  0.250000  0.354802  0.077517  1
  O  O21  1  0.750000  0.645525  0.922672  1
  O  O22  1  0.750000  0.854510  0.422131  1
  O  O23  1  0.250000  0.144772  0.577766  1
  O  O24  1  0.250000  0.614211  0.501858  1
  O  O25  1  0.750000  0.386394  0.497146  1
  O  O26  1  0.750000  0.113616  0.997833  1
  O  O27  1  0.250000  0.886330  0.002364  1
