# generated using pymatgen
data_Pr8AlCuPd23
_symmetry_space_group_name_H-M   'P 1'
_cell_length_a   8.47672100
_cell_length_b   8.52910800
_cell_length_c   8.57323700
_cell_angle_alpha   90.00000000
_cell_angle_beta   90.00000000
_cell_angle_gamma   90.00000000
_symmetry_Int_Tables_number   1
_chemical_formula_structural   Pr8AlCuPd23
_chemical_formula_sum   'Pr8 Al1 Cu1 Pd23'
_cell_volume   619.83533787
_cell_formula_units_Z   1
loop_
 _symmetry_equiv_pos_site_id
 _symmetry_equiv_pos_as_xyz
  1  'x, y, z'
loop_
 _atom_site_type_symbol
 _atom_site_label
 _atom_site_symmetry_multiplicity
 _atom_site_fract_x
 _atom_site_fract_y
 _atom_site_fract_z
 _atom_site_occupancy
  Pr  Pr0  1  0.251951  0.249645  0.255738  1
  Pr  Pr1  1  0.748081  0.747499  0.749376  1
  Pr  Pr2  1  0.748081  0.747499  0.250624  1
  Pr  Pr3  1  0.748081  0.252501  0.749376  1
  Pr  Pr4  1  0.251951  0.249645  0.744262  1
  Pr  Pr5  1  0.251951  0.750355  0.255738  1
  Pr  Pr6  1  0.251951  0.750355  0.744262  1
  Pr  Pr7  1  0.748081  0.252501  0.250624  1
  Al  Al8  1  0.996081  0.000000  0.000000  1
  Cu  Cu9  1  0.266537  0.500000  0.000000  1
  Pd  Pd10  1  0.743014  0.500000  0.000000  1
  Pd  Pd11  1  0.998365  0.259593  0.500000  1
  Pd  Pd12  1  0.493773  0.264535  0.000000  1
  Pd  Pd13  1  0.998365  0.740407  0.500000  1
  Pd  Pd14  1  0.493773  0.735465  0.000000  1
  Pd  Pd15  1  0.499929  0.000000  0.260255  1
  Pd  Pd16  1  0.259155  0.000000  0.500000  1
  Pd  Pd17  1  0.499929  0.000000  0.739745  1
  Pd  Pd18  1  0.739884  0.000000  0.500000  1
  Pd  Pd19  1  0.002689  0.500000  0.260133  1
  Pd  Pd20  1  0.002689  0.500000  0.739867  1
  Pd  Pd21  1  0.253246  0.500000  0.500000  1
  Pd  Pd22  1  0.746822  0.500000  0.500000  1
  Pd  Pd23  1  0.501379  0.253685  0.500000  1
  Pd  Pd24  1  0.501379  0.746315  0.500000  1
  Pd  Pd25  1  0.496287  0.500000  0.250444  1
  Pd  Pd26  1  0.496287  0.500000  0.749556  1
  Pd  Pd27  1  0.288648  0.000000  0.000000  1
  Pd  Pd28  1  0.703192  0.000000  0.000000  1
  Pd  Pd29  1  0.010397  0.294762  0.000000  1
  Pd  Pd30  1  0.010397  0.705238  0.000000  1
  Pd  Pd31  1  0.998826  0.000000  0.289374  1
  Pd  Pd32  1  0.998826  0.000000  0.710626  1
