# generated using pymatgen
data_SrPrAl5SiPd2
_symmetry_space_group_name_H-M   'P 1'
_cell_length_a   6.13207904
_cell_length_b   6.13207943
_cell_length_c   5.93307500
_cell_angle_alpha   90.00000000
_cell_angle_beta   90.00000000
_cell_angle_gamma   116.92508926
_symmetry_Int_Tables_number   1
_chemical_formula_structural   SrPrAl5SiPd2
_chemical_formula_sum   'Sr1 Pr1 Al5 Si1 Pd2'
_cell_volume   198.91387900
_cell_formula_units_Z   1
loop_
 _symmetry_equiv_pos_site_id
 _symmetry_equiv_pos_as_xyz
  1  'x, y, z'
loop_
 _atom_site_type_symbol
 _atom_site_label
 _atom_site_symmetry_multiplicity
 _atom_site_fract_x
 _atom_site_fract_y
 _atom_site_fract_z
 _atom_site_occupancy
  Sr  Sr0  1  0.764102  0.235898  0.250000  1
  Pr  Pr1  1  0.235094  0.764906  0.750000  1
  Al  Al2  1  0.336000  0.664000  0.250000  1
  Al  Al3  1  0.722276  0.717590  0.991781  1
  Al  Al4  1  0.722276  0.717590  0.508219  1
  Al  Al5  1  0.282410  0.277724  0.991781  1
  Al  Al6  1  0.282410  0.277724  0.508219  1
  Si  Si7  1  0.661739  0.338261  0.750000  1
  Pd  Pd8  1  0.896239  0.103761  0.750000  1
  Pd  Pd9  1  0.097454  0.902546  0.250000  1
