# generated using pymatgen
data_Dy3Lu2(ReN4)3
_symmetry_space_group_name_H-M   'P 1'
_cell_length_a   11.05667474
_cell_length_b   11.05667481
_cell_length_c   11.05667500
_cell_angle_alpha   109.47121914
_cell_angle_beta   109.47121928
_cell_angle_gamma   109.47122444
_symmetry_Int_Tables_number   1
_chemical_formula_structural   Dy3Lu2(ReN4)3
_chemical_formula_sum   'Dy12 Lu8 Re12 N48'
_cell_volume   1040.52308262
_cell_formula_units_Z   4
loop_
 _symmetry_equiv_pos_site_id
 _symmetry_equiv_pos_as_xyz
  1  'x, y, z'
loop_
 _atom_site_type_symbol
 _atom_site_label
 _atom_site_symmetry_multiplicity
 _atom_site_fract_x
 _atom_site_fract_y
 _atom_site_fract_z
 _atom_site_occupancy
  Dy  Dy0  1  0.250000  0.375000  0.125000  1
  Dy  Dy1  1  0.375000  0.750000  0.125000  1
  Dy  Dy2  1  0.375000  0.125000  0.250000  1
  Dy  Dy3  1  0.875000  0.625000  0.250000  1
  Dy  Dy4  1  0.750000  0.125000  0.375000  1
  Dy  Dy5  1  0.125000  0.250000  0.375000  1
  Dy  Dy6  1  0.875000  0.750000  0.625000  1
  Dy  Dy7  1  0.250000  0.875000  0.625000  1
  Dy  Dy8  1  0.125000  0.375000  0.750000  1
  Dy  Dy9  1  0.625000  0.875000  0.750000  1
  Dy  Dy10  1  0.625000  0.250000  0.875000  1
  Dy  Dy11  1  0.750000  0.625000  0.875000  1
  Lu  Lu12  1  0.000000  0.000000  0.000000  1
  Lu  Lu13  1  0.500000  0.000000  0.000000  1
  Lu  Lu14  1  0.000000  0.500000  0.000000  1
  Lu  Lu15  1  0.500000  0.500000  0.000000  1
  Lu  Lu16  1  0.000000  0.000000  0.500000  1
  Lu  Lu17  1  0.500000  0.000000  0.500000  1
  Lu  Lu18  1  0.000000  0.500000  0.500000  1
  Lu  Lu19  1  0.500000  0.500000  0.500000  1
  Re  Re20  1  0.875000  0.249999  0.125000  1
  Re  Re21  1  0.750000  0.875000  0.125000  1
  Re  Re22  1  0.625000  0.375000  0.250000  1
  Re  Re23  1  0.125000  0.875000  0.249999  1
  Re  Re24  1  0.250000  0.625000  0.375000  1
  Re  Re25  1  0.624999  0.750000  0.375000  1
  Re  Re26  1  0.375000  0.250000  0.625000  1
  Re  Re27  1  0.750000  0.375000  0.624999  1
  Re  Re28  1  0.875000  0.125000  0.750000  1
  Re  Re29  1  0.375000  0.624999  0.750000  1
  Re  Re30  1  0.249999  0.125000  0.875000  1
  Re  Re31  1  0.125000  0.750000  0.875000  1
  N  N32  1  0.306254  0.902567  0.028480  1
  N  N33  1  0.222227  0.125913  0.028481  1
  N  N34  1  0.874087  0.402567  0.096315  1
  N  N35  1  0.722226  0.693746  0.096315  1
  N  N36  1  0.625913  0.403685  0.097432  1
  N  N37  1  0.971519  0.693746  0.097432  1
  N  N38  1  0.597432  0.903685  0.125912  1
  N  N39  1  0.028481  0.222227  0.125913  1
  N  N40  1  0.222226  0.596314  0.193746  1
  N  N41  1  0.471520  0.597433  0.193746  1
  N  N42  1  0.125913  0.028481  0.222227  1
  N  N43  1  0.596314  0.193746  0.222226  1
  N  N44  1  0.471520  0.374088  0.277774  1
  N  N45  1  0.306254  0.903685  0.277774  1
  N  N46  1  0.902567  0.028480  0.306254  1
  N  N47  1  0.903685  0.277774  0.306254  1
  N  N48  1  0.277774  0.471520  0.374088  1
  N  N49  1  0.596314  0.902568  0.374088  1
  N  N50  1  0.806254  0.528480  0.402568  1
  N  N51  1  0.096315  0.874087  0.402567  1
  N  N52  1  0.097432  0.625913  0.403685  1
  N  N53  1  0.806253  0.777773  0.403685  1
  N  N54  1  0.597433  0.193746  0.471520  1
  N  N55  1  0.374088  0.277774  0.471520  1
  N  N56  1  0.625912  0.722226  0.528480  1
  N  N57  1  0.402568  0.806254  0.528480  1
  N  N58  1  0.193746  0.222226  0.596314  1
  N  N59  1  0.902568  0.374088  0.596314  1
  N  N60  1  0.903685  0.125912  0.597432  1
  N  N61  1  0.193746  0.471520  0.597433  1
  N  N62  1  0.403685  0.097432  0.625913  1
  N  N63  1  0.722226  0.528480  0.625912  1
  N  N64  1  0.096315  0.722226  0.693746  1
  N  N65  1  0.097432  0.971519  0.693746  1
  N  N66  1  0.693746  0.096315  0.722226  1
  N  N67  1  0.528480  0.625912  0.722226  1
  N  N68  1  0.403685  0.806253  0.777773  1
  N  N69  1  0.874088  0.971520  0.777774  1
  N  N70  1  0.528480  0.402568  0.806254  1
  N  N71  1  0.777773  0.403685  0.806253  1
  N  N72  1  0.402567  0.096315  0.874087  1
  N  N73  1  0.971520  0.777774  0.874088  1
  N  N74  1  0.028480  0.306254  0.902567  1
  N  N75  1  0.374088  0.596314  0.902568  1
  N  N76  1  0.277774  0.306254  0.903685  1
  N  N77  1  0.125912  0.597432  0.903685  1
  N  N78  1  0.693746  0.097432  0.971519  1
  N  N79  1  0.777774  0.874088  0.971520  1
