# generated using pymatgen
data_Er5Ga2BiTe
_symmetry_space_group_name_H-M   'P 1'
_cell_length_a   8.60699400
_cell_length_b   8.60699437
_cell_length_c   7.87129300
_cell_angle_alpha   90.00000000
_cell_angle_beta   90.00000000
_cell_angle_gamma   125.73091866
_symmetry_Int_Tables_number   1
_chemical_formula_structural   Er5Ga2BiTe
_chemical_formula_sum   'Er10 Ga4 Bi2 Te2'
_cell_volume   473.34881959
_cell_formula_units_Z   2
loop_
 _symmetry_equiv_pos_site_id
 _symmetry_equiv_pos_as_xyz
  1  'x, y, z'
loop_
 _atom_site_type_symbol
 _atom_site_label
 _atom_site_symmetry_multiplicity
 _atom_site_fract_x
 _atom_site_fract_y
 _atom_site_fract_z
 _atom_site_occupancy
  Er  Er0  1  0.001131  0.998869  0.000000  1
  Er  Er1  1  0.501131  0.498869  0.500000  1
  Er  Er2  1  0.790331  0.540768  0.167271  1
  Er  Er3  1  0.459232  0.209669  0.832729  1
  Er  Er4  1  0.959232  0.709669  0.667271  1
  Er  Er5  1  0.290331  0.040768  0.332729  1
  Er  Er6  1  0.203612  0.455909  0.830422  1
  Er  Er7  1  0.544091  0.796388  0.169578  1
  Er  Er8  1  0.044091  0.296388  0.330422  1
  Er  Er9  1  0.703612  0.955909  0.669578  1
  Ga  Ga10  1  0.870669  0.873562  0.372655  1
  Ga  Ga11  1  0.126438  0.129331  0.627345  1
  Ga  Ga12  1  0.626438  0.629331  0.872655  1
  Ga  Ga13  1  0.370669  0.373562  0.127345  1
  Bi  Bi14  1  0.209249  0.790751  0.000000  1
  Bi  Bi15  1  0.709249  0.290751  0.500000  1
  Te  Te16  1  0.795248  0.204752  0.000000  1
  Te  Te17  1  0.295248  0.704752  0.500000  1
