# generated using pymatgen
data_Tm2Si7(NiRu3)3
_symmetry_space_group_name_H-M   'P 1'
_cell_length_a   9.53136000
_cell_length_b   9.53135959
_cell_length_c   3.81294600
_cell_angle_alpha   90.00000000
_cell_angle_beta   90.00000000
_cell_angle_gamma   119.99999447
_symmetry_Int_Tables_number   1
_chemical_formula_structural   Tm2Si7(NiRu3)3
_chemical_formula_sum   'Tm2 Si7 Ni3 Ru9'
_cell_volume   299.98603541
_cell_formula_units_Z   1
loop_
 _symmetry_equiv_pos_site_id
 _symmetry_equiv_pos_as_xyz
  1  'x, y, z'
loop_
 _atom_site_type_symbol
 _atom_site_label
 _atom_site_symmetry_multiplicity
 _atom_site_fract_x
 _atom_site_fract_y
 _atom_site_fract_z
 _atom_site_occupancy
  Tm  Tm0  1  0.666667  0.333333  0.000000  1
  Tm  Tm1  1  0.000000  0.000000  0.500000  1
  Si  Si2  1  0.333333  0.666667  0.000000  1
  Si  Si3  1  0.438095  0.059756  0.500000  1
  Si  Si4  1  0.940244  0.378340  0.500000  1
  Si  Si5  1  0.621660  0.561905  0.500000  1
  Si  Si6  1  0.734384  0.959722  0.000000  1
  Si  Si7  1  0.040278  0.774661  0.000000  1
  Si  Si8  1  0.225339  0.265616  0.000000  1
  Ni  Ni9  1  0.483718  0.940098  0.000000  1
  Ni  Ni10  1  0.059902  0.543619  0.000000  1
  Ni  Ni11  1  0.456381  0.516282  0.000000  1
  Ru  Ru12  1  0.763551  0.727017  0.000000  1
  Ru  Ru13  1  0.272983  0.036533  0.000000  1
  Ru  Ru14  1  0.963467  0.236449  0.000000  1
  Ru  Ru15  1  0.710746  0.103545  0.500000  1
  Ru  Ru16  1  0.896455  0.607200  0.500000  1
  Ru  Ru17  1  0.392800  0.289254  0.500000  1
  Ru  Ru18  1  0.539146  0.763851  0.500000  1
  Ru  Ru19  1  0.236149  0.775296  0.500000  1
  Ru  Ru20  1  0.224704  0.460854  0.500000  1
