# generated using pymatgen
data_Na7Hg(PPd3)4
_symmetry_space_group_name_H-M   'P 1'
_cell_length_a   7.39766336
_cell_length_b   7.39766664
_cell_length_c   7.39766200
_cell_angle_alpha   89.86556791
_cell_angle_beta   89.86556011
_cell_angle_gamma   89.86552393
_symmetry_Int_Tables_number   1
_chemical_formula_structural   Na7Hg(PPd3)4
_chemical_formula_sum   'Na7 Hg1 P4 Pd12'
_cell_volume   404.83702481
_cell_formula_units_Z   1
loop_
 _symmetry_equiv_pos_site_id
 _symmetry_equiv_pos_as_xyz
  1  'x, y, z'
loop_
 _atom_site_type_symbol
 _atom_site_label
 _atom_site_symmetry_multiplicity
 _atom_site_fract_x
 _atom_site_fract_y
 _atom_site_fract_z
 _atom_site_occupancy
  Na  Na0  1  0.038814  0.458844  0.547989  1
  Na  Na1  1  0.547989  0.038814  0.458844  1
  Na  Na2  1  0.458844  0.547989  0.038814  1
  Na  Na3  1  0.207672  0.709326  0.794501  1
  Na  Na4  1  0.957476  0.957475  0.957476  1
  Na  Na5  1  0.794504  0.207672  0.709326  1
  Na  Na6  1  0.709325  0.794504  0.207671  1
  Hg  Hg7  1  0.302833  0.302832  0.302832  1
  P  P8  1  0.866540  0.372545  0.117913  1
  P  P9  1  0.372546  0.117914  0.866540  1
  P  P10  1  0.626057  0.626058  0.626058  1
  P  P11  1  0.117913  0.866540  0.372546  1
  Pd  Pd12  1  0.182390  0.068741  0.615070  1
  Pd  Pd13  1  0.432070  0.371642  0.678086  1
  Pd  Pd14  1  0.068741  0.615070  0.182390  1
  Pd  Pd15  1  0.939370  0.130724  0.314402  1
  Pd  Pd16  1  0.314402  0.939370  0.130724  1
  Pd  Pd17  1  0.678086  0.432071  0.371642  1
  Pd  Pd18  1  0.571073  0.875127  0.820793  1
  Pd  Pd19  1  0.615071  0.182389  0.068742  1
  Pd  Pd20  1  0.371642  0.678086  0.432070  1
  Pd  Pd21  1  0.875126  0.820792  0.571073  1
  Pd  Pd22  1  0.130724  0.314402  0.939369  1
  Pd  Pd23  1  0.820792  0.571073  0.875127  1
