# generated using pymatgen
data_Lu4Ru7W
_symmetry_space_group_name_H-M   'P 1'
_cell_length_a   5.40631200
_cell_length_b   5.20005531
_cell_length_c   8.85986300
_cell_angle_alpha   90.00000000
_cell_angle_beta   90.00000000
_cell_angle_gamma   121.32099400
_symmetry_Int_Tables_number   1
_chemical_formula_structural   Lu4Ru7W
_chemical_formula_sum   'Lu4 Ru7 W1'
_cell_volume   212.77981330
_cell_formula_units_Z   1
loop_
 _symmetry_equiv_pos_site_id
 _symmetry_equiv_pos_as_xyz
  1  'x, y, z'
loop_
 _atom_site_type_symbol
 _atom_site_label
 _atom_site_symmetry_multiplicity
 _atom_site_fract_x
 _atom_site_fract_y
 _atom_site_fract_z
 _atom_site_occupancy
  Lu  Lu0  1  0.336354  0.672710  0.430814  1
  Lu  Lu1  1  0.672219  0.344437  0.563622  1
  Lu  Lu2  1  0.672219  0.344437  0.936378  1
  Lu  Lu3  1  0.336354  0.672710  0.069186  1
  Ru  Ru4  1  0.169858  0.817708  0.750000  1
  Ru  Ru5  1  0.330298  0.162882  0.250000  1
  Ru  Ru6  1  0.817841  0.635680  0.250000  1
  Ru  Ru7  1  0.647850  0.817708  0.750000  1
  Ru  Ru8  1  0.010756  0.021513  0.000767  1
  Ru  Ru9  1  0.832585  0.162882  0.250000  1
  Ru  Ru10  1  0.010756  0.021513  0.499233  1
  W  W11  1  0.162910  0.325820  0.750000  1
