# generated using pymatgen
data_Ce2Si4Ni17Rh
_symmetry_space_group_name_H-M   'P 1'
_cell_length_a   6.15674068
_cell_length_b   7.59609464
_cell_length_c   7.59609446
_cell_angle_alpha   99.45269735
_cell_angle_beta   66.09276797
_cell_angle_gamma   113.90723325
_symmetry_Int_Tables_number   1
_chemical_formula_structural   Ce2Si4Ni17Rh
_chemical_formula_sum   'Ce2 Si4 Ni17 Rh1'
_cell_volume   296.90443512
_cell_formula_units_Z   1
loop_
 _symmetry_equiv_pos_site_id
 _symmetry_equiv_pos_as_xyz
  1  'x, y, z'
loop_
 _atom_site_type_symbol
 _atom_site_label
 _atom_site_symmetry_multiplicity
 _atom_site_fract_x
 _atom_site_fract_y
 _atom_site_fract_z
 _atom_site_occupancy
  Ce  Ce0  1  0.125000  0.750000  0.250000  1
  Ce  Ce1  1  0.874999  0.250000  0.750000  1
  Si  Si2  1  0.001402  0.001194  0.998806  1
  Si  Si3  1  0.499792  0.498806  0.998806  1
  Si  Si4  1  0.499791  0.001194  0.501194  1
  Si  Si5  1  0.499015  0.498806  0.501194  1
  Ni  Ni6  1  0.360513  0.170869  0.076211  1
  Ni  Ni7  1  0.063276  0.329131  0.076211  1
  Ni  Ni8  1  0.640985  0.080885  0.168830  1
  Ni  Ni9  1  0.690185  0.419115  0.168830  1
  Ni  Ni10  1  0.939901  0.080885  0.331170  1
  Ni  Ni11  1  0.228929  0.419115  0.331170  1
  Ni  Ni12  1  0.310355  0.170869  0.423789  1
  Ni  Ni13  1  0.765854  0.329131  0.423789  1
  Ni  Ni14  1  0.228929  0.668830  0.580885  1
  Ni  Ni15  1  0.690185  0.831170  0.580885  1
  Ni  Ni16  1  0.765854  0.576211  0.670869  1
  Ni  Ni17  1  0.063276  0.923789  0.670869  1
  Ni  Ni18  1  0.375000  0.250000  0.750000  1
  Ni  Ni19  1  0.360513  0.923789  0.829131  1
  Ni  Ni20  1  0.310355  0.576211  0.829131  1
  Ni  Ni21  1  0.640985  0.831170  0.919115  1
  Ni  Ni22  1  0.939901  0.668830  0.919115  1
  Rh  Rh23  1  0.624999  0.750000  0.250000  1
