# generated using pymatgen
data_Zr8Co11Si16Rh
_symmetry_space_group_name_H-M   'P 1'
_cell_length_a   5.25835017
_cell_length_b   6.79068896
_cell_length_c   13.80961605
_cell_angle_alpha   90.05937728
_cell_angle_beta   90.04138282
_cell_angle_gamma   89.86513445
_symmetry_Int_Tables_number   1
_chemical_formula_structural   Zr8Co11Si16Rh
_chemical_formula_sum   'Zr8 Co11 Si16 Rh1'
_cell_volume   493.10953158
_cell_formula_units_Z   1
loop_
 _symmetry_equiv_pos_site_id
 _symmetry_equiv_pos_as_xyz
  1  'x, y, z'
loop_
 _atom_site_type_symbol
 _atom_site_label
 _atom_site_symmetry_multiplicity
 _atom_site_fract_x
 _atom_site_fract_y
 _atom_site_fract_z
 _atom_site_occupancy
  Zr  Zr0  1  0.236570  0.399147  0.149430  1
  Zr  Zr1  1  0.731730  0.099887  0.148420  1
  Zr  Zr2  1  0.267593  0.100150  0.644591  1
  Zr  Zr3  1  0.764115  0.401194  0.644329  1
  Zr  Zr4  1  0.233393  0.600330  0.354477  1
  Zr  Zr5  1  0.734211  0.899315  0.354341  1
  Zr  Zr6  1  0.263871  0.902002  0.853296  1
  Zr  Zr7  1  0.768285  0.601948  0.851544  1
  Co  Co8  1  0.505050  0.229167  0.480036  1
  Co  Co9  1  0.770894  0.999551  0.749029  1
  Co  Co10  1  0.493774  0.223825  0.980591  1
  Co  Co11  1  0.727591  0.500222  0.251279  1
  Co  Co12  1  0.495752  0.770690  0.519769  1
  Co  Co13  1  0.005129  0.271002  0.480040  1
  Co  Co14  1  0.004380  0.726099  0.020561  1
  Co  Co15  1  0.227392  0.999023  0.251439  1
  Co  Co16  1  0.274164  0.502356  0.749347  1
  Co  Co17  1  0.504601  0.771860  0.020649  1
  Co  Co18  1  0.995494  0.729203  0.519722  1
  Si  Si19  1  0.224869  0.013533  0.071238  1
  Si  Si20  1  0.722235  0.519325  0.432600  1
  Si  Si21  1  0.778998  0.019231  0.566856  1
  Si  Si22  1  0.482670  0.753440  0.189360  1
  Si  Si23  1  0.018017  0.254187  0.804398  1
  Si  Si24  1  0.517163  0.247305  0.811746  1
  Si  Si25  1  0.221920  0.980722  0.432856  1
  Si  Si26  1  0.290313  0.525169  0.932211  1
  Si  Si27  1  0.982105  0.746196  0.188783  1
  Si  Si28  1  0.713607  0.484598  0.070170  1
  Si  Si29  1  0.277779  0.481294  0.566960  1
  Si  Si30  1  0.482475  0.246279  0.313201  1
  Si  Si31  1  0.018015  0.747397  0.686850  1
  Si  Si32  1  0.771848  0.973912  0.931369  1
  Si  Si33  1  0.517081  0.754300  0.687370  1
  Si  Si34  1  0.982487  0.253096  0.312825  1
  Rh  Rh35  1  0.994430  0.273042  0.978317  1
