# generated using pymatgen
data_Hf6Ti2Al14GaFe3Rh4
_symmetry_space_group_name_H-M   'P 1'
_cell_length_a   8.80450497
_cell_length_b   8.79946404
_cell_length_c   8.80480700
_cell_angle_alpha   120.22559617
_cell_angle_beta   119.78942134
_cell_angle_gamma   90.00499636
_symmetry_Int_Tables_number   1
_chemical_formula_structural   Hf6Ti2Al14GaFe3Rh4
_chemical_formula_sum   'Hf6 Ti2 Al14 Ga1 Fe3 Rh4'
_cell_volume   482.21659047
_cell_formula_units_Z   1
loop_
 _symmetry_equiv_pos_site_id
 _symmetry_equiv_pos_as_xyz
  1  'x, y, z'
loop_
 _atom_site_type_symbol
 _atom_site_label
 _atom_site_symmetry_multiplicity
 _atom_site_fract_x
 _atom_site_fract_y
 _atom_site_fract_z
 _atom_site_occupancy
  Hf  Hf0  1  0.785560  0.288325  0.075230  1
  Hf  Hf1  1  0.213122  0.288348  0.502767  1
  Hf  Hf2  1  0.207803  0.717214  0.509300  1
  Hf  Hf3  1  0.221038  0.720920  0.924182  1
  Hf  Hf4  1  0.796722  0.720956  0.499835  1
  Hf  Hf5  1  0.782458  0.274117  0.491592  1
  Ti  Ti6  1  0.378925  0.124782  0.746051  1
  Ti  Ti7  1  0.383416  0.634222  0.250751  1
  Al  Al8  1  0.160098  0.342528  0.182419  1
  Al  Al9  1  0.166758  0.994293  0.827623  1
  Al  Al10  1  0.161471  0.337242  0.819078  1
  Al  Al11  1  0.518135  0.337333  0.175781  1
  Al  Al12  1  0.840397  0.656711  0.816292  1
  Al  Al13  1  0.835003  0.010064  0.175163  1
  Al  Al14  1  0.833949  0.662918  0.173964  1
  Al  Al15  1  0.488905  0.662966  0.828927  1
  Al  Al16  1  0.379472  0.122969  0.258493  1
  Al  Al17  1  0.864458  0.122966  0.743484  1
  Al  Al18  1  0.620111  0.871751  0.251601  1
  Al  Al19  1  0.618317  0.365235  0.746887  1
  Al  Al20  1  0.616857  0.877773  0.740630  1
  Al  Al21  1  0.137131  0.877806  0.260946  1
  Ga  Ga22  1  0.994019  0.493967  0.499937  1
  Fe  Fe23  1  0.003169  0.999785  0.503088  1
  Fe  Fe24  1  0.496840  0.000072  0.996753  1
  Fe  Fe25  1  0.495999  0.499149  0.003272  1
  Rh  Rh26  1  0.498878  0.498256  0.498067  1
  Rh  Rh27  1  0.000245  0.498310  0.999416  1
  Rh  Rh28  1  0.000607  0.000645  0.000150  1
  Rh  Rh29  1  0.500131  0.998372  0.498324  1
