# generated using pymatgen
data_Sc4Ni2Hg5
_symmetry_space_group_name_H-M   'P 1'
_cell_length_a   7.32441992
_cell_length_b   3.33681800
_cell_length_c   9.11992939
_cell_angle_alpha   90.00000000
_cell_angle_beta   93.91282957
_cell_angle_gamma   90.00000000
_symmetry_Int_Tables_number   1
_chemical_formula_structural   Sc4Ni2Hg5
_chemical_formula_sum   'Sc4 Ni2 Hg5'
_cell_volume   222.37385182
_cell_formula_units_Z   1
loop_
 _symmetry_equiv_pos_site_id
 _symmetry_equiv_pos_as_xyz
  1  'x, y, z'
loop_
 _atom_site_type_symbol
 _atom_site_label
 _atom_site_symmetry_multiplicity
 _atom_site_fract_x
 _atom_site_fract_y
 _atom_site_fract_z
 _atom_site_occupancy
  Sc  Sc0  1  0.289634  0.500001  0.062163  1
  Sc  Sc1  1  0.682629  0.500001  0.336096  1
  Sc  Sc2  1  0.317370  0.500001  0.663904  1
  Sc  Sc3  1  0.710366  0.500001  0.937837  1
  Ni  Ni4  1  0.571391  0.000000  0.130031  1
  Ni  Ni5  1  0.428609  0.000000  0.869968  1
  Hg  Hg6  1  0.952798  0.000000  0.162800  1
  Hg  Hg7  1  0.342516  0.000000  0.358995  1
  Hg  Hg8  1  0.000000  0.000000  0.500000  1
  Hg  Hg9  1  0.657485  0.000000  0.641004  1
  Hg  Hg10  1  0.047202  0.000000  0.837200  1
