# generated using pymatgen
data_UMoRh6
_symmetry_space_group_name_H-M   'P 1'
_cell_length_a   5.61042800
_cell_length_b   5.61038879
_cell_length_c   4.53090100
_cell_angle_alpha   90.00000000
_cell_angle_beta   90.00000000
_cell_angle_gamma   119.99997380
_symmetry_Int_Tables_number   1
_chemical_formula_structural   UMoRh6
_chemical_formula_sum   'U1 Mo1 Rh6'
_cell_volume   123.51061119
_cell_formula_units_Z   1
loop_
 _symmetry_equiv_pos_site_id
 _symmetry_equiv_pos_as_xyz
  1  'x, y, z'
loop_
 _atom_site_type_symbol
 _atom_site_label
 _atom_site_symmetry_multiplicity
 _atom_site_fract_x
 _atom_site_fract_y
 _atom_site_fract_z
 _atom_site_occupancy
  U  U0  1  0.666666  0.333333  0.750001  1
  Mo  Mo1  1  0.333334  0.666665  0.250000  1
  Rh  Rh2  1  0.664923  0.832466  0.750001  1
  Rh  Rh3  1  0.167541  0.832463  0.750001  1
  Rh  Rh4  1  0.836568  0.163438  0.250000  1
  Rh  Rh5  1  0.326864  0.163431  0.250000  1
  Rh  Rh6  1  0.167535  0.335073  0.750001  1
  Rh  Rh7  1  0.836572  0.673134  0.250000  1
