# generated using pymatgen
data_Y16TlIn3Pt4
_symmetry_space_group_name_H-M   'P 1'
_cell_length_a   9.79214642
_cell_length_b   9.76393935
_cell_length_c   9.76393900
_cell_angle_alpha   60.00000456
_cell_angle_beta   60.09524774
_cell_angle_gamma   60.09524360
_symmetry_Int_Tables_number   1
_chemical_formula_structural   Y16TlIn3Pt4
_chemical_formula_sum   'Y16 Tl1 In3 Pt4'
_cell_volume   661.05375282
_cell_formula_units_Z   1
loop_
 _symmetry_equiv_pos_site_id
 _symmetry_equiv_pos_as_xyz
  1  'x, y, z'
loop_
 _atom_site_type_symbol
 _atom_site_label
 _atom_site_symmetry_multiplicity
 _atom_site_fract_x
 _atom_site_fract_y
 _atom_site_fract_z
 _atom_site_occupancy
  Y  Y0  1  0.601350  0.600885  0.600885  1
  Y  Y1  1  0.601350  0.600885  0.196880  1
  Y  Y2  1  0.601350  0.196880  0.600885  1
  Y  Y3  1  0.196244  0.601252  0.601252  1
  Y  Y4  1  0.059945  0.440058  0.440058  1
  Y  Y5  1  0.440329  0.060416  0.060416  1
  Y  Y6  1  0.440329  0.060416  0.438839  1
  Y  Y7  1  0.059945  0.440058  0.059940  1
  Y  Y8  1  0.440329  0.438839  0.060416  1
  Y  Y9  1  0.059945  0.059940  0.440058  1
  Y  Y10  1  0.189108  0.810555  0.810555  1
  Y  Y11  1  0.811643  0.188585  0.188585  1
  Y  Y12  1  0.811643  0.188585  0.811187  1
  Y  Y13  1  0.189108  0.810555  0.189781  1
  Y  Y14  1  0.811643  0.811187  0.188585  1
  Y  Y15  1  0.189108  0.189781  0.810555  1
  Tl  Tl16  1  0.494508  0.835163  0.835163  1
  In  In17  1  0.834705  0.832785  0.832785  1
  In  In18  1  0.834705  0.832785  0.499724  1
  In  In19  1  0.834705  0.499724  0.832785  1
  Pt  Pt20  1  0.392148  0.393383  0.393383  1
  Pt  Pt21  1  0.392148  0.393383  0.821087  1
  Pt  Pt22  1  0.392148  0.821087  0.393383  1
  Pt  Pt23  1  0.821566  0.392812  0.392812  1
