# generated using pymatgen
data_La3Nd2(Sn5Rh2)2
_symmetry_space_group_name_H-M   'P 1'
_cell_length_a   14.29773800
_cell_length_b   14.29773800
_cell_length_c   4.65321800
_cell_angle_alpha   90.00000000
_cell_angle_beta   90.00000000
_cell_angle_gamma   90.00000000
_symmetry_Int_Tables_number   1
_chemical_formula_structural   La3Nd2(Sn5Rh2)2
_chemical_formula_sum   'La6 Nd4 Sn20 Rh8'
_cell_volume   951.23554107
_cell_formula_units_Z   2
loop_
 _symmetry_equiv_pos_site_id
 _symmetry_equiv_pos_as_xyz
  1  'x, y, z'
loop_
 _atom_site_type_symbol
 _atom_site_label
 _atom_site_symmetry_multiplicity
 _atom_site_fract_x
 _atom_site_fract_y
 _atom_site_fract_z
 _atom_site_occupancy
  La  La0  1  0.500000  0.500000  0.000000  1
  La  La1  1  0.000000  0.000000  0.000000  1
  La  La2  1  0.888228  0.388228  0.500000  1
  La  La3  1  0.111772  0.611772  0.500000  1
  La  La4  1  0.388228  0.111772  0.500000  1
  La  La5  1  0.611772  0.888228  0.500000  1
  Nd  Nd6  1  0.677958  0.177958  0.500000  1
  Nd  Nd7  1  0.322042  0.822042  0.500000  1
  Nd  Nd8  1  0.177958  0.322042  0.500000  1
  Nd  Nd9  1  0.822042  0.677958  0.500000  1
  Sn  Sn10  1  0.569949  0.069949  0.000000  1
  Sn  Sn11  1  0.430051  0.930051  0.000000  1
  Sn  Sn12  1  0.069949  0.430051  0.000000  1
  Sn  Sn13  1  0.930051  0.569949  0.000000  1
  Sn  Sn14  1  0.653714  0.697762  0.000000  1
  Sn  Sn15  1  0.346286  0.302238  0.000000  1
  Sn  Sn16  1  0.153714  0.802238  0.000000  1
  Sn  Sn17  1  0.846286  0.197762  0.000000  1
  Sn  Sn18  1  0.302238  0.653714  0.000000  1
  Sn  Sn19  1  0.697762  0.346286  0.000000  1
  Sn  Sn20  1  0.197762  0.153714  0.000000  1
  Sn  Sn21  1  0.802238  0.846286  0.000000  1
  Sn  Sn22  1  0.664161  0.504820  0.500000  1
  Sn  Sn23  1  0.335839  0.495180  0.500000  1
  Sn  Sn24  1  0.164161  0.995180  0.500000  1
  Sn  Sn25  1  0.835839  0.004820  0.500000  1
  Sn  Sn26  1  0.495180  0.664161  0.500000  1
  Sn  Sn27  1  0.504820  0.335839  0.500000  1
  Sn  Sn28  1  0.004820  0.164161  0.500000  1
  Sn  Sn29  1  0.995180  0.835839  0.500000  1
  Rh  Rh30  1  0.746318  0.528355  0.000000  1
  Rh  Rh31  1  0.253682  0.471645  0.000000  1
  Rh  Rh32  1  0.246318  0.971645  0.000000  1
  Rh  Rh33  1  0.753682  0.028355  0.000000  1
  Rh  Rh34  1  0.471645  0.746318  0.000000  1
  Rh  Rh35  1  0.528355  0.253682  0.000000  1
  Rh  Rh36  1  0.028355  0.246318  0.000000  1
  Rh  Rh37  1  0.971645  0.753682  0.000000  1
