# generated using pymatgen
data_Sr3PrP3
_symmetry_space_group_name_H-M   'P 1'
_cell_length_a   7.96738386
_cell_length_b   7.96738407
_cell_length_c   7.98175762
_cell_angle_alpha   109.39967526
_cell_angle_beta   109.39967055
_cell_angle_gamma   109.39481903
_symmetry_Int_Tables_number   1
_chemical_formula_structural   Sr3PrP3
_chemical_formula_sum   'Sr6 Pr2 P6'
_cell_volume   391.09209739
_cell_formula_units_Z   2
loop_
 _symmetry_equiv_pos_site_id
 _symmetry_equiv_pos_as_xyz
  1  'x, y, z'
loop_
 _atom_site_type_symbol
 _atom_site_label
 _atom_site_symmetry_multiplicity
 _atom_site_fract_x
 _atom_site_fract_y
 _atom_site_fract_z
 _atom_site_occupancy
  Sr  Sr0  1  0.997839  0.121997  0.495874  1
  Sr  Sr1  1  0.372187  0.370843  0.371938  1
  Sr  Sr2  1  0.621997  0.497839  0.995874  1
  Sr  Sr3  1  0.502080  0.004239  0.131113  1
  Sr  Sr4  1  0.870843  0.872187  0.871938  1
  Sr  Sr5  1  0.504239  0.002080  0.631113  1
  Pr  Pr6  1  0.003227  0.625626  0.500917  1
  Pr  Pr7  1  0.125626  0.503227  0.000917  1
  P  P8  1  0.887179  0.268254  0.131927  1
  P  P9  1  0.357777  0.624160  0.747987  1
  P  P10  1  0.124160  0.857777  0.247987  1
  P  P11  1  0.621600  0.742992  0.370244  1
  P  P12  1  0.242992  0.121600  0.870244  1
  P  P13  1  0.768254  0.387179  0.631927  1
