# generated using pymatgen
data_ZrSc3(Al3Os)2
_symmetry_space_group_name_H-M   'P 1'
_cell_length_a   5.28779700
_cell_length_b   5.28779629
_cell_length_c   8.58017500
_cell_angle_alpha   90.00000000
_cell_angle_beta   90.00000000
_cell_angle_gamma   119.99999819
_symmetry_Int_Tables_number   1
_chemical_formula_structural   ZrSc3(Al3Os)2
_chemical_formula_sum   'Zr1 Sc3 Al6 Os2'
_cell_volume   207.76685948
_cell_formula_units_Z   1
loop_
 _symmetry_equiv_pos_site_id
 _symmetry_equiv_pos_as_xyz
  1  'x, y, z'
loop_
 _atom_site_type_symbol
 _atom_site_label
 _atom_site_symmetry_multiplicity
 _atom_site_fract_x
 _atom_site_fract_y
 _atom_site_fract_z
 _atom_site_occupancy
  Zr  Zr0  1  0.666668  0.333334  0.051342  1
  Sc  Sc1  1  0.666668  0.333334  0.442475  1
  Sc  Sc2  1  0.333334  0.666667  0.554753  1
  Sc  Sc3  1  0.333334  0.666667  0.945483  1
  Al  Al4  1  0.165155  0.330310  0.250224  1
  Al  Al5  1  0.165154  0.834845  0.250224  1
  Al  Al6  1  0.669690  0.834845  0.250224  1
  Al  Al7  1  0.331076  0.165539  0.751225  1
  Al  Al8  1  0.834462  0.165539  0.751225  1
  Al  Al9  1  0.834463  0.668926  0.751225  1
  Os  Os10  1  0.000000  0.000000  0.999932  1
  Os  Os11  1  0.000000  0.000000  0.501668  1
