# generated using pymatgen
data_K3Er(AsS2)6
_symmetry_space_group_name_H-M   'P 1'
_cell_length_a   9.46079400
_cell_length_b   9.46079355
_cell_length_c   7.93084700
_cell_angle_alpha   90.00000000
_cell_angle_beta   90.00000000
_cell_angle_gamma   120.00000064
_symmetry_Int_Tables_number   1
_chemical_formula_structural   K3Er(AsS2)6
_chemical_formula_sum   'K3 Er1 As6 S12'
_cell_volume   614.75964661
_cell_formula_units_Z   1
loop_
 _symmetry_equiv_pos_site_id
 _symmetry_equiv_pos_as_xyz
  1  'x, y, z'
loop_
 _atom_site_type_symbol
 _atom_site_label
 _atom_site_symmetry_multiplicity
 _atom_site_fract_x
 _atom_site_fract_y
 _atom_site_fract_z
 _atom_site_occupancy
  K  K0  1  0.000000  0.000000  0.000000  1
  K  K1  1  0.333333  0.666667  0.850359  1
  K  K2  1  0.666667  0.333333  0.149641  1
  Er  Er3  1  0.000000  0.000000  0.500000  1
  As  As4  1  0.289006  0.837271  0.371713  1
  As  As5  1  0.162729  0.451735  0.371713  1
  As  As6  1  0.548265  0.710994  0.371713  1
  As  As7  1  0.710994  0.162729  0.628287  1
  As  As8  1  0.837271  0.548265  0.628287  1
  As  As9  1  0.451735  0.289006  0.628287  1
  S  S10  1  0.254311  0.044092  0.295698  1
  S  S11  1  0.955908  0.210220  0.295698  1
  S  S12  1  0.789780  0.745689  0.295698  1
  S  S13  1  0.745689  0.955908  0.704302  1
  S  S14  1  0.044092  0.789780  0.704302  1
  S  S15  1  0.210220  0.254311  0.704302  1
  S  S16  1  0.522584  0.903926  0.212311  1
  S  S17  1  0.096074  0.618657  0.212311  1
  S  S18  1  0.381343  0.477416  0.212311  1
  S  S19  1  0.477416  0.096074  0.787689  1
  S  S20  1  0.903926  0.381343  0.787689  1
  S  S21  1  0.618657  0.522584  0.787689  1
