# generated using pymatgen
data_Dy3YTa5TiSi8
_symmetry_space_group_name_H-M   'P 1'
_cell_length_a   7.04890148
_cell_length_b   7.04845757
_cell_length_c   12.98223000
_cell_angle_alpha   89.94216029
_cell_angle_beta   90.05700210
_cell_angle_gamma   90.00199117
_symmetry_Int_Tables_number   1
_chemical_formula_structural   Dy3YTa5TiSi8
_chemical_formula_sum   'Dy6 Y2 Ta10 Ti2 Si16'
_cell_volume   645.00694797
_cell_formula_units_Z   2
loop_
 _symmetry_equiv_pos_site_id
 _symmetry_equiv_pos_as_xyz
  1  'x, y, z'
loop_
 _atom_site_type_symbol
 _atom_site_label
 _atom_site_symmetry_multiplicity
 _atom_site_fract_x
 _atom_site_fract_y
 _atom_site_fract_z
 _atom_site_occupancy
  Dy  Dy0  1  0.657964  0.998543  0.967491  1
  Dy  Dy1  1  0.159550  0.503026  0.782299  1
  Dy  Dy2  1  0.841326  0.497873  0.281940  1
  Dy  Dy3  1  0.503038  0.159521  0.217733  1
  Dy  Dy4  1  0.497860  0.841383  0.718051  1
  Dy  Dy5  1  0.341285  0.001876  0.467969  1
  Y  Y6  1  0.998359  0.658068  0.032486  1
  Y  Y7  1  0.002059  0.341172  0.531977  1
  Ta  Ta8  1  0.346371  0.508554  0.375956  1
  Ta  Ta9  1  0.847146  0.992214  0.374577  1
  Ta  Ta10  1  0.008119  0.153009  0.126306  1
  Ta  Ta11  1  0.992408  0.847237  0.625371  1
  Ta  Ta12  1  0.508574  0.346285  0.624004  1
  Ta  Ta13  1  0.153099  0.008309  0.873636  1
  Ta  Ta14  1  0.672041  0.672327  0.499982  1
  Ta  Ta15  1  0.829275  0.170342  0.750109  1
  Ta  Ta16  1  0.170466  0.829419  0.250032  1
  Ta  Ta17  1  0.326384  0.326084  0.999977  1
  Ti  Ti18  1  0.492607  0.653010  0.124122  1
  Ti  Ti19  1  0.652886  0.492595  0.875862  1
  Si  Si20  1  0.045637  0.705774  0.435931  1
  Si  Si21  1  0.952601  0.294880  0.935780  1
  Si  Si22  1  0.705517  0.045457  0.564045  1
  Si  Si23  1  0.208233  0.455192  0.185413  1
  Si  Si24  1  0.793532  0.545375  0.687384  1
  Si  Si25  1  0.455280  0.208060  0.814687  1
  Si  Si26  1  0.545284  0.793692  0.312706  1
  Si  Si27  1  0.295154  0.952778  0.064213  1
  Si  Si28  1  0.794923  0.865495  0.181815  1
  Si  Si29  1  0.296833  0.633557  0.568419  1
  Si  Si30  1  0.701057  0.368333  0.066334  1
  Si  Si31  1  0.633257  0.296667  0.431537  1
  Si  Si32  1  0.368640  0.701217  0.933627  1
  Si  Si33  1  0.133698  0.204088  0.317748  1
  Si  Si34  1  0.204244  0.133514  0.682275  1
  Si  Si35  1  0.865294  0.795079  0.818203  1
