# generated using pymatgen
data_YEr7GePd24
_symmetry_space_group_name_H-M   'P 1'
_cell_length_a   8.31645300
_cell_length_b   8.31645300
_cell_length_c   8.31645300
_cell_angle_alpha   90.00084051
_cell_angle_beta   90.00084051
_cell_angle_gamma   90.00084050
_symmetry_Int_Tables_number   1
_chemical_formula_structural   YEr7GePd24
_chemical_formula_sum   'Y1 Er7 Ge1 Pd24'
_cell_volume   575.19408642
_cell_formula_units_Z   1
loop_
 _symmetry_equiv_pos_site_id
 _symmetry_equiv_pos_as_xyz
  1  'x, y, z'
loop_
 _atom_site_type_symbol
 _atom_site_label
 _atom_site_symmetry_multiplicity
 _atom_site_fract_x
 _atom_site_fract_y
 _atom_site_fract_z
 _atom_site_occupancy
  Y  Y0  1  0.253254  0.253254  0.253254  1
  Er  Er1  1  0.746496  0.746496  0.746496  1
  Er  Er2  1  0.746494  0.746494  0.253490  1
  Er  Er3  1  0.746494  0.253490  0.746494  1
  Er  Er4  1  0.253453  0.253453  0.746555  1
  Er  Er5  1  0.253453  0.746555  0.253453  1
  Er  Er6  1  0.253490  0.746494  0.746494  1
  Er  Er7  1  0.746555  0.253453  0.253453  1
  Ge  Ge8  1  0.000194  0.000194  0.000194  1
  Pd  Pd9  1  0.259635  0.500656  0.999280  1
  Pd  Pd10  1  0.740324  0.500048  0.999933  1
  Pd  Pd11  1  0.999280  0.259635  0.500656  1
  Pd  Pd12  1  0.500656  0.259635  0.999280  1
  Pd  Pd13  1  0.999933  0.740324  0.500048  1
  Pd  Pd14  1  0.500048  0.740324  0.999933  1
  Pd  Pd15  1  0.500656  0.999280  0.259635  1
  Pd  Pd16  1  0.259635  0.999280  0.500656  1
  Pd  Pd17  1  0.500048  0.999933  0.740324  1
  Pd  Pd18  1  0.740324  0.999933  0.500048  1
  Pd  Pd19  1  0.999280  0.500656  0.259635  1
  Pd  Pd20  1  0.999933  0.500048  0.740324  1
  Pd  Pd21  1  0.253093  0.500772  0.500772  1
  Pd  Pd22  1  0.746879  0.500067  0.500067  1
  Pd  Pd23  1  0.500772  0.253093  0.500772  1
  Pd  Pd24  1  0.500067  0.746879  0.500067  1
  Pd  Pd25  1  0.500772  0.500772  0.253093  1
  Pd  Pd26  1  0.500067  0.500067  0.746879  1
  Pd  Pd27  1  0.289025  0.999315  0.999315  1
  Pd  Pd28  1  0.711142  0.999956  0.999956  1
  Pd  Pd29  1  0.999315  0.289025  0.999315  1
  Pd  Pd30  1  0.999956  0.711142  0.999956  1
  Pd  Pd31  1  0.999315  0.999315  0.289025  1
  Pd  Pd32  1  0.999956  0.999956  0.711142  1
