# generated using pymatgen
data_LaNd5CoBr10
_symmetry_space_group_name_H-M   'P 1'
_cell_length_a   7.57934308
_cell_length_b   9.37137295
_cell_length_c   9.53574000
_cell_angle_alpha   108.36638945
_cell_angle_beta   97.11247828
_cell_angle_gamma   105.10283385
_symmetry_Int_Tables_number   1
_chemical_formula_structural   LaNd5CoBr10
_chemical_formula_sum   'La1 Nd5 Co1 Br10'
_cell_volume   604.73368903
_cell_formula_units_Z   1
loop_
 _symmetry_equiv_pos_site_id
 _symmetry_equiv_pos_as_xyz
  1  'x, y, z'
loop_
 _atom_site_type_symbol
 _atom_site_label
 _atom_site_symmetry_multiplicity
 _atom_site_fract_x
 _atom_site_fract_y
 _atom_site_fract_z
 _atom_site_occupancy
  La  La0  1  0.031550  0.709597  0.409936  1
  Nd  Nd1  1  0.967926  0.286864  0.589305  1
  Nd  Nd2  1  0.874707  0.953180  0.748346  1
  Nd  Nd3  1  0.126352  0.047224  0.252246  1
  Nd  Nd4  1  0.363319  0.136442  0.681713  1
  Nd  Nd5  1  0.636919  0.866258  0.318902  1
  Co  Co6  1  0.000709  0.996349  0.498952  1
  Br  Br7  1  0.456633  0.822926  0.584792  1
  Br  Br8  1  0.547528  0.180104  0.417961  1
  Br  Br9  1  0.912360  0.629892  0.675885  1
  Br  Br10  1  0.085745  0.367563  0.328251  1
  Br  Br11  1  0.252019  0.085279  0.955975  1
  Br  Br12  1  0.748721  0.915523  0.044159  1
  Br  Br13  1  0.350498  0.454994  0.771506  1
  Br  Br14  1  0.641236  0.544764  0.225964  1
  Br  Br15  1  0.788576  0.257634  0.845848  1
  Br  Br16  1  0.215203  0.745409  0.150261  1
