# generated using pymatgen
data_BaNa2HgSb2
_symmetry_space_group_name_H-M   'P 1'
_cell_length_a   4.94578700
_cell_length_b   8.48022100
_cell_length_c   9.19759800
_cell_angle_alpha   90.00000000
_cell_angle_beta   90.00000000
_cell_angle_gamma   90.00000000
_symmetry_Int_Tables_number   1
_chemical_formula_structural   BaNa2HgSb2
_chemical_formula_sum   'Ba2 Na4 Hg2 Sb4'
_cell_volume   385.75983120
_cell_formula_units_Z   2
loop_
 _symmetry_equiv_pos_site_id
 _symmetry_equiv_pos_as_xyz
  1  'x, y, z'
loop_
 _atom_site_type_symbol
 _atom_site_label
 _atom_site_symmetry_multiplicity
 _atom_site_fract_x
 _atom_site_fract_y
 _atom_site_fract_z
 _atom_site_occupancy
  Ba  Ba0  1  0.000000  0.994066  0.056079  1
  Ba  Ba1  1  0.000000  0.494066  0.943921  1
  Na  Na2  1  0.500000  0.025194  0.421958  1
  Na  Na3  1  0.000000  0.358925  0.338377  1
  Na  Na4  1  0.500000  0.525194  0.578042  1
  Na  Na5  1  0.000000  0.858925  0.661623  1
  Hg  Hg6  1  0.500000  0.157488  0.814522  1
  Hg  Hg7  1  0.500000  0.657488  0.185478  1
  Sb  Sb8  1  0.000000  0.229690  0.652330  1
  Sb  Sb9  1  0.500000  0.280238  0.136227  1
  Sb  Sb10  1  0.000000  0.729690  0.347670  1
  Sb  Sb11  1  0.500000  0.780238  0.863773  1
