# generated using pymatgen
data_CaTm(NiH4)2
_symmetry_space_group_name_H-M   'P 1'
_cell_length_a   3.58618094
_cell_length_b   4.76306700
_cell_length_c   6.03552596
_cell_angle_alpha   90.00000000
_cell_angle_beta   107.18667675
_cell_angle_gamma   90.00000000
_symmetry_Int_Tables_number   1
_chemical_formula_structural   CaTm(NiH4)2
_chemical_formula_sum   'Ca1 Tm1 Ni2 H8'
_cell_volume   98.49069441
_cell_formula_units_Z   1
loop_
 _symmetry_equiv_pos_site_id
 _symmetry_equiv_pos_as_xyz
  1  'x, y, z'
loop_
 _atom_site_type_symbol
 _atom_site_label
 _atom_site_symmetry_multiplicity
 _atom_site_fract_x
 _atom_site_fract_y
 _atom_site_fract_z
 _atom_site_occupancy
  Ca  Ca0  1  0.634746  0.249999  0.268568  1
  Tm  Tm1  1  0.368644  0.750000  0.736948  1
  Ni  Ni2  1  0.097302  0.750000  0.190574  1
  Ni  Ni3  1  0.898097  0.249999  0.803374  1
  H  H4  1  0.998873  0.996263  0.997424  1
  H  H5  1  0.998873  0.503738  0.997424  1
  H  H6  1  0.580908  0.750000  0.161566  1
  H  H7  1  0.195248  0.982889  0.390278  1
  H  H8  1  0.195248  0.517112  0.390278  1
  H  H9  1  0.812320  0.512204  0.624278  1
  H  H10  1  0.812320  0.987797  0.624278  1
  H  H11  1  0.407419  0.249999  0.815010  1
