# generated using pymatgen
data_Zr5Co16Si4P8W3
_symmetry_space_group_name_H-M   'P 1'
_cell_length_a   11.98924244
_cell_length_b   12.00345315
_cell_length_c   3.67134900
_cell_angle_alpha   90.00000000
_cell_angle_beta   90.00000000
_cell_angle_gamma   119.99201827
_symmetry_Int_Tables_number   1
_chemical_formula_structural   Zr5Co16Si4P8W3
_chemical_formula_sum   'Zr5 Co16 Si4 P8 W3'
_cell_volume   457.60332450
_cell_formula_units_Z   1
loop_
 _symmetry_equiv_pos_site_id
 _symmetry_equiv_pos_as_xyz
  1  'x, y, z'
loop_
 _atom_site_type_symbol
 _atom_site_label
 _atom_site_symmetry_multiplicity
 _atom_site_fract_x
 _atom_site_fract_y
 _atom_site_fract_z
 _atom_site_occupancy
  Zr  Zr0  1  0.667010  0.333180  0.000000  1
  Zr  Zr1  1  0.332010  0.666020  0.000000  1
  Zr  Zr2  1  0.819360  0.818603  0.500000  1
  Zr  Zr3  1  0.180792  0.001452  0.500000  1
  Zr  Zr4  1  0.998610  0.179653  0.500000  1
  Co  Co5  1  0.194754  0.373412  0.000000  1
  Co  Co6  1  0.176920  0.805453  0.000000  1
  Co  Co7  1  0.825588  0.630446  0.000000  1
  Co  Co8  1  0.806180  0.175387  0.000000  1
  Co  Co9  1  0.368377  0.194426  0.000000  1
  Co  Co10  1  0.131839  0.485362  0.500000  1
  Co  Co11  1  0.349646  0.871135  0.500000  1
  Co  Co12  1  0.516302  0.642742  0.500000  1
  Co  Co13  1  0.646524  0.523311  0.500000  1
  Co  Co14  1  0.879354  0.353937  0.500000  1
  Co  Co15  1  0.475084  0.122288  0.500000  1
  Co  Co16  1  0.000368  0.000226  0.000000  1
  Co  Co17  1  0.722827  0.999044  0.500000  1
  Co  Co18  1  0.003468  0.723161  0.500000  1
  Co  Co19  1  0.629527  0.821453  0.000000  1
  Co  Co20  1  0.276416  0.280638  0.500000  1
  Si  Si21  1  0.482243  0.314491  0.500000  1
  Si  Si22  1  0.685328  0.167446  0.500000  1
  Si  Si23  1  0.832911  0.517351  0.500000  1
  Si  Si24  1  0.517569  0.831714  0.500000  1
  P  P25  1  0.644836  0.643513  0.000000  1
  P  P26  1  0.355193  0.000794  0.000000  1
  P  P27  1  0.999167  0.354889  0.000000  1
  P  P28  1  0.167177  0.686395  0.500000  1
  P  P29  1  0.823747  0.998769  0.000000  1
  P  P30  1  0.000356  0.824907  0.000000  1
  P  P31  1  0.314851  0.481771  0.500000  1
  P  P32  1  0.174654  0.176489  0.000000  1
  W  W33  1  0.446988  0.448168  0.000000  1
  W  W34  1  0.551209  0.998876  0.000000  1
  W  W35  1  0.002814  0.553100  0.000000  1
