# generated using pymatgen
data_Er2Sc4InNi2
_symmetry_space_group_name_H-M   'P 1'
_cell_length_a   8.02376243
_cell_length_b   8.02376337
_cell_length_c   8.02376335
_cell_angle_alpha   111.77006868
_cell_angle_beta   110.08614162
_cell_angle_gamma   106.59977344
_symmetry_Int_Tables_number   1
_chemical_formula_structural   Er2Sc4InNi2
_chemical_formula_sum   'Er4 Sc8 In2 Ni4'
_cell_volume   396.82568248
_cell_formula_units_Z   2
loop_
 _symmetry_equiv_pos_site_id
 _symmetry_equiv_pos_as_xyz
  1  'x, y, z'
loop_
 _atom_site_type_symbol
 _atom_site_label
 _atom_site_symmetry_multiplicity
 _atom_site_fract_x
 _atom_site_fract_y
 _atom_site_fract_z
 _atom_site_occupancy
  Er  Er0  1  0.189803  0.206223  0.396026  1
  Er  Er1  1  0.810197  0.206223  0.016420  1
  Er  Er2  1  0.189803  0.793777  0.983580  1
  Er  Er3  1  0.810197  0.793777  0.603974  1
  Sc  Sc4  1  0.022942  0.730283  0.292659  1
  Sc  Sc5  1  0.977058  0.269717  0.707341  1
  Sc  Sc6  1  0.562377  0.269717  0.292659  1
  Sc  Sc7  1  0.437623  0.730283  0.707341  1
  Sc  Sc8  1  0.675362  0.871677  0.196313  1
  Sc  Sc9  1  0.324638  0.520951  0.196313  1
  Sc  Sc10  1  0.324638  0.128323  0.803687  1
  Sc  Sc11  1  0.675362  0.479049  0.803687  1
  In  In12  1  0.000000  0.500000  0.500000  1
  In  In13  1  0.500000  0.000000  0.500000  1
  Ni  Ni14  1  0.644712  0.500000  0.144712  1
  Ni  Ni15  1  0.355288  0.500000  0.855288  1
  Ni  Ni16  1  0.865014  0.865014  0.000000  1
  Ni  Ni17  1  0.134986  0.134986  0.000000  1
