# generated using pymatgen
data_Ac3La13(CdTc)4
_symmetry_space_group_name_H-M   'P 1'
_cell_length_a   10.14701992
_cell_length_b   10.15782245
_cell_length_c   10.14702000
_cell_angle_alpha   60.03517280
_cell_angle_beta   59.99999974
_cell_angle_gamma   60.03517476
_symmetry_Int_Tables_number   1
_chemical_formula_structural   Ac3La13(CdTc)4
_chemical_formula_sum   'Ac3 La13 Cd4 Tc4'
_cell_volume   739.93460224
_cell_formula_units_Z   1
loop_
 _symmetry_equiv_pos_site_id
 _symmetry_equiv_pos_as_xyz
  1  'x, y, z'
loop_
 _atom_site_type_symbol
 _atom_site_label
 _atom_site_symmetry_multiplicity
 _atom_site_fract_x
 _atom_site_fract_y
 _atom_site_fract_z
 _atom_site_occupancy
  Ac  Ac0  1  0.944052  0.941700  0.557124  1
  Ac  Ac1  1  0.557124  0.941700  0.557124  1
  Ac  Ac2  1  0.557124  0.941700  0.944052  1
  La  La3  1  0.688802  0.684644  0.313277  1
  La  La4  1  0.153395  0.156670  0.536539  1
  La  La5  1  0.313277  0.684644  0.688802  1
  La  La6  1  0.153395  0.156670  0.153395  1
  La  La7  1  0.536539  0.156670  0.153395  1
  La  La8  1  0.313277  0.684644  0.313277  1
  La  La9  1  0.310501  0.315655  0.686922  1
  La  La10  1  0.686922  0.315655  0.686922  1
  La  La11  1  0.944579  0.553993  0.556849  1
  La  La12  1  0.556849  0.553993  0.944579  1
  La  La13  1  0.154217  0.537349  0.154217  1
  La  La14  1  0.686922  0.315655  0.310501  1
  La  La15  1  0.944579  0.553993  0.944579  1
  Cd  Cd16  1  0.232000  0.920828  0.923585  1
  Cd  Cd17  1  0.923585  0.920828  0.923585  1
  Cd  Cd18  1  0.923585  0.920828  0.232000  1
  Cd  Cd19  1  0.921541  0.235376  0.921541  1
  Tc  Tc20  1  0.901059  0.367822  0.365559  1
  Tc  Tc21  1  0.365559  0.367822  0.901059  1
  Tc  Tc22  1  0.365555  0.903333  0.365555  1
  Tc  Tc23  1  0.365559  0.367822  0.365559  1
