# generated using pymatgen
data_Tb2Ga9IrRh2
_symmetry_space_group_name_H-M   'P 1'
_cell_length_a   7.58969391
_cell_length_b   7.58969310
_cell_length_c   9.52348200
_cell_angle_alpha   89.99899135
_cell_angle_beta   89.99899272
_cell_angle_gamma   119.81725442
_symmetry_Int_Tables_number   1
_chemical_formula_structural   Tb2Ga9IrRh2
_chemical_formula_sum   'Tb4 Ga18 Ir2 Rh4'
_cell_volume   475.96132966
_cell_formula_units_Z   2
loop_
 _symmetry_equiv_pos_site_id
 _symmetry_equiv_pos_as_xyz
  1  'x, y, z'
loop_
 _atom_site_type_symbol
 _atom_site_label
 _atom_site_symmetry_multiplicity
 _atom_site_fract_x
 _atom_site_fract_y
 _atom_site_fract_z
 _atom_site_occupancy
  Tb  Tb0  1  0.997035  0.667562  0.248455  1
  Tb  Tb1  1  0.002965  0.332438  0.751545  1
  Tb  Tb2  1  0.667562  0.997035  0.248455  1
  Tb  Tb3  1  0.332438  0.002965  0.751545  1
  Ga  Ga4  1  0.124858  0.124858  0.249847  1
  Ga  Ga5  1  0.875142  0.875142  0.750153  1
  Ga  Ga6  1  0.000353  0.333167  0.079631  1
  Ga  Ga7  1  0.999647  0.666833  0.920369  1
  Ga  Ga8  1  0.999744  0.666061  0.579197  1
  Ga  Ga9  1  0.333939  0.000256  0.420803  1
  Ga  Ga10  1  0.000256  0.333939  0.420803  1
  Ga  Ga11  1  0.666061  0.999744  0.579197  1
  Ga  Ga12  1  0.666833  0.999647  0.920369  1
  Ga  Ga13  1  0.333167  0.000353  0.079631  1
  Ga  Ga14  1  0.332766  0.332766  0.563208  1
  Ga  Ga15  1  0.667234  0.667234  0.436792  1
  Ga  Ga16  1  0.667359  0.667359  0.063231  1
  Ga  Ga17  1  0.332641  0.332641  0.936769  1
  Ga  Ga18  1  0.338321  0.546578  0.250601  1
  Ga  Ga19  1  0.661679  0.453422  0.749399  1
  Ga  Ga20  1  0.546578  0.338321  0.250601  1
  Ga  Ga21  1  0.453422  0.661679  0.749399  1
  Ir  Ir22  1  0.671944  0.328056  0.000000  1
  Ir  Ir23  1  0.328056  0.671944  0.000000  1
  Rh  Rh24  1  0.328551  0.671449  0.500000  1
  Rh  Rh25  1  0.671449  0.328551  0.500000  1
  Rh  Rh26  1  0.000000  0.000000  0.000000  1
  Rh  Rh27  1  0.000000  0.000000  0.500000  1
