# generated using pymatgen
data_PrNdSi4(IrRh2)2
_symmetry_space_group_name_H-M   'P 1'
_cell_length_a   6.71015663
_cell_length_b   6.71030640
_cell_length_c   6.71054154
_cell_angle_alpha   130.26508263
_cell_angle_beta   114.75148530
_cell_angle_gamma   86.27138199
_symmetry_Int_Tables_number   1
_chemical_formula_structural   PrNdSi4(IrRh2)2
_chemical_formula_sum   'Pr1 Nd1 Si4 Ir2 Rh4'
_cell_volume   199.95732262
_cell_formula_units_Z   1
loop_
 _symmetry_equiv_pos_site_id
 _symmetry_equiv_pos_as_xyz
  1  'x, y, z'
loop_
 _atom_site_type_symbol
 _atom_site_label
 _atom_site_symmetry_multiplicity
 _atom_site_fract_x
 _atom_site_fract_y
 _atom_site_fract_z
 _atom_site_occupancy
  Pr  Pr0  1  0.748906  0.033057  0.281966  1
  Nd  Nd1  1  0.249090  0.964998  0.714085  1
  Si  Si2  1  0.579202  0.379872  0.802313  1
  Si  Si3  1  0.421993  0.619374  0.199014  1
  Si  Si4  1  0.079639  0.277020  0.199014  1
  Si  Si5  1  0.922435  0.723118  0.802315  1
  Ir  Ir6  1  0.218613  0.501182  0.718783  1
  Ir  Ir7  1  0.717591  0.000170  0.718793  1
  Rh  Rh8  1  0.783064  0.500986  0.283306  1
  Rh  Rh9  1  0.282322  0.000244  0.283284  1
  Rh  Rh10  1  0.498132  0.500024  0.498158  1
  Rh  Rh11  1  0.999012  0.499956  0.998969  1
