# generated using pymatgen
data_Y4Ho2Al24Ru5Pt3
_symmetry_space_group_name_H-M   'P 1'
_cell_length_a   8.85169504
_cell_length_b   8.84089125
_cell_length_c   9.51765745
_cell_angle_alpha   90.21310250
_cell_angle_beta   90.02061923
_cell_angle_gamma   119.83599383
_symmetry_Int_Tables_number   1
_chemical_formula_structural   Y4Ho2Al24Ru5Pt3
_chemical_formula_sum   'Y4 Ho2 Al24 Ru5 Pt3'
_cell_volume   646.09166736
_cell_formula_units_Z   1
loop_
 _symmetry_equiv_pos_site_id
 _symmetry_equiv_pos_as_xyz
  1  'x, y, z'
loop_
 _atom_site_type_symbol
 _atom_site_label
 _atom_site_symmetry_multiplicity
 _atom_site_fract_x
 _atom_site_fract_y
 _atom_site_fract_z
 _atom_site_occupancy
  Y  Y0  1  0.189951  0.385642  0.251509  1
  Y  Y1  1  0.810049  0.614358  0.748491  1
  Y  Y2  1  0.614907  0.809067  0.250816  1
  Y  Y3  1  0.385093  0.190933  0.749184  1
  Ho  Ho4  1  0.191997  0.805546  0.250686  1
  Ho  Ho5  1  0.808003  0.194454  0.749314  1
  Al  Al6  1  0.327657  0.663658  0.027272  1
  Al  Al7  1  0.672343  0.336342  0.972728  1
  Al  Al8  1  0.669259  0.330376  0.524390  1
  Al  Al9  1  0.330741  0.669624  0.475610  1
  Al  Al10  1  0.157704  0.324757  0.577072  1
  Al  Al11  1  0.842296  0.675243  0.422928  1
  Al  Al12  1  0.675744  0.842453  0.577347  1
  Al  Al13  1  0.842177  0.675296  0.077128  1
  Al  Al14  1  0.324256  0.157547  0.422653  1
  Al  Al15  1  0.157823  0.324704  0.922872  1
  Al  Al16  1  0.162763  0.835916  0.576063  1
  Al  Al17  1  0.322190  0.161561  0.078759  1
  Al  Al18  1  0.837237  0.164084  0.423937  1
  Al  Al19  1  0.677810  0.838439  0.921241  1
  Al  Al20  1  0.841985  0.167535  0.076702  1
  Al  Al21  1  0.158015  0.832465  0.923298  1
  Al  Al22  1  0.562006  0.125192  0.253684  1
  Al  Al23  1  0.437994  0.874808  0.746316  1
  Al  Al24  1  0.877862  0.439647  0.249567  1
  Al  Al25  1  0.122138  0.560353  0.750433  1
  Al  Al26  1  0.563868  0.436542  0.249392  1
  Al  Al27  1  0.436132  0.563458  0.750608  1
  Al  Al28  1  0.997993  0.999742  0.250141  1
  Al  Al29  1  0.002007  0.000258  0.749859  1
  Ru  Ru30  1  0.000000  0.500000  0.000000  1
  Ru  Ru31  1  0.500000  0.000000  0.500000  1
  Ru  Ru32  1  0.000000  0.500000  0.500000  1
  Ru  Ru33  1  0.000000  0.000000  0.000000  1
  Ru  Ru34  1  0.000000  0.000000  0.500000  1
  Pt  Pt35  1  0.500000  0.000000  0.000000  1
  Pt  Pt36  1  0.500000  0.500000  0.000000  1
  Pt  Pt37  1  0.500000  0.500000  0.500000  1
