# generated using pymatgen
data_AcAl8Fe2Si
_symmetry_space_group_name_H-M   'P 1'
_cell_length_a   7.87378900
_cell_length_b   7.79170193
_cell_length_c   3.94988400
_cell_angle_alpha   90.00000000
_cell_angle_beta   90.00000000
_cell_angle_gamma   120.34912183
_symmetry_Int_Tables_number   1
_chemical_formula_structural   AcAl8Fe2Si
_chemical_formula_sum   'Ac1 Al8 Fe2 Si1'
_cell_volume   209.11850242
_cell_formula_units_Z   1
loop_
 _symmetry_equiv_pos_site_id
 _symmetry_equiv_pos_as_xyz
  1  'x, y, z'
loop_
 _atom_site_type_symbol
 _atom_site_label
 _atom_site_symmetry_multiplicity
 _atom_site_fract_x
 _atom_site_fract_y
 _atom_site_fract_z
 _atom_site_occupancy
  Ac  Ac0  1  0.000000  0.000000  0.000000  1
  Al  Al1  1  0.000000  0.500001  0.000000  1
  Al  Al2  1  0.500000  0.500001  0.000000  1
  Al  Al3  1  0.424727  0.210491  0.499999  1
  Al  Al4  1  0.785765  0.210491  0.499999  1
  Al  Al5  1  0.215869  0.431739  0.499999  1
  Al  Al6  1  0.784131  0.568261  0.499999  1
  Al  Al7  1  0.214236  0.789509  0.499999  1
  Al  Al8  1  0.575273  0.789509  0.499999  1
  Fe  Fe9  1  0.660263  0.320525  0.000000  1
  Fe  Fe10  1  0.339738  0.679475  0.000000  1
  Si  Si11  1  0.500000  0.000000  0.000000  1
