# generated using pymatgen
data_NaCdAsO4
_symmetry_space_group_name_H-M   'P 1'
_cell_length_a   5.33326800
_cell_length_b   6.66137200
_cell_length_c   11.39263100
_cell_angle_alpha   90.00000000
_cell_angle_beta   90.00000000
_cell_angle_gamma   90.00000000
_symmetry_Int_Tables_number   1
_chemical_formula_structural   NaCdAsO4
_chemical_formula_sum   'Na4 Cd4 As4 O16'
_cell_volume   404.74465862
_cell_formula_units_Z   4
loop_
 _symmetry_equiv_pos_site_id
 _symmetry_equiv_pos_as_xyz
  1  'x, y, z'
loop_
 _atom_site_type_symbol
 _atom_site_label
 _atom_site_symmetry_multiplicity
 _atom_site_fract_x
 _atom_site_fract_y
 _atom_site_fract_z
 _atom_site_occupancy
  Na  Na0  1  0.000000  0.000000  0.500000  1
  Na  Na1  1  0.500000  0.500000  0.000000  1
  Na  Na2  1  0.000000  0.500000  0.500000  1
  Na  Na3  1  0.500000  0.000000  0.000000  1
  Cd  Cd4  1  0.509154  0.750000  0.281718  1
  Cd  Cd5  1  0.990846  0.750000  0.781718  1
  Cd  Cd6  1  0.490846  0.250000  0.718282  1
  Cd  Cd7  1  0.009154  0.250000  0.218282  1
  As  As8  1  0.436087  0.750000  0.600289  1
  As  As9  1  0.063913  0.750000  0.100289  1
  As  As10  1  0.563913  0.250000  0.399711  1
  As  As11  1  0.936087  0.250000  0.899711  1
  O  O12  1  0.315090  0.750000  0.459565  1
  O  O13  1  0.184910  0.750000  0.959565  1
  O  O14  1  0.684910  0.250000  0.540435  1
  O  O15  1  0.815090  0.250000  0.040435  1
  O  O16  1  0.757045  0.750000  0.603912  1
  O  O17  1  0.742955  0.750000  0.103912  1
  O  O18  1  0.242955  0.250000  0.396088  1
  O  O19  1  0.257045  0.250000  0.896088  1
  O  O20  1  0.292692  0.548145  0.670909  1
  O  O21  1  0.207308  0.951855  0.170909  1
  O  O22  1  0.707308  0.048145  0.329091  1
  O  O23  1  0.792692  0.451855  0.829091  1
  O  O24  1  0.707308  0.451855  0.329091  1
  O  O25  1  0.792692  0.048145  0.829091  1
  O  O26  1  0.292692  0.951855  0.670909  1
  O  O27  1  0.207308  0.548145  0.170909  1
