# generated using pymatgen
data_Cs8Tl11
_symmetry_space_group_name_H-M   'P 1'
_cell_length_a   10.61093700
_cell_length_b   10.61093656
_cell_length_c   18.98253100
_cell_angle_alpha   106.22989432
_cell_angle_beta   90.00000000
_cell_angle_gamma   119.99999826
_symmetry_Int_Tables_number   1
_chemical_formula_structural   Cs8Tl11
_chemical_formula_sum   'Cs16 Tl22'
_cell_volume   1751.89786153
_cell_formula_units_Z   2
loop_
 _symmetry_equiv_pos_site_id
 _symmetry_equiv_pos_as_xyz
  1  'x, y, z'
loop_
 _atom_site_type_symbol
 _atom_site_label
 _atom_site_symmetry_multiplicity
 _atom_site_fract_x
 _atom_site_fract_y
 _atom_site_fract_z
 _atom_site_occupancy
  Cs  Cs0  1  0.651635  0.973642  0.065004  1
  Cs  Cs1  1  0.091362  0.742998  0.065004  1
  Cs  Cs2  1  0.322006  0.413369  0.065004  1
  Cs  Cs3  1  0.079521  0.159041  0.238562  1
  Cs  Cs4  1  0.420479  0.840959  0.261438  1
  Cs  Cs5  1  0.408637  0.586631  0.434996  1
  Cs  Cs6  1  0.848365  0.257002  0.434996  1
  Cs  Cs7  1  0.177994  0.026358  0.434996  1
  Cs  Cs8  1  0.822006  0.973641  0.565004  1
  Cs  Cs9  1  0.151634  0.742997  0.565004  1
  Cs  Cs10  1  0.591362  0.413368  0.565004  1
  Cs  Cs11  1  0.579521  0.159041  0.738562  1
  Cs  Cs12  1  0.920479  0.840959  0.761438  1
  Cs  Cs13  1  0.677993  0.586631  0.934996  1
  Cs  Cs14  1  0.908638  0.257002  0.934996  1
  Cs  Cs15  1  0.348366  0.026359  0.934996  1
  Tl  Tl16  1  0.700158  0.400316  0.100474  1
  Tl  Tl17  1  0.728461  0.730718  0.159669  1
  Tl  Tl18  1  0.002257  0.431208  0.159669  1
  Tl  Tl19  1  0.428951  0.157413  0.159669  1
  Tl  Tl20  1  0.957270  0.707270  0.250000  1
  Tl  Tl21  1  0.542730  0.500000  0.250000  1
  Tl  Tl22  1  0.750000  0.292730  0.250000  1
  Tl  Tl23  1  0.771538  0.842587  0.340331  1
  Tl  Tl24  1  0.071049  0.568792  0.340331  1
  Tl  Tl25  1  0.497743  0.269282  0.340331  1
  Tl  Tl26  1  0.799842  0.599684  0.399526  1
  Tl  Tl27  1  0.200158  0.400316  0.600474  1
  Tl  Tl28  1  0.502256  0.730718  0.659669  1
  Tl  Tl29  1  0.928951  0.431208  0.659669  1
  Tl  Tl30  1  0.228461  0.157412  0.659669  1
  Tl  Tl31  1  0.250000  0.707270  0.750000  1
  Tl  Tl32  1  0.457270  0.500000  0.750000  1
  Tl  Tl33  1  0.042730  0.292730  0.750000  1
  Tl  Tl34  1  0.571049  0.842587  0.840331  1
  Tl  Tl35  1  0.997744  0.568792  0.840331  1
  Tl  Tl36  1  0.271538  0.269282  0.840331  1
  Tl  Tl37  1  0.299842  0.599684  0.899525  1
