# generated using pymatgen
data_LiTbPrAgSn2
_symmetry_space_group_name_H-M   'P 1'
_cell_length_a   4.78214100
_cell_length_b   4.78214024
_cell_length_c   7.56032400
_cell_angle_alpha   90.00000000
_cell_angle_beta   90.00000000
_cell_angle_gamma   119.99999835
_symmetry_Int_Tables_number   1
_chemical_formula_structural   LiTbPrAgSn2
_chemical_formula_sum   'Li1 Tb1 Pr1 Ag1 Sn2'
_cell_volume   149.73238130
_cell_formula_units_Z   1
loop_
 _symmetry_equiv_pos_site_id
 _symmetry_equiv_pos_as_xyz
  1  'x, y, z'
loop_
 _atom_site_type_symbol
 _atom_site_label
 _atom_site_symmetry_multiplicity
 _atom_site_fract_x
 _atom_site_fract_y
 _atom_site_fract_z
 _atom_site_occupancy
  Li  Li0  1  0.666667  0.333333  0.501293  1
  Tb  Tb1  1  0.000000  0.000000  0.230038  1
  Pr  Pr2  1  0.000000  0.000000  0.730763  1
  Ag  Ag3  1  0.333333  0.666667  0.048392  1
  Sn  Sn4  1  0.333333  0.666667  0.455480  1
  Sn  Sn5  1  0.666667  0.333333  0.958035  1
