# generated using pymatgen
data_Pr3MgZn2Ir2Pd
_symmetry_space_group_name_H-M   'P 1'
_cell_length_a   7.44005626
_cell_length_b   7.44005619
_cell_length_c   4.07006900
_cell_angle_alpha   90.00000000
_cell_angle_beta   90.00000000
_cell_angle_gamma   120.14870219
_symmetry_Int_Tables_number   1
_chemical_formula_structural   Pr3MgZn2Ir2Pd
_chemical_formula_sum   'Pr3 Mg1 Zn2 Ir2 Pd1'
_cell_volume   194.81936826
_cell_formula_units_Z   1
loop_
 _symmetry_equiv_pos_site_id
 _symmetry_equiv_pos_as_xyz
  1  'x, y, z'
loop_
 _atom_site_type_symbol
 _atom_site_label
 _atom_site_symmetry_multiplicity
 _atom_site_fract_x
 _atom_site_fract_y
 _atom_site_fract_z
 _atom_site_occupancy
  Pr  Pr0  1  0.580478  0.006540  0.500000  1
  Pr  Pr1  1  0.403900  0.403900  0.500000  1
  Pr  Pr2  1  0.006540  0.580478  0.500000  1
  Mg  Mg3  1  0.760042  0.760042  0.000000  1
  Zn  Zn4  1  0.996030  0.245020  0.000000  1
  Zn  Zn5  1  0.245020  0.996030  0.000000  1
  Ir  Ir6  1  0.336338  0.666955  0.000000  1
  Ir  Ir7  1  0.666955  0.336338  0.000000  1
  Pd  Pd8  1  0.004698  0.004698  0.500000  1
