# generated using pymatgen
data_Hf3ScSi5GeIr7
_symmetry_space_group_name_H-M   'P 1'
_cell_length_a   7.01298335
_cell_length_b   7.02318135
_cell_length_c   7.01516692
_cell_angle_alpha   109.75205877
_cell_angle_beta   109.69341602
_cell_angle_gamma   108.98634926
_symmetry_Int_Tables_number   1
_chemical_formula_structural   Hf3ScSi5GeIr7
_chemical_formula_sum   'Hf3 Sc1 Si5 Ge1 Ir7'
_cell_volume   265.91169789
_cell_formula_units_Z   1
loop_
 _symmetry_equiv_pos_site_id
 _symmetry_equiv_pos_as_xyz
  1  'x, y, z'
loop_
 _atom_site_type_symbol
 _atom_site_label
 _atom_site_symmetry_multiplicity
 _atom_site_fract_x
 _atom_site_fract_y
 _atom_site_fract_z
 _atom_site_occupancy
  Hf  Hf0  1  0.001739  0.001320  0.523530  1
  Hf  Hf1  1  0.475516  0.001912  0.000000  1
  Hf  Hf2  1  0.478209  0.477790  0.476470  1
  Sc  Sc3  1  0.001987  0.486044  0.000000  1
  Si  Si4  1  0.315279  0.993839  0.320363  1
  Si  Si5  1  0.994820  0.314676  0.316005  1
  Si  Si6  1  0.329497  0.333446  0.000000  1
  Si  Si7  1  0.678816  0.998672  0.683995  1
  Si  Si8  1  0.994916  0.673476  0.679637  1
  Ge  Ge9  1  0.699380  0.698341  0.000000  1
  Ir  Ir10  1  0.749158  0.248317  0.497989  1
  Ir  Ir11  1  0.751521  0.500095  0.252812  1
  Ir  Ir12  1  0.498710  0.247283  0.747188  1
  Ir  Ir13  1  0.249132  0.499917  0.746307  1
  Ir  Ir14  1  0.251171  0.750329  0.502011  1
  Ir  Ir15  1  0.502824  0.753610  0.253693  1
  Ir  Ir16  1  0.027326  0.020932  0.000000  1
