# generated using pymatgen
data_Ho17Pa3Ir16
_symmetry_space_group_name_H-M   'P 1'
_cell_length_a   7.43078581
_cell_length_b   7.49614263
_cell_length_c   14.50723000
_cell_angle_alpha   90.09661987
_cell_angle_beta   90.06522394
_cell_angle_gamma   89.89749182
_symmetry_Int_Tables_number   1
_chemical_formula_structural   Ho17Pa3Ir16
_chemical_formula_sum   'Ho17 Pa3 Ir16'
_cell_volume   808.08210366
_cell_formula_units_Z   1
loop_
 _symmetry_equiv_pos_site_id
 _symmetry_equiv_pos_as_xyz
  1  'x, y, z'
loop_
 _atom_site_type_symbol
 _atom_site_label
 _atom_site_symmetry_multiplicity
 _atom_site_fract_x
 _atom_site_fract_y
 _atom_site_fract_z
 _atom_site_occupancy
  Ho  Ho0  1  0.838779  0.665235  0.377845  1
  Ho  Ho1  1  0.338498  0.834064  0.378473  1
  Ho  Ho2  1  0.839571  0.665408  0.120010  1
  Ho  Ho3  1  0.660228  0.164887  0.880370  1
  Ho  Ho4  1  0.161156  0.332600  0.621089  1
  Ho  Ho5  1  0.511973  0.682172  0.592672  1
  Ho  Ho6  1  0.011507  0.815437  0.904786  1
  Ho  Ho7  1  0.490790  0.318453  0.097464  1
  Ho  Ho8  1  0.988277  0.189089  0.405598  1
  Ho  Ho9  1  0.487577  0.318816  0.407806  1
  Ho  Ho10  1  0.983541  0.181026  0.093410  1
  Ho  Ho11  1  0.513803  0.681226  0.908314  1
  Ho  Ho12  1  0.011714  0.815631  0.590705  1
  Ho  Ho13  1  0.822384  0.511601  0.749136  1
  Ho  Ho14  1  0.323702  0.985180  0.750484  1
  Ho  Ho15  1  0.169945  0.491064  0.251325  1
  Ho  Ho16  1  0.680078  0.008627  0.251929  1
  Pa  Pa17  1  0.660399  0.158991  0.623912  1
  Pa  Pa18  1  0.160807  0.339119  0.876807  1
  Pa  Pa19  1  0.338020  0.838256  0.123163  1
  Ir  Ir20  1  0.692130  0.970546  0.466596  1
  Ir  Ir21  1  0.199240  0.542591  0.032860  1
  Ir  Ir22  1  0.299249  0.045616  0.965360  1
  Ir  Ir23  1  0.806226  0.447668  0.541107  1
  Ir  Ir24  1  0.335901  0.029672  0.547003  1
  Ir  Ir25  1  0.840707  0.466133  0.953400  1
  Ir  Ir26  1  0.654156  0.963395  0.045661  1
  Ir  Ir27  1  0.169093  0.529537  0.456201  1
  Ir  Ir28  1  0.460824  0.373693  0.749807  1
  Ir  Ir29  1  0.963315  0.124796  0.754286  1
  Ir  Ir30  1  0.533851  0.619769  0.243945  1
  Ir  Ir31  1  0.050341  0.885402  0.241884  1
  Ir  Ir32  1  0.700659  0.870573  0.745380  1
  Ir  Ir33  1  0.196810  0.629325  0.753660  1
  Ir  Ir34  1  0.311828  0.138928  0.248675  1
  Ir  Ir35  1  0.792919  0.365478  0.248871  1
