# generated using pymatgen
data_Er10Os3RuO24
_symmetry_space_group_name_H-M   'P 1'
_cell_length_a   5.63499400
_cell_length_b   7.42478440
_cell_length_c   12.40430408
_cell_angle_alpha   107.16749275
_cell_angle_beta   89.99988269
_cell_angle_gamma   89.99833200
_symmetry_Int_Tables_number   1
_chemical_formula_structural   Er10Os3RuO24
_chemical_formula_sum   'Er10 Os3 Ru1 O24'
_cell_volume   495.85631310
_cell_formula_units_Z   1
loop_
 _symmetry_equiv_pos_site_id
 _symmetry_equiv_pos_as_xyz
  1  'x, y, z'
loop_
 _atom_site_type_symbol
 _atom_site_label
 _atom_site_symmetry_multiplicity
 _atom_site_fract_x
 _atom_site_fract_y
 _atom_site_fract_z
 _atom_site_occupancy
  Er  Er0  1  0.248081  0.611900  0.439617  1
  Er  Er1  1  0.752937  0.392112  0.563798  1
  Er  Er2  1  0.251331  0.089399  0.449929  1
  Er  Er3  1  0.753042  0.908325  0.551400  1
  Er  Er4  1  0.248078  0.888147  0.060422  1
  Er  Er5  1  0.752924  0.107844  0.936165  1
  Er  Er6  1  0.251327  0.410674  0.050008  1
  Er  Er7  1  0.753050  0.591610  0.948657  1
  Er  Er8  1  0.250660  0.249835  0.749997  1
  Er  Er9  1  0.749878  0.750149  0.250005  1
  Os  Os10  1  0.469578  0.749862  0.750057  1
  Os  Os11  1  0.968028  0.250135  0.249947  1
  Os  Os12  1  0.531245  0.250120  0.249944  1
  Ru  Ru13  1  0.026345  0.749870  0.750069  1
  O  O14  1  0.255137  0.954738  0.751836  1
  O  O15  1  0.749873  0.043300  0.248092  1
  O  O16  1  0.501411  0.329760  0.902620  1
  O  O17  1  0.001890  0.668801  0.098311  1
  O  O18  1  0.498856  0.669766  0.096978  1
  O  O19  1  0.998684  0.329792  0.902829  1
  O  O20  1  0.255158  0.545096  0.748425  1
  O  O21  1  0.749851  0.456844  0.251653  1
  O  O22  1  0.249680  0.075509  0.250665  1
  O  O23  1  0.745009  0.927009  0.748983  1
  O  O24  1  0.502189  0.829998  0.916144  1
  O  O25  1  0.003928  0.171534  0.084405  1
  O  O26  1  0.496655  0.169606  0.083455  1
  O  O27  1  0.993423  0.832443  0.921059  1
  O  O28  1  0.501391  0.170144  0.597329  1
  O  O29  1  0.001873  0.831284  0.401727  1
  O  O30  1  0.498871  0.830312  0.403065  1
  O  O31  1  0.998724  0.170132  0.597125  1
  O  O32  1  0.502152  0.669866  0.583950  1
  O  O33  1  0.003841  0.328594  0.415504  1
  O  O34  1  0.496716  0.330542  0.416453  1
  O  O35  1  0.993501  0.667441  0.579029  1
  O  O36  1  0.249662  0.424822  0.249288  1
  O  O37  1  0.745019  0.572684  0.751057  1
