# generated using pymatgen
data_Ac16Ho4Tl11Pb5
_symmetry_space_group_name_H-M   'P 1'
_cell_length_a   8.47831551
_cell_length_b   16.90053743
_cell_length_c   9.10138400
_cell_angle_alpha   90.07013596
_cell_angle_beta   90.07097845
_cell_angle_gamma   90.11444000
_symmetry_Int_Tables_number   1
_chemical_formula_structural   Ac16Ho4Tl11Pb5
_chemical_formula_sum   'Ac16 Ho4 Tl11 Pb5'
_cell_volume   1304.11533306
_cell_formula_units_Z   1
loop_
 _symmetry_equiv_pos_site_id
 _symmetry_equiv_pos_as_xyz
  1  'x, y, z'
loop_
 _atom_site_type_symbol
 _atom_site_label
 _atom_site_symmetry_multiplicity
 _atom_site_fract_x
 _atom_site_fract_y
 _atom_site_fract_z
 _atom_site_occupancy
  Ac  Ac0  1  0.668275  0.628181  0.163798  1
  Ac  Ac1  1  0.169336  0.873255  0.333439  1
  Ac  Ac2  1  0.329240  0.126769  0.832616  1
  Ac  Ac3  1  0.833773  0.372450  0.670251  1
  Ac  Ac4  1  0.339564  0.371749  0.834080  1
  Ac  Ac5  1  0.838410  0.127155  0.668268  1
  Ac  Ac6  1  0.661496  0.872194  0.166757  1
  Ac  Ac7  1  0.163461  0.627647  0.330759  1
  Ac  Ac8  1  0.502141  0.594592  0.687478  1
  Ac  Ac9  1  0.005956  0.906639  0.810337  1
  Ac  Ac10  1  0.492672  0.091929  0.312424  1
  Ac  Ac11  1  0.994852  0.405982  0.188512  1
  Ac  Ac12  1  0.499557  0.406172  0.309708  1
  Ac  Ac13  1  0.997626  0.093922  0.188918  1
  Ac  Ac14  1  0.500627  0.905949  0.687524  1
  Ac  Ac15  1  0.001653  0.594933  0.812902  1
  Ho  Ho16  1  0.824846  0.751923  0.523496  1
  Ho  Ho17  1  0.324523  0.750040  0.975528  1
  Ho  Ho18  1  0.176937  0.251115  0.475078  1
  Ho  Ho19  1  0.674523  0.247612  0.026960  1
  Tl  Tl20  1  0.678542  0.456498  0.968804  1
  Tl  Tl21  1  0.176801  0.043807  0.531345  1
  Tl  Tl22  1  0.322017  0.955441  0.030059  1
  Tl  Tl23  1  0.474474  0.747740  0.409148  1
  Tl  Tl24  1  0.975222  0.753395  0.089754  1
  Tl  Tl25  1  0.526435  0.246592  0.591316  1
  Tl  Tl26  1  0.024909  0.253077  0.912400  1
  Tl  Tl27  1  0.701610  0.750463  0.851295  1
  Tl  Tl28  1  0.200043  0.748826  0.645501  1
  Tl  Tl29  1  0.298486  0.249764  0.146939  1
  Tl  Tl30  1  0.799604  0.250239  0.355954  1
  Pb  Pb31  1  0.819876  0.543950  0.468237  1
  Pb  Pb32  1  0.324677  0.543087  0.030816  1
  Pb  Pb33  1  0.824174  0.956888  0.468244  1
  Pb  Pb34  1  0.673150  0.043847  0.969592  1
  Pb  Pb35  1  0.180509  0.456177  0.531764  1
