# generated using pymatgen
data_Ho3Er4Tm(Sc3Si4)4
_symmetry_space_group_name_H-M   'P 1'
_cell_length_a   7.06925905
_cell_length_b   7.36257765
_cell_length_c   13.94785706
_cell_angle_alpha   89.98222310
_cell_angle_beta   89.99966348
_cell_angle_gamma   90.01050591
_symmetry_Int_Tables_number   1
_chemical_formula_structural   Ho3Er4Tm(Sc3Si4)4
_chemical_formula_sum   'Ho3 Er4 Tm1 Sc12 Si16'
_cell_volume   725.95758045
_cell_formula_units_Z   1
loop_
 _symmetry_equiv_pos_site_id
 _symmetry_equiv_pos_as_xyz
  1  'x, y, z'
loop_
 _atom_site_type_symbol
 _atom_site_label
 _atom_site_symmetry_multiplicity
 _atom_site_fract_x
 _atom_site_fract_y
 _atom_site_fract_z
 _atom_site_occupancy
  Ho  Ho0  1  0.512059  0.324247  0.096716  1
  Ho  Ho1  1  0.012123  0.175807  0.403422  1
  Ho  Ho2  1  0.511960  0.324321  0.403415  1
  Er  Er3  1  0.011986  0.175903  0.096782  1
  Er  Er4  1  0.987988  0.824062  0.903127  1
  Er  Er5  1  0.487912  0.675852  0.903318  1
  Er  Er6  1  0.987875  0.823945  0.596779  1
  Tm  Tm7  1  0.487912  0.676173  0.596982  1
  Sc  Sc8  1  0.160744  0.503223  0.749913  1
  Sc  Sc9  1  0.839432  0.497016  0.249977  1
  Sc  Sc10  1  0.339306  0.003018  0.250006  1
  Sc  Sc11  1  0.660587  0.996778  0.749881  1
  Sc  Sc12  1  0.330913  0.176919  0.625251  1
  Sc  Sc13  1  0.669016  0.822920  0.374852  1
  Sc  Sc14  1  0.169265  0.676807  0.374863  1
  Sc  Sc15  1  0.669170  0.823205  0.125196  1
  Sc  Sc16  1  0.830661  0.323432  0.625221  1
  Sc  Sc17  1  0.330773  0.176807  0.874666  1
  Sc  Sc18  1  0.830789  0.323192  0.874660  1
  Sc  Sc19  1  0.169176  0.676842  0.125181  1
  Si  Si20  1  0.032930  0.115879  0.749966  1
  Si  Si21  1  0.966985  0.884074  0.250006  1
  Si  Si22  1  0.467000  0.615956  0.250023  1
  Si  Si23  1  0.532868  0.384501  0.749880  1
  Si  Si24  1  0.285372  0.872000  0.749773  1
  Si  Si25  1  0.714998  0.127412  0.249945  1
  Si  Si26  1  0.214764  0.372517  0.249947  1
  Si  Si27  1  0.784752  0.627786  0.749754  1
  Si  Si28  1  0.159203  0.465475  0.539594  1
  Si  Si29  1  0.841379  0.535171  0.460679  1
  Si  Si30  1  0.341742  0.964481  0.460781  1
  Si  Si31  1  0.841612  0.535029  0.039394  1
  Si  Si32  1  0.658312  0.034406  0.539612  1
  Si  Si33  1  0.158418  0.465025  0.960520  1
  Si  Si34  1  0.658646  0.034848  0.960532  1
  Si  Si35  1  0.341375  0.964972  0.039382  1
