# generated using pymatgen
data_Sc10ZnSn6Ge
_symmetry_space_group_name_H-M   'P 1'
_cell_length_a   8.67760700
_cell_length_b   8.67760579
_cell_length_c   6.12761000
_cell_angle_alpha   90.00000000
_cell_angle_beta   90.00000000
_cell_angle_gamma   120.00000079
_symmetry_Int_Tables_number   1
_chemical_formula_structural   Sc10ZnSn6Ge
_chemical_formula_sum   'Sc10 Zn1 Sn6 Ge1'
_cell_volume   399.59646626
_cell_formula_units_Z   1
loop_
 _symmetry_equiv_pos_site_id
 _symmetry_equiv_pos_as_xyz
  1  'x, y, z'
loop_
 _atom_site_type_symbol
 _atom_site_label
 _atom_site_symmetry_multiplicity
 _atom_site_fract_x
 _atom_site_fract_y
 _atom_site_fract_z
 _atom_site_occupancy
  Sc  Sc0  1  0.666667  0.333333  0.000000  1
  Sc  Sc1  1  0.333333  0.666667  0.000000  1
  Sc  Sc2  1  0.333333  0.666667  0.500000  1
  Sc  Sc3  1  0.666667  0.333333  0.500000  1
  Sc  Sc4  1  0.738153  0.738153  0.761117  1
  Sc  Sc5  1  0.261847  0.000000  0.761117  1
  Sc  Sc6  1  0.000000  0.261847  0.761117  1
  Sc  Sc7  1  0.261847  0.261847  0.238883  1
  Sc  Sc8  1  0.738153  0.000000  0.238883  1
  Sc  Sc9  1  0.000000  0.738153  0.238883  1
  Zn  Zn10  1  0.000000  0.000000  0.500000  1
  Sn  Sn11  1  0.387654  0.387654  0.748365  1
  Sn  Sn12  1  0.612346  0.000000  0.748365  1
  Sn  Sn13  1  0.000000  0.612346  0.748365  1
  Sn  Sn14  1  0.612346  0.612346  0.251635  1
  Sn  Sn15  1  0.387654  0.000000  0.251635  1
  Sn  Sn16  1  0.000000  0.387654  0.251635  1
  Ge  Ge17  1  0.000000  0.000000  0.000000  1
