# generated using pymatgen
data_CaTbGaSe4
_symmetry_space_group_name_H-M   'P 1'
_cell_length_a   14.52930100
_cell_length_b   8.46668300
_cell_length_c   6.61423200
_cell_angle_alpha   90.00000000
_cell_angle_beta   90.00000000
_cell_angle_gamma   90.00000000
_symmetry_Int_Tables_number   1
_chemical_formula_structural   CaTbGaSe4
_chemical_formula_sum   'Ca4 Tb4 Ga4 Se16'
_cell_volume   813.64965542
_cell_formula_units_Z   4
loop_
 _symmetry_equiv_pos_site_id
 _symmetry_equiv_pos_as_xyz
  1  'x, y, z'
loop_
 _atom_site_type_symbol
 _atom_site_label
 _atom_site_symmetry_multiplicity
 _atom_site_fract_x
 _atom_site_fract_y
 _atom_site_fract_z
 _atom_site_occupancy
  Ca  Ca0  1  0.736342  0.750001  0.008428  1
  Ca  Ca1  1  0.236342  0.750001  0.491572  1
  Ca  Ca2  1  0.763658  0.250000  0.508428  1
  Ca  Ca3  1  0.263658  0.250000  0.991571  1
  Tb  Tb4  1  0.000000  0.000000  0.000000  1
  Tb  Tb5  1  0.000000  0.499999  0.000000  1
  Tb  Tb6  1  0.500000  0.000000  0.500000  1
  Tb  Tb7  1  0.500000  0.499999  0.500000  1
  Ga  Ga8  1  0.585896  0.250000  0.098563  1
  Ga  Ga9  1  0.085896  0.250000  0.401437  1
  Ga  Ga10  1  0.914104  0.750001  0.598564  1
  Ga  Ga11  1  0.414104  0.750001  0.901437  1
  Se  Se12  1  0.913998  0.750001  0.233495  1
  Se  Se13  1  0.161637  0.020873  0.252273  1
  Se  Se14  1  0.161637  0.479127  0.252273  1
  Se  Se15  1  0.930018  0.250000  0.250972  1
  Se  Se16  1  0.430018  0.250000  0.249028  1
  Se  Se17  1  0.661637  0.020873  0.247727  1
  Se  Se18  1  0.661637  0.479127  0.247727  1
  Se  Se19  1  0.413997  0.750001  0.266504  1
  Se  Se20  1  0.586002  0.250000  0.733495  1
  Se  Se21  1  0.338363  0.520874  0.752273  1
  Se  Se22  1  0.338363  0.979126  0.752273  1
  Se  Se23  1  0.569982  0.750001  0.750971  1
  Se  Se24  1  0.069982  0.750001  0.749028  1
  Se  Se25  1  0.838363  0.520874  0.747726  1
  Se  Se26  1  0.838363  0.979126  0.747726  1
  Se  Se27  1  0.086003  0.250000  0.766504  1
