# generated using pymatgen
data_Ba(CdAu2)2
_symmetry_space_group_name_H-M   'P 1'
_cell_length_a   6.01597440
_cell_length_b   6.01597460
_cell_length_c   6.01597375
_cell_angle_alpha   103.53973486
_cell_angle_beta   103.53973837
_cell_angle_gamma   122.12449376
_symmetry_Int_Tables_number   1
_chemical_formula_structural   Ba(CdAu2)2
_chemical_formula_sum   'Ba1 Cd2 Au4'
_cell_volume   161.37184251
_cell_formula_units_Z   1
loop_
 _symmetry_equiv_pos_site_id
 _symmetry_equiv_pos_as_xyz
  1  'x, y, z'
loop_
 _atom_site_type_symbol
 _atom_site_label
 _atom_site_symmetry_multiplicity
 _atom_site_fract_x
 _atom_site_fract_y
 _atom_site_fract_z
 _atom_site_occupancy
  Ba  Ba0  1  0.000000  0.000000  0.000000  1
  Cd  Cd1  1  0.250000  0.750000  0.500000  1
  Cd  Cd2  1  0.750000  0.250000  0.500000  1
  Au  Au3  1  0.307862  0.307862  0.615723  1
  Au  Au4  1  0.692138  0.692138  0.384277  1
  Au  Au5  1  0.692138  0.307862  0.000000  1
  Au  Au6  1  0.307862  0.692138  0.000000  1
