# generated using pymatgen
data_Ca(FeBr4)2
_symmetry_space_group_name_H-M   'P 1'
_cell_length_a   7.62611100
_cell_length_b   7.84286947
_cell_length_c   14.32839262
_cell_angle_alpha   87.16071366
_cell_angle_beta   90.00000000
_cell_angle_gamma   90.00000000
_symmetry_Int_Tables_number   1
_chemical_formula_structural   Ca(FeBr4)2
_chemical_formula_sum   'Ca2 Fe4 Br16'
_cell_volume   855.93762706
_cell_formula_units_Z   2
loop_
 _symmetry_equiv_pos_site_id
 _symmetry_equiv_pos_as_xyz
  1  'x, y, z'
loop_
 _atom_site_type_symbol
 _atom_site_label
 _atom_site_symmetry_multiplicity
 _atom_site_fract_x
 _atom_site_fract_y
 _atom_site_fract_z
 _atom_site_occupancy
  Ca  Ca0  1  0.753306  0.075088  0.813840  1
  Ca  Ca1  1  0.246694  0.075088  0.313840  1
  Fe  Fe2  1  0.932624  0.219288  0.579620  1
  Fe  Fe3  1  0.067376  0.219288  0.079620  1
  Fe  Fe4  1  0.572103  0.641057  0.778915  1
  Fe  Fe5  1  0.427897  0.641057  0.278915  1
  Br  Br6  1  0.423457  0.615387  0.641205  1
  Br  Br7  1  0.576543  0.615387  0.141205  1
  Br  Br8  1  0.868686  0.732626  0.759254  1
  Br  Br9  1  0.131314  0.732626  0.259254  1
  Br  Br10  1  0.938286  0.476523  0.496617  1
  Br  Br11  1  0.061714  0.476523  0.996617  1
  Br  Br12  1  0.918051  0.002911  0.998017  1
  Br  Br13  1  0.081949  0.002911  0.498017  1
  Br  Br14  1  0.640556  0.129654  0.616769  1
  Br  Br15  1  0.359444  0.129654  0.116769  1
  Br  Br16  1  0.563091  0.378819  0.872464  1
  Br  Br17  1  0.436909  0.378819  0.372464  1
  Br  Br18  1  0.445448  0.864110  0.865142  1
  Br  Br19  1  0.554552  0.864110  0.365142  1
  Br  Br20  1  0.932748  0.231939  0.230358  1
  Br  Br21  1  0.067252  0.231939  0.730358  1
