# generated using pymatgen
data_Lu2Ga3Tc
_symmetry_space_group_name_H-M   'P 1'
_cell_length_a   5.39506500
_cell_length_b   5.39506618
_cell_length_c   8.80876900
_cell_angle_alpha   90.00000000
_cell_angle_beta   90.00000000
_cell_angle_gamma   119.99998661
_symmetry_Int_Tables_number   1
_chemical_formula_structural   Lu2Ga3Tc
_chemical_formula_sum   'Lu4 Ga6 Tc2'
_cell_volume   222.04416738
_cell_formula_units_Z   2
loop_
 _symmetry_equiv_pos_site_id
 _symmetry_equiv_pos_as_xyz
  1  'x, y, z'
loop_
 _atom_site_type_symbol
 _atom_site_label
 _atom_site_symmetry_multiplicity
 _atom_site_fract_x
 _atom_site_fract_y
 _atom_site_fract_z
 _atom_site_occupancy
  Lu  Lu0  1  0.333333  0.666667  0.451815  1
  Lu  Lu1  1  0.666667  0.333333  0.548185  1
  Lu  Lu2  1  0.666667  0.333333  0.951815  1
  Lu  Lu3  1  0.333333  0.666667  0.048185  1
  Ga  Ga4  1  0.834870  0.165130  0.250000  1
  Ga  Ga5  1  0.834870  0.669740  0.250000  1
  Ga  Ga6  1  0.330260  0.165130  0.250000  1
  Ga  Ga7  1  0.165130  0.834870  0.750000  1
  Ga  Ga8  1  0.165130  0.330260  0.750000  1
  Ga  Ga9  1  0.669740  0.834870  0.750000  1
  Tc  Tc10  1  0.000000  0.000000  0.500000  1
  Tc  Tc11  1  0.000000  0.000000  0.000000  1
