# generated using pymatgen
data_TbY11(TcPd)2
_symmetry_space_group_name_H-M   'P 1'
_cell_length_a   6.42793424
_cell_length_b   7.39948129
_cell_length_c   9.29553300
_cell_angle_alpha   90.00000000
_cell_angle_beta   90.00000000
_cell_angle_gamma   90.09596501
_symmetry_Int_Tables_number   1
_chemical_formula_structural   TbY11(TcPd)2
_chemical_formula_sum   'Tb1 Y11 Tc2 Pd2'
_cell_volume   442.12634034
_cell_formula_units_Z   1
loop_
 _symmetry_equiv_pos_site_id
 _symmetry_equiv_pos_as_xyz
  1  'x, y, z'
loop_
 _atom_site_type_symbol
 _atom_site_label
 _atom_site_symmetry_multiplicity
 _atom_site_fract_x
 _atom_site_fract_y
 _atom_site_fract_z
 _atom_site_occupancy
  Tb  Tb0  1  0.629005  0.040356  0.250000  1
  Y  Y1  1  0.370754  0.960666  0.750000  1
  Y  Y2  1  0.124981  0.468793  0.750000  1
  Y  Y3  1  0.875148  0.531306  0.250000  1
  Y  Y4  1  0.177230  0.185327  0.064481  1
  Y  Y5  1  0.822845  0.814588  0.935346  1
  Y  Y6  1  0.661431  0.326756  0.940313  1
  Y  Y7  1  0.822845  0.814588  0.564654  1
  Y  Y8  1  0.338428  0.673197  0.059829  1
  Y  Y9  1  0.177230  0.185327  0.435519  1
  Y  Y10  1  0.338428  0.673197  0.440171  1
  Y  Y11  1  0.661431  0.326756  0.559687  1
  Tc  Tc12  1  0.466458  0.381126  0.250000  1
  Tc  Tc13  1  0.534327  0.617708  0.750000  1
  Pd  Pd14  1  0.949211  0.113374  0.750000  1
  Pd  Pd15  1  0.050247  0.886933  0.250000  1
