# generated using pymatgen
data_Zr2BSe
_symmetry_space_group_name_H-M   'P 1'
_cell_length_a   3.57639400
_cell_length_b   3.57639395
_cell_length_c   12.77586600
_cell_angle_alpha   90.00000000
_cell_angle_beta   90.00000000
_cell_angle_gamma   120.00000046
_symmetry_Int_Tables_number   1
_chemical_formula_structural   Zr2BSe
_chemical_formula_sum   'Zr4 B2 Se2'
_cell_volume   141.51800148
_cell_formula_units_Z   2
loop_
 _symmetry_equiv_pos_site_id
 _symmetry_equiv_pos_as_xyz
  1  'x, y, z'
loop_
 _atom_site_type_symbol
 _atom_site_label
 _atom_site_symmetry_multiplicity
 _atom_site_fract_x
 _atom_site_fract_y
 _atom_site_fract_z
 _atom_site_occupancy
  Zr  Zr0  1  0.333333  0.666667  0.399587  1
  Zr  Zr1  1  0.666667  0.333333  0.899587  1
  Zr  Zr2  1  0.666667  0.333333  0.600413  1
  Zr  Zr3  1  0.333333  0.666667  0.100413  1
  B  B4  1  0.000000  0.000000  0.500000  1
  B  B5  1  0.000000  0.000000  0.000000  1
  Se  Se6  1  0.666667  0.333333  0.250000  1
  Se  Se7  1  0.333333  0.666667  0.750000  1
