# generated using pymatgen
data_Dy9YIrOs3
_symmetry_space_group_name_H-M   'P 1'
_cell_length_a   6.41736951
_cell_length_b   7.34714744
_cell_length_c   8.45567699
_cell_angle_alpha   96.71532317
_cell_angle_beta   112.53884676
_cell_angle_gamma   90.19696206
_symmetry_Int_Tables_number   1
_chemical_formula_structural   Dy9YIrOs3
_chemical_formula_sum   'Dy9 Y1 Ir1 Os3'
_cell_volume   365.19578340
_cell_formula_units_Z   1
loop_
 _symmetry_equiv_pos_site_id
 _symmetry_equiv_pos_as_xyz
  1  'x, y, z'
loop_
 _atom_site_type_symbol
 _atom_site_label
 _atom_site_symmetry_multiplicity
 _atom_site_fract_x
 _atom_site_fract_y
 _atom_site_fract_z
 _atom_site_occupancy
  Dy  Dy0  1  0.975292  0.416448  0.183316  1
  Dy  Dy1  1  0.208979  0.916423  0.187331  1
  Dy  Dy2  1  0.024762  0.582819  0.818616  1
  Dy  Dy3  1  0.208567  0.184745  0.562426  1
  Dy  Dy4  1  0.646267  0.317686  0.436708  1
  Dy  Dy5  1  0.789330  0.816193  0.434440  1
  Dy  Dy6  1  0.355643  0.680796  0.561760  1
  Dy  Dy7  1  0.424801  0.251458  0.001281  1
  Dy  Dy8  1  0.576559  0.749512  0.000392  1
  Y  Y9  1  0.792011  0.083934  0.818305  1
  Ir  Ir10  1  0.176224  0.922945  0.777283  1
  Os  Os11  1  0.604627  0.425215  0.781551  1
  Os  Os12  1  0.824560  0.075101  0.219126  1
  Os  Os13  1  0.392380  0.576723  0.217466  1
