# generated using pymatgen
data_Sc8Cr9Si16W3
_symmetry_space_group_name_H-M   'P 1'
_cell_length_a   6.46821693
_cell_length_b   6.60522402
_cell_length_c   12.28560700
_cell_angle_alpha   90.00000000
_cell_angle_beta   90.00000000
_cell_angle_gamma   90.08903162
_symmetry_Int_Tables_number   1
_chemical_formula_structural   Sc8Cr9Si16W3
_chemical_formula_sum   'Sc8 Cr9 Si16 W3'
_cell_volume   524.88990772
_cell_formula_units_Z   1
loop_
 _symmetry_equiv_pos_site_id
 _symmetry_equiv_pos_as_xyz
  1  'x, y, z'
loop_
 _atom_site_type_symbol
 _atom_site_label
 _atom_site_symmetry_multiplicity
 _atom_site_fract_x
 _atom_site_fract_y
 _atom_site_fract_z
 _atom_site_occupancy
  Sc  Sc0  1  0.492255  0.668539  0.593930  1
  Sc  Sc1  1  0.994633  0.832739  0.905928  1
  Sc  Sc2  1  0.506724  0.332656  0.092543  1
  Sc  Sc3  1  0.005514  0.169055  0.407162  1
  Sc  Sc4  1  0.506724  0.332656  0.407457  1
  Sc  Sc5  1  0.005514  0.169055  0.092838  1
  Sc  Sc6  1  0.492255  0.668539  0.906070  1
  Sc  Sc7  1  0.994633  0.832739  0.594072  1
  Cr  Cr8  1  0.666029  0.160982  0.624836  1
  Cr  Cr9  1  0.168695  0.336045  0.875126  1
  Cr  Cr10  1  0.332567  0.837042  0.124107  1
  Cr  Cr11  1  0.833839  0.662502  0.377119  1
  Cr  Cr12  1  0.332567  0.837042  0.375893  1
  Cr  Cr13  1  0.833839  0.662502  0.122881  1
  Cr  Cr14  1  0.666029  0.160982  0.875164  1
  Cr  Cr15  1  0.168695  0.336045  0.624874  1
  Cr  Cr16  1  0.830170  0.501455  0.750000  1
  Si  Si17  1  0.665279  0.955164  0.457160  1
  Si  Si18  1  0.164343  0.544221  0.042296  1
  Si  Si19  1  0.335207  0.044651  0.956960  1
  Si  Si20  1  0.835545  0.455669  0.548645  1
  Si  Si21  1  0.335207  0.044651  0.543040  1
  Si  Si22  1  0.835545  0.455669  0.951355  1
  Si  Si23  1  0.665279  0.955164  0.042840  1
  Si  Si24  1  0.164343  0.544221  0.457704  1
  Si  Si25  1  0.469271  0.370258  0.750000  1
  Si  Si26  1  0.956881  0.140842  0.750000  1
  Si  Si27  1  0.540164  0.632506  0.250000  1
  Si  Si28  1  0.038881  0.867631  0.250000  1
  Si  Si29  1  0.700429  0.861834  0.750000  1
  Si  Si30  1  0.189391  0.626555  0.750000  1
  Si  Si31  1  0.302540  0.132584  0.250000  1
  Si  Si32  1  0.802310  0.368192  0.250000  1
  W  W33  1  0.330187  0.999458  0.750000  1
  W  W34  1  0.169284  0.500153  0.250000  1
  W  W35  1  0.669227  0.000003  0.250000  1
