# generated using pymatgen
data_Li3CaLa2Pd3
_symmetry_space_group_name_H-M   'P 1'
_cell_length_a   7.45772900
_cell_length_b   7.45183081
_cell_length_c   4.23119400
_cell_angle_alpha   90.00000000
_cell_angle_beta   90.00000000
_cell_angle_gamma   119.97384442
_symmetry_Int_Tables_number   1
_chemical_formula_structural   Li3CaLa2Pd3
_chemical_formula_sum   'Li3 Ca1 La2 Pd3'
_cell_volume   203.69368101
_cell_formula_units_Z   1
loop_
 _symmetry_equiv_pos_site_id
 _symmetry_equiv_pos_as_xyz
  1  'x, y, z'
loop_
 _atom_site_type_symbol
 _atom_site_label
 _atom_site_symmetry_multiplicity
 _atom_site_fract_x
 _atom_site_fract_y
 _atom_site_fract_z
 _atom_site_occupancy
  Li  Li0  1  0.776301  0.769473  0.000000  1
  Li  Li1  1  0.223699  0.993172  0.000000  1
  Li  Li2  1  0.000000  0.234995  0.000000  1
  Ca  Ca3  1  0.000000  0.588309  0.500000  1
  La  La4  1  0.410327  0.411015  0.500000  1
  La  La5  1  0.589673  0.000688  0.500000  1
  Pd  Pd6  1  0.657405  0.326032  0.000000  1
  Pd  Pd7  1  0.342595  0.668628  0.000000  1
  Pd  Pd8  1  0.000000  0.007689  0.500000  1
