# generated using pymatgen
data_Yb2Ge2Os2C
_symmetry_space_group_name_H-M   'P 1'
_cell_length_a   5.89027034
_cell_length_b   5.89027077
_cell_length_c   7.07098204
_cell_angle_alpha   125.94548351
_cell_angle_beta   125.94548532
_cell_angle_gamma   41.27805317
_symmetry_Int_Tables_number   1
_chemical_formula_structural   Yb2Ge2Os2C
_chemical_formula_sum   'Yb2 Ge2 Os2 C1'
_cell_volume   126.04658065
_cell_formula_units_Z   1
loop_
 _symmetry_equiv_pos_site_id
 _symmetry_equiv_pos_as_xyz
  1  'x, y, z'
loop_
 _atom_site_type_symbol
 _atom_site_label
 _atom_site_symmetry_multiplicity
 _atom_site_fract_x
 _atom_site_fract_y
 _atom_site_fract_z
 _atom_site_occupancy
  Yb  Yb0  1  0.561727  0.561727  0.289832  1
  Yb  Yb1  1  0.438273  0.438273  0.710167  1
  Ge  Ge2  1  0.842790  0.842790  0.302978  1
  Ge  Ge3  1  0.157210  0.157210  0.697023  1
  Os  Os4  1  0.199671  0.199671  0.088414  1
  Os  Os5  1  0.800330  0.800330  0.911587  1
  C  C6  1  0.000000  0.000000  0.000000  1
