# generated using pymatgen
data_Pr9Ho3In20
_symmetry_space_group_name_H-M   'P 1'
_cell_length_a   6.68418838
_cell_length_b   10.56735900
_cell_length_c   12.46999800
_cell_angle_alpha   90.00000000
_cell_angle_beta   89.95162911
_cell_angle_gamma   90.00000000
_symmetry_Int_Tables_number   1
_chemical_formula_structural   Pr9Ho3In20
_chemical_formula_sum   'Pr9 Ho3 In20'
_cell_volume   880.80824650
_cell_formula_units_Z   1
loop_
 _symmetry_equiv_pos_site_id
 _symmetry_equiv_pos_as_xyz
  1  'x, y, z'
loop_
 _atom_site_type_symbol
 _atom_site_label
 _atom_site_symmetry_multiplicity
 _atom_site_fract_x
 _atom_site_fract_y
 _atom_site_fract_z
 _atom_site_occupancy
  Pr  Pr0  1  0.349933  0.750000  0.059812  1
  Pr  Pr1  1  0.887866  0.490323  0.143658  1
  Pr  Pr2  1  0.612414  0.011471  0.643024  1
  Pr  Pr3  1  0.110138  0.991179  0.855571  1
  Pr  Pr4  1  0.389426  0.509406  0.356413  1
  Pr  Pr5  1  0.110138  0.508821  0.855571  1
  Pr  Pr6  1  0.389426  0.990594  0.356413  1
  Pr  Pr7  1  0.887866  0.009677  0.143658  1
  Pr  Pr8  1  0.612414  0.488529  0.643024  1
  Ho  Ho9  1  0.150552  0.750000  0.558675  1
  Ho  Ho10  1  0.649265  0.250000  0.940186  1
  Ho  Ho11  1  0.850110  0.250000  0.440932  1
  In  In12  1  0.617457  0.750000  0.505663  1
  In  In13  1  0.875387  0.750000  0.001988  1
  In  In14  1  0.384014  0.250000  0.496405  1
  In  In15  1  0.113510  0.250000  0.996249  1
  In  In16  1  0.660438  0.750000  0.246659  1
  In  In17  1  0.846839  0.750000  0.742782  1
  In  In18  1  0.346850  0.250000  0.755605  1
  In  In19  1  0.153187  0.250000  0.256371  1
  In  In20  1  0.110812  0.750000  0.288156  1
  In  In21  1  0.389842  0.750000  0.781576  1
  In  In22  1  0.890572  0.250000  0.716154  1
  In  In23  1  0.612103  0.250000  0.217010  1
  In  In24  1  0.874552  0.544632  0.404997  1
  In  In25  1  0.624742  0.956661  0.902578  1
  In  In26  1  0.126575  0.044886  0.595600  1
  In  In27  1  0.373851  0.450567  0.096044  1
  In  In28  1  0.126575  0.455114  0.595600  1
  In  In29  1  0.373851  0.049433  0.096044  1
  In  In30  1  0.874552  0.955368  0.404997  1
  In  In31  1  0.624742  0.543339  0.902578  1
