# generated using pymatgen
data_Pr5TcWO12
_symmetry_space_group_name_H-M   'P 1'
_cell_length_a   7.13673296
_cell_length_b   7.13673295
_cell_length_c   7.84681363
_cell_angle_alpha   74.00092865
_cell_angle_beta   74.00092580
_cell_angle_gamma   49.67108274
_symmetry_Int_Tables_number   1
_chemical_formula_structural   Pr5TcWO12
_chemical_formula_sum   'Pr5 Tc1 W1 O12'
_cell_volume   290.28699214
_cell_formula_units_Z   1
loop_
 _symmetry_equiv_pos_site_id
 _symmetry_equiv_pos_as_xyz
  1  'x, y, z'
loop_
 _atom_site_type_symbol
 _atom_site_label
 _atom_site_symmetry_multiplicity
 _atom_site_fract_x
 _atom_site_fract_y
 _atom_site_fract_z
 _atom_site_occupancy
  Pr  Pr0  1  0.316989  0.295980  0.357889  1
  Pr  Pr1  1  0.704020  0.683011  0.642111  1
  Pr  Pr2  1  0.693347  0.685807  0.169606  1
  Pr  Pr3  1  0.314193  0.306653  0.830394  1
  Pr  Pr4  1  0.006226  0.993774  0.500000  1
  Tc  Tc5  1  0.763578  0.236422  0.000000  1
  W  W6  1  0.216439  0.783561  0.000000  1
  O  O7  1  0.103229  0.589623  0.575197  1
  O  O8  1  0.996205  0.003083  0.192663  1
  O  O9  1  0.410377  0.896771  0.424803  1
  O  O10  1  0.489674  0.510554  0.169461  1
  O  O11  1  0.095854  0.592722  0.078236  1
  O  O12  1  0.912017  0.402453  0.420371  1
  O  O13  1  0.996917  0.003795  0.807337  1
  O  O14  1  0.597547  0.087982  0.579629  1
  O  O15  1  0.489446  0.510326  0.830539  1
  O  O16  1  0.579967  0.093304  0.080289  1
  O  O17  1  0.407278  0.904146  0.921764  1
  O  O18  1  0.906696  0.420033  0.919711  1
