# generated using pymatgen
data_Nb6ReSi6Ru5
_symmetry_space_group_name_H-M   'P 1'
_cell_length_a   7.48145574
_cell_length_b   7.47299583
_cell_length_c   7.48761081
_cell_angle_alpha   128.16942154
_cell_angle_beta   121.61618154
_cell_angle_gamma   81.87510587
_symmetry_Int_Tables_number   1
_chemical_formula_structural   Nb6ReSi6Ru5
_chemical_formula_sum   'Nb6 Re1 Si6 Ru5'
_cell_volume   269.63901168
_cell_formula_units_Z   1
loop_
 _symmetry_equiv_pos_site_id
 _symmetry_equiv_pos_as_xyz
  1  'x, y, z'
loop_
 _atom_site_type_symbol
 _atom_site_label
 _atom_site_symmetry_multiplicity
 _atom_site_fract_x
 _atom_site_fract_y
 _atom_site_fract_z
 _atom_site_occupancy
  Nb  Nb0  1  0.550789  0.096198  0.043605  1
  Nb  Nb1  1  0.446420  0.489986  0.538900  1
  Nb  Nb2  1  0.974061  0.497041  0.030830  1
  Nb  Nb3  1  0.032516  0.067480  0.535731  1
  Nb  Nb4  1  0.743861  0.913605  0.657529  1
  Nb  Nb5  1  0.251753  0.910351  0.169649  1
  Re  Re6  1  0.406495  0.495384  0.149408  1
  Si  Si7  1  0.781960  0.528956  0.250605  1
  Si  Si8  1  0.222390  0.473236  0.744838  1
  Si  Si9  1  0.333835  0.832523  0.503772  1
  Si  Si10  1  0.665356  0.164864  0.494202  1
  Si  Si11  1  0.830945  0.829176  0.993044  1
  Si  Si12  1  0.166491  0.157671  0.998496  1
  Ru  Ru13  1  0.504619  0.250180  0.751926  1
  Ru  Ru14  1  0.998974  0.248151  0.250486  1
  Ru  Ru15  1  0.154979  0.745325  0.654137  1
  Ru  Ru16  1  0.837653  0.496474  0.583415  1
  Ru  Ru17  1  0.596905  0.745597  0.091628  1
