# generated using pymatgen
data_Lu4Ga3Co4Ge
_symmetry_space_group_name_H-M   'P 1'
_cell_length_a   4.30941700
_cell_length_b   6.84266513
_cell_length_c   6.89105128
_cell_angle_alpha   89.75892382
_cell_angle_beta   90.00000000
_cell_angle_gamma   90.00000000
_symmetry_Int_Tables_number   1
_chemical_formula_structural   Lu4Ga3Co4Ge
_chemical_formula_sum   'Lu4 Ga3 Co4 Ge1'
_cell_volume   203.20081478
_cell_formula_units_Z   1
loop_
 _symmetry_equiv_pos_site_id
 _symmetry_equiv_pos_as_xyz
  1  'x, y, z'
loop_
 _atom_site_type_symbol
 _atom_site_label
 _atom_site_symmetry_multiplicity
 _atom_site_fract_x
 _atom_site_fract_y
 _atom_site_fract_z
 _atom_site_occupancy
  Lu  Lu0  1  0.250000  0.018616  0.804696  1
  Lu  Lu1  1  0.250000  0.518153  0.693476  1
  Lu  Lu2  1  0.750000  0.983081  0.197315  1
  Lu  Lu3  1  0.750000  0.481528  0.304448  1
  Ga  Ga4  1  0.250000  0.199564  0.396803  1
  Ga  Ga5  1  0.250000  0.697927  0.104339  1
  Ga  Ga6  1  0.750000  0.804264  0.603570  1
  Co  Co7  1  0.250000  0.842481  0.435139  1
  Co  Co8  1  0.250000  0.341708  0.061141  1
  Co  Co9  1  0.750000  0.163172  0.568770  1
  Co  Co10  1  0.750000  0.650005  0.934595  1
  Ge  Ge11  1  0.750000  0.299502  0.895709  1
