# generated using pymatgen
data_PrBe2Rh3
_symmetry_space_group_name_H-M   'P 1'
_cell_length_a   5.64379700
_cell_length_b   5.64379712
_cell_length_c   3.23838300
_cell_angle_alpha   90.00000000
_cell_angle_beta   90.00000000
_cell_angle_gamma   119.99999345
_symmetry_Int_Tables_number   1
_chemical_formula_structural   PrBe2Rh3
_chemical_formula_sum   'Pr1 Be2 Rh3'
_cell_volume   89.33088758
_cell_formula_units_Z   1
loop_
 _symmetry_equiv_pos_site_id
 _symmetry_equiv_pos_as_xyz
  1  'x, y, z'
loop_
 _atom_site_type_symbol
 _atom_site_label
 _atom_site_symmetry_multiplicity
 _atom_site_fract_x
 _atom_site_fract_y
 _atom_site_fract_z
 _atom_site_occupancy
  Pr  Pr0  1  0.000000  0.000000  0.000000  1
  Be  Be1  1  0.333333  0.666667  0.000000  1
  Be  Be2  1  0.666667  0.333333  0.000000  1
  Rh  Rh3  1  0.500000  0.000000  0.500000  1
  Rh  Rh4  1  0.500000  0.500000  0.500000  1
  Rh  Rh5  1  0.000000  0.500000  0.500000  1
