# generated using pymatgen
data_Dy2Ho14Cd4Os3Pt
_symmetry_space_group_name_H-M   'P 1'
_cell_length_a   9.58133825
_cell_length_b   9.66746785
_cell_length_c   9.70018500
_cell_angle_alpha   59.88798312
_cell_angle_beta   59.58882077
_cell_angle_gamma   59.43023246
_symmetry_Int_Tables_number   1
_chemical_formula_structural   Dy2Ho14Cd4Os3Pt
_chemical_formula_sum   'Dy2 Ho14 Cd4 Os3 Pt1'
_cell_volume   630.05585981
_cell_formula_units_Z   1
loop_
 _symmetry_equiv_pos_site_id
 _symmetry_equiv_pos_as_xyz
  1  'x, y, z'
loop_
 _atom_site_type_symbol
 _atom_site_label
 _atom_site_symmetry_multiplicity
 _atom_site_fract_x
 _atom_site_fract_y
 _atom_site_fract_z
 _atom_site_occupancy
  Dy  Dy0  1  0.552326  0.567360  0.940157  1
  Dy  Dy1  1  0.936970  0.939792  0.561618  1
  Ho  Ho2  1  0.347779  0.350819  0.349123  1
  Ho  Ho3  1  0.347779  0.350819  0.952280  1
  Ho  Ho4  1  0.348014  0.954451  0.348768  1
  Ho  Ho5  1  0.968249  0.344631  0.343561  1
  Ho  Ho6  1  0.813360  0.189581  0.191528  1
  Ho  Ho7  1  0.184728  0.810683  0.811155  1
  Ho  Ho8  1  0.184728  0.810683  0.193434  1
  Ho  Ho9  1  0.813360  0.189581  0.805531  1
  Ho  Ho10  1  0.186497  0.190922  0.811290  1
  Ho  Ho11  1  0.813024  0.804208  0.191384  1
  Ho  Ho12  1  0.937572  0.559748  0.561623  1
  Ho  Ho13  1  0.552404  0.940618  0.940080  1
  Ho  Ho14  1  0.552404  0.940618  0.566898  1
  Ho  Ho15  1  0.937572  0.559747  0.941056  1
  Cd  Cd16  1  0.581201  0.579280  0.580040  1
  Cd  Cd17  1  0.581201  0.579280  0.259480  1
  Cd  Cd18  1  0.580634  0.258288  0.580539  1
  Cd  Cd19  1  0.255067  0.581105  0.581914  1
  Os  Os20  1  0.148869  0.138154  0.134633  1
  Os  Os21  1  0.148869  0.138154  0.578344  1
  Os  Os22  1  0.149247  0.579244  0.135755  1
  Pt  Pt23  1  0.578150  0.142234  0.139808  1
