# generated using pymatgen
data_Lu10Hg3Ir
_symmetry_space_group_name_H-M   'P 1'
_cell_length_a   9.44512507
_cell_length_b   9.44541166
_cell_length_c   9.41866100
_cell_angle_alpha   90.00000000
_cell_angle_beta   90.00000000
_cell_angle_gamma   119.99478663
_symmetry_Int_Tables_number   1
_chemical_formula_structural   Lu10Hg3Ir
_chemical_formula_sum   'Lu20 Hg6 Ir2'
_cell_volume   727.73156703
_cell_formula_units_Z   2
loop_
 _symmetry_equiv_pos_site_id
 _symmetry_equiv_pos_as_xyz
  1  'x, y, z'
loop_
 _atom_site_type_symbol
 _atom_site_label
 _atom_site_symmetry_multiplicity
 _atom_site_fract_x
 _atom_site_fract_y
 _atom_site_fract_z
 _atom_site_occupancy
  Lu  Lu0  1  0.000000  0.000000  0.500000  1
  Lu  Lu1  1  0.000000  0.000000  0.000000  1
  Lu  Lu2  1  0.208474  0.791429  0.440527  1
  Lu  Lu3  1  0.208538  0.417079  0.440366  1
  Lu  Lu4  1  0.582891  0.791405  0.440481  1
  Lu  Lu5  1  0.791526  0.208571  0.559473  1
  Lu  Lu6  1  0.791462  0.582921  0.559634  1
  Lu  Lu7  1  0.417109  0.208595  0.559519  1
  Lu  Lu8  1  0.791526  0.208571  0.940527  1
  Lu  Lu9  1  0.791462  0.582921  0.940366  1
  Lu  Lu10  1  0.417109  0.208595  0.940481  1
  Lu  Lu11  1  0.208474  0.791429  0.059473  1
  Lu  Lu12  1  0.208538  0.417079  0.059634  1
  Lu  Lu13  1  0.582891  0.791405  0.059519  1
  Lu  Lu14  1  0.540836  0.459036  0.250000  1
  Lu  Lu15  1  0.541062  0.082022  0.250000  1
  Lu  Lu16  1  0.918149  0.458982  0.250000  1
  Lu  Lu17  1  0.459164  0.540964  0.750000  1
  Lu  Lu18  1  0.458938  0.917978  0.750000  1
  Lu  Lu19  1  0.081851  0.541018  0.750000  1
  Hg  Hg20  1  0.881050  0.118248  0.250000  1
  Hg  Hg21  1  0.880874  0.762218  0.250000  1
  Hg  Hg22  1  0.237886  0.118621  0.250000  1
  Hg  Hg23  1  0.118950  0.881752  0.750000  1
  Hg  Hg24  1  0.119126  0.237782  0.750000  1
  Hg  Hg25  1  0.762114  0.881379  0.750000  1
  Ir  Ir26  1  0.333467  0.667126  0.250000  1
  Ir  Ir27  1  0.666533  0.332874  0.750000  1
