# generated using pymatgen
data_CaCe2(TaN3)2
_symmetry_space_group_name_H-M   'P 1'
_cell_length_a   4.01795570
_cell_length_b   4.01795566
_cell_length_c   10.27275277
_cell_angle_alpha   101.27765494
_cell_angle_beta   101.27765228
_cell_angle_gamma   89.99999749
_symmetry_Int_Tables_number   1
_chemical_formula_structural   CaCe2(TaN3)2
_chemical_formula_sum   'Ca1 Ce2 Ta2 N6'
_cell_volume   159.37413914
_cell_formula_units_Z   1
loop_
 _symmetry_equiv_pos_site_id
 _symmetry_equiv_pos_as_xyz
  1  'x, y, z'
loop_
 _atom_site_type_symbol
 _atom_site_label
 _atom_site_symmetry_multiplicity
 _atom_site_fract_x
 _atom_site_fract_y
 _atom_site_fract_z
 _atom_site_occupancy
  Ca  Ca0  1  0.184129  0.184129  0.368257  1
  Ce  Ce1  1  0.002367  0.002367  0.004733  1
  Ce  Ce2  1  0.816890  0.816890  0.633780  1
  Ta  Ta3  1  0.601555  0.601555  0.203110  1
  Ta  Ta4  1  0.399918  0.399918  0.799837  1
  N  N5  1  0.577866  0.077866  0.155731  1
  N  N6  1  0.077866  0.577866  0.155731  1
  N  N7  1  0.699336  0.699336  0.398672  1
  N  N8  1  0.301970  0.301970  0.603941  1
  N  N9  1  0.919052  0.419052  0.838104  1
  N  N10  1  0.419052  0.919052  0.838104  1
