# generated using pymatgen
data_NdErTm2(Ir2O7)2
_symmetry_space_group_name_H-M   'P 1'
_cell_length_a   7.28144813
_cell_length_b   7.21094922
_cell_length_c   7.21367321
_cell_angle_alpha   60.01249269
_cell_angle_beta   60.32748965
_cell_angle_gamma   60.31977622
_symmetry_Int_Tables_number   1
_chemical_formula_structural   NdErTm2(Ir2O7)2
_chemical_formula_sum   'Nd1 Er1 Tm2 Ir4 O14'
_cell_volume   269.15363813
_cell_formula_units_Z   1
loop_
 _symmetry_equiv_pos_site_id
 _symmetry_equiv_pos_as_xyz
  1  'x, y, z'
loop_
 _atom_site_type_symbol
 _atom_site_label
 _atom_site_symmetry_multiplicity
 _atom_site_fract_x
 _atom_site_fract_y
 _atom_site_fract_z
 _atom_site_occupancy
  Nd  Nd0  1  0.625000  0.125000  0.125000  1
  Er  Er1  1  0.125000  0.125000  0.625000  1
  Tm  Tm2  1  0.125000  0.625000  0.125000  1
  Tm  Tm3  1  0.125000  0.125000  0.125000  1
  Ir  Ir4  1  0.125000  0.625000  0.625000  1
  Ir  Ir5  1  0.625000  0.125000  0.625000  1
  Ir  Ir6  1  0.625000  0.625000  0.125000  1
  Ir  Ir7  1  0.625000  0.625000  0.625000  1
  O  O8  1  0.724220  0.701106  0.287225  1
  O  O9  1  0.286869  0.287955  0.713428  1
  O  O10  1  0.723157  0.287493  0.701856  1
  O  O11  1  0.286787  0.712738  0.287736  1
  O  O12  1  0.286869  0.711747  0.713428  1
  O  O13  1  0.724220  0.287449  0.287225  1
  O  O14  1  0.525780  0.548894  0.962775  1
  O  O15  1  0.963131  0.962045  0.536572  1
  O  O16  1  0.526843  0.962507  0.548144  1
  O  O17  1  0.963213  0.537262  0.962264  1
  O  O18  1  0.963131  0.538253  0.536572  1
  O  O19  1  0.525780  0.962551  0.962775  1
  O  O20  1  0.237560  0.254882  0.252675  1
  O  O21  1  0.012440  0.995118  0.997325  1
