# generated using pymatgen
data_NaV(SeO3)2
_symmetry_space_group_name_H-M   'P 1'
_cell_length_a   5.51282900
_cell_length_b   8.34410004
_cell_length_c   13.21201200
_cell_angle_alpha   89.99419084
_cell_angle_beta   90.00047809
_cell_angle_gamma   89.99967045
_symmetry_Int_Tables_number   1
_chemical_formula_structural   NaV(SeO3)2
_chemical_formula_sum   'Na4 V4 Se8 O24'
_cell_volume   607.74722041
_cell_formula_units_Z   4
loop_
 _symmetry_equiv_pos_site_id
 _symmetry_equiv_pos_as_xyz
  1  'x, y, z'
loop_
 _atom_site_type_symbol
 _atom_site_label
 _atom_site_symmetry_multiplicity
 _atom_site_fract_x
 _atom_site_fract_y
 _atom_site_fract_z
 _atom_site_occupancy
  Na  Na0  1  0.249984  0.516371  0.890013  1
  Na  Na1  1  0.250011  0.983648  0.390047  1
  Na  Na2  1  0.750012  0.483658  0.109964  1
  Na  Na3  1  0.749997  0.016352  0.609943  1
  V  V4  1  0.250016  0.810908  0.107882  1
  V  V5  1  0.749993  0.310934  0.392130  1
  V  V6  1  0.249992  0.689147  0.607918  1
  V  V7  1  0.750023  0.188956  0.892075  1
  Se  Se8  1  0.750006  0.016659  0.207919  1
  Se  Se9  1  0.249986  0.983329  0.792070  1
  Se  Se10  1  0.249995  0.516642  0.292037  1
  Se  Se11  1  0.750002  0.788173  0.940251  1
  Se  Se12  1  0.750001  0.711831  0.440221  1
  Se  Se13  1  0.249985  0.211794  0.059759  1
  Se  Se14  1  0.749998  0.483328  0.707955  1
  Se  Se15  1  0.250005  0.288196  0.559760  1
  O  O16  1  0.500567  0.609759  0.716057  1
  O  O17  1  0.000531  0.390261  0.283952  1
  O  O18  1  0.249994  0.010823  0.025657  1
  O  O19  1  0.491444  0.209385  0.491781  1
  O  O20  1  0.249992  0.583331  0.167055  1
  O  O21  1  0.008567  0.209387  0.491778  1
  O  O22  1  0.999400  0.890254  0.216082  1
  O  O23  1  0.250010  0.489170  0.525650  1
  O  O24  1  0.999447  0.609752  0.716056  1
  O  O25  1  0.508550  0.790626  0.508223  1
  O  O26  1  0.750009  0.510844  0.474341  1
  O  O27  1  0.991478  0.709385  0.008208  1
  O  O28  1  0.000600  0.109744  0.783947  1
  O  O29  1  0.250013  0.916708  0.667083  1
  O  O30  1  0.500601  0.890258  0.216088  1
  O  O31  1  0.499461  0.390269  0.283956  1
  O  O32  1  0.991446  0.790626  0.508228  1
  O  O33  1  0.499387  0.109743  0.783941  1
  O  O34  1  0.508531  0.709387  0.008215  1
  O  O35  1  0.749997  0.989170  0.974373  1
  O  O36  1  0.008518  0.290635  0.991782  1
  O  O37  1  0.491457  0.290635  0.991773  1
  O  O38  1  0.750010  0.416705  0.832931  1
  O  O39  1  0.749979  0.083218  0.332906  1
