# generated using pymatgen
data_MnNb12Co12Os
_symmetry_space_group_name_H-M   'P 1'
_cell_length_a   4.92254097
_cell_length_b   4.92250187
_cell_length_c   17.82970600
_cell_angle_alpha   97.87893042
_cell_angle_beta   97.87985448
_cell_angle_gamma   60.05762846
_symmetry_Int_Tables_number   1
_chemical_formula_structural   MnNb12Co12Os
_chemical_formula_sum   'Mn1 Nb12 Co12 Os1'
_cell_volume   369.64784829
_cell_formula_units_Z   1
loop_
 _symmetry_equiv_pos_site_id
 _symmetry_equiv_pos_as_xyz
  1  'x, y, z'
loop_
 _atom_site_type_symbol
 _atom_site_label
 _atom_site_symmetry_multiplicity
 _atom_site_fract_x
 _atom_site_fract_y
 _atom_site_fract_z
 _atom_site_occupancy
  Mn  Mn0  1  0.000000  0.000000  0.000000  1
  Nb  Nb1  1  0.416291  0.416309  0.250189  1
  Nb  Nb2  1  0.917954  0.917962  0.753814  1
  Nb  Nb3  1  0.082046  0.082038  0.246186  1
  Nb  Nb4  1  0.583709  0.583691  0.749811  1
  Nb  Nb5  1  0.774500  0.774479  0.323916  1
  Nb  Nb6  1  0.275806  0.275800  0.827767  1
  Nb  Nb7  1  0.724194  0.724200  0.172233  1
  Nb  Nb8  1  0.225500  0.225521  0.676084  1
  Nb  Nb9  1  0.826903  0.826844  0.481448  1
  Nb  Nb10  1  0.327420  0.327459  0.982046  1
  Nb  Nb11  1  0.672580  0.672541  0.017954  1
  Nb  Nb12  1  0.173097  0.173156  0.518552  1
  Co  Co13  1  0.703984  0.204420  0.112347  1
  Co  Co14  1  0.202521  0.707602  0.616719  1
  Co  Co15  1  0.204151  0.204163  0.112580  1
  Co  Co16  1  0.706950  0.707004  0.616982  1
  Co  Co17  1  0.204403  0.703988  0.112343  1
  Co  Co18  1  0.707593  0.202525  0.616716  1
  Co  Co19  1  0.797479  0.292398  0.383281  1
  Co  Co20  1  0.296016  0.795580  0.887653  1
  Co  Co21  1  0.293050  0.292996  0.383018  1
  Co  Co22  1  0.795849  0.795837  0.887420  1
  Co  Co23  1  0.292407  0.797475  0.383284  1
  Co  Co24  1  0.795597  0.296012  0.887657  1
  Os  Os25  1  0.500000  0.500000  0.500000  1
