# generated using pymatgen
data_Ho2Si7IrRh11
_symmetry_space_group_name_H-M   'P 1'
_cell_length_a   9.74878614
_cell_length_b   9.75353465
_cell_length_c   3.85779701
_cell_angle_alpha   89.99499965
_cell_angle_beta   90.00721751
_cell_angle_gamma   119.96573594
_symmetry_Int_Tables_number   1
_chemical_formula_structural   Ho2Si7IrRh11
_chemical_formula_sum   'Ho2 Si7 Ir1 Rh11'
_cell_volume   317.78428656
_cell_formula_units_Z   1
loop_
 _symmetry_equiv_pos_site_id
 _symmetry_equiv_pos_as_xyz
  1  'x, y, z'
loop_
 _atom_site_type_symbol
 _atom_site_label
 _atom_site_symmetry_multiplicity
 _atom_site_fract_x
 _atom_site_fract_y
 _atom_site_fract_z
 _atom_site_occupancy
  Ho  Ho0  1  0.333462  0.666474  0.749521  1
  Ho  Ho1  1  0.666193  0.332856  0.250360  1
  Si  Si2  1  0.999807  0.000004  0.499667  1
  Si  Si3  1  0.401506  0.290279  0.751491  1
  Si  Si4  1  0.710646  0.111746  0.751176  1
  Si  Si5  1  0.888731  0.598889  0.751249  1
  Si  Si6  1  0.599326  0.709942  0.248736  1
  Si  Si7  1  0.290021  0.888988  0.248765  1
  Si  Si8  1  0.110833  0.400735  0.248883  1
  Ir  Ir9  1  0.443978  0.063359  0.751489  1
  Rh  Rh10  1  0.936585  0.380861  0.751601  1
  Rh  Rh11  1  0.619504  0.556065  0.751534  1
  Rh  Rh12  1  0.555610  0.935579  0.248558  1
  Rh  Rh13  1  0.064151  0.619637  0.248366  1
  Rh  Rh14  1  0.380572  0.444457  0.248502  1
  Rh  Rh15  1  0.143142  0.261996  0.745175  1
  Rh  Rh16  1  0.737448  0.881275  0.745208  1
  Rh  Rh17  1  0.118172  0.856841  0.744877  1
  Rh  Rh18  1  0.856917  0.737789  0.255117  1
  Rh  Rh19  1  0.262084  0.118829  0.255170  1
  Rh  Rh20  1  0.881314  0.143399  0.254555  1
