# generated using pymatgen
data_K(PuB8)3
_symmetry_space_group_name_H-M   'P 1'
_cell_length_a   7.14507162
_cell_length_b   7.14507214
_cell_length_c   5.86654900
_cell_angle_alpha   90.00000000
_cell_angle_beta   90.00000000
_cell_angle_gamma   109.27416173
_symmetry_Int_Tables_number   1
_chemical_formula_structural   K(PuB8)3
_chemical_formula_sum   'K1 Pu3 B24'
_cell_volume   282.71239774
_cell_formula_units_Z   1
loop_
 _symmetry_equiv_pos_site_id
 _symmetry_equiv_pos_as_xyz
  1  'x, y, z'
loop_
 _atom_site_type_symbol
 _atom_site_label
 _atom_site_symmetry_multiplicity
 _atom_site_fract_x
 _atom_site_fract_y
 _atom_site_fract_z
 _atom_site_occupancy
  K  K0  1  0.000000  0.000000  0.000000  1
  Pu  Pu1  1  0.750882  0.249118  0.500000  1
  Pu  Pu2  1  0.500000  0.500000  0.000000  1
  Pu  Pu3  1  0.249118  0.750882  0.500000  1
  B  B4  1  0.175990  0.326413  0.649721  1
  B  B5  1  0.923639  0.574402  0.149349  1
  B  B6  1  0.673587  0.824010  0.649721  1
  B  B7  1  0.425598  0.076361  0.149349  1
  B  B8  1  0.175990  0.326413  0.350279  1
  B  B9  1  0.923639  0.574402  0.850651  1
  B  B10  1  0.673587  0.824010  0.350279  1
  B  B11  1  0.425598  0.076361  0.850651  1
  B  B12  1  0.400917  0.400917  0.500000  1
  B  B13  1  0.148977  0.651210  0.000000  1
  B  B14  1  0.899110  0.899110  0.500000  1
  B  B15  1  0.651210  0.148977  0.000000  1
  B  B16  1  0.326413  0.175990  0.649721  1
  B  B17  1  0.076361  0.425598  0.149349  1
  B  B18  1  0.824010  0.673587  0.649721  1
  B  B19  1  0.574402  0.923639  0.149349  1
  B  B20  1  0.100890  0.100890  0.500000  1
  B  B21  1  0.851023  0.348790  0.000000  1
  B  B22  1  0.599083  0.599083  0.500000  1
  B  B23  1  0.348790  0.851023  0.000000  1
  B  B24  1  0.326413  0.175990  0.350279  1
  B  B25  1  0.076361  0.425598  0.850651  1
  B  B26  1  0.824010  0.673587  0.350279  1
  B  B27  1  0.574402  0.923639  0.850651  1
