# generated using pymatgen
data_Ti8Ga15PtRh6
_symmetry_space_group_name_H-M   'P 1'
_cell_length_a   8.69528323
_cell_length_b   8.67489899
_cell_length_c   8.69138744
_cell_angle_alpha   120.24394499
_cell_angle_beta   119.79094612
_cell_angle_gamma   89.93193965
_symmetry_Int_Tables_number   1
_chemical_formula_structural   Ti8Ga15PtRh6
_chemical_formula_sum   'Ti8 Ga15 Pt1 Rh6'
_cell_volume   463.60061168
_cell_formula_units_Z   1
loop_
 _symmetry_equiv_pos_site_id
 _symmetry_equiv_pos_as_xyz
  1  'x, y, z'
loop_
 _atom_site_type_symbol
 _atom_site_label
 _atom_site_symmetry_multiplicity
 _atom_site_fract_x
 _atom_site_fract_y
 _atom_site_fract_z
 _atom_site_occupancy
  Ti  Ti0  1  0.791638  0.286500  0.068570  1
  Ti  Ti1  1  0.218412  0.286130  0.494588  1
  Ti  Ti2  1  0.206586  0.706768  0.500222  1
  Ti  Ti3  1  0.217506  0.723249  0.930705  1
  Ti  Ti4  1  0.791613  0.722903  0.505544  1
  Ti  Ti5  1  0.777440  0.278631  0.499479  1
  Ti  Ti6  1  0.382328  0.125345  0.749136  1
  Ti  Ti7  1  0.377935  0.631676  0.254416  1
  Ga  Ga8  1  0.993326  0.492953  0.499747  1
  Ga  Ga9  1  0.151828  0.351507  0.200146  1
  Ga  Ga10  1  0.153310  0.952022  0.803330  1
  Ga  Ga11  1  0.150875  0.356700  0.798667  1
  Ga  Ga12  1  0.557523  0.353605  0.204173  1
  Ga  Ga13  1  0.850111  0.648050  0.797544  1
  Ga  Ga14  1  0.848841  0.053172  0.199157  1
  Ga  Ga15  1  0.847067  0.646013  0.196294  1
  Ga  Ga16  1  0.450223  0.649199  0.800320  1
  Ga  Ga17  1  0.376764  0.124611  0.252947  1
  Ga  Ga18  1  0.869963  0.125253  0.749737  1
  Ga  Ga19  1  0.616639  0.869734  0.248781  1
  Ga  Ga20  1  0.619431  0.368900  0.748829  1
  Ga  Ga21  1  0.613611  0.875157  0.738168  1
  Ga  Ga22  1  0.138378  0.874282  0.259024  1
  Pt  Pt23  1  0.002533  0.001831  0.502690  1
  Rh  Rh24  1  0.499116  0.001656  0.000163  1
  Rh  Rh25  1  0.496653  0.496867  0.000386  1
  Rh  Rh26  1  0.498846  0.499060  0.497014  1
  Rh  Rh27  1  0.002092  0.498994  0.000256  1
  Rh  Rh28  1  0.999275  0.999260  0.999940  1
  Rh  Rh29  1  0.500133  0.999967  0.500028  1
