# generated using pymatgen
data_Nd2ZnGa3Pt4
_symmetry_space_group_name_H-M   'P 1'
_cell_length_a   4.18843690
_cell_length_b   4.18771600
_cell_length_c   11.00133805
_cell_angle_alpha   90.00000000
_cell_angle_beta   89.98274250
_cell_angle_gamma   90.00000000
_symmetry_Int_Tables_number   1
_chemical_formula_structural   Nd2ZnGa3Pt4
_chemical_formula_sum   'Nd2 Zn1 Ga3 Pt4'
_cell_volume   192.96328726
_cell_formula_units_Z   1
loop_
 _symmetry_equiv_pos_site_id
 _symmetry_equiv_pos_as_xyz
  1  'x, y, z'
loop_
 _atom_site_type_symbol
 _atom_site_label
 _atom_site_symmetry_multiplicity
 _atom_site_fract_x
 _atom_site_fract_y
 _atom_site_fract_z
 _atom_site_occupancy
  Nd  Nd0  1  0.254465  0.000000  0.744552  1
  Nd  Nd1  1  0.754415  0.500000  0.255454  1
  Zn  Zn2  1  0.753295  0.000000  0.499972  1
  Ga  Ga3  1  0.254119  0.000000  0.131804  1
  Ga  Ga4  1  0.755343  0.500000  0.868186  1
  Ga  Ga5  1  0.254455  0.500000  0.500042  1
  Pt  Pt6  1  0.253933  0.000000  0.358988  1
  Pt  Pt7  1  0.754147  0.500000  0.641026  1
  Pt  Pt8  1  0.254654  0.500000  0.999983  1
  Pt  Pt9  1  0.755173  0.000000  0.999994  1
