# generated using pymatgen
data_Dy2Si7Ir12
_symmetry_space_group_name_H-M   'P 1'
_cell_length_a   9.76104200
_cell_length_b   9.76104221
_cell_length_c   3.88057900
_cell_angle_alpha   90.00000000
_cell_angle_beta   90.00000000
_cell_angle_gamma   120.00000608
_symmetry_Int_Tables_number   1
_chemical_formula_structural   Dy2Si7Ir12
_chemical_formula_sum   'Dy2 Si7 Ir12'
_cell_volume   320.19865722
_cell_formula_units_Z   1
loop_
 _symmetry_equiv_pos_site_id
 _symmetry_equiv_pos_as_xyz
  1  'x, y, z'
loop_
 _atom_site_type_symbol
 _atom_site_label
 _atom_site_symmetry_multiplicity
 _atom_site_fract_x
 _atom_site_fract_y
 _atom_site_fract_z
 _atom_site_occupancy
  Dy  Dy0  1  0.333333  0.666667  0.749708  1
  Dy  Dy1  1  0.666667  0.333333  0.250292  1
  Si  Si2  1  0.000000  0.000000  0.500000  1
  Si  Si3  1  0.404985  0.290372  0.751729  1
  Si  Si4  1  0.709628  0.114615  0.751729  1
  Si  Si5  1  0.885385  0.595015  0.751729  1
  Si  Si6  1  0.595015  0.709628  0.248271  1
  Si  Si7  1  0.290372  0.885385  0.248271  1
  Si  Si8  1  0.114615  0.404985  0.248271  1
  Ir  Ir9  1  0.443965  0.063131  0.751048  1
  Ir  Ir10  1  0.936869  0.380834  0.751048  1
  Ir  Ir11  1  0.619166  0.556035  0.751048  1
  Ir  Ir12  1  0.556035  0.936869  0.248952  1
  Ir  Ir13  1  0.063131  0.619166  0.248952  1
  Ir  Ir14  1  0.380834  0.443965  0.248952  1
  Ir  Ir15  1  0.144672  0.262103  0.746293  1
  Ir  Ir16  1  0.737897  0.882569  0.746293  1
  Ir  Ir17  1  0.117431  0.855328  0.746293  1
  Ir  Ir18  1  0.855328  0.737897  0.253707  1
  Ir  Ir19  1  0.262103  0.117431  0.253707  1
  Ir  Ir20  1  0.882569  0.144672  0.253707  1
