# generated using pymatgen
data_Nb12Si3Pt5N4
_symmetry_space_group_name_H-M   'P 1'
_cell_length_a   7.02218224
_cell_length_b   7.02218196
_cell_length_c   7.02218215
_cell_angle_alpha   90.26628123
_cell_angle_beta   89.73371489
_cell_angle_gamma   89.73371911
_symmetry_Int_Tables_number   1
_chemical_formula_structural   Nb12Si3Pt5N4
_chemical_formula_sum   'Nb12 Si3 Pt5 N4'
_cell_volume   346.25986146
_cell_formula_units_Z   1
loop_
 _symmetry_equiv_pos_site_id
 _symmetry_equiv_pos_as_xyz
  1  'x, y, z'
loop_
 _atom_site_type_symbol
 _atom_site_label
 _atom_site_symmetry_multiplicity
 _atom_site_fract_x
 _atom_site_fract_y
 _atom_site_fract_z
 _atom_site_occupancy
  Nb  Nb0  1  0.788051  0.954732  0.377958  1
  Nb  Nb1  1  0.711695  0.049697  0.883593  1
  Nb  Nb2  1  0.212663  0.452073  0.123273  1
  Nb  Nb3  1  0.294556  0.544786  0.626470  1
  Nb  Nb4  1  0.950303  0.383593  0.788305  1
  Nb  Nb5  1  0.045268  0.877958  0.711949  1
  Nb  Nb6  1  0.455214  0.126470  0.205444  1
  Nb  Nb7  1  0.547927  0.623273  0.287337  1
  Nb  Nb8  1  0.376727  0.787337  0.952073  1
  Nb  Nb9  1  0.873530  0.705444  0.044786  1
  Nb  Nb10  1  0.122042  0.211949  0.454732  1
  Nb  Nb11  1  0.616407  0.288305  0.549697  1
  Si  Si12  1  0.426852  0.926567  0.567981  1
  Si  Si13  1  0.932019  0.573148  0.426567  1
  Si  Si14  1  0.073433  0.067981  0.073148  1
  Pt  Pt15  1  0.178025  0.821975  0.321975  1
  Pt  Pt16  1  0.310896  0.166378  0.816029  1
  Pt  Pt17  1  0.833622  0.316029  0.189104  1
  Pt  Pt18  1  0.683971  0.689104  0.666378  1
  Pt  Pt19  1  0.567596  0.432404  0.932404  1
  N  N20  1  0.872721  0.127279  0.627279  1
  N  N21  1  0.622753  0.873914  0.122359  1
  N  N22  1  0.126086  0.622359  0.877247  1
  N  N23  1  0.377641  0.377247  0.373914  1
