# generated using pymatgen
data_CeSmFe2(SiPd)2
_symmetry_space_group_name_H-M   'P 1'
_cell_length_a   9.04329131
_cell_length_b   9.04329227
_cell_length_c   4.04410400
_cell_angle_alpha   90.00000000
_cell_angle_beta   90.00000000
_cell_angle_gamma   154.50714125
_symmetry_Int_Tables_number   1
_chemical_formula_structural   CeSmFe2(SiPd)2
_chemical_formula_sum   'Ce1 Sm1 Fe2 Si2 Pd2'
_cell_volume   142.34632200
_cell_formula_units_Z   1
loop_
 _symmetry_equiv_pos_site_id
 _symmetry_equiv_pos_as_xyz
  1  'x, y, z'
loop_
 _atom_site_type_symbol
 _atom_site_label
 _atom_site_symmetry_multiplicity
 _atom_site_fract_x
 _atom_site_fract_y
 _atom_site_fract_z
 _atom_site_occupancy
  Ce  Ce0  1  0.381428  0.618572  0.750000  1
  Sm  Sm1  1  0.612662  0.387338  0.250000  1
  Fe  Fe2  1  0.251634  0.748366  0.250000  1
  Fe  Fe3  1  0.751169  0.248831  0.750000  1
  Si  Si4  1  0.812287  0.187713  0.250000  1
  Si  Si5  1  0.189522  0.810478  0.750000  1
  Pd  Pd6  1  0.950673  0.049327  0.250000  1
  Pd  Pd7  1  0.050626  0.949374  0.750000  1
