# generated using pymatgen
data_Tb5ErAl24ZnOs7
_symmetry_space_group_name_H-M   'P 1'
_cell_length_a   8.85768900
_cell_length_b   8.86159166
_cell_length_c   9.54490103
_cell_angle_alpha   90.04063699
_cell_angle_beta   90.00000000
_cell_angle_gamma   119.98542895
_symmetry_Int_Tables_number   1
_chemical_formula_structural   Tb5ErAl24ZnOs7
_chemical_formula_sum   'Tb5 Er1 Al24 Zn1 Os7'
_cell_volume   648.92995983
_cell_formula_units_Z   1
loop_
 _symmetry_equiv_pos_site_id
 _symmetry_equiv_pos_as_xyz
  1  'x, y, z'
loop_
 _atom_site_type_symbol
 _atom_site_label
 _atom_site_symmetry_multiplicity
 _atom_site_fract_x
 _atom_site_fract_y
 _atom_site_fract_z
 _atom_site_occupancy
  Tb  Tb0  1  0.806191  0.612383  0.745702  1
  Tb  Tb1  1  0.614653  0.806002  0.247802  1
  Tb  Tb2  1  0.384875  0.193752  0.752358  1
  Tb  Tb3  1  0.191349  0.806002  0.247802  1
  Tb  Tb4  1  0.808877  0.193752  0.752358  1
  Er  Er5  1  0.194941  0.389883  0.254399  1
  Al  Al6  1  0.329166  0.658332  0.020733  1
  Al  Al7  1  0.670560  0.341118  0.979914  1
  Al  Al8  1  0.665959  0.331917  0.517090  1
  Al  Al9  1  0.333807  0.667615  0.482373  1
  Al  Al10  1  0.162882  0.325762  0.574755  1
  Al  Al11  1  0.837010  0.674023  0.424475  1
  Al  Al12  1  0.673719  0.836364  0.573248  1
  Al  Al13  1  0.836653  0.673307  0.075896  1
  Al  Al14  1  0.325917  0.163789  0.426397  1
  Al  Al15  1  0.163272  0.326542  0.924824  1
  Al  Al16  1  0.162646  0.836364  0.573248  1
  Al  Al17  1  0.322343  0.172153  0.081439  1
  Al  Al18  1  0.837871  0.163789  0.426397  1
  Al  Al19  1  0.677014  0.828027  0.918950  1
  Al  Al20  1  0.849809  0.172153  0.081439  1
  Al  Al21  1  0.151014  0.828027  0.918950  1
  Al  Al22  1  0.564050  0.128100  0.254935  1
  Al  Al23  1  0.436015  0.872030  0.745083  1
  Al  Al24  1  0.879249  0.440212  0.249349  1
  Al  Al25  1  0.121354  0.559473  0.750674  1
  Al  Al26  1  0.560963  0.440212  0.249349  1
  Al  Al27  1  0.438120  0.559473  0.750674  1
  Al  Al28  1  0.999790  0.999580  0.250509  1
  Al  Al29  1  0.000910  0.001821  0.749413  1
  Zn  Zn30  1  0.499932  0.999863  0.999909  1
  Os  Os31  1  0.000236  0.499684  0.000402  1
  Os  Os32  1  0.499842  0.999685  0.499827  1
  Os  Os33  1  0.499448  0.499684  0.000402  1
  Os  Os34  1  0.000288  0.499712  0.499529  1
  Os  Os35  1  0.499425  0.499712  0.499529  1
  Os  Os36  1  0.999893  0.999786  0.000194  1
  Os  Os37  1  0.999959  0.999917  0.499672  1
