# generated using pymatgen
data_Tb2ZnSiBr2
_symmetry_space_group_name_H-M   'P 1'
_cell_length_a   4.05681500
_cell_length_b   4.05681488
_cell_length_c   11.28684500
_cell_angle_alpha   90.00000000
_cell_angle_beta   90.00000000
_cell_angle_gamma   119.99999281
_symmetry_Int_Tables_number   1
_chemical_formula_structural   Tb2ZnSiBr2
_chemical_formula_sum   'Tb2 Zn1 Si1 Br2'
_cell_volume   160.86946523
_cell_formula_units_Z   1
loop_
 _symmetry_equiv_pos_site_id
 _symmetry_equiv_pos_as_xyz
  1  'x, y, z'
loop_
 _atom_site_type_symbol
 _atom_site_label
 _atom_site_symmetry_multiplicity
 _atom_site_fract_x
 _atom_site_fract_y
 _atom_site_fract_z
 _atom_site_occupancy
  Tb  Tb0  1  0.000000  0.000000  0.178041  1
  Tb  Tb1  1  0.000000  0.000000  0.820131  1
  Zn  Zn2  1  0.333333  0.666667  0.023804  1
  Si  Si3  1  0.666667  0.333333  0.978044  1
  Br  Br4  1  0.333333  0.666667  0.661056  1
  Br  Br5  1  0.666667  0.333333  0.338925  1
