# generated using pymatgen
data_Ti(Nb2N3)2
_symmetry_space_group_name_H-M   'P 1'
_cell_length_a   5.23549700
_cell_length_b   5.23549827
_cell_length_c   10.29447700
_cell_angle_alpha   90.00000000
_cell_angle_beta   90.00000000
_cell_angle_gamma   120.00001095
_symmetry_Int_Tables_number   1
_chemical_formula_structural   Ti(Nb2N3)2
_chemical_formula_sum   'Ti2 Nb8 N12'
_cell_volume   244.37164180
_cell_formula_units_Z   2
loop_
 _symmetry_equiv_pos_site_id
 _symmetry_equiv_pos_as_xyz
  1  'x, y, z'
loop_
 _atom_site_type_symbol
 _atom_site_label
 _atom_site_symmetry_multiplicity
 _atom_site_fract_x
 _atom_site_fract_y
 _atom_site_fract_z
 _atom_site_occupancy
  Ti  Ti0  1  0.333333  0.666667  0.500000  1
  Ti  Ti1  1  0.666667  0.333333  0.000000  1
  Nb  Nb2  1  0.666667  0.333333  0.500000  1
  Nb  Nb3  1  0.333333  0.666667  0.000000  1
  Nb  Nb4  1  0.676369  0.000000  0.750000  1
  Nb  Nb5  1  0.676369  0.676369  0.250000  1
  Nb  Nb6  1  0.000000  0.323631  0.250000  1
  Nb  Nb7  1  0.000000  0.676369  0.750000  1
  Nb  Nb8  1  0.323631  0.323631  0.750000  1
  Nb  Nb9  1  0.323631  0.000000  0.250000  1
  N  N10  1  0.340573  0.345304  0.379961  1
  N  N11  1  0.654696  0.995270  0.379961  1
  N  N12  1  0.004730  0.659427  0.379961  1
  N  N13  1  0.995270  0.340573  0.879961  1
  N  N14  1  0.659427  0.004730  0.120039  1
  N  N15  1  0.659427  0.654696  0.879961  1
  N  N16  1  0.345304  0.004730  0.879961  1
  N  N17  1  0.654696  0.659427  0.620039  1
  N  N18  1  0.004730  0.345304  0.620039  1
  N  N19  1  0.995270  0.654696  0.120039  1
  N  N20  1  0.340573  0.995270  0.620039  1
  N  N21  1  0.345304  0.340573  0.120039  1
