# generated using pymatgen
data_Li4Eu5Pt4
_symmetry_space_group_name_H-M   'P 1'
_cell_length_a   8.49660061
_cell_length_b   8.49661379
_cell_length_c   8.49670600
_cell_angle_alpha   93.81616085
_cell_angle_beta   93.81670745
_cell_angle_gamma   150.09776890
_symmetry_Int_Tables_number   1
_chemical_formula_structural   Li4Eu5Pt4
_chemical_formula_sum   'Li4 Eu5 Pt4'
_cell_volume   295.43982100
_cell_formula_units_Z   1
loop_
 _symmetry_equiv_pos_site_id
 _symmetry_equiv_pos_as_xyz
  1  'x, y, z'
loop_
 _atom_site_type_symbol
 _atom_site_label
 _atom_site_symmetry_multiplicity
 _atom_site_fract_x
 _atom_site_fract_y
 _atom_site_fract_z
 _atom_site_occupancy
  Li  Li0  1  0.601912  0.075479  0.677324  1
  Li  Li1  1  0.924690  0.602214  0.526898  1
  Li  Li2  1  0.076143  0.397907  0.474064  1
  Li  Li3  1  0.397422  0.924838  0.322275  1
  Eu  Eu4  1  0.127054  0.791486  0.918560  1
  Eu  Eu5  1  0.208434  0.128039  0.336447  1
  Eu  Eu6  1  0.872465  0.208216  0.080693  1
  Eu  Eu7  1  0.499924  0.500597  0.000527  1
  Eu  Eu8  1  0.791995  0.872505  0.664489  1
  Pt  Pt9  1  0.438223  0.244276  0.682549  1
  Pt  Pt10  1  0.562344  0.755119  0.317410  1
  Pt  Pt11  1  0.244845  0.561539  0.806418  1
  Pt  Pt12  1  0.754549  0.437785  0.192345  1
