# generated using pymatgen
data_TbMn2(FeP)3
_symmetry_space_group_name_H-M   'P 1'
_cell_length_a   3.65319500
_cell_length_b   10.28723500
_cell_length_c   12.14474900
_cell_angle_alpha   90.00000000
_cell_angle_beta   90.00000000
_cell_angle_gamma   90.00000000
_symmetry_Int_Tables_number   1
_chemical_formula_structural   TbMn2(FeP)3
_chemical_formula_sum   'Tb4 Mn8 Fe12 P12'
_cell_volume   456.41515763
_cell_formula_units_Z   4
loop_
 _symmetry_equiv_pos_site_id
 _symmetry_equiv_pos_as_xyz
  1  'x, y, z'
loop_
 _atom_site_type_symbol
 _atom_site_label
 _atom_site_symmetry_multiplicity
 _atom_site_fract_x
 _atom_site_fract_y
 _atom_site_fract_z
 _atom_site_occupancy
  Tb  Tb0  1  0.250000  0.580607  0.710518  1
  Tb  Tb1  1  0.250000  0.919393  0.210518  1
  Tb  Tb2  1  0.750000  0.419393  0.289482  1
  Tb  Tb3  1  0.750000  0.080607  0.789482  1
  Mn  Mn4  1  0.250000  0.705635  0.992172  1
  Mn  Mn5  1  0.250000  0.794365  0.492172  1
  Mn  Mn6  1  0.750000  0.294365  0.007828  1
  Mn  Mn7  1  0.750000  0.205635  0.507828  1
  Mn  Mn8  1  0.250000  0.408173  0.490480  1
  Mn  Mn9  1  0.250000  0.091827  0.990480  1
  Mn  Mn10  1  0.750000  0.591827  0.509520  1
  Mn  Mn11  1  0.750000  0.908173  0.009520  1
  Fe  Fe12  1  0.250000  0.220210  0.171311  1
  Fe  Fe13  1  0.250000  0.279790  0.671311  1
  Fe  Fe14  1  0.750000  0.779790  0.828689  1
  Fe  Fe15  1  0.750000  0.720210  0.328689  1
  Fe  Fe16  1  0.250000  0.876911  0.695608  1
  Fe  Fe17  1  0.250000  0.623089  0.195608  1
  Fe  Fe18  1  0.750000  0.123089  0.304392  1
  Fe  Fe19  1  0.750000  0.376911  0.804392  1
  Fe  Fe20  1  0.250000  0.462675  0.936026  1
  Fe  Fe21  1  0.250000  0.037325  0.436026  1
  Fe  Fe22  1  0.750000  0.537325  0.063974  1
  Fe  Fe23  1  0.750000  0.962675  0.563974  1
  P  P24  1  0.250000  0.423420  0.112625  1
  P  P25  1  0.250000  0.076580  0.612625  1
  P  P26  1  0.750000  0.576580  0.887375  1
  P  P27  1  0.750000  0.923420  0.387375  1
  P  P28  1  0.250000  0.269662  0.860770  1
  P  P29  1  0.250000  0.230338  0.360770  1
  P  P30  1  0.750000  0.730338  0.139230  1
  P  P31  1  0.750000  0.769662  0.639230  1
  P  P32  1  0.250000  0.603566  0.381374  1
  P  P33  1  0.250000  0.896434  0.881374  1
  P  P34  1  0.750000  0.396434  0.618626  1
  P  P35  1  0.750000  0.103566  0.118626  1
