# generated using pymatgen
data_DyTmLu2Pt4F28
_symmetry_space_group_name_H-M   'P 1'
_cell_length_a   5.50586665
_cell_length_b   8.78341222
_cell_length_c   11.89975007
_cell_angle_alpha   62.70509132
_cell_angle_beta   89.87473999
_cell_angle_gamma   90.00264895
_symmetry_Int_Tables_number   1
_chemical_formula_structural   DyTmLu2Pt4F28
_chemical_formula_sum   'Dy1 Tm1 Lu2 Pt4 F28'
_cell_volume   511.39926659
_cell_formula_units_Z   1
loop_
 _symmetry_equiv_pos_site_id
 _symmetry_equiv_pos_as_xyz
  1  'x, y, z'
loop_
 _atom_site_type_symbol
 _atom_site_label
 _atom_site_symmetry_multiplicity
 _atom_site_fract_x
 _atom_site_fract_y
 _atom_site_fract_z
 _atom_site_occupancy
  Dy  Dy0  1  0.260558  0.815713  0.264379  1
  Tm  Tm1  1  0.738990  0.184117  0.735938  1
  Lu  Lu2  1  0.762429  0.187198  0.235769  1
  Lu  Lu3  1  0.238485  0.815051  0.764171  1
  Pt  Pt4  1  0.758415  0.726882  0.041001  1
  Pt  Pt5  1  0.240019  0.273890  0.956242  1
  Pt  Pt6  1  0.259900  0.269564  0.457474  1
  Pt  Pt7  1  0.740590  0.728314  0.545322  1
  F  F8  1  0.937447  0.702755  0.416881  1
  F  F9  1  0.060739  0.296618  0.584489  1
  F  F10  1  0.438909  0.299366  0.083863  1
  F  F11  1  0.562092  0.700945  0.913045  1
  F  F12  1  0.462842  0.723578  0.134809  1
  F  F13  1  0.533287  0.275506  0.860998  1
  F  F14  1  0.965944  0.274617  0.361554  1
  F  F15  1  0.034758  0.725334  0.640182  1
  F  F16  1  0.946342  0.745922  0.175066  1
  F  F17  1  0.047392  0.253799  0.823674  1
  F  F18  1  0.453939  0.250534  0.324409  1
  F  F19  1  0.547827  0.747830  0.678042  1
  F  F20  1  0.776117  0.475136  0.141823  1
  F  F21  1  0.223249  0.525477  0.856679  1
  F  F22  1  0.277905  0.520828  0.358241  1
  F  F23  1  0.724751  0.476306  0.643729  1
  F  F24  1  0.937010  0.277562  0.044771  1
  F  F25  1  0.063912  0.723465  0.954250  1
  F  F26  1  0.438872  0.722946  0.458322  1
  F  F27  1  0.561745  0.274876  0.545091  1
  F  F28  1  0.745981  0.979548  0.449988  1
  F  F29  1  0.253506  0.018520  0.552067  1
  F  F30  1  0.246095  0.022963  0.050037  1
  F  F31  1  0.752212  0.977912  0.947580  1
  F  F32  1  0.587218  0.975645  0.232588  1
  F  F33  1  0.418811  0.025975  0.766911  1
  F  F34  1  0.079749  0.034600  0.267136  1
  F  F35  1  0.921961  0.970707  0.733478  1
