# generated using pymatgen
data_LiLa8Zn6InRh8
_symmetry_space_group_name_H-M   'P 1'
_cell_length_a   4.10312500
_cell_length_b   7.51214609
_cell_length_c   16.68112270
_cell_angle_alpha   90.03408380
_cell_angle_beta   90.00000000
_cell_angle_gamma   90.00000000
_symmetry_Int_Tables_number   1
_chemical_formula_structural   LiLa8Zn6InRh8
_chemical_formula_sum   'Li1 La8 Zn6 In1 Rh8'
_cell_volume   514.16673173
_cell_formula_units_Z   1
loop_
 _symmetry_equiv_pos_site_id
 _symmetry_equiv_pos_as_xyz
  1  'x, y, z'
loop_
 _atom_site_type_symbol
 _atom_site_label
 _atom_site_symmetry_multiplicity
 _atom_site_fract_x
 _atom_site_fract_y
 _atom_site_fract_z
 _atom_site_occupancy
  Li  Li0  1  0.250000  0.994297  0.443866  1
  La  La1  1  0.750000  0.330284  0.442979  1
  La  La2  1  0.250000  0.046843  0.716384  1
  La  La3  1  0.250000  0.549120  0.781970  1
  La  La4  1  0.250000  0.672769  0.560092  1
  La  La5  1  0.750000  0.819676  0.056689  1
  La  La6  1  0.250000  0.174786  0.938033  1
  La  La7  1  0.750000  0.458574  0.219114  1
  La  La8  1  0.750000  0.945779  0.289623  1
  Zn  Zn9  1  0.750000  0.874363  0.850240  1
  Zn  Zn10  1  0.750000  0.002935  0.558130  1
  Zn  Zn11  1  0.250000  0.499811  0.058420  1
  Zn  Zn12  1  0.750000  0.371791  0.649144  1
  Zn  Zn13  1  0.750000  0.502875  0.936623  1
  Zn  Zn14  1  0.250000  0.625654  0.354231  1
  In  In15  1  0.250000  0.122139  0.150908  1
  Rh  Rh16  1  0.750000  0.253912  0.811862  1
  Rh  Rh17  1  0.250000  0.252379  0.313540  1
  Rh  Rh18  1  0.250000  0.740773  0.931912  1
  Rh  Rh19  1  0.250000  0.245037  0.566274  1
  Rh  Rh20  1  0.250000  0.743800  0.185745  1
  Rh  Rh21  1  0.750000  0.748657  0.437882  1
  Rh  Rh22  1  0.750000  0.268140  0.061088  1
  Rh  Rh23  1  0.750000  0.755609  0.685248  1
