# generated using pymatgen
data_CeY3(ThIr9)2
_symmetry_space_group_name_H-M   'P 1'
_cell_length_a   5.34558400
_cell_length_b   5.34558266
_cell_length_c   17.58089600
_cell_angle_alpha   90.00000000
_cell_angle_beta   90.00000000
_cell_angle_gamma   120.00000826
_symmetry_Int_Tables_number   1
_chemical_formula_structural   CeY3(ThIr9)2
_chemical_formula_sum   'Ce1 Y3 Th2 Ir18'
_cell_volume   435.07267567
_cell_formula_units_Z   1
loop_
 _symmetry_equiv_pos_site_id
 _symmetry_equiv_pos_as_xyz
  1  'x, y, z'
loop_
 _atom_site_type_symbol
 _atom_site_label
 _atom_site_symmetry_multiplicity
 _atom_site_fract_x
 _atom_site_fract_y
 _atom_site_fract_z
 _atom_site_occupancy
  Ce  Ce0  1  0.333333  0.666667  0.540686  1
  Y  Y1  1  0.333333  0.666667  0.960930  1
  Y  Y2  1  0.666667  0.333333  0.039464  1
  Y  Y3  1  0.666667  0.333333  0.459770  1
  Th  Th4  1  0.333333  0.666667  0.751533  1
  Th  Th5  1  0.666667  0.333333  0.249539  1
  Ir  Ir6  1  0.167126  0.832874  0.374065  1
  Ir  Ir7  1  0.167126  0.334251  0.374065  1
  Ir  Ir8  1  0.665749  0.832874  0.374065  1
  Ir  Ir9  1  0.832783  0.167217  0.625593  1
  Ir  Ir10  1  0.832783  0.665564  0.625593  1
  Ir  Ir11  1  0.334436  0.167217  0.625593  1
  Ir  Ir12  1  0.832966  0.167034  0.874410  1
  Ir  Ir13  1  0.832966  0.665930  0.874410  1
  Ir  Ir14  1  0.334070  0.167034  0.874410  1
  Ir  Ir15  1  0.166887  0.833113  0.125616  1
  Ir  Ir16  1  0.166887  0.333774  0.125616  1
  Ir  Ir17  1  0.666226  0.833113  0.125616  1
  Ir  Ir18  1  0.333333  0.666667  0.250020  1
  Ir  Ir19  1  0.666667  0.333333  0.749921  1
  Ir  Ir20  1  0.000000  0.000000  0.249803  1
  Ir  Ir21  1  0.000000  0.000000  0.750092  1
  Ir  Ir22  1  0.000000  0.000000  0.499253  1
  Ir  Ir23  1  0.000000  0.000000  0.999937  1
