# generated using pymatgen
data_Th6Al24Re5Ru3
_symmetry_space_group_name_H-M   'P 1'
_cell_length_a   8.99292414
_cell_length_b   9.01519794
_cell_length_c   9.67946042
_cell_angle_alpha   89.99999925
_cell_angle_beta   90.26900567
_cell_angle_gamma   120.08196231
_symmetry_Int_Tables_number   1
_chemical_formula_structural   Th6Al24Re5Ru3
_chemical_formula_sum   'Th6 Al24 Re5 Ru3'
_cell_volume   679.03522606
_cell_formula_units_Z   1
loop_
 _symmetry_equiv_pos_site_id
 _symmetry_equiv_pos_as_xyz
  1  'x, y, z'
loop_
 _atom_site_type_symbol
 _atom_site_label
 _atom_site_symmetry_multiplicity
 _atom_site_fract_x
 _atom_site_fract_y
 _atom_site_fract_z
 _atom_site_occupancy
  Th  Th0  1  0.802243  0.608587  0.752620  1
  Th  Th1  1  0.197757  0.806344  0.247380  1
  Th  Th2  1  0.608936  0.804468  0.250177  1
  Th  Th3  1  0.391064  0.195532  0.749823  1
  Th  Th4  1  0.802243  0.193656  0.752620  1
  Th  Th5  1  0.197757  0.391413  0.247380  1
  Al  Al6  1  0.331181  0.665591  0.492900  1
  Al  Al7  1  0.666539  0.333269  0.994506  1
  Al  Al8  1  0.668819  0.334409  0.507100  1
  Al  Al9  1  0.333461  0.666731  0.005494  1
  Al  Al10  1  0.160922  0.324609  0.576385  1
  Al  Al11  1  0.674469  0.837235  0.576538  1
  Al  Al12  1  0.160922  0.836315  0.576385  1
  Al  Al13  1  0.838940  0.163956  0.077970  1
  Al  Al14  1  0.839078  0.163685  0.423615  1
  Al  Al15  1  0.838940  0.674983  0.077970  1
  Al  Al16  1  0.325828  0.162914  0.075918  1
  Al  Al17  1  0.674172  0.837086  0.924082  1
  Al  Al18  1  0.161060  0.325017  0.922030  1
  Al  Al19  1  0.839078  0.675391  0.423615  1
  Al  Al20  1  0.000225  0.000113  0.250070  1
  Al  Al21  1  0.999775  0.999887  0.749930  1
  Al  Al22  1  0.565365  0.127338  0.250660  1
  Al  Al23  1  0.434635  0.561973  0.749340  1
  Al  Al24  1  0.123860  0.561930  0.748168  1
  Al  Al25  1  0.876140  0.438070  0.251832  1
  Al  Al26  1  0.565365  0.438027  0.250660  1
  Al  Al27  1  0.434635  0.872662  0.749340  1
  Al  Al28  1  0.161060  0.836044  0.922030  1
  Al  Al29  1  0.325531  0.162765  0.423462  1
  Re  Re30  1  0.500000  0.000000  0.500000  1
  Re  Re31  1  0.500000  0.500000  0.000000  1
  Re  Re32  1  0.000000  0.500000  0.000000  1
  Re  Re33  1  0.500000  0.500000  0.500000  1
  Re  Re34  1  0.500000  0.000000  0.000000  1
  Ru  Ru35  1  0.000000  0.000000  0.500000  1
  Ru  Ru36  1  0.000000  0.000000  0.000000  1
  Ru  Ru37  1  0.000000  0.500000  0.500000  1
