# generated using pymatgen
data_Tb7NdSc11Si16Tc
_symmetry_space_group_name_H-M   'P 1'
_cell_length_a   7.05922818
_cell_length_b   7.38573866
_cell_length_c   13.95784115
_cell_angle_alpha   90.09595947
_cell_angle_beta   90.02167485
_cell_angle_gamma   90.16146760
_symmetry_Int_Tables_number   1
_chemical_formula_structural   Tb7NdSc11Si16Tc
_chemical_formula_sum   'Tb7 Nd1 Sc11 Si16 Tc1'
_cell_volume   727.72457685
_cell_formula_units_Z   1
loop_
 _symmetry_equiv_pos_site_id
 _symmetry_equiv_pos_as_xyz
  1  'x, y, z'
loop_
 _atom_site_type_symbol
 _atom_site_label
 _atom_site_symmetry_multiplicity
 _atom_site_fract_x
 _atom_site_fract_y
 _atom_site_fract_z
 _atom_site_occupancy
  Tb  Tb0  1  0.992720  0.819008  0.899581  1
  Tb  Tb1  1  0.487246  0.672213  0.900610  1
  Tb  Tb2  1  0.992439  0.818671  0.599832  1
  Tb  Tb3  1  0.511514  0.324735  0.095590  1
  Tb  Tb4  1  0.012297  0.177110  0.405662  1
  Tb  Tb5  1  0.512015  0.324297  0.404842  1
  Tb  Tb6  1  0.486976  0.671782  0.598725  1
  Nd  Nd7  1  0.011784  0.174547  0.092813  1
  Sc  Sc8  1  0.841192  0.497301  0.250560  1
  Sc  Sc9  1  0.341958  0.002579  0.250508  1
  Sc  Sc10  1  0.657606  0.996663  0.750005  1
  Sc  Sc11  1  0.325849  0.178736  0.627498  1
  Sc  Sc12  1  0.671713  0.824020  0.375095  1
  Sc  Sc13  1  0.172372  0.674484  0.377130  1
  Sc  Sc14  1  0.671883  0.823418  0.125577  1
  Sc  Sc15  1  0.828758  0.330886  0.628354  1
  Sc  Sc16  1  0.326770  0.178496  0.872184  1
  Sc  Sc17  1  0.827977  0.331845  0.871492  1
  Sc  Sc18  1  0.172488  0.673959  0.123415  1
  Si  Si19  1  0.029836  0.122535  0.749916  1
  Si  Si20  1  0.971467  0.881165  0.251130  1
  Si  Si21  1  0.468418  0.617700  0.250238  1
  Si  Si22  1  0.520068  0.392157  0.749811  1
  Si  Si23  1  0.285529  0.866057  0.749890  1
  Si  Si24  1  0.713925  0.126756  0.251700  1
  Si  Si25  1  0.216066  0.375035  0.251469  1
  Si  Si26  1  0.794340  0.627222  0.749795  1
  Si  Si27  1  0.154933  0.465405  0.547535  1
  Si  Si28  1  0.843644  0.535928  0.463006  1
  Si  Si29  1  0.346649  0.964875  0.463093  1
  Si  Si30  1  0.842620  0.538887  0.036226  1
  Si  Si31  1  0.656369  0.034364  0.540263  1
  Si  Si32  1  0.155348  0.467835  0.951318  1
  Si  Si33  1  0.655311  0.033849  0.959265  1
  Si  Si34  1  0.350390  0.962742  0.036111  1
  Tc  Tc35  1  0.149529  0.492737  0.749763  1
