# generated using pymatgen
data_DyHo3Ga18(NiIr2)2
_symmetry_space_group_name_H-M   'P 1'
_cell_length_a   7.54159018
_cell_length_b   7.54160140
_cell_length_c   9.42364000
_cell_angle_alpha   90.00000000
_cell_angle_beta   90.00000000
_cell_angle_gamma   120.04511034
_symmetry_Int_Tables_number   1
_chemical_formula_structural   DyHo3Ga18(NiIr2)2
_chemical_formula_sum   'Dy1 Ho3 Ga18 Ni2 Ir4'
_cell_volume   463.95753092
_cell_formula_units_Z   1
loop_
 _symmetry_equiv_pos_site_id
 _symmetry_equiv_pos_as_xyz
  1  'x, y, z'
loop_
 _atom_site_type_symbol
 _atom_site_label
 _atom_site_symmetry_multiplicity
 _atom_site_fract_x
 _atom_site_fract_y
 _atom_site_fract_z
 _atom_site_occupancy
  Dy  Dy0  1  0.339017  0.003100  0.750000  1
  Ho  Ho1  1  0.996892  0.660951  0.250000  1
  Ho  Ho2  1  0.003089  0.339032  0.750000  1
  Ho  Ho3  1  0.660954  0.996886  0.250000  1
  Ga  Ga4  1  0.110064  0.110066  0.250000  1
  Ga  Ga5  1  0.889862  0.889908  0.750000  1
  Ga  Ga6  1  0.999222  0.327555  0.078597  1
  Ga  Ga7  1  0.000708  0.672378  0.921453  1
  Ga  Ga8  1  0.000708  0.672378  0.578547  1
  Ga  Ga9  1  0.327553  0.999224  0.421360  1
  Ga  Ga10  1  0.999222  0.327555  0.421403  1
  Ga  Ga11  1  0.672507  0.000775  0.578546  1
  Ga  Ga12  1  0.672507  0.000775  0.921454  1
  Ga  Ga13  1  0.327553  0.999224  0.078640  1
  Ga  Ga14  1  0.326612  0.326669  0.564994  1
  Ga  Ga15  1  0.673391  0.673390  0.434947  1
  Ga  Ga16  1  0.673391  0.673390  0.065053  1
  Ga  Ga17  1  0.326612  0.326669  0.935006  1
  Ga  Ga18  1  0.338392  0.541120  0.250000  1
  Ga  Ga19  1  0.661669  0.458958  0.750000  1
  Ga  Ga20  1  0.541118  0.338388  0.250000  1
  Ga  Ga21  1  0.458908  0.661592  0.750000  1
  Ni  Ni22  1  0.999995  0.000001  0.000010  1
  Ni  Ni23  1  0.999995  0.000001  0.499990  1
  Ir  Ir24  1  0.671702  0.328358  0.000028  1
  Ir  Ir25  1  0.328328  0.671649  0.000026  1
  Ir  Ir26  1  0.328328  0.671649  0.499974  1
  Ir  Ir27  1  0.671702  0.328358  0.499972  1
