# generated using pymatgen
data_Rb8LaPr(UI10)2
_symmetry_space_group_name_H-M   'P 1'
_cell_length_a   9.50917958
_cell_length_b   10.08483800
_cell_length_c   15.15683023
_cell_angle_alpha   90.00000000
_cell_angle_beta   90.03974941
_cell_angle_gamma   90.00000000
_symmetry_Int_Tables_number   1
_chemical_formula_structural   Rb8LaPr(UI10)2
_chemical_formula_sum   'Rb8 La1 Pr1 U2 I20'
_cell_volume   1453.51747333
_cell_formula_units_Z   1
loop_
 _symmetry_equiv_pos_site_id
 _symmetry_equiv_pos_as_xyz
  1  'x, y, z'
loop_
 _atom_site_type_symbol
 _atom_site_label
 _atom_site_symmetry_multiplicity
 _atom_site_fract_x
 _atom_site_fract_y
 _atom_site_fract_z
 _atom_site_occupancy
  Rb  Rb0  1  0.943076  0.002850  0.825981  1
  Rb  Rb1  1  0.056796  0.996802  0.173995  1
  Rb  Rb2  1  0.443218  0.996773  0.672950  1
  Rb  Rb3  1  0.056796  0.503198  0.173995  1
  Rb  Rb4  1  0.556945  0.002797  0.327052  1
  Rb  Rb5  1  0.943076  0.497150  0.825981  1
  Rb  Rb6  1  0.556945  0.497203  0.327052  1
  Rb  Rb7  1  0.443218  0.503227  0.672950  1
  La  La8  1  0.422782  0.250000  0.995081  1
  Pr  Pr9  1  0.577836  0.750000  0.004732  1
  U  U10  1  0.925515  0.750000  0.503849  1
  U  U11  1  0.075059  0.250000  0.496344  1
  I  I12  1  0.120364  0.750000  0.675729  1
  I  I13  1  0.879621  0.250000  0.324210  1
  I  I14  1  0.623426  0.250000  0.823011  1
  I  I15  1  0.377586  0.750000  0.176041  1
  I  I16  1  0.837698  0.044925  0.573625  1
  I  I17  1  0.161991  0.955110  0.426314  1
  I  I18  1  0.335559  0.953386  0.926007  1
  I  I19  1  0.161991  0.544890  0.426314  1
  I  I20  1  0.664831  0.044173  0.073995  1
  I  I21  1  0.837698  0.455075  0.573625  1
  I  I22  1  0.664831  0.455827  0.073995  1
  I  I23  1  0.335559  0.546614  0.926007  1
  I  I24  1  0.582512  0.750000  0.510120  1
  I  I25  1  0.417404  0.250000  0.489964  1
  I  I26  1  0.079198  0.250000  0.989687  1
  I  I27  1  0.919033  0.750000  0.010289  1
  I  I28  1  0.658077  0.750000  0.799256  1
  I  I29  1  0.341348  0.250000  0.201874  1
  I  I30  1  0.158469  0.250000  0.699785  1
  I  I31  1  0.841542  0.750000  0.300190  1
