# generated using pymatgen
data_Sm3Be2As2(PPd10)2
_symmetry_space_group_name_H-M   'P 1'
_cell_length_a   8.80355477
_cell_length_b   8.61891393
_cell_length_c   8.73556802
_cell_angle_alpha   60.96104925
_cell_angle_beta   58.86517027
_cell_angle_gamma   60.17378272
_symmetry_Int_Tables_number   1
_chemical_formula_structural   Sm3Be2As2(PPd10)2
_chemical_formula_sum   'Sm3 Be2 As2 P2 Pd20'
_cell_volume   468.37269148
_cell_formula_units_Z   1
loop_
 _symmetry_equiv_pos_site_id
 _symmetry_equiv_pos_as_xyz
  1  'x, y, z'
loop_
 _atom_site_type_symbol
 _atom_site_label
 _atom_site_symmetry_multiplicity
 _atom_site_fract_x
 _atom_site_fract_y
 _atom_site_fract_z
 _atom_site_occupancy
  Sm  Sm0  1  0.250000  0.250000  0.250000  1
  Sm  Sm1  1  0.750000  0.750000  0.750000  1
  Sm  Sm2  1  0.000000  0.000000  0.000000  1
  Be  Be3  1  0.731575  0.268425  0.268425  1
  Be  Be4  1  0.268425  0.731575  0.731575  1
  As  As5  1  0.264856  0.735144  0.264856  1
  As  As6  1  0.735144  0.264856  0.735144  1
  P  P7  1  0.267181  0.267181  0.732819  1
  P  P8  1  0.732819  0.732819  0.267181  1
  Pd  Pd9  1  0.391178  0.376760  0.386149  1
  Pd  Pd10  1  0.608822  0.623240  0.613851  1
  Pd  Pd11  1  0.376760  0.391178  0.845913  1
  Pd  Pd12  1  0.386149  0.845913  0.391178  1
  Pd  Pd13  1  0.623240  0.608822  0.154087  1
  Pd  Pd14  1  0.613851  0.154087  0.608822  1
  Pd  Pd15  1  0.845913  0.386149  0.376760  1
  Pd  Pd16  1  0.154087  0.613851  0.623240  1
  Pd  Pd17  1  0.346552  0.009707  0.990293  1
  Pd  Pd18  1  0.653448  0.990293  0.009707  1
  Pd  Pd19  1  0.009707  0.346552  0.653448  1
  Pd  Pd20  1  0.990293  0.653448  0.346552  1
  Pd  Pd21  1  0.997802  0.343666  0.002198  1
  Pd  Pd22  1  0.656334  0.002198  0.343666  1
  Pd  Pd23  1  0.002198  0.656334  0.997802  1
  Pd  Pd24  1  0.343666  0.997802  0.656334  1
  Pd  Pd25  1  0.985788  0.014212  0.345705  1
  Pd  Pd26  1  0.014212  0.985788  0.654295  1
  Pd  Pd27  1  0.654295  0.345705  0.014212  1
  Pd  Pd28  1  0.345705  0.654295  0.985788  1
