# generated using pymatgen
data_Er20Fe3CoSb8
_symmetry_space_group_name_H-M   'P 1'
_cell_length_a   12.10755646
_cell_length_b   8.75338000
_cell_length_c   7.80257624
_cell_angle_alpha   90.00010370
_cell_angle_beta   90.08678059
_cell_angle_gamma   90.00018151
_symmetry_Int_Tables_number   1
_chemical_formula_structural   Er20Fe3CoSb8
_chemical_formula_sum   'Er20 Fe3 Co1 Sb8'
_cell_volume   826.93201922
_cell_formula_units_Z   1
loop_
 _symmetry_equiv_pos_site_id
 _symmetry_equiv_pos_as_xyz
  1  'x, y, z'
loop_
 _atom_site_type_symbol
 _atom_site_label
 _atom_site_symmetry_multiplicity
 _atom_site_fract_x
 _atom_site_fract_y
 _atom_site_fract_z
 _atom_site_occupancy
  Er  Er0  1  0.692029  0.750001  0.621481  1
  Er  Er1  1  0.807191  0.250000  0.121698  1
  Er  Er2  1  0.192801  0.750000  0.878934  1
  Er  Er3  1  0.307402  0.250000  0.377346  1
  Er  Er4  1  0.003656  0.750001  0.447975  1
  Er  Er5  1  0.496743  0.250000  0.949697  1
  Er  Er6  1  0.503468  0.750000  0.050221  1
  Er  Er7  1  0.996613  0.250000  0.551309  1
  Er  Er8  1  0.794468  0.750000  0.156240  1
  Er  Er9  1  0.705644  0.250000  0.657283  1
  Er  Er10  1  0.295708  0.750000  0.343850  1
  Er  Er11  1  0.204095  0.250000  0.844707  1
  Er  Er12  1  0.063803  0.463241  0.175755  1
  Er  Er13  1  0.435237  0.539322  0.677128  1
  Er  Er14  1  0.564284  0.035509  0.324011  1
  Er  Er15  1  0.936274  0.964149  0.824518  1
  Er  Er16  1  0.936275  0.535851  0.824518  1
  Er  Er17  1  0.564284  0.464491  0.324010  1
  Er  Er18  1  0.435236  0.960679  0.677128  1
  Er  Er19  1  0.063803  0.036759  0.175755  1
  Fe  Fe20  1  0.511146  0.750000  0.427883  1
  Fe  Fe21  1  0.988116  0.249998  0.926736  1
  Fe  Fe22  1  0.010789  0.750002  0.072465  1
  Co  Co23  1  0.490002  0.250000  0.570206  1
  Sb  Sb24  1  0.328114  0.492058  0.070371  1
  Sb  Sb25  1  0.172414  0.507750  0.570527  1
  Sb  Sb26  1  0.827877  0.007716  0.429588  1
  Sb  Sb27  1  0.672061  0.992313  0.929087  1
  Sb  Sb28  1  0.672061  0.507687  0.929086  1
  Sb  Sb29  1  0.827877  0.492285  0.429587  1
  Sb  Sb30  1  0.172414  0.992250  0.570527  1
  Sb  Sb31  1  0.328114  0.007942  0.070371  1
