# generated using pymatgen
data_Nd3Lu2Bi3O14
_symmetry_space_group_name_H-M   'P 1'
_cell_length_a   6.66774744
_cell_length_b   6.72352505
_cell_length_c   7.82778000
_cell_angle_alpha   106.68494116
_cell_angle_beta   89.69343560
_cell_angle_gamma   98.78962571
_symmetry_Int_Tables_number   1
_chemical_formula_structural   Nd3Lu2Bi3O14
_chemical_formula_sum   'Nd3 Lu2 Bi3 O14'
_cell_volume   331.92782390
_cell_formula_units_Z   1
loop_
 _symmetry_equiv_pos_site_id
 _symmetry_equiv_pos_as_xyz
  1  'x, y, z'
loop_
 _atom_site_type_symbol
 _atom_site_label
 _atom_site_symmetry_multiplicity
 _atom_site_fract_x
 _atom_site_fract_y
 _atom_site_fract_z
 _atom_site_occupancy
  Nd  Nd0  1  0.270508  0.539175  0.883498  1
  Nd  Nd1  1  0.739207  0.455005  0.113806  1
  Nd  Nd2  1  0.747865  0.478292  0.617460  1
  Lu  Lu3  1  0.461571  0.010344  0.256665  1
  Lu  Lu4  1  0.534568  0.998347  0.747362  1
  Bi  Bi5  1  0.994793  0.998558  0.499828  1
  Bi  Bi6  1  0.999155  0.996206  0.997850  1
  Bi  Bi7  1  0.285767  0.542670  0.389520  1
  O  O8  1  0.450620  0.667273  0.176415  1
  O  O9  1  0.553820  0.339787  0.831631  1
  O  O10  1  0.305200  0.934810  0.949329  1
  O  O11  1  0.694875  0.061973  0.053156  1
  O  O12  1  0.301139  0.939954  0.520572  1
  O  O13  1  0.694913  0.072066  0.484368  1
  O  O14  1  0.537192  0.351994  0.340943  1
  O  O15  1  0.462854  0.653559  0.655471  1
  O  O16  1  0.927623  0.662594  0.940648  1
  O  O17  1  0.067878  0.323653  0.036698  1
  O  O18  1  0.068503  0.333120  0.621717  1
  O  O19  1  0.912965  0.664577  0.388753  1
  O  O20  1  0.865280  0.920177  0.730403  1
  O  O21  1  0.123702  0.055868  0.263903  1
