# generated using pymatgen
data_TmLuB6Os
_symmetry_space_group_name_H-M   'P 1'
_cell_length_a   3.60342000
_cell_length_b   9.04855600
_cell_length_c   11.42694700
_cell_angle_alpha   90.00000000
_cell_angle_beta   90.00000000
_cell_angle_gamma   90.00000000
_symmetry_Int_Tables_number   1
_chemical_formula_structural   TmLuB6Os
_chemical_formula_sum   'Tm4 Lu4 B24 Os4'
_cell_volume   372.58415042
_cell_formula_units_Z   4
loop_
 _symmetry_equiv_pos_site_id
 _symmetry_equiv_pos_as_xyz
  1  'x, y, z'
loop_
 _atom_site_type_symbol
 _atom_site_label
 _atom_site_symmetry_multiplicity
 _atom_site_fract_x
 _atom_site_fract_y
 _atom_site_fract_z
 _atom_site_occupancy
  Tm  Tm0  1  0.000000  0.321584  0.413904  1
  Tm  Tm1  1  0.000000  0.678416  0.586096  1
  Tm  Tm2  1  0.000000  0.821584  0.086096  1
  Tm  Tm3  1  0.000000  0.178416  0.913904  1
  Lu  Lu4  1  0.000000  0.944449  0.373332  1
  Lu  Lu5  1  0.000000  0.055551  0.626668  1
  Lu  Lu6  1  0.000000  0.444449  0.126668  1
  Lu  Lu7  1  0.000000  0.555551  0.873332  1
  B  B8  1  0.500000  0.553839  0.433596  1
  B  B9  1  0.500000  0.446161  0.566404  1
  B  B10  1  0.500000  0.053839  0.066404  1
  B  B11  1  0.500000  0.946161  0.933596  1
  B  B12  1  0.500000  0.749526  0.420437  1
  B  B13  1  0.500000  0.250474  0.579563  1
  B  B14  1  0.500000  0.249526  0.079563  1
  B  B15  1  0.500000  0.750474  0.920437  1
  B  B16  1  0.500000  0.792557  0.266003  1
  B  B17  1  0.500000  0.207443  0.733996  1
  B  B18  1  0.500000  0.292557  0.233997  1
  B  B19  1  0.500000  0.707443  0.766004  1
  B  B20  1  0.500000  0.631474  0.184444  1
  B  B21  1  0.500000  0.368526  0.815556  1
  B  B22  1  0.500000  0.131474  0.315556  1
  B  B23  1  0.500000  0.868526  0.684444  1
  B  B24  1  0.500000  0.982281  0.213376  1
  B  B25  1  0.500000  0.017719  0.786624  1
  B  B26  1  0.500000  0.482281  0.286624  1
  B  B27  1  0.500000  0.517719  0.713376  1
  B  B28  1  0.500000  0.605036  0.029062  1
  B  B29  1  0.500000  0.394964  0.970938  1
  B  B30  1  0.500000  0.105036  0.470938  1
  B  B31  1  0.500000  0.894964  0.529062  1
  Os  Os32  1  0.000000  0.638201  0.320981  1
  Os  Os33  1  0.000000  0.361799  0.679019  1
  Os  Os34  1  0.000000  0.138201  0.179019  1
  Os  Os35  1  0.000000  0.861799  0.820981  1
