# generated using pymatgen
data_Er16Co3NiAg4
_symmetry_space_group_name_H-M   'P 1'
_cell_length_a   9.31202957
_cell_length_b   9.33373421
_cell_length_c   9.33373400
_cell_angle_alpha   59.99999366
_cell_angle_beta   59.92286082
_cell_angle_gamma   59.92286640
_symmetry_Int_Tables_number   1
_chemical_formula_structural   Er16Co3NiAg4
_chemical_formula_sum   'Er16 Co3 Ni1 Ag4'
_cell_volume   572.97126350
_cell_formula_units_Z   1
loop_
 _symmetry_equiv_pos_site_id
 _symmetry_equiv_pos_as_xyz
  1  'x, y, z'
loop_
 _atom_site_type_symbol
 _atom_site_label
 _atom_site_symmetry_multiplicity
 _atom_site_fract_x
 _atom_site_fract_y
 _atom_site_fract_z
 _atom_site_occupancy
  Er  Er0  1  0.346896  0.349887  0.349887  1
  Er  Er1  1  0.346896  0.349887  0.953330  1
  Er  Er2  1  0.346896  0.953330  0.349887  1
  Er  Er3  1  0.958135  0.347289  0.347289  1
  Er  Er4  1  0.814055  0.188512  0.188512  1
  Er  Er5  1  0.187367  0.812359  0.812359  1
  Er  Er6  1  0.187367  0.812359  0.187914  1
  Er  Er7  1  0.814055  0.188512  0.808922  1
  Er  Er8  1  0.187367  0.187914  0.812359  1
  Er  Er9  1  0.814055  0.808922  0.188512  1
  Er  Er10  1  0.935989  0.563587  0.563587  1
  Er  Er11  1  0.561622  0.936731  0.936731  1
  Er  Er12  1  0.561622  0.936731  0.564918  1
  Er  Er13  1  0.935989  0.563587  0.936837  1
  Er  Er14  1  0.561622  0.564918  0.936731  1
  Er  Er15  1  0.935989  0.936837  0.563587  1
  Co  Co16  1  0.143403  0.141168  0.141168  1
  Co  Co17  1  0.143403  0.141168  0.574261  1
  Co  Co18  1  0.143403  0.574261  0.141168  1
  Ni  Ni19  1  0.574252  0.141916  0.141916  1
  Ag  Ag20  1  0.581754  0.581296  0.581296  1
  Ag  Ag21  1  0.581754  0.581296  0.255655  1
  Ag  Ag22  1  0.581754  0.255655  0.581296  1
  Ag  Ag23  1  0.254359  0.581880  0.581880  1
