# generated using pymatgen
data_SiNi8(Bi4Br)2
_symmetry_space_group_name_H-M   'P 1'
_cell_length_a   4.18145900
_cell_length_b   9.99530700
_cell_length_c   21.76659200
_cell_angle_alpha   90.00000000
_cell_angle_beta   90.00000000
_cell_angle_gamma   90.00000000
_symmetry_Int_Tables_number   1
_chemical_formula_structural   SiNi8(Bi4Br)2
_chemical_formula_sum   'Si2 Ni16 Bi16 Br4'
_cell_volume   909.73398156
_cell_formula_units_Z   2
loop_
 _symmetry_equiv_pos_site_id
 _symmetry_equiv_pos_as_xyz
  1  'x, y, z'
loop_
 _atom_site_type_symbol
 _atom_site_label
 _atom_site_symmetry_multiplicity
 _atom_site_fract_x
 _atom_site_fract_y
 _atom_site_fract_z
 _atom_site_occupancy
  Si  Si0  1  0.496328  0.500000  0.000000  1
  Si  Si1  1  0.503672  0.000000  0.500000  1
  Ni  Ni2  1  0.752683  0.310245  0.970461  1
  Ni  Ni3  1  0.752683  0.689755  0.029539  1
  Ni  Ni4  1  0.247317  0.810245  0.529539  1
  Ni  Ni5  1  0.247317  0.189755  0.470461  1
  Ni  Ni6  1  0.248468  0.588437  0.085110  1
  Ni  Ni7  1  0.248468  0.411563  0.914890  1
  Ni  Ni8  1  0.751532  0.088437  0.414890  1
  Ni  Ni9  1  0.751532  0.911563  0.585110  1
  Ni  Ni10  1  0.245835  0.321274  0.041865  1
  Ni  Ni11  1  0.245835  0.678726  0.958135  1
  Ni  Ni12  1  0.754165  0.821274  0.458135  1
  Ni  Ni13  1  0.754165  0.178726  0.541865  1
  Ni  Ni14  1  0.751974  0.437558  0.088593  1
  Ni  Ni15  1  0.751974  0.562442  0.911407  1
  Ni  Ni16  1  0.248026  0.937558  0.411407  1
  Ni  Ni17  1  0.248026  0.062442  0.588593  1
  Bi  Bi18  1  0.252588  0.382071  0.166236  1
  Bi  Bi19  1  0.252588  0.617929  0.833764  1
  Bi  Bi20  1  0.747412  0.882071  0.333764  1
  Bi  Bi21  1  0.747412  0.117929  0.666236  1
  Bi  Bi22  1  0.744523  0.166831  0.079532  1
  Bi  Bi23  1  0.744523  0.833169  0.920468  1
  Bi  Bi24  1  0.255477  0.666831  0.420468  1
  Bi  Bi25  1  0.255477  0.333169  0.579532  1
  Bi  Bi26  1  0.253550  0.145189  0.945727  1
  Bi  Bi27  1  0.253550  0.854811  0.054273  1
  Bi  Bi28  1  0.746450  0.645189  0.554273  1
  Bi  Bi29  1  0.746450  0.354811  0.445727  1
  Bi  Bi30  1  0.747856  0.669397  0.156199  1
  Bi  Bi31  1  0.747856  0.330603  0.843801  1
  Bi  Bi32  1  0.252144  0.169397  0.343801  1
  Bi  Bi33  1  0.252144  0.830603  0.656199  1
  Br  Br34  1  0.250498  0.005990  0.795102  1
  Br  Br35  1  0.250498  0.994010  0.204898  1
  Br  Br36  1  0.749502  0.505990  0.704898  1
  Br  Br37  1  0.749502  0.494010  0.295102  1
