# generated using pymatgen
data_Pa5Cr3(Ni4As3)4
_symmetry_space_group_name_H-M   'P 1'
_cell_length_a   12.59053500
_cell_length_b   12.59053375
_cell_length_c   3.90400800
_cell_angle_alpha   90.00000000
_cell_angle_beta   90.00000000
_cell_angle_gamma   120.00000066
_symmetry_Int_Tables_number   1
_chemical_formula_structural   Pa5Cr3(Ni4As3)4
_chemical_formula_sum   'Pa5 Cr3 Ni16 As12'
_cell_volume   535.95663758
_cell_formula_units_Z   1
loop_
 _symmetry_equiv_pos_site_id
 _symmetry_equiv_pos_as_xyz
  1  'x, y, z'
loop_
 _atom_site_type_symbol
 _atom_site_label
 _atom_site_symmetry_multiplicity
 _atom_site_fract_x
 _atom_site_fract_y
 _atom_site_fract_z
 _atom_site_occupancy
  Pa  Pa0  1  0.187168  0.187168  0.500000  1
  Pa  Pa1  1  0.812832  0.000000  0.500000  1
  Pa  Pa2  1  0.000000  0.812832  0.500000  1
  Pa  Pa3  1  0.333333  0.666667  0.000000  1
  Pa  Pa4  1  0.666667  0.333333  0.000000  1
  Cr  Cr5  1  0.563767  0.563767  0.000000  1
  Cr  Cr6  1  0.436233  0.000000  0.000000  1
  Cr  Cr7  1  0.000000  0.436233  0.000000  1
  Ni  Ni8  1  0.720220  0.720220  0.500000  1
  Ni  Ni9  1  0.279780  0.000000  0.500000  1
  Ni  Ni10  1  0.000000  0.279780  0.500000  1
  Ni  Ni11  1  0.185735  0.377795  0.000000  1
  Ni  Ni12  1  0.622205  0.807941  0.000000  1
  Ni  Ni13  1  0.192059  0.814265  0.000000  1
  Ni  Ni14  1  0.807941  0.622205  0.000000  1
  Ni  Ni15  1  0.814265  0.192059  0.000000  1
  Ni  Ni16  1  0.377795  0.185735  0.000000  1
  Ni  Ni17  1  0.355866  0.478466  0.500000  1
  Ni  Ni18  1  0.521534  0.877402  0.500000  1
  Ni  Ni19  1  0.122598  0.644134  0.500000  1
  Ni  Ni20  1  0.877402  0.521534  0.500000  1
  Ni  Ni21  1  0.644134  0.122598  0.500000  1
  Ni  Ni22  1  0.478466  0.355866  0.500000  1
  Ni  Ni23  1  0.000000  0.000000  0.000000  1
  As  As24  1  0.819900  0.819900  0.000000  1
  As  As25  1  0.180100  0.000000  0.000000  1
  As  As26  1  0.000000  0.180100  0.000000  1
  As  As27  1  0.165460  0.481514  0.500000  1
  As  As28  1  0.518486  0.683946  0.500000  1
  As  As29  1  0.316054  0.834540  0.500000  1
  As  As30  1  0.683946  0.518486  0.500000  1
  As  As31  1  0.834540  0.316054  0.500000  1
  As  As32  1  0.481514  0.165460  0.500000  1
  As  As33  1  0.369537  0.369537  0.000000  1
  As  As34  1  0.630463  0.000000  0.000000  1
  As  As35  1  0.000000  0.630463  0.000000  1
