# generated using pymatgen
data_CeTcMo5S8
_symmetry_space_group_name_H-M   'P 1'
_cell_length_a   6.56038893
_cell_length_b   6.58092967
_cell_length_c   6.55558163
_cell_angle_alpha   88.87526146
_cell_angle_beta   89.60289002
_cell_angle_gamma   89.58234868
_symmetry_Int_Tables_number   1
_chemical_formula_structural   CeTcMo5S8
_chemical_formula_sum   'Ce1 Tc1 Mo5 S8'
_cell_volume   282.95855909
_cell_formula_units_Z   1
loop_
 _symmetry_equiv_pos_site_id
 _symmetry_equiv_pos_as_xyz
  1  'x, y, z'
loop_
 _atom_site_type_symbol
 _atom_site_label
 _atom_site_symmetry_multiplicity
 _atom_site_fract_x
 _atom_site_fract_y
 _atom_site_fract_z
 _atom_site_occupancy
  Ce  Ce0  1  0.001030  0.995637  0.000833  1
  Tc  Tc1  1  0.561317  0.229045  0.420741  1
  Mo  Mo2  1  0.419239  0.563612  0.228352  1
  Mo  Mo3  1  0.227990  0.420132  0.560489  1
  Mo  Mo4  1  0.770832  0.581396  0.438735  1
  Mo  Mo5  1  0.579386  0.437834  0.771833  1
  Mo  Mo6  1  0.438264  0.772450  0.580025  1
  S  S7  1  0.742645  0.371444  0.130988  1
  S  S8  1  0.375165  0.126854  0.741337  1
  S  S9  1  0.247354  0.242444  0.244094  1
  S  S10  1  0.126790  0.746029  0.372657  1
  S  S11  1  0.869575  0.253773  0.626785  1
  S  S12  1  0.758134  0.756659  0.757352  1
  S  S13  1  0.627555  0.875881  0.253260  1
  S  S14  1  0.254722  0.626810  0.872521  1
