# generated using pymatgen
data_Yb6Al24Os5Au3
_symmetry_space_group_name_H-M   'P 1'
_cell_length_a   8.97411513
_cell_length_b   8.93063091
_cell_length_c   9.63065900
_cell_angle_alpha   89.90854491
_cell_angle_beta   90.00985776
_cell_angle_gamma   119.46279155
_symmetry_Int_Tables_number   1
_chemical_formula_structural   Yb6Al24Os5Au3
_chemical_formula_sum   'Yb6 Al24 Os5 Au3'
_cell_volume   672.02486982
_cell_formula_units_Z   1
loop_
 _symmetry_equiv_pos_site_id
 _symmetry_equiv_pos_as_xyz
  1  'x, y, z'
loop_
 _atom_site_type_symbol
 _atom_site_label
 _atom_site_symmetry_multiplicity
 _atom_site_fract_x
 _atom_site_fract_y
 _atom_site_fract_z
 _atom_site_occupancy
  Yb  Yb0  1  0.189331  0.386157  0.254216  1
  Yb  Yb1  1  0.810669  0.613843  0.745784  1
  Yb  Yb2  1  0.618404  0.811858  0.251224  1
  Yb  Yb3  1  0.381596  0.188142  0.748776  1
  Yb  Yb4  1  0.194630  0.804827  0.250681  1
  Yb  Yb5  1  0.805370  0.195173  0.749319  1
  Al  Al6  1  0.321109  0.661104  0.009516  1
  Al  Al7  1  0.678891  0.338896  0.990484  1
  Al  Al8  1  0.674376  0.326376  0.511698  1
  Al  Al9  1  0.325624  0.673624  0.488302  1
  Al  Al10  1  0.148523  0.319832  0.579826  1
  Al  Al11  1  0.851477  0.680168  0.420174  1
  Al  Al12  1  0.680937  0.851901  0.577873  1
  Al  Al13  1  0.852221  0.680729  0.080832  1
  Al  Al14  1  0.319063  0.148099  0.422127  1
  Al  Al15  1  0.147779  0.319271  0.919168  1
  Al  Al16  1  0.161795  0.837710  0.578344  1
  Al  Al17  1  0.315594  0.158400  0.083880  1
  Al  Al18  1  0.838205  0.162290  0.421656  1
  Al  Al19  1  0.684406  0.841600  0.916120  1
  Al  Al20  1  0.850660  0.171549  0.083622  1
  Al  Al21  1  0.149340  0.828451  0.916378  1
  Al  Al22  1  0.565748  0.126500  0.255738  1
  Al  Al23  1  0.434252  0.873500  0.744262  1
  Al  Al24  1  0.882998  0.441954  0.250021  1
  Al  Al25  1  0.117002  0.558046  0.749979  1
  Al  Al26  1  0.569494  0.435533  0.249507  1
  Al  Al27  1  0.430506  0.564467  0.750493  1
  Al  Al28  1  0.998628  0.000004  0.250556  1
  Al  Al29  1  0.001372  0.999996  0.749444  1
  Os  Os30  1  0.000000  0.500000  0.000000  1
  Os  Os31  1  0.500000  0.000000  0.500000  1
  Os  Os32  1  0.000000  0.500000  0.500000  1
  Os  Os33  1  0.000000  0.000000  0.000000  1
  Os  Os34  1  0.000000  0.000000  0.500000  1
  Au  Au35  1  0.500000  0.000000  0.000000  1
  Au  Au36  1  0.500000  0.500000  0.000000  1
  Au  Au37  1  0.500000  0.500000  0.500000  1
