# generated using pymatgen
data_Ho3ThSn6Rh7
_symmetry_space_group_name_H-M   'P 1'
_cell_length_a   7.59786998
_cell_length_b   7.59787052
_cell_length_c   7.59787000
_cell_angle_alpha   109.46591369
_cell_angle_beta   109.46591512
_cell_angle_gamma   109.46590984
_symmetry_Int_Tables_number   1
_chemical_formula_structural   Ho3ThSn6Rh7
_chemical_formula_sum   'Ho3 Th1 Sn6 Rh7'
_cell_volume   337.70619605
_cell_formula_units_Z   1
loop_
 _symmetry_equiv_pos_site_id
 _symmetry_equiv_pos_as_xyz
  1  'x, y, z'
loop_
 _atom_site_type_symbol
 _atom_site_label
 _atom_site_symmetry_multiplicity
 _atom_site_fract_x
 _atom_site_fract_y
 _atom_site_fract_z
 _atom_site_occupancy
  Ho  Ho0  1  0.000000  0.000000  0.500000  1
  Ho  Ho1  1  0.000000  0.500000  0.000000  1
  Ho  Ho2  1  0.500000  0.000000  0.000000  1
  Th  Th3  1  0.500000  0.500000  0.500000  1
  Sn  Sn4  1  0.688309  0.688309  0.007394  1
  Sn  Sn5  1  0.311691  0.992606  0.311691  1
  Sn  Sn6  1  0.992606  0.311691  0.311691  1
  Sn  Sn7  1  0.311691  0.311691  0.992606  1
  Sn  Sn8  1  0.688309  0.007394  0.688309  1
  Sn  Sn9  1  0.007394  0.688309  0.688309  1
  Rh  Rh10  1  0.749540  0.250460  0.500000  1
  Rh  Rh11  1  0.749540  0.500000  0.250460  1
  Rh  Rh12  1  0.500000  0.250460  0.749540  1
  Rh  Rh13  1  0.250460  0.500000  0.749540  1
  Rh  Rh14  1  0.250460  0.749540  0.500000  1
  Rh  Rh15  1  0.500000  0.749540  0.250460  1
  Rh  Rh16  1  0.000000  0.000000  0.000000  1
