# generated using pymatgen
data_Nd2USn3Ir2Rh
_symmetry_space_group_name_H-M   'P 1'
_cell_length_a   7.72232400
_cell_length_b   7.59247948
_cell_length_c   3.95889700
_cell_angle_alpha   90.00000000
_cell_angle_beta   90.00000000
_cell_angle_gamma   120.56734289
_symmetry_Int_Tables_number   1
_chemical_formula_structural   Nd2USn3Ir2Rh
_chemical_formula_sum   'Nd2 U1 Sn3 Ir2 Rh1'
_cell_volume   199.85966477
_cell_formula_units_Z   1
loop_
 _symmetry_equiv_pos_site_id
 _symmetry_equiv_pos_as_xyz
  1  'x, y, z'
loop_
 _atom_site_type_symbol
 _atom_site_label
 _atom_site_symmetry_multiplicity
 _atom_site_fract_x
 _atom_site_fract_y
 _atom_site_fract_z
 _atom_site_occupancy
  Nd  Nd0  1  0.999673  0.589393  0.000000  1
  Nd  Nd1  1  0.410280  0.410607  0.000000  1
  U  U2  1  0.582284  0.000000  0.000000  1
  Sn  Sn3  1  0.239830  0.000000  0.500000  1
  Sn  Sn4  1  0.008753  0.262194  0.500000  1
  Sn  Sn5  1  0.746560  0.737806  0.500000  1
  Ir  Ir6  1  0.373106  0.713874  0.500000  1
  Ir  Ir7  1  0.659233  0.286126  0.500000  1
  Rh  Rh8  1  0.980278  0.000000  0.000000  1
