# generated using pymatgen
data_Er5Pt9
_symmetry_space_group_name_H-M   'P 1'
_cell_length_a   9.71774900
_cell_length_b   9.71774900
_cell_length_c   5.75126100
_cell_angle_alpha   90.00000000
_cell_angle_beta   90.00000000
_cell_angle_gamma   90.00000000
_symmetry_Int_Tables_number   1
_chemical_formula_structural   Er5Pt9
_chemical_formula_sum   'Er10 Pt18'
_cell_volume   543.11829444
_cell_formula_units_Z   2
loop_
 _symmetry_equiv_pos_site_id
 _symmetry_equiv_pos_as_xyz
  1  'x, y, z'
loop_
 _atom_site_type_symbol
 _atom_site_label
 _atom_site_symmetry_multiplicity
 _atom_site_fract_x
 _atom_site_fract_y
 _atom_site_fract_z
 _atom_site_occupancy
  Er  Er0  1  0.452502  0.809040  0.000000  1
  Er  Er1  1  0.547498  0.190960  0.000000  1
  Er  Er2  1  0.190960  0.547498  0.000000  1
  Er  Er3  1  0.809040  0.452502  0.000000  1
  Er  Er4  1  0.500000  0.500000  0.500000  1
  Er  Er5  1  0.309040  0.047498  0.500000  1
  Er  Er6  1  0.690960  0.952502  0.500000  1
  Er  Er7  1  0.952502  0.690960  0.500000  1
  Er  Er8  1  0.047498  0.309040  0.500000  1
  Er  Er9  1  0.000000  0.000000  0.000000  1
  Pt  Pt10  1  0.191701  0.808299  0.250201  1
  Pt  Pt11  1  0.808299  0.191701  0.749799  1
  Pt  Pt12  1  0.808299  0.191701  0.250201  1
  Pt  Pt13  1  0.191701  0.808299  0.749799  1
  Pt  Pt14  1  0.440681  0.782244  0.500000  1
  Pt  Pt15  1  0.559319  0.217756  0.500000  1
  Pt  Pt16  1  0.217756  0.559319  0.500000  1
  Pt  Pt17  1  0.782244  0.440681  0.500000  1
  Pt  Pt18  1  0.308299  0.308299  0.249799  1
  Pt  Pt19  1  0.691701  0.691701  0.750201  1
  Pt  Pt20  1  0.691701  0.691701  0.249799  1
  Pt  Pt21  1  0.308299  0.308299  0.750201  1
  Pt  Pt22  1  0.282244  0.059319  0.000000  1
  Pt  Pt23  1  0.717756  0.940681  0.000000  1
  Pt  Pt24  1  0.940681  0.717756  0.000000  1
  Pt  Pt25  1  0.059319  0.282244  0.000000  1
  Pt  Pt26  1  0.000000  0.000000  0.500000  1
  Pt  Pt27  1  0.500000  0.500000  0.000000  1
