# generated using pymatgen
data_Tb15Y(HgPd)4
_symmetry_space_group_name_H-M   'P 1'
_cell_length_a   9.70444113
_cell_length_b   9.70444080
_cell_length_c   9.70681800
_cell_angle_alpha   59.99189645
_cell_angle_beta   59.99189757
_cell_angle_gamma   60.04642015
_symmetry_Int_Tables_number   1
_chemical_formula_structural   Tb15Y(HgPd)4
_chemical_formula_sum   'Tb15 Y1 Hg4 Pd4'
_cell_volume   646.54956241
_cell_formula_units_Z   1
loop_
 _symmetry_equiv_pos_site_id
 _symmetry_equiv_pos_as_xyz
  1  'x, y, z'
loop_
 _atom_site_type_symbol
 _atom_site_label
 _atom_site_symmetry_multiplicity
 _atom_site_fract_x
 _atom_site_fract_y
 _atom_site_fract_z
 _atom_site_occupancy
  Tb  Tb0  1  0.355802  0.355802  0.353812  1
  Tb  Tb1  1  0.355802  0.355802  0.934584  1
  Tb  Tb2  1  0.358217  0.929436  0.356174  1
  Tb  Tb3  1  0.929436  0.358217  0.356174  1
  Tb  Tb4  1  0.811714  0.188750  0.189642  1
  Tb  Tb5  1  0.188750  0.811714  0.809894  1
  Tb  Tb6  1  0.188750  0.811714  0.189642  1
  Tb  Tb7  1  0.811714  0.188750  0.809894  1
  Tb  Tb8  1  0.189848  0.189848  0.810152  1
  Tb  Tb9  1  0.811205  0.811205  0.188795  1
  Tb  Tb10  1  0.936764  0.563675  0.565039  1
  Tb  Tb11  1  0.563675  0.936764  0.934522  1
  Tb  Tb12  1  0.563675  0.936764  0.565039  1
  Tb  Tb13  1  0.936764  0.563675  0.934522  1
  Tb  Tb14  1  0.565157  0.565157  0.934843  1
  Y  Y15  1  0.936096  0.936096  0.563904  1
  Hg  Hg16  1  0.585920  0.585920  0.587327  1
  Hg  Hg17  1  0.585920  0.585920  0.240834  1
  Hg  Hg18  1  0.586030  0.239519  0.587226  1
  Hg  Hg19  1  0.239519  0.586030  0.587226  1
  Pd  Pd20  1  0.145324  0.145324  0.147390  1
  Pd  Pd21  1  0.145324  0.145324  0.561962  1
  Pd  Pd22  1  0.144394  0.564201  0.145703  1
  Pd  Pd23  1  0.564201  0.144394  0.145703  1
