# generated using pymatgen
data_Hf10Ga6O
_symmetry_space_group_name_H-M   'P 1'
_cell_length_a   7.97973000
_cell_length_b   7.97973146
_cell_length_c   5.68278100
_cell_angle_alpha   90.00000000
_cell_angle_beta   90.00000000
_cell_angle_gamma   120.00000225
_symmetry_Int_Tables_number   1
_chemical_formula_structural   Hf10Ga6O
_chemical_formula_sum   'Hf10 Ga6 O1'
_cell_volume   313.37764657
_cell_formula_units_Z   1
loop_
 _symmetry_equiv_pos_site_id
 _symmetry_equiv_pos_as_xyz
  1  'x, y, z'
loop_
 _atom_site_type_symbol
 _atom_site_label
 _atom_site_symmetry_multiplicity
 _atom_site_fract_x
 _atom_site_fract_y
 _atom_site_fract_z
 _atom_site_occupancy
  Hf  Hf0  1  0.000000  0.761173  0.253474  1
  Hf  Hf1  1  0.238827  0.238827  0.253474  1
  Hf  Hf2  1  0.761173  0.000000  0.253474  1
  Hf  Hf3  1  0.000000  0.238827  0.746526  1
  Hf  Hf4  1  0.761173  0.761173  0.746526  1
  Hf  Hf5  1  0.238827  0.000000  0.746526  1
  Hf  Hf6  1  0.333333  0.666667  0.500000  1
  Hf  Hf7  1  0.666667  0.333333  0.500000  1
  Hf  Hf8  1  0.666667  0.333333  0.000000  1
  Hf  Hf9  1  0.333333  0.666667  0.000000  1
  Ga  Ga10  1  0.000000  0.396142  0.246687  1
  Ga  Ga11  1  0.603858  0.603858  0.246687  1
  Ga  Ga12  1  0.396142  0.000000  0.246687  1
  Ga  Ga13  1  0.000000  0.603858  0.753313  1
  Ga  Ga14  1  0.396142  0.396142  0.753313  1
  Ga  Ga15  1  0.603858  0.000000  0.753313  1
  O  O16  1  0.000000  0.000000  0.500000  1
