# generated using pymatgen
data_NdErLuTaO7
_symmetry_space_group_name_H-M   'P 1'
_cell_length_a   6.44229539
_cell_length_b   6.44603697
_cell_length_c   7.55003800
_cell_angle_alpha   90.00000000
_cell_angle_beta   90.00000000
_cell_angle_gamma   109.24194492
_symmetry_Int_Tables_number   1
_chemical_formula_structural   NdErLuTaO7
_chemical_formula_sum   'Nd2 Er2 Lu2 Ta2 O14'
_cell_volume   296.01711925
_cell_formula_units_Z   2
loop_
 _symmetry_equiv_pos_site_id
 _symmetry_equiv_pos_as_xyz
  1  'x, y, z'
loop_
 _atom_site_type_symbol
 _atom_site_label
 _atom_site_symmetry_multiplicity
 _atom_site_fract_x
 _atom_site_fract_y
 _atom_site_fract_z
 _atom_site_occupancy
  Nd  Nd0  1  0.500000  0.500000  0.500000  1
  Nd  Nd1  1  0.500000  0.500000  0.000000  1
  Er  Er2  1  0.001532  0.533826  0.250000  1
  Er  Er3  1  0.998468  0.466174  0.750000  1
  Lu  Lu4  1  0.530154  0.002323  0.750000  1
  Lu  Lu5  1  0.469846  0.997677  0.250000  1
  Ta  Ta6  1  0.000000  0.000000  0.500000  1
  Ta  Ta7  1  0.000000  0.000000  0.000000  1
  O  O8  1  0.931548  0.065907  0.750000  1
  O  O9  1  0.068452  0.934093  0.250000  1
  O  O10  1  0.356878  0.647672  0.250000  1
  O  O11  1  0.643122  0.352328  0.750000  1
  O  O12  1  0.364356  0.642587  0.750000  1
  O  O13  1  0.635644  0.357413  0.250000  1
  O  O14  1  0.322078  0.066764  0.965032  1
  O  O15  1  0.677922  0.933236  0.465032  1
  O  O16  1  0.322078  0.066764  0.534968  1
  O  O17  1  0.677922  0.933236  0.034968  1
  O  O18  1  0.071202  0.322634  0.466701  1
  O  O19  1  0.928798  0.677366  0.966701  1
  O  O20  1  0.928798  0.677366  0.533299  1
  O  O21  1  0.071202  0.322634  0.033299  1
