# generated using pymatgen
data_SrLi4Cu3F12
_symmetry_space_group_name_H-M   'P 1'
_cell_length_a   6.52314981
_cell_length_b   6.52323900
_cell_length_c   6.52010301
_cell_angle_alpha   70.53846092
_cell_angle_beta   70.53576495
_cell_angle_gamma   109.47870022
_symmetry_Int_Tables_number   1
_chemical_formula_structural   SrLi4Cu3F12
_chemical_formula_sum   'Sr1 Li4 Cu3 F12'
_cell_volume   213.60058367
_cell_formula_units_Z   1
loop_
 _symmetry_equiv_pos_site_id
 _symmetry_equiv_pos_as_xyz
  1  'x, y, z'
loop_
 _atom_site_type_symbol
 _atom_site_label
 _atom_site_symmetry_multiplicity
 _atom_site_fract_x
 _atom_site_fract_y
 _atom_site_fract_z
 _atom_site_occupancy
  Sr  Sr0  1  0.000000  0.000000  0.000000  1
  Li  Li1  1  0.999999  0.500000  0.000000  1
  Li  Li2  1  0.500000  0.499999  0.499999  1
  Li  Li3  1  0.500001  0.000001  0.999999  1
  Li  Li4  1  0.000002  0.000000  0.500000  1
  Cu  Cu5  1  0.500000  0.999999  0.500001  1
  Cu  Cu6  1  0.500000  0.500000  0.000001  1
  Cu  Cu7  1  0.000001  0.499999  0.499999  1
  F  F8  1  0.828687  0.518346  0.309755  1
  F  F9  1  0.171312  0.481652  0.690246  1
  F  F10  1  0.828320  0.138237  0.690308  1
  F  F11  1  0.171681  0.861762  0.309690  1
  F  F12  1  0.689664  0.171318  0.138433  1
  F  F13  1  0.310334  0.828682  0.861567  1
  F  F14  1  0.309915  0.171685  0.518632  1
  F  F15  1  0.690086  0.828315  0.481368  1
  F  F16  1  0.481664  0.310349  0.828095  1
  F  F17  1  0.518335  0.689651  0.171906  1
  F  F18  1  0.861776  0.690089  0.828533  1
  F  F19  1  0.138223  0.309911  0.171466  1
