# generated using pymatgen
data_TlAgS5
_symmetry_space_group_name_H-M   'P 1'
_cell_length_a   10.48065121
_cell_length_b   10.48065069
_cell_length_c   10.48065100
_cell_angle_alpha   129.78157898
_cell_angle_beta   117.73858261
_cell_angle_gamma   83.95550115
_symmetry_Int_Tables_number   1
_chemical_formula_structural   TlAgS5
_chemical_formula_sum   'Tl4 Ag4 S20'
_cell_volume   751.02271835
_cell_formula_units_Z   4
loop_
 _symmetry_equiv_pos_site_id
 _symmetry_equiv_pos_as_xyz
  1  'x, y, z'
loop_
 _atom_site_type_symbol
 _atom_site_label
 _atom_site_symmetry_multiplicity
 _atom_site_fract_x
 _atom_site_fract_y
 _atom_site_fract_z
 _atom_site_occupancy
  Tl  Tl0  1  0.250000  0.250000  0.000000  1
  Tl  Tl1  1  0.750000  0.750000  0.000000  1
  Tl  Tl2  1  0.000000  0.500000  0.500000  1
  Tl  Tl3  1  0.500000  0.000000  0.500000  1
  Ag  Ag4  1  0.884930  0.250000  0.634930  1
  Ag  Ag5  1  0.615070  0.250000  0.365070  1
  Ag  Ag6  1  0.115070  0.750000  0.365070  1
  Ag  Ag7  1  0.384930  0.750000  0.634930  1
  S  S8  1  0.426434  0.401883  0.612300  1
  S  S9  1  0.073566  0.685866  0.975449  1
  S  S10  1  0.710415  0.098117  0.024551  1
  S  S11  1  0.789585  0.814134  0.387700  1
  S  S12  1  0.573566  0.598117  0.387700  1
  S  S13  1  0.926434  0.314134  0.024551  1
  S  S14  1  0.289585  0.901883  0.975449  1
  S  S15  1  0.210415  0.185866  0.612300  1
  S  S16  1  0.986882  0.149178  0.433837  1
  S  S17  1  0.513118  0.946955  0.162296  1
  S  S18  1  0.784659  0.350822  0.837704  1
  S  S19  1  0.715341  0.553045  0.566163  1
  S  S20  1  0.013118  0.850822  0.566163  1
  S  S21  1  0.486882  0.053045  0.837704  1
  S  S22  1  0.215341  0.649178  0.162296  1
  S  S23  1  0.284659  0.446955  0.433837  1
  S  S24  1  0.338159  0.427292  0.765450  1
  S  S25  1  0.161841  0.927292  0.089134  1
  S  S26  1  0.838159  0.072708  0.910866  1
  S  S27  1  0.661841  0.572708  0.234550  1
