# generated using pymatgen
data_Li3Dy5(Ni4P3)4
_symmetry_space_group_name_H-M   'P 1'
_cell_length_a   12.10268300
_cell_length_b   12.10268281
_cell_length_c   3.77191600
_cell_angle_alpha   90.00000000
_cell_angle_beta   90.00000000
_cell_angle_gamma   119.99999779
_symmetry_Int_Tables_number   1
_chemical_formula_structural   Li3Dy5(Ni4P3)4
_chemical_formula_sum   'Li3 Dy5 Ni16 P12'
_cell_volume   478.47137778
_cell_formula_units_Z   1
loop_
 _symmetry_equiv_pos_site_id
 _symmetry_equiv_pos_as_xyz
  1  'x, y, z'
loop_
 _atom_site_type_symbol
 _atom_site_label
 _atom_site_symmetry_multiplicity
 _atom_site_fract_x
 _atom_site_fract_y
 _atom_site_fract_z
 _atom_site_occupancy
  Li  Li0  1  0.000000  0.436317  0.500000  1
  Li  Li1  1  0.563683  0.563683  0.500000  1
  Li  Li2  1  0.436317  0.000000  0.500000  1
  Dy  Dy3  1  0.333333  0.666667  0.500000  1
  Dy  Dy4  1  0.666667  0.333333  0.500000  1
  Dy  Dy5  1  0.000000  0.811674  0.000000  1
  Dy  Dy6  1  0.188326  0.188326  0.000000  1
  Dy  Dy7  1  0.811674  0.000000  0.000000  1
  Ni  Ni8  1  0.515821  0.877839  0.000000  1
  Ni  Ni9  1  0.122161  0.637983  0.000000  1
  Ni  Ni10  1  0.362017  0.484179  0.000000  1
  Ni  Ni11  1  0.484179  0.362017  0.000000  1
  Ni  Ni12  1  0.877839  0.515821  0.000000  1
  Ni  Ni13  1  0.637983  0.122161  0.000000  1
  Ni  Ni14  1  0.000000  0.281295  0.000000  1
  Ni  Ni15  1  0.718705  0.718705  0.000000  1
  Ni  Ni16  1  0.281295  0.000000  0.000000  1
  Ni  Ni17  1  0.619672  0.803031  0.500000  1
  Ni  Ni18  1  0.196969  0.816640  0.500000  1
  Ni  Ni19  1  0.183360  0.380328  0.500000  1
  Ni  Ni20  1  0.380328  0.183360  0.500000  1
  Ni  Ni21  1  0.803031  0.619672  0.500000  1
  Ni  Ni22  1  0.816640  0.196969  0.500000  1
  Ni  Ni23  1  0.000000  0.000000  0.500000  1
  P  P24  1  0.000000  0.635076  0.500000  1
  P  P25  1  0.364924  0.364924  0.500000  1
  P  P26  1  0.635076  0.000000  0.500000  1
  P  P27  1  0.522419  0.692133  0.000000  1
  P  P28  1  0.307867  0.830286  0.000000  1
  P  P29  1  0.169714  0.477581  0.000000  1
  P  P30  1  0.477581  0.169714  0.000000  1
  P  P31  1  0.692133  0.522419  0.000000  1
  P  P32  1  0.830286  0.307867  0.000000  1
  P  P33  1  0.000000  0.178700  0.500000  1
  P  P34  1  0.821300  0.821300  0.500000  1
  P  P35  1  0.178700  0.000000  0.500000  1
