# generated using pymatgen
data_Nd4TcCl4
_symmetry_space_group_name_H-M   'P 1'
_cell_length_a   8.97340962
_cell_length_b   8.97341021
_cell_length_c   6.73329600
_cell_angle_alpha   90.07845810
_cell_angle_beta   90.07846079
_cell_angle_gamma   89.70704770
_symmetry_Int_Tables_number   1
_chemical_formula_structural   Nd4TcCl4
_chemical_formula_sum   'Nd8 Tc2 Cl8'
_cell_volume   542.17093803
_cell_formula_units_Z   2
loop_
 _symmetry_equiv_pos_site_id
 _symmetry_equiv_pos_as_xyz
  1  'x, y, z'
loop_
 _atom_site_type_symbol
 _atom_site_label
 _atom_site_symmetry_multiplicity
 _atom_site_fract_x
 _atom_site_fract_y
 _atom_site_fract_z
 _atom_site_occupancy
  Nd  Nd0  1  0.105005  0.741713  0.987708  1
  Nd  Nd1  1  0.258287  0.894995  0.512292  1
  Nd  Nd2  1  0.894995  0.258287  0.012292  1
  Nd  Nd3  1  0.741713  0.105005  0.487708  1
  Nd  Nd4  1  0.742686  0.895554  0.001250  1
  Nd  Nd5  1  0.104446  0.257314  0.498750  1
  Nd  Nd6  1  0.257314  0.104446  0.998750  1
  Nd  Nd7  1  0.895554  0.742686  0.501250  1
  Tc  Tc8  1  0.005128  0.994872  0.250000  1
  Tc  Tc9  1  0.994872  0.005128  0.750000  1
  Cl  Cl10  1  0.414043  0.822299  0.917659  1
  Cl  Cl11  1  0.177701  0.585957  0.582341  1
  Cl  Cl12  1  0.585957  0.177701  0.082341  1
  Cl  Cl13  1  0.822299  0.414043  0.417659  1
  Cl  Cl14  1  0.819433  0.587088  0.915244  1
  Cl  Cl15  1  0.412912  0.180567  0.584756  1
  Cl  Cl16  1  0.180567  0.412912  0.084756  1
  Cl  Cl17  1  0.587088  0.819433  0.415244  1
