# generated using pymatgen
data_Er6P12Ir17Ru
_symmetry_space_group_name_H-M   'P 1'
_cell_length_a   3.97595500
_cell_length_b   11.20465700
_cell_length_c   12.68450900
_cell_angle_alpha   90.00000000
_cell_angle_beta   90.00000000
_cell_angle_gamma   90.00000000
_symmetry_Int_Tables_number   1
_chemical_formula_structural   Er6P12Ir17Ru
_chemical_formula_sum   'Er6 P12 Ir17 Ru1'
_cell_volume   565.08488084
_cell_formula_units_Z   1
loop_
 _symmetry_equiv_pos_site_id
 _symmetry_equiv_pos_as_xyz
  1  'x, y, z'
loop_
 _atom_site_type_symbol
 _atom_site_label
 _atom_site_symmetry_multiplicity
 _atom_site_fract_x
 _atom_site_fract_y
 _atom_site_fract_z
 _atom_site_occupancy
  Er  Er0  1  0.750000  0.250000  0.477926  1
  Er  Er1  1  0.250000  0.750000  0.522521  1
  Er  Er2  1  0.250000  0.932666  0.793892  1
  Er  Er3  1  0.250000  0.567334  0.793892  1
  Er  Er4  1  0.750000  0.068086  0.205401  1
  Er  Er5  1  0.750000  0.431914  0.205401  1
  P  P6  1  0.250000  0.250000  0.122283  1
  P  P7  1  0.750000  0.750000  0.876855  1
  P  P8  1  0.250000  0.250000  0.646745  1
  P  P9  1  0.750000  0.750000  0.358908  1
  P  P10  1  0.250000  0.433164  0.381365  1
  P  P11  1  0.250000  0.066836  0.381365  1
  P  P12  1  0.750000  0.565650  0.618820  1
  P  P13  1  0.750000  0.934350  0.618820  1
  P  P14  1  0.250000  0.905136  0.108035  1
  P  P15  1  0.250000  0.594864  0.108035  1
  P  P16  1  0.750000  0.090800  0.890256  1
  P  P17  1  0.750000  0.409200  0.890256  1
  Ir  Ir18  1  0.750000  0.750000  0.176933  1
  Ir  Ir19  1  0.250000  0.250000  0.299771  1
  Ir  Ir20  1  0.750000  0.750000  0.699893  1
  Ir  Ir21  1  0.750000  0.250000  0.006927  1
  Ir  Ir22  1  0.250000  0.750000  0.979414  1
  Ir  Ir23  1  0.250000  0.416319  0.012653  1
  Ir  Ir24  1  0.250000  0.083681  0.012653  1
  Ir  Ir25  1  0.750000  0.583940  0.990335  1
  Ir  Ir26  1  0.750000  0.916060  0.990335  1
  Ir  Ir27  1  0.250000  0.452409  0.569018  1
  Ir  Ir28  1  0.250000  0.047591  0.569018  1
  Ir  Ir29  1  0.750000  0.548104  0.431146  1
  Ir  Ir30  1  0.750000  0.951896  0.431146  1
  Ir  Ir31  1  0.250000  0.880920  0.286929  1
  Ir  Ir32  1  0.250000  0.619080  0.286929  1
  Ir  Ir33  1  0.750000  0.121452  0.712404  1
  Ir  Ir34  1  0.750000  0.378548  0.712404  1
  Ru  Ru35  1  0.250000  0.250000  0.831318  1
