# generated using pymatgen
data_Hf4Nb4AlAs3
_symmetry_space_group_name_H-M   'P 1'
_cell_length_a   3.60823300
_cell_length_b   7.11221967
_cell_length_c   8.62632992
_cell_angle_alpha   89.66676129
_cell_angle_beta   90.00000000
_cell_angle_gamma   90.00000000
_symmetry_Int_Tables_number   1
_chemical_formula_structural   Hf4Nb4AlAs3
_chemical_formula_sum   'Hf4 Nb4 Al1 As3'
_cell_volume   221.36984164
_cell_formula_units_Z   1
loop_
 _symmetry_equiv_pos_site_id
 _symmetry_equiv_pos_as_xyz
  1  'x, y, z'
loop_
 _atom_site_type_symbol
 _atom_site_label
 _atom_site_symmetry_multiplicity
 _atom_site_fract_x
 _atom_site_fract_y
 _atom_site_fract_z
 _atom_site_occupancy
  Hf  Hf0  1  0.250000  0.045890  0.664489  1
  Hf  Hf1  1  0.250000  0.540135  0.831441  1
  Hf  Hf2  1  0.750000  0.458944  0.161471  1
  Hf  Hf3  1  0.750000  0.953492  0.334715  1
  Nb  Nb4  1  0.750000  0.859987  0.939209  1
  Nb  Nb5  1  0.250000  0.635513  0.440886  1
  Nb  Nb6  1  0.750000  0.371467  0.564953  1
  Nb  Nb7  1  0.250000  0.130276  0.058029  1
  Al  Al8  1  0.250000  0.255835  0.358291  1
  As  As9  1  0.250000  0.755922  0.145402  1
  As  As10  1  0.750000  0.750389  0.642879  1
  As  As11  1  0.750000  0.242149  0.858235  1
