# generated using pymatgen
data_Ca3Pr4Lu3Si8
_symmetry_space_group_name_H-M   'P 1'
_cell_length_a   7.45307410
_cell_length_b   7.85554302
_cell_length_c   14.90309124
_cell_angle_alpha   89.88727141
_cell_angle_beta   90.22082508
_cell_angle_gamma   90.23524925
_symmetry_Int_Tables_number   1
_chemical_formula_structural   Ca3Pr4Lu3Si8
_chemical_formula_sum   'Ca6 Pr8 Lu6 Si16'
_cell_volume   872.52985805
_cell_formula_units_Z   2
loop_
 _symmetry_equiv_pos_site_id
 _symmetry_equiv_pos_as_xyz
  1  'x, y, z'
loop_
 _atom_site_type_symbol
 _atom_site_label
 _atom_site_symmetry_multiplicity
 _atom_site_fract_x
 _atom_site_fract_y
 _atom_site_fract_z
 _atom_site_occupancy
  Ca  Ca0  1  0.326223  0.179518  0.622479  1
  Ca  Ca1  1  0.673777  0.820482  0.377521  1
  Ca  Ca2  1  0.658628  0.992476  0.750164  1
  Ca  Ca3  1  0.838000  0.493439  0.250292  1
  Ca  Ca4  1  0.341372  0.007524  0.249836  1
  Ca  Ca5  1  0.162000  0.506561  0.749708  1
  Pr  Pr6  1  0.017657  0.178668  0.401146  1
  Pr  Pr7  1  0.518006  0.319190  0.401252  1
  Pr  Pr8  1  0.482306  0.678445  0.903002  1
  Pr  Pr9  1  0.481994  0.680810  0.598748  1
  Pr  Pr10  1  0.982343  0.821332  0.598854  1
  Pr  Pr11  1  0.982087  0.820236  0.903514  1
  Pr  Pr12  1  0.517694  0.321555  0.096998  1
  Pr  Pr13  1  0.017913  0.179764  0.096486  1
  Lu  Lu14  1  0.173058  0.678610  0.375970  1
  Lu  Lu15  1  0.828771  0.319698  0.877782  1
  Lu  Lu16  1  0.826942  0.321390  0.624030  1
  Lu  Lu17  1  0.327319  0.180274  0.878223  1
  Lu  Lu18  1  0.171229  0.680302  0.122218  1
  Lu  Lu19  1  0.672681  0.819726  0.121777  1
  Si  Si20  1  0.270167  0.885005  0.753886  1
  Si  Si21  1  0.457209  0.607887  0.247079  1
  Si  Si22  1  0.035970  0.112063  0.754025  1
  Si  Si23  1  0.542791  0.392113  0.752921  1
  Si  Si24  1  0.146162  0.471573  0.535034  1
  Si  Si25  1  0.964030  0.887937  0.245975  1
  Si  Si26  1  0.729833  0.114995  0.246114  1
  Si  Si27  1  0.846962  0.535131  0.034361  1
  Si  Si28  1  0.348486  0.966159  0.035198  1
  Si  Si29  1  0.153038  0.464869  0.965639  1
  Si  Si30  1  0.654447  0.036284  0.536636  1
  Si  Si31  1  0.345553  0.963716  0.463364  1
  Si  Si32  1  0.853838  0.528427  0.464966  1
  Si  Si33  1  0.775802  0.610743  0.751340  1
  Si  Si34  1  0.224198  0.389257  0.248660  1
  Si  Si35  1  0.651514  0.033841  0.964802  1
