# generated using pymatgen
data_VGa(Tc2W)2
_symmetry_space_group_name_H-M   'P 1'
_cell_length_a   4.35652800
_cell_length_b   6.19927000
_cell_length_c   13.13069500
_cell_angle_alpha   90.00000000
_cell_angle_beta   89.99713960
_cell_angle_gamma   90.00000000
_symmetry_Int_Tables_number   1
_chemical_formula_structural   VGa(Tc2W)2
_chemical_formula_sum   'V3 Ga3 Tc12 W6'
_cell_volume   354.62453133
_cell_formula_units_Z   3
loop_
 _symmetry_equiv_pos_site_id
 _symmetry_equiv_pos_as_xyz
  1  'x, y, z'
loop_
 _atom_site_type_symbol
 _atom_site_label
 _atom_site_symmetry_multiplicity
 _atom_site_fract_x
 _atom_site_fract_y
 _atom_site_fract_z
 _atom_site_occupancy
  V  V0  1  0.999986  0.000000  0.999101  1
  V  V1  1  0.499797  0.500000  0.166656  1
  V  V2  1  0.999782  0.000000  0.334231  1
  Ga  Ga3  1  0.499988  0.500000  0.500924  1
  Ga  Ga4  1  0.000225  0.000000  0.666669  1
  Ga  Ga5  1  0.500223  0.500000  0.832394  1
  Tc  Tc6  1  0.499993  0.248692  0.002856  1
  Tc  Tc7  1  0.499993  0.751308  0.002856  1
  Tc  Tc8  1  0.999843  0.248700  0.166593  1
  Tc  Tc9  1  0.999843  0.751299  0.166593  1
  Tc  Tc10  1  0.499815  0.248843  0.330445  1
  Tc  Tc11  1  0.499815  0.751157  0.330445  1
  Tc  Tc12  1  0.999983  0.248072  0.495868  1
  Tc  Tc13  1  0.999983  0.751927  0.495868  1
  Tc  Tc14  1  0.500211  0.248997  0.666696  1
  Tc  Tc15  1  0.500211  0.751003  0.666696  1
  Tc  Tc16  1  0.000186  0.247966  0.837556  1
  Tc  Tc17  1  0.000186  0.752033  0.837556  1
  W  W18  1  0.999971  0.500000  0.998061  1
  W  W19  1  0.499810  0.000000  0.166642  1
  W  W20  1  0.999771  0.500000  0.335291  1
  W  W21  1  0.499963  0.000000  0.503327  1
  W  W22  1  0.000235  0.500000  0.666646  1
  W  W23  1  0.500187  0.000000  0.830032  1
