# generated using pymatgen
data_Dy2Er8InPb5
_symmetry_space_group_name_H-M   'P 1'
_cell_length_a   8.98619087
_cell_length_b   8.99117547
_cell_length_c   6.62150100
_cell_angle_alpha   90.00000000
_cell_angle_beta   90.00000000
_cell_angle_gamma   120.07915850
_symmetry_Int_Tables_number   1
_chemical_formula_structural   Dy2Er8InPb5
_chemical_formula_sum   'Dy2 Er8 In1 Pb5'
_cell_volume   462.94801157
_cell_formula_units_Z   1
loop_
 _symmetry_equiv_pos_site_id
 _symmetry_equiv_pos_as_xyz
  1  'x, y, z'
loop_
 _atom_site_type_symbol
 _atom_site_label
 _atom_site_symmetry_multiplicity
 _atom_site_fract_x
 _atom_site_fract_y
 _atom_site_fract_z
 _atom_site_occupancy
  Dy  Dy0  1  0.238052  0.237944  0.250000  1
  Dy  Dy1  1  0.762114  0.999493  0.250000  1
  Er  Er2  1  0.663896  0.333759  0.998045  1
  Er  Er3  1  0.333615  0.663903  0.998086  1
  Er  Er4  1  0.333615  0.663903  0.501914  1
  Er  Er5  1  0.663896  0.333759  0.501955  1
  Er  Er6  1  0.760625  0.760500  0.750000  1
  Er  Er7  1  0.238919  0.004717  0.750000  1
  Er  Er8  1  0.004852  0.239210  0.750000  1
  Er  Er9  1  0.999562  0.762092  0.250000  1
  In  In10  1  0.396031  0.395977  0.750000  1
  Pb  Pb11  1  0.606711  0.000341  0.750000  1
  Pb  Pb12  1  0.000366  0.606634  0.750000  1
  Pb  Pb13  1  0.605106  0.604761  0.250000  1
  Pb  Pb14  1  0.393899  0.998369  0.250000  1
  Pb  Pb15  1  0.998740  0.394640  0.250000  1
