# generated using pymatgen
data_Sc12AlGa7(CuC)4
_symmetry_space_group_name_H-M   'P 1'
_cell_length_a   8.58862755
_cell_length_b   8.58862949
_cell_length_c   8.58862745
_cell_angle_alpha   59.94253565
_cell_angle_beta   59.94253374
_cell_angle_gamma   59.94253918
_symmetry_Int_Tables_number   1
_chemical_formula_structural   Sc12AlGa7(CuC)4
_chemical_formula_sum   'Sc12 Al1 Ga7 Cu4 C4'
_cell_volume   447.39385140
_cell_formula_units_Z   1
loop_
 _symmetry_equiv_pos_site_id
 _symmetry_equiv_pos_as_xyz
  1  'x, y, z'
loop_
 _atom_site_type_symbol
 _atom_site_label
 _atom_site_symmetry_multiplicity
 _atom_site_fract_x
 _atom_site_fract_y
 _atom_site_fract_z
 _atom_site_occupancy
  Sc  Sc0  1  0.557045  0.943181  0.557045  1
  Sc  Sc1  1  0.306266  0.693691  0.693691  1
  Sc  Sc2  1  0.694392  0.306680  0.306680  1
  Sc  Sc3  1  0.306680  0.694392  0.306680  1
  Sc  Sc4  1  0.693691  0.693691  0.306266  1
  Sc  Sc5  1  0.306680  0.306680  0.694392  1
  Sc  Sc6  1  0.557045  0.557045  0.943181  1
  Sc  Sc7  1  0.943181  0.557045  0.557045  1
  Sc  Sc8  1  0.556798  0.943509  0.943509  1
  Sc  Sc9  1  0.943509  0.943509  0.556798  1
  Sc  Sc10  1  0.693691  0.306266  0.693691  1
  Sc  Sc11  1  0.943509  0.556798  0.943509  1
  Al  Al12  1  0.327883  0.327883  0.327883  1
  Ga  Ga13  1  0.918865  0.918865  0.918865  1
  Ga  Ga14  1  0.006557  0.331173  0.331173  1
  Ga  Ga15  1  0.331173  0.006557  0.331173  1
  Ga  Ga16  1  0.331173  0.331173  0.006557  1
  Ga  Ga17  1  0.918869  0.243020  0.918869  1
  Ga  Ga18  1  0.918869  0.918869  0.243020  1
  Ga  Ga19  1  0.243020  0.918869  0.918869  1
  Cu  Cu20  1  0.124709  0.124709  0.124709  1
  Cu  Cu21  1  0.624769  0.126008  0.126008  1
  Cu  Cu22  1  0.126008  0.624769  0.126008  1
  Cu  Cu23  1  0.126008  0.126008  0.624769  1
  C  C24  1  0.624687  0.624687  0.624687  1
  C  C25  1  0.124874  0.625024  0.625024  1
  C  C26  1  0.625024  0.124874  0.625024  1
  C  C27  1  0.625024  0.625024  0.124874  1
