# generated using pymatgen
data_Y7Ho13(In3Ru)2
_symmetry_space_group_name_H-M   'P 1'
_cell_length_a   9.71738900
_cell_length_b   9.71738812
_cell_length_c   9.74719800
_cell_angle_alpha   90.00000000
_cell_angle_beta   90.00000000
_cell_angle_gamma   119.99999961
_symmetry_Int_Tables_number   1
_chemical_formula_structural   Y7Ho13(In3Ru)2
_chemical_formula_sum   'Y7 Ho13 In6 Ru2'
_cell_volume   797.09403482
_cell_formula_units_Z   1
loop_
 _symmetry_equiv_pos_site_id
 _symmetry_equiv_pos_as_xyz
  1  'x, y, z'
loop_
 _atom_site_type_symbol
 _atom_site_label
 _atom_site_symmetry_multiplicity
 _atom_site_fract_x
 _atom_site_fract_y
 _atom_site_fract_z
 _atom_site_occupancy
  Y  Y0  1  0.000000  0.000000  0.000000  1
  Y  Y1  1  0.539414  0.460586  0.249993  1
  Y  Y2  1  0.539414  0.078829  0.249993  1
  Y  Y3  1  0.921171  0.460586  0.249993  1
  Y  Y4  1  0.460586  0.539414  0.750007  1
  Y  Y5  1  0.460586  0.921171  0.750007  1
  Y  Y6  1  0.078829  0.539414  0.750007  1
  Ho  Ho7  1  0.000000  0.000000  0.500000  1
  Ho  Ho8  1  0.210072  0.789928  0.438429  1
  Ho  Ho9  1  0.210072  0.420146  0.438429  1
  Ho  Ho10  1  0.579854  0.789928  0.438429  1
  Ho  Ho11  1  0.789928  0.210072  0.561571  1
  Ho  Ho12  1  0.789928  0.579854  0.561571  1
  Ho  Ho13  1  0.420146  0.210072  0.561571  1
  Ho  Ho14  1  0.789854  0.210146  0.938265  1
  Ho  Ho15  1  0.789854  0.579707  0.938265  1
  Ho  Ho16  1  0.420293  0.210146  0.938265  1
  Ho  Ho17  1  0.210146  0.789854  0.061735  1
  Ho  Ho18  1  0.210146  0.420293  0.061735  1
  Ho  Ho19  1  0.579707  0.789854  0.061735  1
  In  In20  1  0.884317  0.115683  0.250137  1
  In  In21  1  0.884317  0.768635  0.250137  1
  In  In22  1  0.231365  0.115683  0.250137  1
  In  In23  1  0.115683  0.884317  0.749863  1
  In  In24  1  0.115683  0.231365  0.749863  1
  In  In25  1  0.768635  0.884317  0.749863  1
  Ru  Ru26  1  0.333333  0.666667  0.249908  1
  Ru  Ru27  1  0.666667  0.333333  0.750092  1
