# generated using pymatgen
data_PrTmGeO5
_symmetry_space_group_name_H-M   'P 1'
_cell_length_a   8.30109103
_cell_length_b   8.30116286
_cell_length_c   10.82609344
_cell_angle_alpha   61.20474809
_cell_angle_beta   61.20459727
_cell_angle_gamma   49.84137446
_symmetry_Int_Tables_number   1
_chemical_formula_structural   PrTmGeO5
_chemical_formula_sum   'Pr4 Tm4 Ge4 O20'
_cell_volume   483.07960266
_cell_formula_units_Z   4
loop_
 _symmetry_equiv_pos_site_id
 _symmetry_equiv_pos_as_xyz
  1  'x, y, z'
loop_
 _atom_site_type_symbol
 _atom_site_label
 _atom_site_symmetry_multiplicity
 _atom_site_fract_x
 _atom_site_fract_y
 _atom_site_fract_z
 _atom_site_occupancy
  Pr  Pr0  1  0.722675  0.207212  0.964010  1
  Pr  Pr1  1  0.792791  0.277324  0.535984  1
  Pr  Pr2  1  0.277325  0.792788  0.035990  1
  Pr  Pr3  1  0.207209  0.722676  0.464016  1
  Tm  Tm4  1  0.986248  0.736369  0.837742  1
  Tm  Tm5  1  0.263636  0.013748  0.662262  1
  Tm  Tm6  1  0.013752  0.263631  0.162258  1
  Tm  Tm7  1  0.736364  0.986252  0.337738  1
  Ge  Ge8  1  0.778184  0.597255  0.689991  1
  Ge  Ge9  1  0.402744  0.221814  0.810012  1
  Ge  Ge10  1  0.221816  0.402745  0.310009  1
  Ge  Ge11  1  0.597256  0.778186  0.189988  1
  O  O12  1  0.788075  0.627839  0.056477  1
  O  O13  1  0.372161  0.211921  0.443523  1
  O  O14  1  0.211925  0.372161  0.943523  1
  O  O15  1  0.627839  0.788079  0.556477  1
  O  O16  1  0.585834  0.586447  0.359357  1
  O  O17  1  0.413561  0.414161  0.140644  1
  O  O18  1  0.414166  0.413553  0.640643  1
  O  O19  1  0.586439  0.585839  0.859356  1
  O  O20  1  0.947345  0.658564  0.685821  1
  O  O21  1  0.341438  0.052651  0.814185  1
  O  O22  1  0.052655  0.341436  0.314179  1
  O  O23  1  0.658562  0.947349  0.185815  1
  O  O24  1  0.884805  0.081813  0.389280  1
  O  O25  1  0.918187  0.115195  0.110717  1
  O  O26  1  0.115195  0.918187  0.610720  1
  O  O27  1  0.081813  0.884805  0.889283  1
  O  O28  1  0.073181  0.675852  0.326141  1
  O  O29  1  0.324148  0.926819  0.173859  1
  O  O30  1  0.926819  0.324148  0.673859  1
  O  O31  1  0.675852  0.073181  0.826141  1
