# generated using pymatgen
data_Y20Ir3(Ru2Rh)3
_symmetry_space_group_name_H-M   'P 1'
_cell_length_a   10.91108377
_cell_length_b   10.91108303
_cell_length_c   6.42944508
_cell_angle_alpha   90.01500206
_cell_angle_beta   90.01499712
_cell_angle_gamma   89.53991232
_symmetry_Int_Tables_number   1
_chemical_formula_structural   Y20Ir3(Ru2Rh)3
_chemical_formula_sum   'Y20 Ir3 Ru6 Rh3'
_cell_volume   765.41190023
_cell_formula_units_Z   1
loop_
 _symmetry_equiv_pos_site_id
 _symmetry_equiv_pos_as_xyz
  1  'x, y, z'
loop_
 _atom_site_type_symbol
 _atom_site_label
 _atom_site_symmetry_multiplicity
 _atom_site_fract_x
 _atom_site_fract_y
 _atom_site_fract_z
 _atom_site_occupancy
  Y  Y0  1  0.292257  0.088321  0.380750  1
  Y  Y1  1  0.293890  0.914587  0.876621  1
  Y  Y2  1  0.706072  0.083650  0.876543  1
  Y  Y3  1  0.707360  0.911229  0.379698  1
  Y  Y4  1  0.587229  0.792892  0.880387  1
  Y  Y5  1  0.584445  0.205298  0.377381  1
  Y  Y6  1  0.414732  0.793738  0.378758  1
  Y  Y7  1  0.410143  0.205774  0.879805  1
  Y  Y8  1  0.207108  0.412771  0.619613  1
  Y  Y9  1  0.206262  0.585268  0.121242  1
  Y  Y10  1  0.794702  0.415555  0.122619  1
  Y  Y11  1  0.794226  0.589857  0.620195  1
  Y  Y12  1  0.911679  0.707743  0.119250  1
  Y  Y13  1  0.916350  0.293928  0.623457  1
  Y  Y14  1  0.085413  0.706110  0.623379  1
  Y  Y15  1  0.088771  0.292640  0.120302  1
  Y  Y16  1  0.999791  0.999994  0.501111  1
  Y  Y17  1  0.000006  0.000209  0.998889  1
  Y  Y18  1  0.499782  0.499841  0.999573  1
  Y  Y19  1  0.500159  0.500218  0.500427  1
  Ir  Ir20  1  0.651975  0.650978  0.249861  1
  Ir  Ir21  1  0.349022  0.348025  0.250139  1
  Ir  Ir22  1  0.346495  0.653505  0.750000  1
  Ru  Ru23  1  0.847782  0.848446  0.750203  1
  Ru  Ru24  1  0.151554  0.152218  0.749797  1
  Ru  Ru25  1  0.500194  0.000470  0.126734  1
  Ru  Ru26  1  0.500496  0.000430  0.625894  1
  Ru  Ru27  1  0.999570  0.499504  0.874106  1
  Ru  Ru28  1  0.999530  0.499806  0.373266  1
  Rh  Rh29  1  0.845405  0.154595  0.250000  1
  Rh  Rh30  1  0.154116  0.845884  0.250000  1
  Rh  Rh31  1  0.653484  0.346516  0.750000  1
