# generated using pymatgen
data_YbFeCo4As3
_symmetry_space_group_name_H-M   'P 1'
_cell_length_a   3.77312700
_cell_length_b   10.64129400
_cell_length_c   12.17448100
_cell_angle_alpha   90.00000000
_cell_angle_beta   90.00000000
_cell_angle_gamma   90.00000000
_symmetry_Int_Tables_number   1
_chemical_formula_structural   YbFeCo4As3
_chemical_formula_sum   'Yb4 Fe4 Co16 As12'
_cell_volume   488.81702303
_cell_formula_units_Z   4
loop_
 _symmetry_equiv_pos_site_id
 _symmetry_equiv_pos_as_xyz
  1  'x, y, z'
loop_
 _atom_site_type_symbol
 _atom_site_label
 _atom_site_symmetry_multiplicity
 _atom_site_fract_x
 _atom_site_fract_y
 _atom_site_fract_z
 _atom_site_occupancy
  Yb  Yb0  1  0.250000  0.580067  0.702889  1
  Yb  Yb1  1  0.250000  0.919933  0.202889  1
  Yb  Yb2  1  0.750000  0.419933  0.297111  1
  Yb  Yb3  1  0.750000  0.080067  0.797111  1
  Fe  Fe4  1  0.250000  0.706973  0.988621  1
  Fe  Fe5  1  0.250000  0.793027  0.488621  1
  Fe  Fe6  1  0.750000  0.293027  0.011379  1
  Fe  Fe7  1  0.750000  0.206973  0.511379  1
  Co  Co8  1  0.250000  0.406446  0.488058  1
  Co  Co9  1  0.250000  0.093554  0.988058  1
  Co  Co10  1  0.750000  0.593554  0.511942  1
  Co  Co11  1  0.750000  0.906446  0.011942  1
  Co  Co12  1  0.250000  0.214583  0.176319  1
  Co  Co13  1  0.250000  0.285417  0.676319  1
  Co  Co14  1  0.750000  0.785417  0.823681  1
  Co  Co15  1  0.750000  0.714583  0.323681  1
  Co  Co16  1  0.250000  0.882128  0.696367  1
  Co  Co17  1  0.250000  0.617872  0.196367  1
  Co  Co18  1  0.750000  0.117872  0.303633  1
  Co  Co19  1  0.750000  0.382128  0.803633  1
  Co  Co20  1  0.250000  0.467667  0.933512  1
  Co  Co21  1  0.250000  0.032333  0.433512  1
  Co  Co22  1  0.750000  0.532333  0.066488  1
  Co  Co23  1  0.750000  0.967667  0.566488  1
  As  As24  1  0.250000  0.416255  0.115908  1
  As  As25  1  0.250000  0.083745  0.615908  1
  As  As26  1  0.750000  0.583745  0.884092  1
  As  As27  1  0.750000  0.916255  0.384092  1
  As  As28  1  0.250000  0.267033  0.868065  1
  As  As29  1  0.250000  0.232967  0.368065  1
  As  As30  1  0.750000  0.732967  0.131935  1
  As  As31  1  0.750000  0.767033  0.631935  1
  As  As32  1  0.250000  0.599559  0.391166  1
  As  As33  1  0.250000  0.900441  0.891166  1
  As  As34  1  0.750000  0.400441  0.608834  1
  As  As35  1  0.750000  0.099559  0.108834  1
