# generated using pymatgen
data_TbTm9Th6(MgRu)4
_symmetry_space_group_name_H-M   'P 1'
_cell_length_a   9.70525996
_cell_length_b   9.75800082
_cell_length_c   9.75880639
_cell_angle_alpha   59.64001780
_cell_angle_beta   60.17586255
_cell_angle_gamma   60.07884617
_symmetry_Int_Tables_number   1
_chemical_formula_structural   TbTm9Th6(MgRu)4
_chemical_formula_sum   'Tb1 Tm9 Th6 Mg4 Ru4'
_cell_volume   652.95380452
_cell_formula_units_Z   1
loop_
 _symmetry_equiv_pos_site_id
 _symmetry_equiv_pos_as_xyz
  1  'x, y, z'
loop_
 _atom_site_type_symbol
 _atom_site_label
 _atom_site_symmetry_multiplicity
 _atom_site_fract_x
 _atom_site_fract_y
 _atom_site_fract_z
 _atom_site_occupancy
  Tb  Tb0  1  0.185161  0.185161  0.814839  1
  Tm  Tm1  1  0.439625  0.060948  0.438020  1
  Tm  Tm2  1  0.060948  0.439625  0.061407  1
  Tm  Tm3  1  0.438947  0.438947  0.061053  1
  Tm  Tm4  1  0.061000  0.061000  0.439000  1
  Tm  Tm5  1  0.181729  0.816995  0.818305  1
  Tm  Tm6  1  0.816995  0.181729  0.182970  1
  Tm  Tm7  1  0.813298  0.185426  0.814575  1
  Tm  Tm8  1  0.185426  0.813298  0.186702  1
  Tm  Tm9  1  0.814493  0.814493  0.185507  1
  Th  Th10  1  0.592500  0.599848  0.599737  1
  Th  Th11  1  0.599848  0.592500  0.207917  1
  Th  Th12  1  0.600123  0.208363  0.591882  1
  Th  Th13  1  0.208363  0.600123  0.599634  1
  Th  Th14  1  0.066424  0.434066  0.432893  1
  Th  Th15  1  0.434066  0.066424  0.066617  1
  Mg  Mg16  1  0.832411  0.829545  0.829425  1
  Mg  Mg17  1  0.829545  0.832411  0.508619  1
  Mg  Mg18  1  0.828851  0.509250  0.832460  1
  Mg  Mg19  1  0.509250  0.828851  0.829439  1
  Ru  Ru20  1  0.379800  0.398059  0.396461  1
  Ru  Ru21  1  0.398059  0.379800  0.825680  1
  Ru  Ru22  1  0.397487  0.825652  0.379368  1
  Ru  Ru23  1  0.825652  0.397487  0.397493  1
