# generated using pymatgen
data_Nb12Al9Ni2MoC4
_symmetry_space_group_name_H-M   'P 1'
_cell_length_a   8.36261912
_cell_length_b   8.32166212
_cell_length_c   8.31182300
_cell_angle_alpha   60.03910809
_cell_angle_beta   60.20073389
_cell_angle_gamma   60.28566214
_symmetry_Int_Tables_number   1
_chemical_formula_structural   Nb12Al9Ni2MoC4
_chemical_formula_sum   'Nb12 Al9 Ni2 Mo1 C4'
_cell_volume   410.62844883
_cell_formula_units_Z   1
loop_
 _symmetry_equiv_pos_site_id
 _symmetry_equiv_pos_as_xyz
  1  'x, y, z'
loop_
 _atom_site_type_symbol
 _atom_site_label
 _atom_site_symmetry_multiplicity
 _atom_site_fract_x
 _atom_site_fract_y
 _atom_site_fract_z
 _atom_site_occupancy
  Nb  Nb0  1  0.815094  0.814776  0.185065  1
  Nb  Nb1  1  0.184808  0.196792  0.809200  1
  Nb  Nb2  1  0.814123  0.183876  0.811280  1
  Nb  Nb3  1  0.178504  0.812276  0.198103  1
  Nb  Nb4  1  0.178504  0.812276  0.811117  1
  Nb  Nb5  1  0.814123  0.183876  0.190721  1
  Nb  Nb6  1  0.434906  0.435224  0.064935  1
  Nb  Nb7  1  0.065192  0.053208  0.440800  1
  Nb  Nb8  1  0.435877  0.066124  0.438720  1
  Nb  Nb9  1  0.071496  0.437724  0.051897  1
  Nb  Nb10  1  0.071496  0.437724  0.438883  1
  Nb  Nb11  1  0.435877  0.066124  0.059279  1
  Al  Al12  1  0.625000  0.125000  0.625000  1
  Al  Al13  1  0.759194  0.428165  0.406321  1
  Al  Al14  1  0.427483  0.752135  0.410192  1
  Al  Al15  1  0.423872  0.426096  0.748343  1
  Al  Al16  1  0.423872  0.426096  0.401690  1
  Al  Al17  1  0.490806  0.821835  0.843679  1
  Al  Al18  1  0.822517  0.497865  0.839808  1
  Al  Al19  1  0.826128  0.823904  0.501657  1
  Al  Al20  1  0.826128  0.823904  0.848310  1
  Ni  Ni21  1  0.625000  0.625000  0.125000  1
  Ni  Ni22  1  0.625000  0.625000  0.625000  1
  Mo  Mo23  1  0.125000  0.625000  0.625000  1
  C  C24  1  0.625000  0.125000  0.125000  1
  C  C25  1  0.125000  0.625000  0.125000  1
  C  C26  1  0.125000  0.125000  0.625000  1
  C  C27  1  0.125000  0.125000  0.125000  1
