# generated using pymatgen
data_Sm3Co7(P3Ru)2
_symmetry_space_group_name_H-M   'P 1'
_cell_length_a   3.79046200
_cell_length_b   10.66547500
_cell_length_c   12.45480700
_cell_angle_alpha   90.00000000
_cell_angle_beta   90.00000000
_cell_angle_gamma   90.00000000
_symmetry_Int_Tables_number   1
_chemical_formula_structural   Sm3Co7(P3Ru)2
_chemical_formula_sum   'Sm6 Co14 P12 Ru4'
_cell_volume   503.51145032
_cell_formula_units_Z   2
loop_
 _symmetry_equiv_pos_site_id
 _symmetry_equiv_pos_as_xyz
  1  'x, y, z'
loop_
 _atom_site_type_symbol
 _atom_site_label
 _atom_site_symmetry_multiplicity
 _atom_site_fract_x
 _atom_site_fract_y
 _atom_site_fract_z
 _atom_site_occupancy
  Sm  Sm0  1  0.000000  0.500000  0.527699  1
  Sm  Sm1  1  0.500000  0.000000  0.479514  1
  Sm  Sm2  1  0.500000  0.817559  0.202694  1
  Sm  Sm3  1  0.500000  0.182441  0.202694  1
  Sm  Sm4  1  0.000000  0.683653  0.795745  1
  Sm  Sm5  1  0.000000  0.316347  0.795745  1
  Co  Co6  1  0.000000  0.500000  0.986382  1
  Co  Co7  1  0.500000  0.000000  0.012607  1
  Co  Co8  1  0.000000  0.200492  0.573616  1
  Co  Co9  1  0.000000  0.799508  0.573616  1
  Co  Co10  1  0.500000  0.881381  0.711451  1
  Co  Co11  1  0.500000  0.118619  0.711451  1
  Co  Co12  1  0.000000  0.619267  0.286389  1
  Co  Co13  1  0.000000  0.380733  0.286389  1
  Co  Co14  1  0.500000  0.332641  0.991044  1
  Co  Co15  1  0.500000  0.667359  0.991044  1
  Co  Co16  1  0.000000  0.167012  0.007709  1
  Co  Co17  1  0.000000  0.832988  0.007709  1
  Co  Co18  1  0.500000  0.500000  0.706047  1
  Co  Co19  1  0.000000  0.000000  0.293913  1
  P  P20  1  0.500000  0.306651  0.619822  1
  P  P21  1  0.500000  0.693349  0.619822  1
  P  P22  1  0.000000  0.185974  0.382944  1
  P  P23  1  0.000000  0.814026  0.382944  1
  P  P24  1  0.500000  0.500000  0.884715  1
  P  P25  1  0.000000  0.000000  0.114429  1
  P  P26  1  0.500000  0.847531  0.895612  1
  P  P27  1  0.500000  0.152469  0.895612  1
  P  P28  1  0.000000  0.652522  0.103139  1
  P  P29  1  0.000000  0.347478  0.103139  1
  P  P30  1  0.500000  0.500000  0.342818  1
  P  P31  1  0.000000  0.000000  0.654255  1
  Ru  Ru32  1  0.500000  0.296403  0.429871  1
  Ru  Ru33  1  0.500000  0.703597  0.429871  1
  Ru  Ru34  1  0.500000  0.500000  0.155959  1
  Ru  Ru35  1  0.000000  0.000000  0.841589  1
