# generated using pymatgen
data_Eu3Hf(Co4P3)2
_symmetry_space_group_name_H-M   'P 1'
_cell_length_a   3.76489400
_cell_length_b   10.83425900
_cell_length_c   12.53806600
_cell_angle_alpha   90.00000000
_cell_angle_beta   90.00000000
_cell_angle_gamma   90.00000000
_symmetry_Int_Tables_number   1
_chemical_formula_structural   Eu3Hf(Co4P3)2
_chemical_formula_sum   'Eu6 Hf2 Co16 P12'
_cell_volume   511.42566472
_cell_formula_units_Z   2
loop_
 _symmetry_equiv_pos_site_id
 _symmetry_equiv_pos_as_xyz
  1  'x, y, z'
loop_
 _atom_site_type_symbol
 _atom_site_label
 _atom_site_symmetry_multiplicity
 _atom_site_fract_x
 _atom_site_fract_y
 _atom_site_fract_z
 _atom_site_occupancy
  Eu  Eu0  1  0.000000  0.500000  0.531030  1
  Eu  Eu1  1  0.500000  0.000000  0.468970  1
  Eu  Eu2  1  0.500000  0.823985  0.206675  1
  Eu  Eu3  1  0.500000  0.176015  0.206675  1
  Eu  Eu4  1  0.000000  0.676015  0.793325  1
  Eu  Eu5  1  0.000000  0.323985  0.793325  1
  Hf  Hf6  1  0.500000  0.500000  0.156711  1
  Hf  Hf7  1  0.000000  0.000000  0.843289  1
  Co  Co8  1  0.500000  0.500000  0.703995  1
  Co  Co9  1  0.000000  0.000000  0.296005  1
  Co  Co10  1  0.000000  0.500000  0.989433  1
  Co  Co11  1  0.500000  0.000000  0.010567  1
  Co  Co12  1  0.500000  0.332038  0.995419  1
  Co  Co13  1  0.500000  0.667962  0.995419  1
  Co  Co14  1  0.000000  0.167962  0.004581  1
  Co  Co15  1  0.000000  0.832038  0.004581  1
  Co  Co16  1  0.500000  0.296514  0.433166  1
  Co  Co17  1  0.500000  0.703486  0.433166  1
  Co  Co18  1  0.000000  0.203486  0.566834  1
  Co  Co19  1  0.000000  0.796514  0.566834  1
  Co  Co20  1  0.500000  0.880865  0.702503  1
  Co  Co21  1  0.500000  0.119135  0.702503  1
  Co  Co22  1  0.000000  0.619135  0.297497  1
  Co  Co23  1  0.000000  0.380865  0.297497  1
  P  P24  1  0.500000  0.500000  0.887845  1
  P  P25  1  0.000000  0.000000  0.112155  1
  P  P26  1  0.500000  0.500000  0.359308  1
  P  P27  1  0.000000  0.000000  0.640692  1
  P  P28  1  0.500000  0.303409  0.613996  1
  P  P29  1  0.500000  0.696591  0.613996  1
  P  P30  1  0.000000  0.196591  0.386004  1
  P  P31  1  0.000000  0.803409  0.386004  1
  P  P32  1  0.500000  0.839358  0.895090  1
  P  P33  1  0.500000  0.160642  0.895090  1
  P  P34  1  0.000000  0.660642  0.104910  1
  P  P35  1  0.000000  0.339358  0.104910  1
