# generated using pymatgen
data_Lu2Si4W3
_symmetry_space_group_name_H-M   'P 1'
_cell_length_a   6.69752900
_cell_length_b   6.88782400
_cell_length_c   12.81976500
_cell_angle_alpha   90.00000000
_cell_angle_beta   90.00000000
_cell_angle_gamma   90.00000000
_symmetry_Int_Tables_number   1
_chemical_formula_structural   Lu2Si4W3
_chemical_formula_sum   'Lu8 Si16 W12'
_cell_volume   591.39371977
_cell_formula_units_Z   4
loop_
 _symmetry_equiv_pos_site_id
 _symmetry_equiv_pos_as_xyz
  1  'x, y, z'
loop_
 _atom_site_type_symbol
 _atom_site_label
 _atom_site_symmetry_multiplicity
 _atom_site_fract_x
 _atom_site_fract_y
 _atom_site_fract_z
 _atom_site_occupancy
  Lu  Lu0  1  0.494361  0.668774  0.592797  1
  Lu  Lu1  1  0.994361  0.831226  0.907203  1
  Lu  Lu2  1  0.505639  0.331226  0.092797  1
  Lu  Lu3  1  0.005639  0.168774  0.407203  1
  Lu  Lu4  1  0.505639  0.331226  0.407203  1
  Lu  Lu5  1  0.005639  0.168774  0.092797  1
  Lu  Lu6  1  0.494361  0.668774  0.907203  1
  Lu  Lu7  1  0.994361  0.831226  0.592797  1
  Si  Si8  1  0.663920  0.960058  0.453586  1
  Si  Si9  1  0.163920  0.539942  0.046414  1
  Si  Si10  1  0.336080  0.039942  0.953586  1
  Si  Si11  1  0.836080  0.460058  0.546414  1
  Si  Si12  1  0.336080  0.039942  0.546414  1
  Si  Si13  1  0.836080  0.460058  0.953586  1
  Si  Si14  1  0.663920  0.960058  0.046414  1
  Si  Si15  1  0.163920  0.539942  0.453586  1
  Si  Si16  1  0.464180  0.374093  0.750000  1
  Si  Si17  1  0.964180  0.125907  0.750000  1
  Si  Si18  1  0.535820  0.625907  0.250000  1
  Si  Si19  1  0.035820  0.874093  0.250000  1
  Si  Si20  1  0.696776  0.862862  0.750000  1
  Si  Si21  1  0.196776  0.637138  0.750000  1
  Si  Si22  1  0.303224  0.137138  0.250000  1
  Si  Si23  1  0.803224  0.362862  0.250000  1
  W  W24  1  0.668191  0.163607  0.624964  1
  W  W25  1  0.168191  0.336393  0.875036  1
  W  W26  1  0.331809  0.836393  0.124964  1
  W  W27  1  0.831809  0.663607  0.375036  1
  W  W28  1  0.331809  0.836393  0.375036  1
  W  W29  1  0.831809  0.663607  0.124964  1
  W  W30  1  0.668191  0.163607  0.875036  1
  W  W31  1  0.168191  0.336393  0.624964  1
  W  W32  1  0.832087  0.502326  0.750000  1
  W  W33  1  0.332087  0.997674  0.750000  1
  W  W34  1  0.167913  0.497674  0.250000  1
  W  W35  1  0.667913  0.002326  0.250000  1
