# generated using pymatgen
data_Sm2TmRuBr3
_symmetry_space_group_name_H-M   'P 1'
_cell_length_a   4.16915600
_cell_length_b   8.59376484
_cell_length_c   11.97110233
_cell_angle_alpha   86.86181287
_cell_angle_beta   90.00000000
_cell_angle_gamma   90.00000000
_symmetry_Int_Tables_number   1
_chemical_formula_structural   Sm2TmRuBr3
_chemical_formula_sum   'Sm4 Tm2 Ru2 Br6'
_cell_volume   428.26639693
_cell_formula_units_Z   2
loop_
 _symmetry_equiv_pos_site_id
 _symmetry_equiv_pos_as_xyz
  1  'x, y, z'
loop_
 _atom_site_type_symbol
 _atom_site_label
 _atom_site_symmetry_multiplicity
 _atom_site_fract_x
 _atom_site_fract_y
 _atom_site_fract_z
 _atom_site_occupancy
  Sm  Sm0  1  0.750000  0.100959  0.672160  1
  Sm  Sm1  1  0.250000  0.899041  0.327840  1
  Sm  Sm2  1  0.250000  0.279854  0.896851  1
  Sm  Sm3  1  0.750000  0.720146  0.103149  1
  Tm  Tm4  1  0.750000  0.130502  0.129206  1
  Tm  Tm5  1  0.250000  0.869498  0.870794  1
  Ru  Ru6  1  0.750000  0.056998  0.904747  1
  Ru  Ru7  1  0.250000  0.943002  0.095253  1
  Br  Br8  1  0.250000  0.343567  0.641196  1
  Br  Br9  1  0.750000  0.656433  0.358804  1
  Br  Br10  1  0.750000  0.136169  0.391646  1
  Br  Br11  1  0.250000  0.863831  0.608354  1
  Br  Br12  1  0.250000  0.423127  0.131259  1
  Br  Br13  1  0.750000  0.576873  0.868741  1
