# generated using pymatgen
data_Tm6Al16IrOs6
_symmetry_space_group_name_H-M   'P 1'
_cell_length_a   8.90469021
_cell_length_b   8.90469070
_cell_length_c   8.90469100
_cell_angle_alpha   60.00000259
_cell_angle_beta   60.00000080
_cell_angle_gamma   60.00000662
_symmetry_Int_Tables_number   1
_chemical_formula_structural   Tm6Al16IrOs6
_chemical_formula_sum   'Tm6 Al16 Ir1 Os6'
_cell_volume   499.27698038
_cell_formula_units_Z   1
loop_
 _symmetry_equiv_pos_site_id
 _symmetry_equiv_pos_as_xyz
  1  'x, y, z'
loop_
 _atom_site_type_symbol
 _atom_site_label
 _atom_site_symmetry_multiplicity
 _atom_site_fract_x
 _atom_site_fract_y
 _atom_site_fract_z
 _atom_site_occupancy
  Tm  Tm0  1  0.211650  0.788350  0.788350  1
  Tm  Tm1  1  0.788350  0.211650  0.211650  1
  Tm  Tm2  1  0.788350  0.211650  0.788350  1
  Tm  Tm3  1  0.788350  0.788350  0.211650  1
  Tm  Tm4  1  0.211650  0.788350  0.211650  1
  Tm  Tm5  1  0.211650  0.211650  0.788350  1
  Al  Al6  1  0.833944  0.833944  0.833944  1
  Al  Al7  1  0.833944  0.833944  0.498170  1
  Al  Al8  1  0.498170  0.833944  0.833944  1
  Al  Al9  1  0.833944  0.498170  0.833944  1
  Al  Al10  1  0.166056  0.166056  0.166056  1
  Al  Al11  1  0.166056  0.166056  0.501830  1
  Al  Al12  1  0.166056  0.501830  0.166056  1
  Al  Al13  1  0.501830  0.166056  0.166056  1
  Al  Al14  1  0.622246  0.622246  0.622246  1
  Al  Al15  1  0.622246  0.622246  0.133262  1
  Al  Al16  1  0.133262  0.622246  0.622246  1
  Al  Al17  1  0.622246  0.133262  0.622246  1
  Al  Al18  1  0.377754  0.377754  0.377754  1
  Al  Al19  1  0.377754  0.377754  0.866738  1
  Al  Al20  1  0.377754  0.866738  0.377754  1
  Al  Al21  1  0.866738  0.377754  0.377754  1
  Ir  Ir22  1  0.500000  0.500000  0.500000  1
  Os  Os23  1  0.000000  0.500000  0.500000  1
  Os  Os24  1  0.500000  0.000000  0.000000  1
  Os  Os25  1  0.500000  0.000000  0.500000  1
  Os  Os26  1  0.500000  0.500000  0.000000  1
  Os  Os27  1  0.000000  0.500000  0.000000  1
  Os  Os28  1  0.000000  0.000000  0.500000  1
