# generated using pymatgen
data_Na3Dy2P12Ir3Rh16
_symmetry_space_group_name_H-M   'P 1'
_cell_length_a   12.61605829
_cell_length_b   12.67063309
_cell_length_c   3.92221700
_cell_angle_alpha   90.00000000
_cell_angle_beta   90.00000000
_cell_angle_gamma   119.82859938
_symmetry_Int_Tables_number   1
_chemical_formula_structural   Na3Dy2P12Ir3Rh16
_chemical_formula_sum   'Na3 Dy2 P12 Ir3 Rh16'
_cell_volume   543.91589871
_cell_formula_units_Z   1
loop_
 _symmetry_equiv_pos_site_id
 _symmetry_equiv_pos_as_xyz
  1  'x, y, z'
loop_
 _atom_site_type_symbol
 _atom_site_label
 _atom_site_symmetry_multiplicity
 _atom_site_fract_x
 _atom_site_fract_y
 _atom_site_fract_z
 _atom_site_occupancy
  Na  Na0  1  0.333582  0.666758  0.500000  1
  Na  Na1  1  0.000062  0.814574  0.000000  1
  Na  Na2  1  0.184738  0.184803  0.000000  1
  Dy  Dy3  1  0.666528  0.333053  0.500000  1
  Dy  Dy4  1  0.819533  0.999114  0.000000  1
  P  P5  1  0.002611  0.635671  0.500000  1
  P  P6  1  0.363701  0.367763  0.500000  1
  P  P7  1  0.635212  0.997612  0.500000  1
  P  P8  1  0.516244  0.681899  0.000000  1
  P  P9  1  0.316179  0.833195  0.000000  1
  P  P10  1  0.164822  0.482320  0.000000  1
  P  P11  1  0.479552  0.171300  0.000000  1
  P  P12  1  0.689980  0.519467  0.000000  1
  P  P13  1  0.829422  0.310806  0.000000  1
  P  P14  1  0.001477  0.180535  0.500000  1
  P  P15  1  0.821067  0.817613  0.500000  1
  P  P16  1  0.179286  0.999153  0.500000  1
  Ir  Ir17  1  0.284022  0.000707  0.000000  1
  Ir  Ir18  1  0.817608  0.193029  0.500000  1
  Ir  Ir19  1  0.996422  0.999301  0.500000  1
  Rh  Rh20  1  0.513597  0.868307  0.000000  1
  Rh  Rh21  1  0.129365  0.643649  0.000000  1
  Rh  Rh22  1  0.354539  0.486302  0.000000  1
  Rh  Rh23  1  0.492110  0.363832  0.000000  1
  Rh  Rh24  1  0.869468  0.506941  0.000000  1
  Rh  Rh25  1  0.637213  0.131337  0.000000  1
  Rh  Rh26  1  0.004614  0.456566  0.500000  1
  Rh  Rh27  1  0.541944  0.550969  0.500000  1
  Rh  Rh28  1  0.453721  0.997988  0.500000  1
  Rh  Rh29  1  0.998835  0.281445  0.000000  1
  Rh  Rh30  1  0.716971  0.716998  0.000000  1
  Rh  Rh31  1  0.627267  0.805926  0.500000  1
  Rh  Rh32  1  0.196317  0.818865  0.500000  1
  Rh  Rh33  1  0.179835  0.376316  0.500000  1
  Rh  Rh34  1  0.377586  0.184613  0.500000  1
  Rh  Rh35  1  0.804568  0.621272  0.500000  1
