# generated using pymatgen
data_Ta7Nb(Co2N)2
_symmetry_space_group_name_H-M   'P 1'
_cell_length_a   8.21968135
_cell_length_b   8.21968172
_cell_length_c   8.22727400
_cell_angle_alpha   59.96944050
_cell_angle_beta   59.96943902
_cell_angle_gamma   60.06111588
_symmetry_Int_Tables_number   1
_chemical_formula_structural   Ta7Nb(Co2N)2
_chemical_formula_sum   'Ta14 Nb2 Co8 N4'
_cell_volume   393.05216208
_cell_formula_units_Z   2
loop_
 _symmetry_equiv_pos_site_id
 _symmetry_equiv_pos_as_xyz
  1  'x, y, z'
loop_
 _atom_site_type_symbol
 _atom_site_label
 _atom_site_symmetry_multiplicity
 _atom_site_fract_x
 _atom_site_fract_y
 _atom_site_fract_z
 _atom_site_occupancy
  Ta  Ta0  1  0.125548  0.622529  0.625961  1
  Ta  Ta1  1  0.622529  0.125548  0.625961  1
  Ta  Ta2  1  0.625961  0.625961  0.125548  1
  Ta  Ta3  1  0.625961  0.625961  0.622529  1
  Ta  Ta4  1  0.813076  0.186924  0.813076  1
  Ta  Ta5  1  0.186924  0.813076  0.186924  1
  Ta  Ta6  1  0.186924  0.813076  0.813076  1
  Ta  Ta7  1  0.813076  0.186924  0.186924  1
  Ta  Ta8  1  0.438075  0.438075  0.061925  1
  Ta  Ta9  1  0.061925  0.061925  0.438075  1
  Ta  Ta10  1  0.435460  0.064540  0.435460  1
  Ta  Ta11  1  0.064540  0.435460  0.064540  1
  Ta  Ta12  1  0.064540  0.435460  0.435460  1
  Ta  Ta13  1  0.435460  0.064540  0.064540  1
  Nb  Nb14  1  0.814634  0.814634  0.185366  1
  Nb  Nb15  1  0.185366  0.185366  0.814634  1
  Co  Co16  1  0.754000  0.412850  0.416576  1
  Co  Co17  1  0.412850  0.754000  0.416576  1
  Co  Co18  1  0.416576  0.416576  0.754000  1
  Co  Co19  1  0.416576  0.416576  0.412850  1
  Co  Co20  1  0.499136  0.830837  0.835013  1
  Co  Co21  1  0.830837  0.499136  0.835013  1
  Co  Co22  1  0.835013  0.835013  0.499136  1
  Co  Co23  1  0.835013  0.835013  0.830837  1
  N  N24  1  0.623568  0.127545  0.124443  1
  N  N25  1  0.127545  0.623568  0.124443  1
  N  N26  1  0.124443  0.124443  0.623568  1
  N  N27  1  0.124443  0.124443  0.127545  1
