# generated using pymatgen
data_Nd2Cr3Fe3Co6P7
_symmetry_space_group_name_H-M   'P 1'
_cell_length_a   9.08257400
_cell_length_b   9.08257553
_cell_length_c   3.66665800
_cell_angle_alpha   90.00000000
_cell_angle_beta   90.00000000
_cell_angle_gamma   120.00000173
_symmetry_Int_Tables_number   1
_chemical_formula_structural   Nd2Cr3Fe3Co6P7
_chemical_formula_sum   'Nd2 Cr3 Fe3 Co6 P7'
_cell_volume   261.95035473
_cell_formula_units_Z   1
loop_
 _symmetry_equiv_pos_site_id
 _symmetry_equiv_pos_as_xyz
  1  'x, y, z'
loop_
 _atom_site_type_symbol
 _atom_site_label
 _atom_site_symmetry_multiplicity
 _atom_site_fract_x
 _atom_site_fract_y
 _atom_site_fract_z
 _atom_site_occupancy
  Nd  Nd0  1  0.666667  0.333333  0.000000  1
  Nd  Nd1  1  0.333333  0.666667  0.500000  1
  Cr  Cr2  1  0.099746  0.885114  0.500000  1
  Cr  Cr3  1  0.785367  0.900254  0.500000  1
  Cr  Cr4  1  0.114886  0.214633  0.500000  1
  Fe  Fe5  1  0.272867  0.119078  0.000000  1
  Fe  Fe6  1  0.846212  0.727133  0.000000  1
  Fe  Fe7  1  0.880922  0.153788  0.000000  1
  Co  Co8  1  0.059002  0.630111  0.000000  1
  Co  Co9  1  0.571109  0.940998  0.000000  1
  Co  Co10  1  0.369889  0.428891  0.000000  1
  Co  Co11  1  0.433770  0.048638  0.500000  1
  Co  Co12  1  0.614868  0.566230  0.500000  1
  Co  Co13  1  0.951362  0.385132  0.500000  1
  P  P14  1  0.298200  0.893254  0.000000  1
  P  P15  1  0.595054  0.701800  0.000000  1
  P  P16  1  0.106746  0.404946  0.000000  1
  P  P17  1  0.398168  0.288442  0.500000  1
  P  P18  1  0.890273  0.601832  0.500000  1
  P  P19  1  0.711558  0.109727  0.500000  1
  P  P20  1  0.000000  0.000000  0.000000  1
