# generated using pymatgen
data_Nd7Tl(TeO6)4
_symmetry_space_group_name_H-M   'P 1'
_cell_length_a   5.47045259
_cell_length_b   9.34585901
_cell_length_c   10.30600600
_cell_angle_alpha   90.21085654
_cell_angle_beta   90.80026767
_cell_angle_gamma   89.78384055
_symmetry_Int_Tables_number   1
_chemical_formula_structural   Nd7Tl(TeO6)4
_chemical_formula_sum   'Nd7 Tl1 Te4 O24'
_cell_volume   526.84706220
_cell_formula_units_Z   1
loop_
 _symmetry_equiv_pos_site_id
 _symmetry_equiv_pos_as_xyz
  1  'x, y, z'
loop_
 _atom_site_type_symbol
 _atom_site_label
 _atom_site_symmetry_multiplicity
 _atom_site_fract_x
 _atom_site_fract_y
 _atom_site_fract_z
 _atom_site_occupancy
  Nd  Nd0  1  0.529117  0.386199  0.543561  1
  Nd  Nd1  1  0.976909  0.603867  0.041632  1
  Nd  Nd2  1  0.475133  0.895888  0.957636  1
  Nd  Nd3  1  0.027393  0.216278  0.859510  1
  Nd  Nd4  1  0.531160  0.284619  0.136402  1
  Nd  Nd5  1  0.973167  0.718468  0.638546  1
  Nd  Nd6  1  0.472977  0.779070  0.362812  1
  Tl  Tl7  1  0.014968  0.106700  0.448351  1
  Te  Te8  1  0.536103  0.006272  0.643459  1
  Te  Te9  1  0.047263  0.493537  0.356629  1
  Te  Te10  1  0.458152  0.504467  0.855098  1
  Te  Te11  1  0.960875  0.994866  0.145311  1
  O  O12  1  0.251796  0.413663  0.989444  1
  O  O13  1  0.750193  0.086705  0.010439  1
  O  O14  1  0.763103  0.930377  0.507192  1
  O  O15  1  0.251192  0.581036  0.494005  1
  O  O16  1  0.219546  0.112747  0.065924  1
  O  O17  1  0.721388  0.387217  0.934911  1
  O  O18  1  0.782977  0.609060  0.437418  1
  O  O19  1  0.317206  0.862396  0.569596  1
  O  O20  1  0.320130  0.364324  0.322590  1
  O  O21  1  0.763644  0.163891  0.674519  1
  O  O22  1  0.695695  0.859233  0.176574  1
  O  O23  1  0.192504  0.642325  0.824661  1
  O  O24  1  0.172698  0.948835  0.290472  1
  O  O25  1  0.666124  0.552988  0.712524  1
  O  O26  1  0.837922  0.447143  0.210831  1
  O  O27  1  0.314267  0.043450  0.784403  1
  O  O28  1  0.181565  0.638666  0.244670  1
  O  O29  1  0.707292  0.877631  0.760023  1
  O  O30  1  0.813189  0.136904  0.258450  1
  O  O31  1  0.311017  0.363450  0.742074  1
  O  O32  1  0.076622  0.849024  0.025978  1
  O  O33  1  0.573943  0.650390  0.976658  1
  O  O34  1  0.930840  0.343858  0.473556  1
  O  O35  1  0.381931  0.144455  0.524142  1
