# generated using pymatgen
data_Sc5Co19(GeP5)2
_symmetry_space_group_name_H-M   'P 1'
_cell_length_a   11.92637124
_cell_length_b   11.93327634
_cell_length_c   3.60136200
_cell_angle_alpha   90.00000000
_cell_angle_beta   90.00000000
_cell_angle_gamma   119.83096894
_symmetry_Int_Tables_number   1
_chemical_formula_structural   Sc5Co19(GeP5)2
_chemical_formula_sum   'Sc5 Co19 Ge2 P10'
_cell_volume   444.63396426
_cell_formula_units_Z   1
loop_
 _symmetry_equiv_pos_site_id
 _symmetry_equiv_pos_as_xyz
  1  'x, y, z'
loop_
 _atom_site_type_symbol
 _atom_site_label
 _atom_site_symmetry_multiplicity
 _atom_site_fract_x
 _atom_site_fract_y
 _atom_site_fract_z
 _atom_site_occupancy
  Sc  Sc0  1  0.323699  0.656024  0.500000  1
  Sc  Sc1  1  0.665075  0.333511  0.500000  1
  Sc  Sc2  1  0.817037  0.001203  0.000000  1
  Sc  Sc3  1  0.000688  0.813529  0.000000  1
  Sc  Sc4  1  0.184204  0.184949  0.000000  1
  Co  Co5  1  0.636867  0.812498  0.500000  1
  Co  Co6  1  0.187843  0.820756  0.500000  1
  Co  Co7  1  0.173515  0.372517  0.500000  1
  Co  Co8  1  0.375499  0.180183  0.500000  1
  Co  Co9  1  0.803006  0.622462  0.500000  1
  Co  Co10  1  0.821870  0.199236  0.500000  1
  Co  Co11  1  0.282108  0.006322  0.000000  1
  Co  Co12  1  0.997403  0.282630  0.000000  1
  Co  Co13  1  0.725041  0.717421  0.000000  1
  Co  Co14  1  0.453490  0.009440  0.500000  1
  Co  Co15  1  0.997253  0.446930  0.500000  1
  Co  Co16  1  0.553500  0.546948  0.500000  1
  Co  Co17  1  0.534259  0.886597  0.000000  1
  Co  Co18  1  0.120224  0.637489  0.000000  1
  Co  Co19  1  0.346451  0.468571  0.000000  1
  Co  Co20  1  0.484224  0.355781  0.000000  1
  Co  Co21  1  0.870980  0.514980  0.000000  1
  Co  Co22  1  0.645343  0.132215  0.000000  1
  Co  Co23  1  0.000202  0.001360  0.500000  1
  Ge  Ge24  1  0.514858  0.679288  0.000000  1
  Ge  Ge25  1  0.321999  0.835451  0.000000  1
  P  P26  1  0.177869  0.001117  0.500000  1
  P  P27  1  0.997987  0.177516  0.500000  1
  P  P28  1  0.825129  0.821310  0.500000  1
  P  P29  1  0.163478  0.479623  0.000000  1
  P  P30  1  0.482467  0.167255  0.000000  1
  P  P31  1  0.683359  0.516632  0.000000  1
  P  P32  1  0.832488  0.317118  0.000000  1
  P  P33  1  0.639637  0.004206  0.500000  1
  P  P34  1  0.998298  0.634742  0.500000  1
  P  P35  1  0.362653  0.362188  0.500000  1
