# generated using pymatgen
data_Gd2YMg3Sn2Pd
_symmetry_space_group_name_H-M   'P 1'
_cell_length_a   7.51747100
_cell_length_b   7.51179429
_cell_length_c   4.52474800
_cell_angle_alpha   90.00000000
_cell_angle_beta   90.00000000
_cell_angle_gamma   120.02498849
_symmetry_Int_Tables_number   1
_chemical_formula_structural   Gd2YMg3Sn2Pd
_chemical_formula_sum   'Gd2 Y1 Mg3 Sn2 Pd1'
_cell_volume   221.22340139
_cell_formula_units_Z   1
loop_
 _symmetry_equiv_pos_site_id
 _symmetry_equiv_pos_as_xyz
  1  'x, y, z'
loop_
 _atom_site_type_symbol
 _atom_site_label
 _atom_site_symmetry_multiplicity
 _atom_site_fract_x
 _atom_site_fract_y
 _atom_site_fract_z
 _atom_site_occupancy
  Gd  Gd0  1  0.404941  0.404866  0.500000  1
  Gd  Gd1  1  0.000075  0.595134  0.500000  1
  Y  Y2  1  0.595111  0.000000  0.500000  1
  Mg  Mg3  1  0.768460  0.768612  0.000000  1
  Mg  Mg4  1  0.231686  0.000000  0.000000  1
  Mg  Mg5  1  0.999848  0.231388  0.000000  1
  Sn  Sn6  1  0.666512  0.332927  0.000000  1
  Sn  Sn7  1  0.333585  0.667073  0.000000  1
  Pd  Pd8  1  0.999782  0.000000  0.500000  1
