# generated using pymatgen
data_ZnGa9Pt2
_symmetry_space_group_name_H-M   'P 1'
_cell_length_a   6.81148375
_cell_length_b   6.81148429
_cell_length_c   6.81148472
_cell_angle_alpha   122.96427036
_cell_angle_beta   122.96428036
_cell_angle_gamma   84.93809988
_symmetry_Int_Tables_number   1
_chemical_formula_structural   ZnGa9Pt2
_chemical_formula_sum   'Zn1 Ga9 Pt2'
_cell_volume   212.54717946
_cell_formula_units_Z   1
loop_
 _symmetry_equiv_pos_site_id
 _symmetry_equiv_pos_as_xyz
  1  'x, y, z'
loop_
 _atom_site_type_symbol
 _atom_site_label
 _atom_site_symmetry_multiplicity
 _atom_site_fract_x
 _atom_site_fract_y
 _atom_site_fract_z
 _atom_site_occupancy
  Zn  Zn0  1  0.000000  0.000000  0.000000  1
  Ga  Ga1  1  0.500000  0.500000  0.000000  1
  Ga  Ga2  1  0.003823  0.512108  0.791968  1
  Ga  Ga3  1  0.720139  0.211853  0.208032  1
  Ga  Ga4  1  0.512108  0.720139  0.508286  1
  Ga  Ga5  1  0.211853  0.003823  0.491714  1
  Ga  Ga6  1  0.996177  0.487892  0.208032  1
  Ga  Ga7  1  0.279861  0.788147  0.791968  1
  Ga  Ga8  1  0.487892  0.279861  0.491714  1
  Ga  Ga9  1  0.788147  0.996177  0.508286  1
  Pt  Pt10  1  0.747935  0.747935  0.000000  1
  Pt  Pt11  1  0.252065  0.252065  0.000000  1
