# generated using pymatgen
data_Er3Tm9Co2Ni2BiOs
_symmetry_space_group_name_H-M   'P 1'
_cell_length_a   8.20517627
_cell_length_b   8.20501784
_cell_length_c   8.20419560
_cell_angle_alpha   110.02705252
_cell_angle_beta   111.44382043
_cell_angle_gamma   106.97979365
_symmetry_Int_Tables_number   1
_chemical_formula_structural   Er3Tm9Co2Ni2BiOs
_chemical_formula_sum   'Er3 Tm9 Co2 Ni2 Bi1 Os1'
_cell_volume   424.49227178
_cell_formula_units_Z   1
loop_
 _symmetry_equiv_pos_site_id
 _symmetry_equiv_pos_as_xyz
  1  'x, y, z'
loop_
 _atom_site_type_symbol
 _atom_site_label
 _atom_site_symmetry_multiplicity
 _atom_site_fract_x
 _atom_site_fract_y
 _atom_site_fract_z
 _atom_site_occupancy
  Er  Er0  1  0.280913  0.179063  0.460002  1
  Er  Er1  1  0.719125  0.821116  0.540266  1
  Er  Er2  1  0.280905  0.820762  0.101697  1
  Tm  Tm3  1  0.719547  0.178832  0.898398  1
  Tm  Tm4  1  0.623698  0.313597  0.309812  1
  Tm  Tm5  1  0.376493  0.686661  0.690030  1
  Tm  Tm6  1  0.003444  0.313566  0.690061  1
  Tm  Tm7  1  0.996281  0.686151  0.309855  1
  Tm  Tm8  1  0.217967  0.412859  0.194414  1
  Tm  Tm9  1  0.781622  0.586749  0.805363  1
  Tm  Tm10  1  0.218613  0.023725  0.805350  1
  Tm  Tm11  1  0.781569  0.976473  0.194423  1
  Co  Co12  1  0.387016  0.887057  0.500622  1
  Co  Co13  1  0.613533  0.113510  0.500561  1
  Ni  Ni14  1  0.999551  0.363854  0.363369  1
  Ni  Ni15  1  0.000173  0.636009  0.636196  1
  Bi  Bi16  1  0.499909  0.500020  0.999936  1
  Os  Os17  1  0.999642  0.999997  0.999645  1
