# generated using pymatgen
data_TmUSe6
_symmetry_space_group_name_H-M   'P 1'
_cell_length_a   12.28453681
_cell_length_b   12.28453759
_cell_length_c   3.96215300
_cell_angle_alpha   90.00000000
_cell_angle_beta   90.00000000
_cell_angle_gamma   161.51744279
_symmetry_Int_Tables_number   1
_chemical_formula_structural   TmUSe6
_chemical_formula_sum   'Tm1 U1 Se6'
_cell_volume   189.55268495
_cell_formula_units_Z   1
loop_
 _symmetry_equiv_pos_site_id
 _symmetry_equiv_pos_as_xyz
  1  'x, y, z'
loop_
 _atom_site_type_symbol
 _atom_site_label
 _atom_site_symmetry_multiplicity
 _atom_site_fract_x
 _atom_site_fract_y
 _atom_site_fract_z
 _atom_site_occupancy
  Tm  Tm0  1  0.167856  0.832144  0.500000  1
  U  U1  1  0.830582  0.169418  0.000000  1
  Se  Se2  1  0.423042  0.576958  0.000000  1
  Se  Se3  1  0.576787  0.423213  0.500000  1
  Se  Se4  1  0.706803  0.293197  0.000000  1
  Se  Se5  1  0.294880  0.705120  0.500000  1
  Se  Se6  1  0.076904  0.923096  0.000000  1
  Se  Se7  1  0.923146  0.076854  0.500000  1
