# generated using pymatgen
data_TbY3Er4(CdIr)2
_symmetry_space_group_name_H-M   'P 1'
_cell_length_a   9.61819387
_cell_length_b   9.61819357
_cell_length_c   9.62092200
_cell_angle_alpha   59.99062258
_cell_angle_beta   59.99062360
_cell_angle_gamma   59.97852425
_symmetry_Int_Tables_number   1
_chemical_formula_structural   TbY3Er4(CdIr)2
_chemical_formula_sum   'Tb2 Y6 Er8 Cd4 Ir4'
_cell_volume   629.15354906
_cell_formula_units_Z   2
loop_
 _symmetry_equiv_pos_site_id
 _symmetry_equiv_pos_as_xyz
  1  'x, y, z'
loop_
 _atom_site_type_symbol
 _atom_site_label
 _atom_site_symmetry_multiplicity
 _atom_site_fract_x
 _atom_site_fract_y
 _atom_site_fract_z
 _atom_site_occupancy
  Tb  Tb0  1  0.349183  0.349183  0.348905  1
  Tb  Tb1  1  0.349183  0.349183  0.952729  1
  Y  Y2  1  0.938637  0.561787  0.561459  1
  Y  Y3  1  0.561787  0.938637  0.938117  1
  Y  Y4  1  0.561787  0.938637  0.561459  1
  Y  Y5  1  0.938637  0.561787  0.938117  1
  Y  Y6  1  0.561966  0.561966  0.938034  1
  Y  Y7  1  0.938698  0.938698  0.561302  1
  Er  Er8  1  0.349077  0.953510  0.348707  1
  Er  Er9  1  0.953510  0.349077  0.348707  1
  Er  Er10  1  0.811254  0.188104  0.189204  1
  Er  Er11  1  0.188104  0.811254  0.811438  1
  Er  Er12  1  0.188104  0.811254  0.189204  1
  Er  Er13  1  0.811254  0.188104  0.811438  1
  Er  Er14  1  0.188382  0.188382  0.811618  1
  Er  Er15  1  0.811094  0.811094  0.188906  1
  Cd  Cd16  1  0.580608  0.580608  0.580183  1
  Cd  Cd17  1  0.580608  0.580608  0.258602  1
  Cd  Cd18  1  0.580950  0.257948  0.580551  1
  Cd  Cd19  1  0.257948  0.580950  0.580551  1
  Ir  Ir20  1  0.141138  0.141138  0.142339  1
  Ir  Ir21  1  0.141138  0.141138  0.575385  1
  Ir  Ir22  1  0.140430  0.576524  0.141523  1
  Ir  Ir23  1  0.576524  0.140430  0.141523  1
