# generated using pymatgen
data_Th2Ga5Pt3
_symmetry_space_group_name_H-M   'P 1'
_cell_length_a   8.57477862
_cell_length_b   8.57477875
_cell_length_c   8.57477927
_cell_angle_alpha   138.04820884
_cell_angle_beta   105.39733088
_cell_angle_gamma   89.47179475
_symmetry_Int_Tables_number   1
_chemical_formula_structural   Th2Ga5Pt3
_chemical_formula_sum   'Th4 Ga10 Pt6'
_cell_volume   388.63054015
_cell_formula_units_Z   2
loop_
 _symmetry_equiv_pos_site_id
 _symmetry_equiv_pos_as_xyz
  1  'x, y, z'
loop_
 _atom_site_type_symbol
 _atom_site_label
 _atom_site_symmetry_multiplicity
 _atom_site_fract_x
 _atom_site_fract_y
 _atom_site_fract_z
 _atom_site_occupancy
  Th  Th0  1  0.635008  0.370508  0.264499  1
  Th  Th1  1  0.364992  0.629492  0.735501  1
  Th  Th2  1  0.106009  0.870508  0.235501  1
  Th  Th3  1  0.893991  0.129492  0.764499  1
  Ga  Ga4  1  0.270764  0.520764  0.250000  1
  Ga  Ga5  1  0.729236  0.479236  0.750000  1
  Ga  Ga6  1  0.729236  0.979236  0.250000  1
  Ga  Ga7  1  0.270764  0.020764  0.750000  1
  Ga  Ga8  1  0.462585  0.109855  0.352730  1
  Ga  Ga9  1  0.537415  0.890145  0.647270  1
  Ga  Ga10  1  0.757124  0.609855  0.147270  1
  Ga  Ga11  1  0.242876  0.390145  0.852730  1
  Ga  Ga12  1  0.000000  0.250000  0.250000  1
  Ga  Ga13  1  0.000000  0.750000  0.750000  1
  Pt  Pt14  1  0.255936  0.137535  0.118402  1
  Pt  Pt15  1  0.744064  0.862465  0.881598  1
  Pt  Pt16  1  0.019133  0.637535  0.381598  1
  Pt  Pt17  1  0.980867  0.362465  0.618402  1
  Pt  Pt18  1  0.500000  0.250000  0.750000  1
  Pt  Pt19  1  0.500000  0.750000  0.250000  1
