# generated using pymatgen
data_Ta2BeNiB4
_symmetry_space_group_name_H-M   'P 1'
_cell_length_a   6.00908000
_cell_length_b   3.06877800
_cell_length_c   8.05449100
_cell_angle_alpha   90.00000000
_cell_angle_beta   90.00000000
_cell_angle_gamma   90.00000000
_symmetry_Int_Tables_number   1
_chemical_formula_structural   Ta2BeNiB4
_chemical_formula_sum   'Ta4 Be2 Ni2 B8'
_cell_volume   148.52910309
_cell_formula_units_Z   2
loop_
 _symmetry_equiv_pos_site_id
 _symmetry_equiv_pos_as_xyz
  1  'x, y, z'
loop_
 _atom_site_type_symbol
 _atom_site_label
 _atom_site_symmetry_multiplicity
 _atom_site_fract_x
 _atom_site_fract_y
 _atom_site_fract_z
 _atom_site_occupancy
  Ta  Ta0  1  0.136280  0.250000  0.867744  1
  Ta  Ta1  1  0.636280  0.250000  0.632256  1
  Ta  Ta2  1  0.861403  0.750000  0.135077  1
  Ta  Ta3  1  0.361403  0.750000  0.364923  1
  Be  Be4  1  0.991820  0.250000  0.393053  1
  Be  Be5  1  0.491820  0.250000  0.106947  1
  Ni  Ni6  1  0.004450  0.750000  0.600532  1
  Ni  Ni7  1  0.504450  0.750000  0.899468  1
  B  B8  1  0.245400  0.250000  0.577587  1
  B  B9  1  0.745400  0.250000  0.922413  1
  B  B10  1  0.759633  0.750000  0.418858  1
  B  B11  1  0.259633  0.750000  0.081142  1
  B  B12  1  0.170895  0.250000  0.173258  1
  B  B13  1  0.670895  0.250000  0.326742  1
  B  B14  1  0.830119  0.750000  0.829580  1
  B  B15  1  0.330119  0.750000  0.670420  1
