# generated using pymatgen
data_TbTm11CoTc3
_symmetry_space_group_name_H-M   'P 1'
_cell_length_a   6.19860185
_cell_length_b   7.25833564
_cell_length_c   9.02009700
_cell_angle_alpha   90.00000000
_cell_angle_beta   90.00000000
_cell_angle_gamma   90.17752540
_symmetry_Int_Tables_number   1
_chemical_formula_structural   TbTm11CoTc3
_chemical_formula_sum   'Tb1 Tm11 Co1 Tc3'
_cell_volume   405.82604121
_cell_formula_units_Z   1
loop_
 _symmetry_equiv_pos_site_id
 _symmetry_equiv_pos_as_xyz
  1  'x, y, z'
loop_
 _atom_site_type_symbol
 _atom_site_label
 _atom_site_symmetry_multiplicity
 _atom_site_fract_x
 _atom_site_fract_y
 _atom_site_fract_z
 _atom_site_occupancy
  Tb  Tb0  1  0.378228  0.951311  0.750000  1
  Tm  Tm1  1  0.332256  0.676765  0.063893  1
  Tm  Tm2  1  0.160396  0.177336  0.438546  1
  Tm  Tm3  1  0.663795  0.327518  0.563563  1
  Tm  Tm4  1  0.835877  0.820872  0.938473  1
  Tm  Tm5  1  0.663795  0.327518  0.936437  1
  Tm  Tm6  1  0.835877  0.820872  0.561527  1
  Tm  Tm7  1  0.332256  0.676765  0.436107  1
  Tm  Tm8  1  0.160396  0.177336  0.061454  1
  Tm  Tm9  1  0.873525  0.540191  0.250000  1
  Tm  Tm10  1  0.624287  0.040085  0.250000  1
  Tm  Tm11  1  0.139335  0.458405  0.750000  1
  Co  Co12  1  0.539470  0.615065  0.750000  1
  Tc  Tc13  1  0.039082  0.886289  0.250000  1
  Tc  Tc14  1  0.460460  0.388237  0.250000  1
  Tc  Tc15  1  0.960967  0.115431  0.750000  1
