# generated using pymatgen
data_Rb2Ti3(GaO5)2
_symmetry_space_group_name_H-M   'P 1'
_cell_length_a   9.77703970
_cell_length_b   9.77704009
_cell_length_c   13.15738681
_cell_angle_alpha   50.39118694
_cell_angle_beta   50.39118427
_cell_angle_gamma   42.43785533
_symmetry_Int_Tables_number   1
_chemical_formula_structural   Rb2Ti3(GaO5)2
_chemical_formula_sum   'Rb4 Ti6 Ga4 O20'
_cell_volume   619.18260645
_cell_formula_units_Z   2
loop_
 _symmetry_equiv_pos_site_id
 _symmetry_equiv_pos_as_xyz
  1  'x, y, z'
loop_
 _atom_site_type_symbol
 _atom_site_label
 _atom_site_symmetry_multiplicity
 _atom_site_fract_x
 _atom_site_fract_y
 _atom_site_fract_z
 _atom_site_occupancy
  Rb  Rb0  1  0.630452  0.847221  0.131051  1
  Rb  Rb1  1  0.152779  0.369548  0.868949  1
  Rb  Rb2  1  0.276385  0.988117  0.620261  1
  Rb  Rb3  1  0.011883  0.723615  0.379739  1
  Ti  Ti4  1  0.697438  0.425839  0.802151  1
  Ti  Ti5  1  0.574161  0.302562  0.197849  1
  Ti  Ti6  1  0.267724  0.732276  0.500000  1
  Ti  Ti7  1  0.015240  0.984760  0.000000  1
  Ti  Ti8  1  0.760030  0.988428  0.706000  1
  Ti  Ti9  1  0.011572  0.239970  0.294000  1
  Ga  Ga10  1  0.730593  0.443315  0.538032  1
  Ga  Ga11  1  0.556685  0.269407  0.461968  1
  Ga  Ga12  1  0.260227  0.474057  0.062436  1
  Ga  Ga13  1  0.525943  0.739773  0.937564  1
  O  O14  1  0.982321  0.312191  0.406934  1
  O  O15  1  0.687809  0.017679  0.593066  1
  O  O16  1  0.649222  0.252779  0.683395  1
  O  O17  1  0.747221  0.350778  0.316605  1
  O  O18  1  0.059548  0.817942  0.656104  1
  O  O19  1  0.182058  0.940452  0.343896  1
  O  O20  1  0.505447  0.690626  0.466994  1
  O  O21  1  0.309374  0.494553  0.533006  1
  O  O22  1  0.783746  0.505872  0.611351  1
  O  O23  1  0.494128  0.216254  0.388649  1
  O  O24  1  0.131941  0.357567  0.110415  1
  O  O25  1  0.642433  0.868059  0.889585  1
  O  O26  1  0.415905  0.527201  0.874121  1
  O  O27  1  0.472799  0.584095  0.125879  1
  O  O28  1  0.454185  0.269435  0.159223  1
  O  O29  1  0.730565  0.545815  0.840777  1
  O  O30  1  0.876986  0.130129  0.878362  1
  O  O31  1  0.869871  0.123014  0.121638  1
  O  O32  1  0.046009  0.728370  0.104170  1
  O  O33  1  0.271630  0.953991  0.895830  1
