# generated using pymatgen
data_Er2(NpGa5)3
_symmetry_space_group_name_H-M   'P 1'
_cell_length_a   12.29306469
_cell_length_b   12.29306517
_cell_length_c   12.29306349
_cell_angle_alpha   28.80629054
_cell_angle_beta   28.80628732
_cell_angle_gamma   28.80628679
_symmetry_Int_Tables_number   1
_chemical_formula_structural   Er2(NpGa5)3
_chemical_formula_sum   'Er2 Np3 Ga15'
_cell_volume   381.39641191
_cell_formula_units_Z   1
loop_
 _symmetry_equiv_pos_site_id
 _symmetry_equiv_pos_as_xyz
  1  'x, y, z'
loop_
 _atom_site_type_symbol
 _atom_site_label
 _atom_site_symmetry_multiplicity
 _atom_site_fract_x
 _atom_site_fract_y
 _atom_site_fract_z
 _atom_site_occupancy
  Er  Er0  1  0.400356  0.400356  0.400356  1
  Er  Er1  1  0.599644  0.599644  0.599644  1
  Np  Np2  1  0.000000  0.000000  0.000000  1
  Np  Np3  1  0.130045  0.130045  0.130045  1
  Np  Np4  1  0.869955  0.869955  0.869955  1
  Ga  Ga5  1  0.126274  0.637333  0.637333  1
  Ga  Ga6  1  0.637333  0.637333  0.126274  1
  Ga  Ga7  1  0.637333  0.126274  0.637333  1
  Ga  Ga8  1  0.362667  0.873726  0.362667  1
  Ga  Ga9  1  0.362667  0.362667  0.873726  1
  Ga  Ga10  1  0.873726  0.362667  0.362667  1
  Ga  Ga11  1  0.425456  0.885400  0.885400  1
  Ga  Ga12  1  0.885400  0.885400  0.425456  1
  Ga  Ga13  1  0.885400  0.425456  0.885400  1
  Ga  Ga14  1  0.114600  0.574544  0.114600  1
  Ga  Ga15  1  0.114600  0.114600  0.574544  1
  Ga  Ga16  1  0.574544  0.114600  0.114600  1
  Ga  Ga17  1  0.500000  0.500000  0.000000  1
  Ga  Ga18  1  0.500000  0.000000  0.500000  1
  Ga  Ga19  1  0.000000  0.500000  0.500000  1
