# generated using pymatgen
data_Y3Ho5Re(B8Ru)3
_symmetry_space_group_name_H-M   'P 1'
_cell_length_a   3.66605000
_cell_length_b   9.14160234
_cell_length_c   11.53229901
_cell_angle_alpha   90.13210283
_cell_angle_beta   90.00000000
_cell_angle_gamma   90.00000000
_symmetry_Int_Tables_number   1
_chemical_formula_structural   Y3Ho5Re(B8Ru)3
_chemical_formula_sum   'Y3 Ho5 Re1 B24 Ru3'
_cell_volume   386.48749741
_cell_formula_units_Z   1
loop_
 _symmetry_equiv_pos_site_id
 _symmetry_equiv_pos_as_xyz
  1  'x, y, z'
loop_
 _atom_site_type_symbol
 _atom_site_label
 _atom_site_symmetry_multiplicity
 _atom_site_fract_x
 _atom_site_fract_y
 _atom_site_fract_z
 _atom_site_occupancy
  Y  Y0  1  0.000000  0.322868  0.415085  1
  Y  Y1  1  0.000000  0.680115  0.587959  1
  Y  Y2  1  0.000000  0.822613  0.083472  1
  Ho  Ho3  1  0.000000  0.176210  0.913482  1
  Ho  Ho4  1  0.000000  0.943024  0.371001  1
  Ho  Ho5  1  0.000000  0.056648  0.627840  1
  Ho  Ho6  1  0.000000  0.442416  0.128502  1
  Ho  Ho7  1  0.000000  0.555876  0.872465  1
  Re  Re8  1  0.000000  0.862614  0.821150  1
  B  B9  1  0.500000  0.554244  0.433025  1
  B  B10  1  0.500000  0.446065  0.567373  1
  B  B11  1  0.500000  0.054096  0.067455  1
  B  B12  1  0.500000  0.947320  0.932995  1
  B  B13  1  0.500000  0.748512  0.419167  1
  B  B14  1  0.500000  0.251889  0.580677  1
  B  B15  1  0.500000  0.248129  0.080683  1
  B  B16  1  0.500000  0.751199  0.919044  1
  B  B17  1  0.500000  0.790164  0.266017  1
  B  B18  1  0.500000  0.209270  0.733293  1
  B  B19  1  0.500000  0.290565  0.234020  1
  B  B20  1  0.500000  0.708502  0.766089  1
  B  B21  1  0.500000  0.630742  0.185410  1
  B  B22  1  0.500000  0.368244  0.814460  1
  B  B23  1  0.500000  0.131577  0.314726  1
  B  B24  1  0.500000  0.869046  0.685552  1
  B  B25  1  0.500000  0.983756  0.212573  1
  B  B26  1  0.500000  0.017996  0.787361  1
  B  B27  1  0.500000  0.483479  0.287874  1
  B  B28  1  0.500000  0.516381  0.712828  1
  B  B29  1  0.500000  0.605145  0.029910  1
  B  B30  1  0.500000  0.392317  0.970856  1
  B  B31  1  0.500000  0.107040  0.469916  1
  B  B32  1  0.500000  0.893898  0.528646  1
  Ru  Ru33  1  0.000000  0.637854  0.320974  1
  Ru  Ru34  1  0.000000  0.362124  0.678799  1
  Ru  Ru35  1  0.000000  0.138058  0.179322  1
