# generated using pymatgen
data_Hf16Ta3Si16Tc
_symmetry_space_group_name_H-M   'P 1'
_cell_length_a   6.97912646
_cell_length_b   6.97912646
_cell_length_c   12.75282661
_cell_angle_alpha   89.81134746
_cell_angle_beta   89.81134746
_cell_angle_gamma   89.99316232
_symmetry_Int_Tables_number   1
_chemical_formula_structural   Hf16Ta3Si16Tc
_chemical_formula_sum   'Hf16 Ta3 Si16 Tc1'
_cell_volume   621.16056888
_cell_formula_units_Z   1
loop_
 _symmetry_equiv_pos_site_id
 _symmetry_equiv_pos_as_xyz
  1  'x, y, z'
loop_
 _atom_site_type_symbol
 _atom_site_label
 _atom_site_symmetry_multiplicity
 _atom_site_fract_x
 _atom_site_fract_y
 _atom_site_fract_z
 _atom_site_occupancy
  Hf  Hf0  1  0.498264  0.153206  0.531516  1
  Hf  Hf1  1  0.502931  0.846797  0.030892  1
  Hf  Hf2  1  0.653023  0.002698  0.282398  1
  Hf  Hf3  1  0.345596  0.995173  0.780678  1
  Hf  Hf4  1  0.846794  0.501736  0.968484  1
  Hf  Hf5  1  0.153203  0.497069  0.469108  1
  Hf  Hf6  1  0.004827  0.654404  0.719322  1
  Hf  Hf7  1  0.997302  0.346977  0.217602  1
  Hf  Hf8  1  0.499583  0.355072  0.124729  1
  Hf  Hf9  1  0.503338  0.645234  0.627368  1
  Hf  Hf10  1  0.855526  0.001651  0.875068  1
  Hf  Hf11  1  0.144762  0.997571  0.376099  1
  Hf  Hf12  1  0.644928  0.500417  0.375271  1
  Hf  Hf13  1  0.354766  0.496662  0.872632  1
  Hf  Hf14  1  0.002429  0.855238  0.123901  1
  Hf  Hf15  1  0.998349  0.144474  0.624932  1
  Ta  Ta16  1  0.325544  0.674456  0.250000  1
  Ta  Ta17  1  0.824271  0.825938  0.501264  1
  Ta  Ta18  1  0.174062  0.175729  0.998736  1
  Si  Si19  1  0.796510  0.146527  0.071458  1
  Si  Si20  1  0.202714  0.852537  0.571769  1
  Si  Si21  1  0.647181  0.702899  0.822437  1
  Si  Si22  1  0.352968  0.296820  0.321734  1
  Si  Si23  1  0.853473  0.203490  0.428542  1
  Si  Si24  1  0.147463  0.797286  0.928231  1
  Si  Si25  1  0.703180  0.647032  0.178266  1
  Si  Si26  1  0.297101  0.352819  0.677563  1
  Si  Si27  1  0.550877  0.199677  0.932580  1
  Si  Si28  1  0.453366  0.802579  0.434913  1
  Si  Si29  1  0.696946  0.956630  0.685808  1
  Si  Si30  1  0.302382  0.048076  0.184335  1
  Si  Si31  1  0.800323  0.449123  0.567420  1
  Si  Si32  1  0.197421  0.546634  0.065087  1
  Si  Si33  1  0.951924  0.697618  0.315665  1
  Si  Si34  1  0.043370  0.303054  0.814192  1
  Tc  Tc35  1  0.673304  0.326696  0.750000  1
