# generated using pymatgen
data_Ba4ScIrO8
_symmetry_space_group_name_H-M   'P 1'
_cell_length_a   7.35847877
_cell_length_b   7.35847967
_cell_length_c   5.83567200
_cell_angle_alpha   90.00000000
_cell_angle_beta   90.00000000
_cell_angle_gamma   133.25758736
_symmetry_Int_Tables_number   1
_chemical_formula_structural   Ba4ScIrO8
_chemical_formula_sum   'Ba4 Sc1 Ir1 O8'
_cell_volume   230.12591547
_cell_formula_units_Z   1
loop_
 _symmetry_equiv_pos_site_id
 _symmetry_equiv_pos_as_xyz
  1  'x, y, z'
loop_
 _atom_site_type_symbol
 _atom_site_label
 _atom_site_symmetry_multiplicity
 _atom_site_fract_x
 _atom_site_fract_y
 _atom_site_fract_z
 _atom_site_occupancy
  Ba  Ba0  1  0.354628  0.645372  0.000000  1
  Ba  Ba1  1  0.855534  0.144466  0.500000  1
  Ba  Ba2  1  0.144466  0.855534  0.500000  1
  Ba  Ba3  1  0.645372  0.354628  0.000000  1
  Sc  Sc4  1  0.000000  0.000000  0.000000  1
  Ir  Ir5  1  0.500000  0.500000  0.500000  1
  O  O6  1  0.256123  0.256123  0.740323  1
  O  O7  1  0.743877  0.743877  0.259677  1
  O  O8  1  0.743877  0.743877  0.740323  1
  O  O9  1  0.256123  0.256123  0.259677  1
  O  O10  1  0.157528  0.842472  0.000000  1
  O  O11  1  0.650212  0.349788  0.500000  1
  O  O12  1  0.349788  0.650212  0.500000  1
  O  O13  1  0.842472  0.157528  0.000000  1
