# generated using pymatgen
data_Rb6Na4TiNbP6
_symmetry_space_group_name_H-M   'P 1'
_cell_length_a   10.54797876
_cell_length_b   10.54797768
_cell_length_c   15.52302400
_cell_angle_alpha   90.00000000
_cell_angle_beta   90.00000000
_cell_angle_gamma   142.44403667
_symmetry_Int_Tables_number   1
_chemical_formula_structural   Rb6Na4TiNbP6
_chemical_formula_sum   'Rb12 Na8 Ti2 Nb2 P12'
_cell_volume   1052.72313711
_cell_formula_units_Z   2
loop_
 _symmetry_equiv_pos_site_id
 _symmetry_equiv_pos_as_xyz
  1  'x, y, z'
loop_
 _atom_site_type_symbol
 _atom_site_label
 _atom_site_symmetry_multiplicity
 _atom_site_fract_x
 _atom_site_fract_y
 _atom_site_fract_z
 _atom_site_occupancy
  Rb  Rb0  1  0.943350  0.607227  0.824097  1
  Rb  Rb1  1  0.556650  0.892773  0.324097  1
  Rb  Rb2  1  0.392773  0.056650  0.175903  1
  Rb  Rb3  1  0.058571  0.393182  0.174514  1
  Rb  Rb4  1  0.893182  0.558571  0.325486  1
  Rb  Rb5  1  0.441429  0.106818  0.674514  1
  Rb  Rb6  1  0.606818  0.941429  0.825486  1
  Rb  Rb7  1  0.275028  0.273499  0.315653  1
  Rb  Rb8  1  0.773499  0.775028  0.184347  1
  Rb  Rb9  1  0.224972  0.226501  0.815653  1
  Rb  Rb10  1  0.726501  0.724972  0.684347  1
  Rb  Rb11  1  0.107227  0.443350  0.675903  1
  Na  Na12  1  0.920178  0.079822  0.000000  1
  Na  Na13  1  0.579822  0.420178  0.500000  1
  Na  Na14  1  0.079110  0.920890  0.000000  1
  Na  Na15  1  0.420890  0.579110  0.500000  1
  Na  Na16  1  0.756038  0.243962  0.000000  1
  Na  Na17  1  0.743962  0.256038  0.500000  1
  Na  Na18  1  0.245916  0.754084  0.000000  1
  Na  Na19  1  0.254084  0.745916  0.500000  1
  Ti  Ti20  1  0.415621  0.584379  0.000000  1
  Ti  Ti21  1  0.084379  0.915621  0.500000  1
  Nb  Nb22  1  0.582692  0.417308  0.000000  1
  Nb  Nb23  1  0.917308  0.082692  0.500000  1
  P  P24  1  0.858751  0.553305  0.092567  1
  P  P25  1  0.446695  0.141249  0.907433  1
  P  P26  1  0.641249  0.946695  0.592567  1
  P  P27  1  0.946509  0.639629  0.592950  1
  P  P28  1  0.139629  0.446509  0.907050  1
  P  P29  1  0.553491  0.860371  0.092950  1
  P  P30  1  0.360371  0.053491  0.407050  1
  P  P31  1  0.192719  0.194467  0.584178  1
  P  P32  1  0.694467  0.692719  0.915822  1
  P  P33  1  0.307281  0.305533  0.084178  1
  P  P34  1  0.053305  0.358751  0.407433  1
  P  P35  1  0.805533  0.807281  0.415822  1
