# generated using pymatgen
data_Ho4ZrIr2Rh
_symmetry_space_group_name_H-M   'P 1'
_cell_length_a   10.78887700
_cell_length_b   10.78887700
_cell_length_c   6.24848600
_cell_angle_alpha   90.00000000
_cell_angle_beta   90.00000000
_cell_angle_gamma   90.00000000
_symmetry_Int_Tables_number   1
_chemical_formula_structural   Ho4ZrIr2Rh
_chemical_formula_sum   'Ho16 Zr4 Ir8 Rh4'
_cell_volume   727.32293886
_cell_formula_units_Z   4
loop_
 _symmetry_equiv_pos_site_id
 _symmetry_equiv_pos_as_xyz
  1  'x, y, z'
loop_
 _atom_site_type_symbol
 _atom_site_label
 _atom_site_symmetry_multiplicity
 _atom_site_fract_x
 _atom_site_fract_y
 _atom_site_fract_z
 _atom_site_occupancy
  Ho  Ho0  1  0.289174  0.087530  0.374658  1
  Ho  Ho1  1  0.289174  0.912470  0.874658  1
  Ho  Ho2  1  0.710826  0.087530  0.874658  1
  Ho  Ho3  1  0.710826  0.912470  0.374658  1
  Ho  Ho4  1  0.587530  0.789174  0.874658  1
  Ho  Ho5  1  0.587530  0.210826  0.374658  1
  Ho  Ho6  1  0.412470  0.789174  0.374658  1
  Ho  Ho7  1  0.412470  0.210826  0.874658  1
  Ho  Ho8  1  0.210826  0.412470  0.625342  1
  Ho  Ho9  1  0.210826  0.587530  0.125342  1
  Ho  Ho10  1  0.789174  0.412470  0.125342  1
  Ho  Ho11  1  0.789174  0.587530  0.625342  1
  Ho  Ho12  1  0.912470  0.710826  0.125342  1
  Ho  Ho13  1  0.912470  0.289174  0.625342  1
  Ho  Ho14  1  0.087530  0.710826  0.625342  1
  Ho  Ho15  1  0.087530  0.289174  0.125342  1
  Zr  Zr16  1  0.000000  0.000000  0.500000  1
  Zr  Zr17  1  0.000000  0.000000  0.000000  1
  Zr  Zr18  1  0.500000  0.500000  0.000000  1
  Zr  Zr19  1  0.500000  0.500000  0.500000  1
  Ir  Ir20  1  0.853617  0.146383  0.250000  1
  Ir  Ir21  1  0.853617  0.853617  0.750000  1
  Ir  Ir22  1  0.146383  0.146383  0.750000  1
  Ir  Ir23  1  0.146383  0.853617  0.250000  1
  Ir  Ir24  1  0.646383  0.353617  0.750000  1
  Ir  Ir25  1  0.646383  0.646383  0.250000  1
  Ir  Ir26  1  0.353617  0.353617  0.250000  1
  Ir  Ir27  1  0.353617  0.646383  0.750000  1
  Rh  Rh28  1  0.500000  0.000000  0.121495  1
  Rh  Rh29  1  0.500000  0.000000  0.621495  1
  Rh  Rh30  1  0.000000  0.500000  0.878505  1
  Rh  Rh31  1  0.000000  0.500000  0.378505  1
