# generated using pymatgen
data_Zr11TiAl8Ru2(PtC2)2
_symmetry_space_group_name_H-M   'P 1'
_cell_length_a   8.66753603
_cell_length_b   8.66753637
_cell_length_c   8.61321100
_cell_angle_alpha   60.20711378
_cell_angle_beta   60.20711251
_cell_angle_gamma   59.99083435
_symmetry_Int_Tables_number   1
_chemical_formula_structural   Zr11TiAl8Ru2(PtC2)2
_chemical_formula_sum   'Zr11 Ti1 Al8 Ru2 Pt2 C4'
_cell_volume   458.94815966
_cell_formula_units_Z   1
loop_
 _symmetry_equiv_pos_site_id
 _symmetry_equiv_pos_as_xyz
  1  'x, y, z'
loop_
 _atom_site_type_symbol
 _atom_site_label
 _atom_site_symmetry_multiplicity
 _atom_site_fract_x
 _atom_site_fract_y
 _atom_site_fract_z
 _atom_site_occupancy
  Zr  Zr0  1  0.942578  0.943278  0.558668  1
  Zr  Zr1  1  0.689759  0.309221  0.305480  1
  Zr  Zr2  1  0.308099  0.690909  0.696644  1
  Zr  Zr3  1  0.689938  0.687931  0.310703  1
  Zr  Zr4  1  0.691599  0.308475  0.694266  1
  Zr  Zr5  1  0.309027  0.688934  0.304290  1
  Zr  Zr6  1  0.557969  0.940442  0.561299  1
  Zr  Zr7  1  0.559591  0.939955  0.940361  1
  Zr  Zr8  1  0.941378  0.558410  0.558713  1
  Zr  Zr9  1  0.940664  0.560307  0.941198  1
  Zr  Zr10  1  0.309022  0.308139  0.689940  1
  Ti  Ti11  1  0.564346  0.567595  0.934268  1
  Al  Al12  1  0.916760  0.245324  0.916562  1
  Al  Al13  1  0.329790  0.334723  0.008314  1
  Al  Al14  1  0.008561  0.332500  0.331622  1
  Al  Al15  1  0.327573  0.331863  0.330268  1
  Al  Al16  1  0.243869  0.913766  0.919063  1
  Al  Al17  1  0.922412  0.917959  0.919250  1
  Al  Al18  1  0.920468  0.915437  0.242534  1
  Al  Al19  1  0.329466  0.006768  0.334329  1
  Ru  Ru20  1  0.125480  0.624693  0.124937  1
  Ru  Ru21  1  0.124185  0.124529  0.626390  1
  Pt  Pt22  1  0.624558  0.126019  0.124699  1
  Pt  Pt23  1  0.124489  0.124762  0.124485  1
  C  C24  1  0.626256  0.126111  0.623844  1
  C  C25  1  0.623106  0.622893  0.118626  1
  C  C26  1  0.125964  0.626087  0.623993  1
  C  C27  1  0.623091  0.622968  0.635257  1
