# generated using pymatgen
data_MnV12Ga6CoN4
_symmetry_space_group_name_H-M   'P 1'
_cell_length_a   6.56874344
_cell_length_b   6.56874405
_cell_length_c   6.56874385
_cell_angle_alpha   90.05362208
_cell_angle_beta   89.94636405
_cell_angle_gamma   89.94637455
_symmetry_Int_Tables_number   1
_chemical_formula_structural   MnV12Ga6CoN4
_chemical_formula_sum   'Mn1 V12 Ga6 Co1 N4'
_cell_volume   283.43037752
_cell_formula_units_Z   1
loop_
 _symmetry_equiv_pos_site_id
 _symmetry_equiv_pos_as_xyz
  1  'x, y, z'
loop_
 _atom_site_type_symbol
 _atom_site_label
 _atom_site_symmetry_multiplicity
 _atom_site_fract_x
 _atom_site_fract_y
 _atom_site_fract_z
 _atom_site_occupancy
  Mn  Mn0  1  0.570445  0.429555  0.929555  1
  V  V1  1  0.792848  0.957631  0.375810  1
  V  V2  1  0.708032  0.045737  0.876587  1
  V  V3  1  0.214448  0.461775  0.120682  1
  V  V4  1  0.291352  0.540045  0.629225  1
  V  V5  1  0.954263  0.376587  0.791968  1
  V  V6  1  0.042369  0.875810  0.707152  1
  V  V7  1  0.459955  0.129225  0.208648  1
  V  V8  1  0.538225  0.620682  0.285552  1
  V  V9  1  0.379318  0.785552  0.961775  1
  V  V10  1  0.870775  0.708648  0.040045  1
  V  V11  1  0.124190  0.207152  0.457631  1
  V  V12  1  0.623413  0.291968  0.545737  1
  Ga  Ga13  1  0.323307  0.182535  0.822583  1
  Ga  Ga14  1  0.817465  0.322583  0.176693  1
  Ga  Ga15  1  0.677417  0.676693  0.682535  1
  Ga  Ga16  1  0.420484  0.925773  0.558459  1
  Ga  Ga17  1  0.941541  0.579516  0.425773  1
  Ga  Ga18  1  0.074227  0.058459  0.079516  1
  Co  Co19  1  0.181823  0.818177  0.318177  1
  N  N20  1  0.874516  0.125484  0.625484  1
  N  N21  1  0.624910  0.878019  0.127306  1
  N  N22  1  0.121981  0.627306  0.875090  1
  N  N23  1  0.372694  0.375090  0.378019  1
