# generated using pymatgen
data_BaCaCdAs2
_symmetry_space_group_name_H-M   'P 1'
_cell_length_a   9.23628322
_cell_length_b   9.23628249
_cell_length_c   7.21201300
_cell_angle_alpha   90.00000000
_cell_angle_beta   90.00000000
_cell_angle_gamma   151.71078143
_symmetry_Int_Tables_number   1
_chemical_formula_structural   BaCaCdAs2
_chemical_formula_sum   'Ba2 Ca2 Cd2 As4'
_cell_volume   291.58037883
_cell_formula_units_Z   2
loop_
 _symmetry_equiv_pos_site_id
 _symmetry_equiv_pos_as_xyz
  1  'x, y, z'
loop_
 _atom_site_type_symbol
 _atom_site_label
 _atom_site_symmetry_multiplicity
 _atom_site_fract_x
 _atom_site_fract_y
 _atom_site_fract_z
 _atom_site_occupancy
  Ba  Ba0  1  0.300512  0.699488  0.953601  1
  Ba  Ba1  1  0.699488  0.300512  0.453601  1
  Ca  Ca2  1  0.473197  0.526803  0.271464  1
  Ca  Ca3  1  0.526803  0.473197  0.771464  1
  Cd  Cd4  1  0.093942  0.906058  0.101148  1
  Cd  Cd5  1  0.906058  0.093942  0.601148  1
  As  As6  1  0.056458  0.943542  0.481886  1
  As  As7  1  0.943542  0.056458  0.981886  1
  As  As8  1  0.332337  0.667663  0.487451  1
  As  As9  1  0.667663  0.332337  0.987451  1
