# generated using pymatgen
data_Pr8Si15Ir
_symmetry_space_group_name_H-M   'P 1'
_cell_length_a   8.23407100
_cell_length_b   8.23407154
_cell_length_c   8.55567600
_cell_angle_alpha   90.00000000
_cell_angle_beta   90.00000000
_cell_angle_gamma   120.00000184
_symmetry_Int_Tables_number   1
_chemical_formula_structural   Pr8Si15Ir
_chemical_formula_sum   'Pr8 Si15 Ir1'
_cell_volume   502.35901109
_cell_formula_units_Z   1
loop_
 _symmetry_equiv_pos_site_id
 _symmetry_equiv_pos_as_xyz
  1  'x, y, z'
loop_
 _atom_site_type_symbol
 _atom_site_label
 _atom_site_symmetry_multiplicity
 _atom_site_fract_x
 _atom_site_fract_y
 _atom_site_fract_z
 _atom_site_occupancy
  Pr  Pr0  1  0.499968  0.500032  0.745885  1
  Pr  Pr1  1  0.500487  0.499513  0.254289  1
  Pr  Pr2  1  0.000066  0.500032  0.745885  1
  Pr  Pr3  1  0.999028  0.499513  0.254289  1
  Pr  Pr4  1  0.499968  0.999934  0.745885  1
  Pr  Pr5  1  0.500487  0.000972  0.254289  1
  Pr  Pr6  1  0.000000  0.000000  0.748412  1
  Pr  Pr7  1  0.000000  0.000000  0.251154  1
  Si  Si8  1  0.829792  0.170208  0.000172  1
  Si  Si9  1  0.163376  0.836624  0.999574  1
  Si  Si10  1  0.340417  0.170208  0.000172  1
  Si  Si11  1  0.167735  0.832265  0.500578  1
  Si  Si12  1  0.673246  0.836624  0.999574  1
  Si  Si13  1  0.833892  0.166108  0.499389  1
  Si  Si14  1  0.829792  0.659583  0.000172  1
  Si  Si15  1  0.664530  0.832265  0.500578  1
  Si  Si16  1  0.163376  0.326754  0.999574  1
  Si  Si17  1  0.332216  0.166108  0.499389  1
  Si  Si18  1  0.167735  0.335470  0.500578  1
  Si  Si19  1  0.833892  0.667784  0.499389  1
  Si  Si20  1  0.333333  0.666667  0.001827  1
  Si  Si21  1  0.333333  0.666667  0.498058  1
  Si  Si22  1  0.666667  0.333333  0.501726  1
  Ir  Ir23  1  0.666667  0.333333  0.999164  1
