# generated using pymatgen
data_K2Hf(AgTe2)2
_symmetry_space_group_name_H-M   'P 1'
_cell_length_a   8.05703319
_cell_length_b   8.05703322
_cell_length_c   6.49925600
_cell_angle_alpha   90.00000000
_cell_angle_beta   90.00000000
_cell_angle_gamma   132.27530204
_symmetry_Int_Tables_number   1
_chemical_formula_structural   K2Hf(AgTe2)2
_chemical_formula_sum   'K2 Hf1 Ag2 Te4'
_cell_volume   312.17590797
_cell_formula_units_Z   1
loop_
 _symmetry_equiv_pos_site_id
 _symmetry_equiv_pos_as_xyz
  1  'x, y, z'
loop_
 _atom_site_type_symbol
 _atom_site_label
 _atom_site_symmetry_multiplicity
 _atom_site_fract_x
 _atom_site_fract_y
 _atom_site_fract_z
 _atom_site_occupancy
  K  K0  1  0.500000  0.000000  0.251518  1
  K  K1  1  0.000000  0.500000  0.748482  1
  Hf  Hf2  1  0.000000  0.000000  0.000000  1
  Ag  Ag3  1  0.000000  0.000000  0.500000  1
  Ag  Ag4  1  0.500000  0.500000  0.000000  1
  Te  Te5  1  0.874188  0.648392  0.238629  1
  Te  Te6  1  0.125812  0.351608  0.238629  1
  Te  Te7  1  0.648392  0.874188  0.761371  1
  Te  Te8  1  0.351608  0.125812  0.761371  1
