# generated using pymatgen
data_Eu4Ti3AsO14
_symmetry_space_group_name_H-M   'P 1'
_cell_length_a   7.28917636
_cell_length_b   7.28917663
_cell_length_c   7.30204867
_cell_angle_alpha   60.05829998
_cell_angle_beta   60.05829424
_cell_angle_gamma   60.00000230
_symmetry_Int_Tables_number   1
_chemical_formula_structural   Eu4Ti3AsO14
_chemical_formula_sum   'Eu4 Ti3 As1 O14'
_cell_volume   274.57992763
_cell_formula_units_Z   1
loop_
 _symmetry_equiv_pos_site_id
 _symmetry_equiv_pos_as_xyz
  1  'x, y, z'
loop_
 _atom_site_type_symbol
 _atom_site_label
 _atom_site_symmetry_multiplicity
 _atom_site_fract_x
 _atom_site_fract_y
 _atom_site_fract_z
 _atom_site_occupancy
  Eu  Eu0  1  0.125000  0.625000  0.125000  1
  Eu  Eu1  1  0.125000  0.125000  0.625000  1
  Eu  Eu2  1  0.625000  0.125000  0.125000  1
  Eu  Eu3  1  0.125000  0.125000  0.125000  1
  Ti  Ti4  1  0.625000  0.125000  0.625000  1
  Ti  Ti5  1  0.125000  0.625000  0.625000  1
  Ti  Ti6  1  0.625000  0.625000  0.625000  1
  As  As7  1  0.625000  0.625000  0.125000  1
  O  O8  1  0.693663  0.693663  0.296154  1
  O  O9  1  0.949713  0.556169  0.544405  1
  O  O10  1  0.556337  0.933481  0.953846  1
  O  O11  1  0.949713  0.949713  0.544405  1
  O  O12  1  0.933481  0.556337  0.953846  1
  O  O13  1  0.556169  0.949713  0.544405  1
  O  O14  1  0.316519  0.693663  0.296154  1
  O  O15  1  0.300287  0.693831  0.705595  1
  O  O16  1  0.693663  0.316519  0.296154  1
  O  O17  1  0.693831  0.300287  0.705595  1
  O  O18  1  0.556337  0.556337  0.953846  1
  O  O19  1  0.300287  0.300287  0.705595  1
  O  O20  1  0.250190  0.250190  0.249429  1
  O  O21  1  0.999810  0.999810  0.000571  1
