# generated using pymatgen
data_Tb18Tm2Si15Os
_symmetry_space_group_name_H-M   'P 1'
_cell_length_a   7.42711821
_cell_length_b   7.77692954
_cell_length_c   14.64643600
_cell_angle_alpha   90.00000000
_cell_angle_beta   90.00000000
_cell_angle_gamma   90.01769706
_symmetry_Int_Tables_number   1
_chemical_formula_structural   Tb18Tm2Si15Os
_chemical_formula_sum   'Tb18 Tm2 Si15 Os1'
_cell_volume   845.98066629
_cell_formula_units_Z   1
loop_
 _symmetry_equiv_pos_site_id
 _symmetry_equiv_pos_as_xyz
  1  'x, y, z'
loop_
 _atom_site_type_symbol
 _atom_site_label
 _atom_site_symmetry_multiplicity
 _atom_site_fract_x
 _atom_site_fract_y
 _atom_site_fract_z
 _atom_site_occupancy
  Tb  Tb0  1  0.673044  0.185779  0.626193  1
  Tb  Tb1  1  0.191797  0.325012  0.872962  1
  Tb  Tb2  1  0.318619  0.818972  0.122839  1
  Tb  Tb3  1  0.817239  0.678375  0.377367  1
  Tb  Tb4  1  0.318619  0.818972  0.377161  1
  Tb  Tb5  1  0.817239  0.678375  0.122633  1
  Tb  Tb6  1  0.673044  0.185779  0.873807  1
  Tb  Tb7  1  0.191797  0.325012  0.627038  1
  Tb  Tb8  1  0.523149  0.672897  0.598519  1
  Tb  Tb9  1  0.026833  0.816977  0.902329  1
  Tb  Tb10  1  0.472418  0.314578  0.096859  1
  Tb  Tb11  1  0.973199  0.183373  0.403388  1
  Tb  Tb12  1  0.472418  0.314578  0.403141  1
  Tb  Tb13  1  0.973199  0.183373  0.096612  1
  Tb  Tb14  1  0.523149  0.672897  0.901481  1
  Tb  Tb15  1  0.026833  0.816977  0.597671  1
  Tb  Tb16  1  0.149948  0.483835  0.250000  1
  Tb  Tb17  1  0.648516  0.014247  0.250000  1
  Tm  Tm18  1  0.841358  0.513614  0.750000  1
  Tm  Tm19  1  0.355068  0.987023  0.750000  1
  Si  Si20  1  0.644976  0.971326  0.461242  1
  Si  Si21  1  0.147915  0.528389  0.038924  1
  Si  Si22  1  0.350034  0.025042  0.959736  1
  Si  Si23  1  0.857453  0.472110  0.540565  1
  Si  Si24  1  0.350034  0.025042  0.540264  1
  Si  Si25  1  0.857453  0.472110  0.959435  1
  Si  Si26  1  0.644976  0.971326  0.038758  1
  Si  Si27  1  0.147915  0.528389  0.461076  1
  Si  Si28  1  0.981964  0.098382  0.750000  1
  Si  Si29  1  0.524088  0.602639  0.250000  1
  Si  Si30  1  0.020800  0.895627  0.250000  1
  Si  Si31  1  0.739812  0.874829  0.750000  1
  Si  Si32  1  0.230004  0.635731  0.750000  1
  Si  Si33  1  0.265337  0.126006  0.250000  1
  Si  Si34  1  0.767141  0.373528  0.250000  1
  Os  Os35  1  0.482613  0.408877  0.750000  1
