# generated using pymatgen
data_Nd5YCoBr10
_symmetry_space_group_name_H-M   'P 1'
_cell_length_a   7.54845922
_cell_length_b   9.35771437
_cell_length_c   9.54050482
_cell_angle_alpha   108.60811242
_cell_angle_beta   96.85015827
_cell_angle_gamma   105.39859871
_symmetry_Int_Tables_number   1
_chemical_formula_structural   Nd5YCoBr10
_chemical_formula_sum   'Nd5 Y1 Co1 Br10'
_cell_volume   600.20560264
_cell_formula_units_Z   1
loop_
 _symmetry_equiv_pos_site_id
 _symmetry_equiv_pos_as_xyz
  1  'x, y, z'
loop_
 _atom_site_type_symbol
 _atom_site_label
 _atom_site_symmetry_multiplicity
 _atom_site_fract_x
 _atom_site_fract_y
 _atom_site_fract_z
 _atom_site_occupancy
  Nd  Nd0  1  0.466903  0.786568  0.587783  1
  Nd  Nd1  1  0.528899  0.211862  0.409423  1
  Nd  Nd2  1  0.371040  0.451374  0.745394  1
  Nd  Nd3  1  0.622955  0.545263  0.252125  1
  Nd  Nd4  1  0.863333  0.637650  0.681193  1
  Y  Y5  1  0.143765  0.367003  0.323929  1
  Co  Co6  1  0.499416  0.499579  0.500142  1
  Br  Br7  1  0.413811  0.130473  0.671803  1
  Br  Br8  1  0.586108  0.868964  0.327206  1
  Br  Br9  1  0.047903  0.670579  0.413204  1
  Br  Br10  1  0.953896  0.319984  0.576177  1
  Br  Br11  1  0.292264  0.759511  0.849349  1
  Br  Br12  1  0.725320  0.245302  0.158173  1
  Br  Br13  1  0.239736  0.411573  0.050786  1
  Br  Br14  1  0.751701  0.584330  0.954051  1
  Br  Br15  1  0.851271  0.957421  0.771462  1
  Br  Br16  1  0.141679  0.052563  0.227799  1
