# generated using pymatgen
data_SmGd2Tl3CuPd2
_symmetry_space_group_name_H-M   'P 1'
_cell_length_a   7.92154301
_cell_length_b   7.92154333
_cell_length_c   3.76928200
_cell_angle_alpha   90.00000000
_cell_angle_beta   90.00000000
_cell_angle_gamma   119.99473088
_symmetry_Int_Tables_number   1
_chemical_formula_structural   SmGd2Tl3CuPd2
_chemical_formula_sum   'Sm1 Gd2 Tl3 Cu1 Pd2'
_cell_volume   204.84808355
_cell_formula_units_Z   1
loop_
 _symmetry_equiv_pos_site_id
 _symmetry_equiv_pos_as_xyz
  1  'x, y, z'
loop_
 _atom_site_type_symbol
 _atom_site_label
 _atom_site_symmetry_multiplicity
 _atom_site_fract_x
 _atom_site_fract_y
 _atom_site_fract_z
 _atom_site_occupancy
  Sm  Sm0  1  0.405277  0.405277  0.500000  1
  Gd  Gd1  1  0.594737  0.999993  0.500000  1
  Gd  Gd2  1  0.999993  0.594737  0.500000  1
  Tl  Tl3  1  0.259345  0.999907  0.000000  1
  Tl  Tl4  1  0.740721  0.740721  0.000000  1
  Tl  Tl5  1  0.999907  0.259345  0.000000  1
  Cu  Cu6  1  0.999961  0.999961  0.500000  1
  Pd  Pd7  1  0.666771  0.333289  0.000000  1
  Pd  Pd8  1  0.333289  0.666771  0.000000  1
