# generated using pymatgen
data_YbDyMnIr3
_symmetry_space_group_name_H-M   'P 1'
_cell_length_a   5.17250485
_cell_length_b   5.17250415
_cell_length_c   5.17250347
_cell_angle_alpha   63.79820888
_cell_angle_beta   63.79822014
_cell_angle_gamma   63.79822494
_symmetry_Int_Tables_number   1
_chemical_formula_structural   YbDyMnIr3
_chemical_formula_sum   'Yb1 Dy1 Mn1 Ir3'
_cell_volume   106.05530960
_cell_formula_units_Z   1
loop_
 _symmetry_equiv_pos_site_id
 _symmetry_equiv_pos_as_xyz
  1  'x, y, z'
loop_
 _atom_site_type_symbol
 _atom_site_label
 _atom_site_symmetry_multiplicity
 _atom_site_fract_x
 _atom_site_fract_y
 _atom_site_fract_z
 _atom_site_occupancy
  Yb  Yb0  1  0.999997  0.999997  0.999997  1
  Dy  Dy1  1  0.249146  0.249146  0.249146  1
  Mn  Mn2  1  0.624579  0.624579  0.624579  1
  Ir  Ir3  1  0.626370  0.626370  0.123539  1
  Ir  Ir4  1  0.626370  0.123539  0.626370  1
  Ir  Ir5  1  0.123539  0.626370  0.626370  1
