# generated using pymatgen
data_ThPd4Au3
_symmetry_space_group_name_H-M   'P 1'
_cell_length_a   5.79859550
_cell_length_b   5.79859507
_cell_length_c   4.34475900
_cell_angle_alpha   90.00000000
_cell_angle_beta   90.00000000
_cell_angle_gamma   94.20434226
_symmetry_Int_Tables_number   1
_chemical_formula_structural   ThPd4Au3
_chemical_formula_sum   'Th1 Pd4 Au3'
_cell_volume   145.69377367
_cell_formula_units_Z   1
loop_
 _symmetry_equiv_pos_site_id
 _symmetry_equiv_pos_as_xyz
  1  'x, y, z'
loop_
 _atom_site_type_symbol
 _atom_site_label
 _atom_site_symmetry_multiplicity
 _atom_site_fract_x
 _atom_site_fract_y
 _atom_site_fract_z
 _atom_site_occupancy
  Th  Th0  1  0.500000  0.500000  0.500000  1
  Pd  Pd1  1  0.250640  0.250640  0.000000  1
  Pd  Pd2  1  0.749361  0.749361  0.000000  1
  Pd  Pd3  1  0.500000  0.000000  0.500000  1
  Pd  Pd4  1  0.000000  0.500000  0.500000  1
  Au  Au5  1  0.757177  0.242823  0.000000  1
  Au  Au6  1  0.242823  0.757177  0.000000  1
  Au  Au7  1  0.000000  0.000000  0.500000  1
