# generated using pymatgen
data_Rb2NaP7
_symmetry_space_group_name_H-M   'P 1'
_cell_length_a   10.54951900
_cell_length_b   9.77224208
_cell_length_c   11.29135701
_cell_angle_alpha   90.27906488
_cell_angle_beta   90.00000000
_cell_angle_gamma   90.00000000
_symmetry_Int_Tables_number   1
_chemical_formula_structural   Rb2NaP7
_chemical_formula_sum   'Rb8 Na4 P28'
_cell_volume   1164.03988996
_cell_formula_units_Z   4
loop_
 _symmetry_equiv_pos_site_id
 _symmetry_equiv_pos_as_xyz
  1  'x, y, z'
loop_
 _atom_site_type_symbol
 _atom_site_label
 _atom_site_symmetry_multiplicity
 _atom_site_fract_x
 _atom_site_fract_y
 _atom_site_fract_z
 _atom_site_occupancy
  Rb  Rb0  1  0.299803  0.460696  0.988286  1
  Rb  Rb1  1  0.799803  0.039304  0.011714  1
  Rb  Rb2  1  0.700197  0.539304  0.011714  1
  Rb  Rb3  1  0.200197  0.960696  0.988286  1
  Rb  Rb4  1  0.997429  0.350937  0.735068  1
  Rb  Rb5  1  0.497429  0.149063  0.264932  1
  Rb  Rb6  1  0.002571  0.649063  0.264932  1
  Rb  Rb7  1  0.502571  0.850937  0.735068  1
  Na  Na8  1  0.198916  0.050893  0.467693  1
  Na  Na9  1  0.698916  0.449107  0.532307  1
  Na  Na10  1  0.801084  0.949107  0.532307  1
  Na  Na11  1  0.301084  0.550893  0.467693  1
  P  P12  1  0.499753  0.180213  0.898318  1
  P  P13  1  0.999753  0.319787  0.101682  1
  P  P14  1  0.500247  0.819787  0.101682  1
  P  P15  1  0.000247  0.680213  0.898318  1
  P  P16  1  0.641827  0.284865  0.788408  1
  P  P17  1  0.141827  0.215135  0.211592  1
  P  P18  1  0.358173  0.715135  0.211592  1
  P  P19  1  0.858173  0.784865  0.788408  1
  P  P20  1  0.341087  0.189173  0.779876  1
  P  P21  1  0.841087  0.310827  0.220124  1
  P  P22  1  0.658913  0.810827  0.220124  1
  P  P23  1  0.158913  0.689173  0.779876  1
  P  P24  1  0.958673  0.976707  0.746885  1
  P  P25  1  0.458673  0.523293  0.253115  1
  P  P26  1  0.041327  0.023293  0.253115  1
  P  P27  1  0.541327  0.476707  0.746885  1
  P  P28  1  0.370066  0.390236  0.677095  1
  P  P29  1  0.870066  0.109764  0.322905  1
  P  P30  1  0.629934  0.609764  0.322905  1
  P  P31  1  0.129934  0.890236  0.677095  1
  P  P32  1  0.427660  0.188543  0.593383  1
  P  P33  1  0.927660  0.311457  0.406617  1
  P  P34  1  0.572340  0.811457  0.406617  1
  P  P35  1  0.072340  0.688543  0.593383  1
  P  P36  1  0.128633  0.328474  0.379535  1
  P  P37  1  0.628633  0.171526  0.620465  1
  P  P38  1  0.871367  0.671526  0.620465  1
  P  P39  1  0.371367  0.828474  0.379535  1
