# generated using pymatgen
data_ErTa6Cl18
_symmetry_space_group_name_H-M   'P 1'
_cell_length_a   10.13459334
_cell_length_b   10.13459342
_cell_length_c   10.13459412
_cell_angle_alpha   56.04154815
_cell_angle_beta   56.04154560
_cell_angle_gamma   56.04154933
_symmetry_Int_Tables_number   1
_chemical_formula_structural   ErTa6Cl18
_chemical_formula_sum   'Er1 Ta6 Cl18'
_cell_volume   668.55761898
_cell_formula_units_Z   1
loop_
 _symmetry_equiv_pos_site_id
 _symmetry_equiv_pos_as_xyz
  1  'x, y, z'
loop_
 _atom_site_type_symbol
 _atom_site_label
 _atom_site_symmetry_multiplicity
 _atom_site_fract_x
 _atom_site_fract_y
 _atom_site_fract_z
 _atom_site_occupancy
  Er  Er0  1  0.000000  0.000000  0.000000  1
  Ta  Ta1  1  0.408609  0.301773  0.648878  1
  Ta  Ta2  1  0.351122  0.591391  0.698227  1
  Ta  Ta3  1  0.698227  0.351122  0.591391  1
  Ta  Ta4  1  0.301773  0.648878  0.408609  1
  Ta  Ta5  1  0.648878  0.408609  0.301773  1
  Ta  Ta6  1  0.591391  0.698227  0.351122  1
  Cl  Cl7  1  0.568029  0.161055  0.442170  1
  Cl  Cl8  1  0.222621  0.371645  0.908366  1
  Cl  Cl9  1  0.908366  0.222621  0.371645  1
  Cl  Cl10  1  0.371645  0.908366  0.222621  1
  Cl  Cl11  1  0.777379  0.628355  0.091634  1
  Cl  Cl12  1  0.091634  0.777379  0.628355  1
  Cl  Cl13  1  0.706253  0.954522  0.160660  1
  Cl  Cl14  1  0.954522  0.160660  0.706253  1
  Cl  Cl15  1  0.160660  0.706253  0.954522  1
  Cl  Cl16  1  0.293747  0.045478  0.839340  1
  Cl  Cl17  1  0.045478  0.839340  0.293747  1
  Cl  Cl18  1  0.839340  0.293747  0.045478  1
  Cl  Cl19  1  0.557830  0.431971  0.838945  1
  Cl  Cl20  1  0.161055  0.442170  0.568029  1
  Cl  Cl21  1  0.442170  0.568029  0.161055  1
  Cl  Cl22  1  0.431971  0.838945  0.557830  1
  Cl  Cl23  1  0.838945  0.557830  0.431971  1
  Cl  Cl24  1  0.628355  0.091634  0.777379  1
