# generated using pymatgen
data_ThAg(SeO4)3
_symmetry_space_group_name_H-M   'P 1'
_cell_length_a   9.50011206
_cell_length_b   9.50754863
_cell_length_c   6.29902200
_cell_angle_alpha   90.00000000
_cell_angle_beta   90.00000000
_cell_angle_gamma   119.98664640
_symmetry_Int_Tables_number   1
_chemical_formula_structural   ThAg(SeO4)3
_chemical_formula_sum   'Th2 Ag2 Se6 O24'
_cell_volume   492.78725045
_cell_formula_units_Z   2
loop_
 _symmetry_equiv_pos_site_id
 _symmetry_equiv_pos_as_xyz
  1  'x, y, z'
loop_
 _atom_site_type_symbol
 _atom_site_label
 _atom_site_symmetry_multiplicity
 _atom_site_fract_x
 _atom_site_fract_y
 _atom_site_fract_z
 _atom_site_occupancy
  Th  Th0  1  0.333161  0.666811  0.250000  1
  Th  Th1  1  0.666839  0.333189  0.749999  1
  Ag  Ag2  1  0.000000  0.000000  0.000000  1
  Ag  Ag3  1  0.000000  0.000000  0.500001  1
  Se  Se4  1  0.707816  0.098871  0.250000  1
  Se  Se5  1  0.390763  0.291862  0.250000  1
  Se  Se6  1  0.900862  0.608640  0.250000  1
  Se  Se7  1  0.099138  0.391361  0.749999  1
  Se  Se8  1  0.609236  0.708138  0.749999  1
  Se  Se9  1  0.292184  0.901129  0.749999  1
  O  O10  1  0.786109  0.541738  0.033085  1
  O  O11  1  0.755665  0.213476  0.033077  1
  O  O12  1  0.457166  0.243738  0.032885  1
  O  O13  1  0.829755  0.014282  0.250000  1
  O  O14  1  0.183801  0.169578  0.250000  1
  O  O15  1  0.446175  0.487857  0.250000  1
  O  O16  1  0.041358  0.552761  0.250000  1
  O  O17  1  0.985681  0.815141  0.250000  1
  O  O18  1  0.511753  0.958213  0.250000  1
  O  O19  1  0.457166  0.243738  0.467114  1
  O  O20  1  0.755665  0.213476  0.466922  1
  O  O21  1  0.786109  0.541738  0.466915  1
  O  O22  1  0.213892  0.458261  0.533086  1
  O  O23  1  0.244335  0.786524  0.533078  1
  O  O24  1  0.542833  0.756261  0.532886  1
  O  O25  1  0.488247  0.041787  0.749999  1
  O  O26  1  0.014320  0.184858  0.749999  1
  O  O27  1  0.958642  0.447240  0.749999  1
  O  O28  1  0.553825  0.512143  0.749999  1
  O  O29  1  0.816199  0.830422  0.749999  1
  O  O30  1  0.170244  0.985717  0.749999  1
  O  O31  1  0.542833  0.756261  0.967115  1
  O  O32  1  0.244335  0.786524  0.966922  1
  O  O33  1  0.213892  0.458261  0.966915  1
