# generated using pymatgen
data_Fe3B(OF)3
_symmetry_space_group_name_H-M   'P 1'
_cell_length_a   9.02307600
_cell_length_b   9.02307467
_cell_length_c   3.35394400
_cell_angle_alpha   90.00000000
_cell_angle_beta   90.00000000
_cell_angle_gamma   120.00000493
_symmetry_Int_Tables_number   1
_chemical_formula_structural   Fe3B(OF)3
_chemical_formula_sum   'Fe6 B2 O6 F6'
_cell_volume   236.48063566
_cell_formula_units_Z   2
loop_
 _symmetry_equiv_pos_site_id
 _symmetry_equiv_pos_as_xyz
  1  'x, y, z'
loop_
 _atom_site_type_symbol
 _atom_site_label
 _atom_site_symmetry_multiplicity
 _atom_site_fract_x
 _atom_site_fract_y
 _atom_site_fract_z
 _atom_site_occupancy
  Fe  Fe0  1  0.369722  0.031326  0.250000  1
  Fe  Fe1  1  0.031326  0.661604  0.750000  1
  Fe  Fe2  1  0.630278  0.968674  0.750000  1
  Fe  Fe3  1  0.661604  0.630278  0.250000  1
  Fe  Fe4  1  0.968674  0.338396  0.250000  1
  Fe  Fe5  1  0.338396  0.369722  0.750000  1
  B  B6  1  0.333333  0.666667  0.250000  1
  B  B7  1  0.666667  0.333333  0.750000  1
  O  O8  1  0.444753  0.843596  0.250000  1
  O  O9  1  0.843596  0.398843  0.750000  1
  O  O10  1  0.398843  0.555247  0.250000  1
  O  O11  1  0.601157  0.444753  0.750000  1
  O  O12  1  0.555247  0.156404  0.750000  1
  O  O13  1  0.156404  0.601157  0.250000  1
  F  F14  1  0.704240  0.792532  0.750000  1
  F  F15  1  0.207468  0.911708  0.750000  1
  F  F16  1  0.295760  0.207468  0.250000  1
  F  F17  1  0.911708  0.704240  0.250000  1
  F  F18  1  0.792532  0.088292  0.250000  1
  F  F19  1  0.088292  0.295760  0.750000  1
