# generated using pymatgen
data_NdHo(Tc2P)4
_symmetry_space_group_name_H-M   'P 1'
_cell_length_a   7.45034020
_cell_length_b   7.45034020
_cell_length_c   3.95266500
_cell_angle_alpha   90.00000000
_cell_angle_beta   90.00000000
_cell_angle_gamma   89.43612533
_symmetry_Int_Tables_number   1
_chemical_formula_structural   NdHo(Tc2P)4
_chemical_formula_sum   'Nd1 Ho1 Tc8 P4'
_cell_volume   219.39220059
_cell_formula_units_Z   1
loop_
 _symmetry_equiv_pos_site_id
 _symmetry_equiv_pos_as_xyz
  1  'x, y, z'
loop_
 _atom_site_type_symbol
 _atom_site_label
 _atom_site_symmetry_multiplicity
 _atom_site_fract_x
 _atom_site_fract_y
 _atom_site_fract_z
 _atom_site_occupancy
  Nd  Nd0  1  0.500000  0.500000  0.000000  1
  Ho  Ho1  1  0.000000  0.000000  0.500000  1
  Tc  Tc2  1  0.583665  0.157730  0.500000  1
  Tc  Tc3  1  0.416335  0.842270  0.500000  1
  Tc  Tc4  1  0.080707  0.338027  0.000000  1
  Tc  Tc5  1  0.919293  0.661973  0.000000  1
  Tc  Tc6  1  0.157730  0.583665  0.500000  1
  Tc  Tc7  1  0.842270  0.416335  0.500000  1
  Tc  Tc8  1  0.338027  0.080707  0.000000  1
  Tc  Tc9  1  0.661973  0.919293  0.000000  1
  P  P10  1  0.715557  0.715557  0.500000  1
  P  P11  1  0.284443  0.284443  0.500000  1
  P  P12  1  0.209897  0.790103  0.000000  1
  P  P13  1  0.790103  0.209897  0.000000  1
