# generated using pymatgen
data_Nb3TeBr6Cl
_symmetry_space_group_name_H-M   'P 1'
_cell_length_a   7.25922071
_cell_length_b   7.25357514
_cell_length_c   7.16559523
_cell_angle_alpha   89.99999781
_cell_angle_beta   90.79450568
_cell_angle_gamma   119.97427431
_symmetry_Int_Tables_number   1
_chemical_formula_structural   Nb3TeBr6Cl
_chemical_formula_sum   'Nb3 Te1 Br6 Cl1'
_cell_volume   326.79988499
_cell_formula_units_Z   1
loop_
 _symmetry_equiv_pos_site_id
 _symmetry_equiv_pos_as_xyz
  1  'x, y, z'
loop_
 _atom_site_type_symbol
 _atom_site_label
 _atom_site_symmetry_multiplicity
 _atom_site_fract_x
 _atom_site_fract_y
 _atom_site_fract_z
 _atom_site_occupancy
  Nb  Nb0  1  0.272618  0.136309  0.502342  1
  Nb  Nb1  1  0.862543  0.134997  0.500983  1
  Nb  Nb2  1  0.862543  0.727546  0.500983  1
  Te  Te3  1  0.995650  0.997825  0.205271  1
  Br  Br4  1  0.496086  0.998274  0.304590  1
  Br  Br5  1  0.168104  0.835193  0.741791  1
  Br  Br6  1  0.997145  0.498573  0.306906  1
  Br  Br7  1  0.668931  0.334465  0.703214  1
  Br  Br8  1  0.168104  0.332912  0.741791  1
  Br  Br9  1  0.496086  0.497812  0.304590  1
  Cl  Cl10  1  0.678856  0.839428  0.717139  1
