# generated using pymatgen
data_Y17Lu3Si15Ag
_symmetry_space_group_name_H-M   'P 1'
_cell_length_a   7.41677370
_cell_length_b   7.66539421
_cell_length_c   14.63297000
_cell_angle_alpha   89.80285695
_cell_angle_beta   89.41340274
_cell_angle_gamma   90.13782431
_symmetry_Int_Tables_number   1
_chemical_formula_structural   Y17Lu3Si15Ag
_chemical_formula_sum   'Y17 Lu3 Si15 Ag1'
_cell_volume   831.86983981
_cell_formula_units_Z   1
loop_
 _symmetry_equiv_pos_site_id
 _symmetry_equiv_pos_as_xyz
  1  'x, y, z'
loop_
 _atom_site_type_symbol
 _atom_site_label
 _atom_site_symmetry_multiplicity
 _atom_site_fract_x
 _atom_site_fract_y
 _atom_site_fract_z
 _atom_site_occupancy
  Y  Y0  1  0.350365  0.010830  0.749801  1
  Y  Y1  1  0.976146  0.822787  0.101744  1
  Y  Y2  1  0.471635  0.683176  0.400992  1
  Y  Y3  1  0.521300  0.316137  0.898827  1
  Y  Y4  1  0.029104  0.182239  0.598277  1
  Y  Y5  1  0.028246  0.177158  0.899803  1
  Y  Y6  1  0.529954  0.316986  0.598153  1
  Y  Y7  1  0.474546  0.682314  0.101090  1
  Y  Y8  1  0.969811  0.817184  0.399835  1
  Y  Y9  1  0.675736  0.824334  0.876264  1
  Y  Y10  1  0.180924  0.679652  0.621401  1
  Y  Y11  1  0.820574  0.325200  0.124664  1
  Y  Y12  1  0.317144  0.177669  0.376858  1
  Y  Y13  1  0.322946  0.178686  0.124115  1
  Y  Y14  1  0.819385  0.321242  0.377220  1
  Y  Y15  1  0.180681  0.674417  0.877873  1
  Y  Y16  1  0.682484  0.821186  0.621959  1
  Lu  Lu17  1  0.649191  0.991051  0.250068  1
  Lu  Lu18  1  0.150937  0.511152  0.248549  1
  Lu  Lu19  1  0.848295  0.488406  0.749101  1
  Si  Si20  1  0.768206  0.631301  0.251746  1
  Si  Si21  1  0.268742  0.870269  0.251299  1
  Si  Si22  1  0.735005  0.127873  0.748579  1
  Si  Si23  1  0.229169  0.373975  0.747398  1
  Si  Si24  1  0.019282  0.103869  0.250549  1
  Si  Si25  1  0.521219  0.396968  0.252128  1
  Si  Si26  1  0.477186  0.603069  0.748039  1
  Si  Si27  1  0.977074  0.892776  0.748505  1
  Si  Si28  1  0.354817  0.971848  0.540002  1
  Si  Si29  1  0.651188  0.028910  0.042085  1
  Si  Si30  1  0.146890  0.471079  0.459434  1
  Si  Si31  1  0.157760  0.472169  0.043826  1
  Si  Si32  1  0.645447  0.027943  0.458389  1
  Si  Si33  1  0.350690  0.969006  0.961763  1
  Si  Si34  1  0.854789  0.528831  0.539848  1
  Ag  Ag35  1  0.843130  0.528303  0.959812  1
