# generated using pymatgen
data_Lu12TcAsOs2
_symmetry_space_group_name_H-M   'P 1'
_cell_length_a   7.35896284
_cell_length_b   8.89198500
_cell_length_c   6.15802806
_cell_angle_alpha   90.00000000
_cell_angle_beta   90.57861853
_cell_angle_gamma   90.00000000
_symmetry_Int_Tables_number   1
_chemical_formula_structural   Lu12TcAsOs2
_chemical_formula_sum   'Lu12 Tc1 As1 Os2'
_cell_volume   402.93486591
_cell_formula_units_Z   1
loop_
 _symmetry_equiv_pos_site_id
 _symmetry_equiv_pos_as_xyz
  1  'x, y, z'
loop_
 _atom_site_type_symbol
 _atom_site_label
 _atom_site_symmetry_multiplicity
 _atom_site_fract_x
 _atom_site_fract_y
 _atom_site_fract_z
 _atom_site_occupancy
  Lu  Lu0  1  0.664221  0.056057  0.347497  1
  Lu  Lu1  1  0.190621  0.441486  0.159643  1
  Lu  Lu2  1  0.323570  0.563015  0.664372  1
  Lu  Lu3  1  0.822286  0.934456  0.829827  1
  Lu  Lu4  1  0.323570  0.936985  0.664372  1
  Lu  Lu5  1  0.822286  0.565544  0.829827  1
  Lu  Lu6  1  0.664221  0.443943  0.347497  1
  Lu  Lu7  1  0.190621  0.058514  0.159643  1
  Lu  Lu8  1  0.528958  0.250000  0.869973  1
  Lu  Lu9  1  0.041772  0.250000  0.620667  1
  Lu  Lu10  1  0.465794  0.750000  0.117270  1
  Lu  Lu11  1  0.962332  0.750000  0.370376  1
  Tc  Tc12  1  0.118428  0.750000  0.960882  1
  As  As13  1  0.882156  0.250000  0.068292  1
  Os  Os14  1  0.380247  0.250000  0.456821  1
  Os  Os15  1  0.618920  0.750000  0.533040  1
