# generated using pymatgen
data_Pu3RhAu3
_symmetry_space_group_name_H-M   'P 1'
_cell_length_a   8.08479927
_cell_length_b   8.08480072
_cell_length_c   8.08480195
_cell_angle_alpha   114.44883611
_cell_angle_beta   114.44884605
_cell_angle_gamma   114.44883418
_symmetry_Int_Tables_number   1
_chemical_formula_structural   Pu3RhAu3
_chemical_formula_sum   'Pu6 Rh2 Au6'
_cell_volume   310.08895773
_cell_formula_units_Z   2
loop_
 _symmetry_equiv_pos_site_id
 _symmetry_equiv_pos_as_xyz
  1  'x, y, z'
loop_
 _atom_site_type_symbol
 _atom_site_label
 _atom_site_symmetry_multiplicity
 _atom_site_fract_x
 _atom_site_fract_y
 _atom_site_fract_z
 _atom_site_occupancy
  Pu  Pu0  1  0.390851  0.040593  0.282418  1
  Pu  Pu1  1  0.040593  0.282418  0.390851  1
  Pu  Pu2  1  0.282418  0.390851  0.040593  1
  Pu  Pu3  1  0.609149  0.959407  0.717582  1
  Pu  Pu4  1  0.959407  0.717582  0.609149  1
  Pu  Pu5  1  0.717582  0.609149  0.959407  1
  Rh  Rh6  1  0.000000  0.000000  0.000000  1
  Rh  Rh7  1  0.500000  0.500000  0.500000  1
  Au  Au8  1  0.224201  0.057903  0.558440  1
  Au  Au9  1  0.057903  0.558440  0.224201  1
  Au  Au10  1  0.558440  0.224201  0.057903  1
  Au  Au11  1  0.775799  0.942097  0.441560  1
  Au  Au12  1  0.942097  0.441560  0.775799  1
  Au  Au13  1  0.441560  0.775799  0.942097  1
