# generated using pymatgen
data_Y8CdCo2Hg
_symmetry_space_group_name_H-M   'P 1'
_cell_length_a   9.54246095
_cell_length_b   9.54246086
_cell_length_c   9.54566900
_cell_angle_alpha   59.98887463
_cell_angle_beta   59.98887495
_cell_angle_gamma   59.99903461
_symmetry_Int_Tables_number   1
_chemical_formula_structural   Y8CdCo2Hg
_chemical_formula_sum   'Y16 Cd2 Co4 Hg2'
_cell_volume   614.51987571
_cell_formula_units_Z   2
loop_
 _symmetry_equiv_pos_site_id
 _symmetry_equiv_pos_as_xyz
  1  'x, y, z'
loop_
 _atom_site_type_symbol
 _atom_site_label
 _atom_site_symmetry_multiplicity
 _atom_site_fract_x
 _atom_site_fract_y
 _atom_site_fract_z
 _atom_site_occupancy
  Y  Y0  1  0.438435  0.438435  0.061565  1
  Y  Y1  1  0.596807  0.596807  0.595456  1
  Y  Y2  1  0.188278  0.811482  0.811904  1
  Y  Y3  1  0.060094  0.060094  0.439906  1
  Y  Y4  1  0.437547  0.060152  0.061888  1
  Y  Y5  1  0.811482  0.188278  0.811904  1
  Y  Y6  1  0.437547  0.060152  0.440414  1
  Y  Y7  1  0.598916  0.206723  0.597180  1
  Y  Y8  1  0.811281  0.811281  0.188719  1
  Y  Y9  1  0.206723  0.598916  0.597180  1
  Y  Y10  1  0.811482  0.188278  0.188336  1
  Y  Y11  1  0.060152  0.437547  0.440414  1
  Y  Y12  1  0.188278  0.811482  0.188336  1
  Y  Y13  1  0.596807  0.596807  0.210929  1
  Y  Y14  1  0.188326  0.188326  0.811674  1
  Y  Y15  1  0.060152  0.437547  0.061888  1
  Cd  Cd16  1  0.510317  0.829800  0.829941  1
  Cd  Cd17  1  0.829800  0.510317  0.829941  1
  Co  Co18  1  0.391164  0.391164  0.390730  1
  Co  Co19  1  0.827663  0.391229  0.390555  1
  Co  Co20  1  0.391229  0.827663  0.390555  1
  Co  Co21  1  0.391164  0.391164  0.826943  1
  Hg  Hg22  1  0.833179  0.833179  0.498558  1
  Hg  Hg23  1  0.833179  0.833179  0.835084  1
