# generated using pymatgen
data_Ho8Th4Tc3Ni
_symmetry_space_group_name_H-M   'P 1'
_cell_length_a   6.31722009
_cell_length_b   7.22424109
_cell_length_c   9.50076600
_cell_angle_alpha   90.00000000
_cell_angle_beta   90.00000000
_cell_angle_gamma   90.03758492
_symmetry_Int_Tables_number   1
_chemical_formula_structural   Ho8Th4Tc3Ni
_chemical_formula_sum   'Ho8 Th4 Tc3 Ni1'
_cell_volume   433.58751365
_cell_formula_units_Z   1
loop_
 _symmetry_equiv_pos_site_id
 _symmetry_equiv_pos_as_xyz
  1  'x, y, z'
loop_
 _atom_site_type_symbol
 _atom_site_label
 _atom_site_symmetry_multiplicity
 _atom_site_fract_x
 _atom_site_fract_y
 _atom_site_fract_z
 _atom_site_occupancy
  Ho  Ho0  1  0.325715  0.674486  0.067302  1
  Ho  Ho1  1  0.165631  0.176554  0.434556  1
  Ho  Ho2  1  0.664554  0.328112  0.566588  1
  Ho  Ho3  1  0.836526  0.823023  0.933314  1
  Ho  Ho4  1  0.664554  0.328112  0.933412  1
  Ho  Ho5  1  0.836526  0.823023  0.566686  1
  Ho  Ho6  1  0.325715  0.674486  0.432698  1
  Ho  Ho7  1  0.165631  0.176554  0.065444  1
  Th  Th8  1  0.852423  0.547519  0.250000  1
  Th  Th9  1  0.638392  0.046937  0.250000  1
  Th  Th10  1  0.152162  0.451187  0.750000  1
  Th  Th11  1  0.356249  0.953340  0.750000  1
  Tc  Tc12  1  0.016570  0.871176  0.250000  1
  Tc  Tc13  1  0.476978  0.372087  0.250000  1
  Tc  Tc14  1  0.975592  0.127600  0.750000  1
  Ni  Ni15  1  0.546779  0.625802  0.750000  1
