# generated using pymatgen
data_Dy4Er12Cd4TcPt3
_symmetry_space_group_name_H-M   'P 1'
_cell_length_a   9.64316886
_cell_length_b   9.64317044
_cell_length_c   9.64316985
_cell_angle_alpha   59.40962036
_cell_angle_beta   59.40961219
_cell_angle_gamma   59.40961714
_symmetry_Int_Tables_number   1
_chemical_formula_structural   Dy4Er12Cd4TcPt3
_chemical_formula_sum   'Dy4 Er12 Cd4 Tc1 Pt3'
_cell_volume   625.56215989
_cell_formula_units_Z   1
loop_
 _symmetry_equiv_pos_site_id
 _symmetry_equiv_pos_as_xyz
  1  'x, y, z'
loop_
 _atom_site_type_symbol
 _atom_site_label
 _atom_site_symmetry_multiplicity
 _atom_site_fract_x
 _atom_site_fract_y
 _atom_site_fract_z
 _atom_site_occupancy
  Dy  Dy0  1  0.351935  0.351935  0.351935  1
  Dy  Dy1  1  0.351441  0.351441  0.945763  1
  Dy  Dy2  1  0.351441  0.945763  0.351441  1
  Dy  Dy3  1  0.945763  0.351441  0.351441  1
  Er  Er4  1  0.815762  0.187785  0.187785  1
  Er  Er5  1  0.189054  0.810079  0.810079  1
  Er  Er6  1  0.187785  0.815762  0.187785  1
  Er  Er7  1  0.810079  0.189054  0.810079  1
  Er  Er8  1  0.187785  0.187785  0.815762  1
  Er  Er9  1  0.810079  0.810079  0.189054  1
  Er  Er10  1  0.935246  0.565721  0.565721  1
  Er  Er11  1  0.556706  0.937810  0.937810  1
  Er  Er12  1  0.565721  0.935246  0.565721  1
  Er  Er13  1  0.937810  0.556706  0.937810  1
  Er  Er14  1  0.565721  0.565721  0.935246  1
  Er  Er15  1  0.937810  0.937810  0.556706  1
  Cd  Cd16  1  0.580001  0.580001  0.580001  1
  Cd  Cd17  1  0.580943  0.580943  0.253693  1
  Cd  Cd18  1  0.580943  0.253693  0.580943  1
  Cd  Cd19  1  0.253693  0.580943  0.580943  1
  Tc  Tc20  1  0.143858  0.143858  0.143858  1
  Pt  Pt21  1  0.143317  0.143317  0.573791  1
  Pt  Pt22  1  0.143317  0.573791  0.143317  1
  Pt  Pt23  1  0.573791  0.143317  0.143317  1
