# generated using pymatgen
data_Ti3AlGa2Pt3
_symmetry_space_group_name_H-M   'P 1'
_cell_length_a   7.01872347
_cell_length_b   7.04554436
_cell_length_c   6.79902419
_cell_angle_alpha   90.00000375
_cell_angle_beta   89.82640193
_cell_angle_gamma   120.12648170
_symmetry_Int_Tables_number   1
_chemical_formula_structural   Ti3AlGa2Pt3
_chemical_formula_sum   'Ti6 Al2 Ga4 Pt6'
_cell_volume   290.79860106
_cell_formula_units_Z   2
loop_
 _symmetry_equiv_pos_site_id
 _symmetry_equiv_pos_as_xyz
  1  'x, y, z'
loop_
 _atom_site_type_symbol
 _atom_site_label
 _atom_site_symmetry_multiplicity
 _atom_site_fract_x
 _atom_site_fract_y
 _atom_site_fract_z
 _atom_site_occupancy
  Ti  Ti0  1  0.383609  0.410916  0.750050  1
  Ti  Ti1  1  0.028281  0.613966  0.748664  1
  Ti  Ti2  1  0.588263  0.971984  0.748852  1
  Ti  Ti3  1  0.616391  0.027308  0.249950  1
  Ti  Ti4  1  0.971719  0.585686  0.251336  1
  Ti  Ti5  1  0.411737  0.383721  0.251148  1
  Al  Al6  1  0.263449  0.997773  0.999739  1
  Al  Al7  1  0.736551  0.734324  0.000261  1
  Ga  Ga8  1  0.000000  0.271802  0.000000  1
  Ga  Ga9  1  0.720845  0.720193  0.500512  1
  Ga  Ga10  1  0.279155  0.999347  0.499488  1
  Ga  Ga11  1  0.000000  0.278183  0.500000  1
  Pt  Pt12  1  0.660670  0.334098  0.965038  1
  Pt  Pt13  1  0.999927  0.998417  0.742571  1
  Pt  Pt14  1  0.666780  0.333572  0.539228  1
  Pt  Pt15  1  0.333220  0.666793  0.460772  1
  Pt  Pt16  1  0.339330  0.673429  0.034962  1
  Pt  Pt17  1  0.000073  0.998490  0.257429  1
