# generated using pymatgen
data_Tb2LuGa5Co
_symmetry_space_group_name_H-M   'P 1'
_cell_length_a   6.88514932
_cell_length_b   6.88515057
_cell_length_c   4.21178600
_cell_angle_alpha   90.00000000
_cell_angle_beta   90.00000000
_cell_angle_gamma   119.55328454
_symmetry_Int_Tables_number   1
_chemical_formula_structural   Tb2LuGa5Co
_chemical_formula_sum   'Tb2 Lu1 Ga5 Co1'
_cell_volume   173.68452293
_cell_formula_units_Z   1
loop_
 _symmetry_equiv_pos_site_id
 _symmetry_equiv_pos_as_xyz
  1  'x, y, z'
loop_
 _atom_site_type_symbol
 _atom_site_label
 _atom_site_symmetry_multiplicity
 _atom_site_fract_x
 _atom_site_fract_y
 _atom_site_fract_z
 _atom_site_occupancy
  Tb  Tb0  1  0.598354  0.999075  0.000000  1
  Tb  Tb1  1  0.999075  0.598354  0.000000  1
  Lu  Lu2  1  0.395423  0.395423  0.000000  1
  Ga  Ga3  1  0.231396  0.000902  0.500000  1
  Ga  Ga4  1  0.000902  0.231396  0.500000  1
  Ga  Ga5  1  0.769706  0.769706  0.500000  1
  Ga  Ga6  1  0.335283  0.664036  0.500000  1
  Ga  Ga7  1  0.664036  0.335283  0.500000  1
  Co  Co8  1  0.005826  0.005826  0.000000  1
