# generated using pymatgen
data_Pr3Er2Pb3
_symmetry_space_group_name_H-M   'P 1'
_cell_length_a   9.29188900
_cell_length_b   9.29188802
_cell_length_c   6.77214800
_cell_angle_alpha   90.00000000
_cell_angle_beta   90.00000000
_cell_angle_gamma   119.99947679
_symmetry_Int_Tables_number   1
_chemical_formula_structural   Pr3Er2Pb3
_chemical_formula_sum   'Pr6 Er4 Pb6'
_cell_volume   506.36927084
_cell_formula_units_Z   2
loop_
 _symmetry_equiv_pos_site_id
 _symmetry_equiv_pos_as_xyz
  1  'x, y, z'
loop_
 _atom_site_type_symbol
 _atom_site_label
 _atom_site_symmetry_multiplicity
 _atom_site_fract_x
 _atom_site_fract_y
 _atom_site_fract_z
 _atom_site_occupancy
  Pr  Pr0  1  0.240832  0.999986  0.249990  1
  Pr  Pr1  1  0.999986  0.240831  0.249990  1
  Pr  Pr2  1  0.759170  0.759170  0.249998  1
  Pr  Pr3  1  0.759168  0.000014  0.749991  1
  Pr  Pr4  1  0.000014  0.759169  0.749991  1
  Pr  Pr5  1  0.240830  0.240830  0.749998  1
  Er  Er6  1  0.666524  0.333260  0.000014  1
  Er  Er7  1  0.333260  0.666525  0.000014  1
  Er  Er8  1  0.666740  0.333475  0.500014  1
  Er  Er9  1  0.333475  0.666740  0.500014  1
  Pb  Pb10  1  0.397873  0.397873  0.249993  1
  Pb  Pb11  1  0.602073  0.000002  0.250000  1
  Pb  Pb12  1  0.000002  0.602073  0.250000  1
  Pb  Pb13  1  0.602127  0.602127  0.749993  1
  Pb  Pb14  1  0.397928  0.999999  0.749999  1
  Pb  Pb15  1  0.999999  0.397927  0.749999  1
