# generated using pymatgen
data_CeTm3(ScIr)4
_symmetry_space_group_name_H-M   'P 1'
_cell_length_a   7.12267719
_cell_length_b   4.25030900
_cell_length_c   8.65527251
_cell_angle_alpha   90.00000000
_cell_angle_beta   91.26472149
_cell_angle_gamma   90.00000000
_symmetry_Int_Tables_number   1
_chemical_formula_structural   CeTm3(ScIr)4
_chemical_formula_sum   'Ce1 Tm3 Sc4 Ir4'
_cell_volume   261.96224342
_cell_formula_units_Z   1
loop_
 _symmetry_equiv_pos_site_id
 _symmetry_equiv_pos_as_xyz
  1  'x, y, z'
loop_
 _atom_site_type_symbol
 _atom_site_label
 _atom_site_symmetry_multiplicity
 _atom_site_fract_x
 _atom_site_fract_y
 _atom_site_fract_z
 _atom_site_occupancy
  Ce  Ce0  1  0.518592  0.750000  0.680187  1
  Tm  Tm1  1  0.978118  0.250000  0.170873  1
  Tm  Tm2  1  0.479854  0.250000  0.323206  1
  Tm  Tm3  1  0.017557  0.750000  0.829521  1
  Sc  Sc4  1  0.868462  0.250000  0.563423  1
  Sc  Sc5  1  0.353025  0.250000  0.940238  1
  Sc  Sc6  1  0.141130  0.750000  0.430518  1
  Sc  Sc7  1  0.643245  0.750000  0.069655  1
  Ir  Ir8  1  0.737708  0.250000  0.887360  1
  Ir  Ir9  1  0.250912  0.250000  0.603035  1
  Ir  Ir10  1  0.254910  0.750000  0.108714  1
  Ir  Ir11  1  0.756487  0.750000  0.393270  1
