# generated using pymatgen
data_La4Nd12Cd4Pd3Ru
_symmetry_space_group_name_H-M   'P 1'
_cell_length_a   10.09779025
_cell_length_b   10.09779014
_cell_length_c   10.09779119
_cell_angle_alpha   59.54043767
_cell_angle_beta   59.54043418
_cell_angle_gamma   59.54044094
_symmetry_Int_Tables_number   1
_chemical_formula_structural   La4Nd12Cd4Pd3Ru
_chemical_formula_sum   'La4 Nd12 Cd4 Pd3 Ru1'
_cell_volume   720.44727932
_cell_formula_units_Z   1
loop_
 _symmetry_equiv_pos_site_id
 _symmetry_equiv_pos_as_xyz
  1  'x, y, z'
loop_
 _atom_site_type_symbol
 _atom_site_label
 _atom_site_symmetry_multiplicity
 _atom_site_fract_x
 _atom_site_fract_y
 _atom_site_fract_z
 _atom_site_occupancy
  La  La0  1  0.352409  0.352409  0.352409  1
  La  La1  1  0.347168  0.347168  0.949506  1
  La  La2  1  0.347168  0.949506  0.347168  1
  La  La3  1  0.949506  0.347168  0.347168  1
  Nd  Nd4  1  0.817958  0.188293  0.188293  1
  Nd  Nd5  1  0.189159  0.809270  0.809270  1
  Nd  Nd6  1  0.188293  0.817958  0.188293  1
  Nd  Nd7  1  0.809270  0.189159  0.809270  1
  Nd  Nd8  1  0.188293  0.188293  0.817958  1
  Nd  Nd9  1  0.809270  0.809270  0.189159  1
  Nd  Nd10  1  0.935112  0.565555  0.565555  1
  Nd  Nd11  1  0.560226  0.936031  0.936031  1
  Nd  Nd12  1  0.565555  0.935112  0.565555  1
  Nd  Nd13  1  0.936031  0.560226  0.936031  1
  Nd  Nd14  1  0.565555  0.565555  0.935112  1
  Nd  Nd15  1  0.936031  0.936031  0.560226  1
  Cd  Cd16  1  0.580164  0.580164  0.580164  1
  Cd  Cd17  1  0.580519  0.580519  0.257108  1
  Cd  Cd18  1  0.580519  0.257108  0.580519  1
  Cd  Cd19  1  0.257108  0.580519  0.580519  1
  Pd  Pd20  1  0.144709  0.144709  0.571168  1
  Pd  Pd21  1  0.144709  0.571168  0.144709  1
  Pd  Pd22  1  0.571168  0.144709  0.144709  1
  Ru  Ru23  1  0.144101  0.144101  0.144101  1
