# generated using pymatgen
data_Tb2YbGa8Ag3
_symmetry_space_group_name_H-M   'P 1'
_cell_length_a   4.36811225
_cell_length_b   8.33815546
_cell_length_c   8.33815527
_cell_angle_alpha   70.75860887
_cell_angle_beta   74.81507619
_cell_angle_gamma   74.81506908
_symmetry_Int_Tables_number   1
_chemical_formula_structural   Tb2YbGa8Ag3
_chemical_formula_sum   'Tb2 Yb1 Ga8 Ag3'
_cell_volume   271.52843934
_cell_formula_units_Z   1
loop_
 _symmetry_equiv_pos_site_id
 _symmetry_equiv_pos_as_xyz
  1  'x, y, z'
loop_
 _atom_site_type_symbol
 _atom_site_label
 _atom_site_symmetry_multiplicity
 _atom_site_fract_x
 _atom_site_fract_y
 _atom_site_fract_z
 _atom_site_occupancy
  Tb  Tb0  1  0.499975  0.500025  0.500025  1
  Tb  Tb1  1  0.799294  0.200706  0.200706  1
  Yb  Yb2  1  0.198073  0.801927  0.801927  1
  Ga  Ga3  1  0.358529  0.359422  0.923519  1
  Ga  Ga4  1  0.644152  0.637707  0.073990  1
  Ga  Ga5  1  0.358529  0.923519  0.359422  1
  Ga  Ga6  1  0.644152  0.073990  0.637707  1
  Ga  Ga7  1  0.158426  0.470873  0.212275  1
  Ga  Ga8  1  0.838823  0.529817  0.792536  1
  Ga  Ga9  1  0.158426  0.212275  0.470873  1
  Ga  Ga10  1  0.838823  0.792536  0.529817  1
  Ag  Ag11  1  0.500798  0.999202  0.999202  1
  Ag  Ag12  1  0.000999  0.803741  0.194260  1
  Ag  Ag13  1  0.000999  0.194260  0.803741  1
