# generated using pymatgen
data_Sr6RuRhO12
_symmetry_space_group_name_H-M   'P 1'
_cell_length_a   5.87651721
_cell_length_b   6.10454552
_cell_length_c   8.42400602
_cell_angle_alpha   89.82378519
_cell_angle_beta   90.89991226
_cell_angle_gamma   90.03651539
_symmetry_Int_Tables_number   1
_chemical_formula_structural   Sr6RuRhO12
_chemical_formula_sum   'Sr6 Ru1 Rh1 O12'
_cell_volume   302.15954445
_cell_formula_units_Z   1
loop_
 _symmetry_equiv_pos_site_id
 _symmetry_equiv_pos_as_xyz
  1  'x, y, z'
loop_
 _atom_site_type_symbol
 _atom_site_label
 _atom_site_symmetry_multiplicity
 _atom_site_fract_x
 _atom_site_fract_y
 _atom_site_fract_z
 _atom_site_occupancy
  Sr  Sr0  1  0.483182  0.554853  0.246274  1
  Sr  Sr1  1  0.983673  0.942645  0.752837  1
  Sr  Sr2  1  0.516818  0.445147  0.753726  1
  Sr  Sr3  1  0.016327  0.057355  0.247163  1
  Sr  Sr4  1  0.000000  0.500000  0.500000  1
  Sr  Sr5  1  0.500000  0.000000  0.000000  1
  Ru  Ru6  1  0.500000  0.000000  0.500000  1
  Rh  Rh7  1  0.000000  0.500000  0.000000  1
  O  O8  1  0.232872  0.824419  0.450386  1
  O  O9  1  0.729664  0.679233  0.949495  1
  O  O10  1  0.767128  0.175581  0.549614  1
  O  O11  1  0.270336  0.320767  0.050505  1
  O  O12  1  0.667520  0.734232  0.560290  1
  O  O13  1  0.170783  0.769285  0.060476  1
  O  O14  1  0.332480  0.265768  0.439710  1
  O  O15  1  0.829217  0.230715  0.939524  1
  O  O16  1  0.599751  0.962526  0.282674  1
  O  O17  1  0.103353  0.539683  0.778864  1
  O  O18  1  0.400249  0.037474  0.717326  1
  O  O19  1  0.896647  0.460317  0.221136  1
