# generated using pymatgen
data_La8Al8IrPd2Pt4Rh
_symmetry_space_group_name_H-M   'P 1'
_cell_length_a   4.32452500
_cell_length_b   7.26204564
_cell_length_c   16.49657200
_cell_angle_alpha   89.88106971
_cell_angle_beta   90.00000000
_cell_angle_gamma   90.00000000
_symmetry_Int_Tables_number   1
_chemical_formula_structural   La8Al8IrPd2Pt4Rh
_chemical_formula_sum   'La8 Al8 Ir1 Pd2 Pt4 Rh1'
_cell_volume   518.07204396
_cell_formula_units_Z   1
loop_
 _symmetry_equiv_pos_site_id
 _symmetry_equiv_pos_as_xyz
  1  'x, y, z'
loop_
 _atom_site_type_symbol
 _atom_site_label
 _atom_site_symmetry_multiplicity
 _atom_site_fract_x
 _atom_site_fract_y
 _atom_site_fract_z
 _atom_site_occupancy
  La  La0  1  0.250000  0.517952  0.779465  1
  La  La1  1  0.750000  0.485833  0.223077  1
  La  La2  1  0.750000  0.980900  0.279999  1
  La  La3  1  0.250000  0.013468  0.723381  1
  La  La4  1  0.250000  0.654376  0.556509  1
  La  La5  1  0.750000  0.353595  0.441001  1
  La  La6  1  0.750000  0.844382  0.056668  1
  La  La7  1  0.250000  0.144552  0.941130  1
  Al  Al8  1  0.250000  0.659578  0.352135  1
  Al  Al9  1  0.750000  0.340051  0.650080  1
  Al  Al10  1  0.750000  0.840381  0.853026  1
  Al  Al11  1  0.250000  0.160061  0.150063  1
  Al  Al12  1  0.250000  0.509243  0.060371  1
  Al  Al13  1  0.750000  0.495716  0.937110  1
  Al  Al14  1  0.750000  0.991754  0.560659  1
  Al  Al15  1  0.250000  0.005097  0.437193  1
  Ir  Ir16  1  0.250000  0.711865  0.927540  1
  Pd  Pd17  1  0.750000  0.289008  0.071642  1
  Pd  Pd18  1  0.250000  0.211388  0.571629  1
  Pt  Pt19  1  0.250000  0.771959  0.180407  1
  Pt  Pt20  1  0.750000  0.228156  0.820402  1
  Pt  Pt21  1  0.750000  0.727524  0.679345  1
  Pt  Pt22  1  0.250000  0.271469  0.320343  1
  Rh  Rh23  1  0.750000  0.791688  0.426825  1
