# generated using pymatgen
data_Ho4Al17SiPdRh5
_symmetry_space_group_name_H-M   'P 1'
_cell_length_a   7.55030258
_cell_length_b   7.55069864
_cell_length_c   9.39840503
_cell_angle_alpha   90.02237328
_cell_angle_beta   90.02764021
_cell_angle_gamma   119.52775185
_symmetry_Int_Tables_number   1
_chemical_formula_structural   Ho4Al17SiPdRh5
_chemical_formula_sum   'Ho4 Al17 Si1 Pd1 Rh5'
_cell_volume   466.21171491
_cell_formula_units_Z   1
loop_
 _symmetry_equiv_pos_site_id
 _symmetry_equiv_pos_as_xyz
  1  'x, y, z'
loop_
 _atom_site_type_symbol
 _atom_site_label
 _atom_site_symmetry_multiplicity
 _atom_site_fract_x
 _atom_site_fract_y
 _atom_site_fract_z
 _atom_site_occupancy
  Ho  Ho0  1  0.992071  0.675892  0.249630  1
  Ho  Ho1  1  0.002707  0.329573  0.750171  1
  Ho  Ho2  1  0.677760  0.994681  0.249852  1
  Ho  Ho3  1  0.331092  0.004878  0.750358  1
  Al  Al4  1  0.876069  0.875248  0.750603  1
  Al  Al5  1  0.000640  0.337161  0.077473  1
  Al  Al6  1  0.000169  0.665452  0.925396  1
  Al  Al7  1  0.002665  0.669414  0.576286  1
  Al  Al8  1  0.333404  0.997056  0.421272  1
  Al  Al9  1  0.005065  0.337240  0.420982  1
  Al  Al10  1  0.665235  0.994878  0.576460  1
  Al  Al11  1  0.665529  0.999259  0.924890  1
  Al  Al12  1  0.337224  0.999462  0.076998  1
  Al  Al13  1  0.328716  0.331980  0.558956  1
  Al  Al14  1  0.662786  0.665900  0.446730  1
  Al  Al15  1  0.664094  0.664136  0.049559  1
  Al  Al16  1  0.330900  0.330921  0.944815  1
  Al  Al17  1  0.337811  0.552676  0.249308  1
  Al  Al18  1  0.661434  0.453829  0.753150  1
  Al  Al19  1  0.547756  0.336707  0.246795  1
  Al  Al20  1  0.450030  0.660736  0.750551  1
  Si  Si21  1  0.131305  0.130058  0.249633  1
  Pd  Pd22  1  0.670773  0.325570  0.499741  1
  Rh  Rh23  1  0.670512  0.325894  0.000214  1
  Rh  Rh24  1  0.326370  0.670038  0.000175  1
  Rh  Rh25  1  0.326152  0.669898  0.499712  1
  Rh  Rh26  1  0.000972  0.000591  0.006987  1
  Rh  Rh27  1  0.000760  0.000872  0.493304  1
