# generated using pymatgen
data_SrHg3(Rh2O7)2
_symmetry_space_group_name_H-M   'P 1'
_cell_length_a   7.28694843
_cell_length_b   7.35675363
_cell_length_c   7.28694700
_cell_angle_alpha   60.31337965
_cell_angle_beta   59.99999286
_cell_angle_gamma   60.31338717
_symmetry_Int_Tables_number   1
_chemical_formula_structural   SrHg3(Rh2O7)2
_chemical_formula_sum   'Sr1 Hg3 Rh4 O14'
_cell_volume   277.52588693
_cell_formula_units_Z   1
loop_
 _symmetry_equiv_pos_site_id
 _symmetry_equiv_pos_as_xyz
  1  'x, y, z'
loop_
 _atom_site_type_symbol
 _atom_site_label
 _atom_site_symmetry_multiplicity
 _atom_site_fract_x
 _atom_site_fract_y
 _atom_site_fract_z
 _atom_site_occupancy
  Sr  Sr0  1  0.125000  0.625000  0.125000  1
  Hg  Hg1  1  0.125000  0.125000  0.125000  1
  Hg  Hg2  1  0.625000  0.125000  0.125000  1
  Hg  Hg3  1  0.125000  0.125000  0.625000  1
  Rh  Rh4  1  0.625000  0.625000  0.125000  1
  Rh  Rh5  1  0.625000  0.625000  0.625000  1
  Rh  Rh6  1  0.625000  0.125000  0.625000  1
  Rh  Rh7  1  0.125000  0.625000  0.625000  1
  O  O8  1  0.696323  0.303806  0.303547  1
  O  O9  1  0.696323  0.303806  0.696323  1
  O  O10  1  0.985907  0.042279  0.985907  1
  O  O11  1  0.301779  0.699849  0.301779  1
  O  O12  1  0.696593  0.699849  0.301779  1
  O  O13  1  0.948221  0.550151  0.553407  1
  O  O14  1  0.301779  0.699849  0.696593  1
  O  O15  1  0.264093  0.207721  0.264093  1
  O  O16  1  0.948221  0.550151  0.948221  1
  O  O17  1  0.553677  0.946194  0.553677  1
  O  O18  1  0.553407  0.550151  0.948221  1
  O  O19  1  0.946453  0.946194  0.553677  1
  O  O20  1  0.553677  0.946194  0.946453  1
  O  O21  1  0.303547  0.303806  0.696323  1
