# generated using pymatgen
data_Er4LuCoRu
_symmetry_space_group_name_H-M   'P 1'
_cell_length_a   6.24714106
_cell_length_b   7.09250758
_cell_length_c   8.42735325
_cell_angle_alpha   96.62415364
_cell_angle_beta   112.34529609
_cell_angle_gamma   89.66796842
_symmetry_Int_Tables_number   1
_chemical_formula_structural   Er4LuCoRu
_chemical_formula_sum   'Er8 Lu2 Co2 Ru2'
_cell_volume   342.75953491
_cell_formula_units_Z   2
loop_
 _symmetry_equiv_pos_site_id
 _symmetry_equiv_pos_as_xyz
  1  'x, y, z'
loop_
 _atom_site_type_symbol
 _atom_site_label
 _atom_site_symmetry_multiplicity
 _atom_site_fract_x
 _atom_site_fract_y
 _atom_site_fract_z
 _atom_site_occupancy
  Er  Er0  1  0.526566  0.088432  0.816380  1
  Er  Er1  1  0.473434  0.911568  0.183620  1
  Er  Er2  1  0.700118  0.417950  0.188494  1
  Er  Er3  1  0.299882  0.582050  0.811506  1
  Er  Er4  1  0.287620  0.318829  0.430684  1
  Er  Er5  1  0.712380  0.681171  0.569316  1
  Er  Er6  1  0.855519  0.186782  0.566065  1
  Er  Er7  1  0.144481  0.813218  0.433935  1
  Lu  Lu8  1  0.076105  0.258728  0.000157  1
  Lu  Lu9  1  0.923895  0.741272  0.999843  1
  Co  Co10  1  0.324368  0.576436  0.225890  1
  Co  Co11  1  0.675632  0.423564  0.774110  1
  Ru  Ru12  1  0.105468  0.927044  0.786683  1
  Ru  Ru13  1  0.894532  0.072956  0.213317  1
