# generated using pymatgen
data_La2ErThBi5
_symmetry_space_group_name_H-M   'P 1'
_cell_length_a   9.87183174
_cell_length_b   9.85693652
_cell_length_c   6.68300000
_cell_angle_alpha   90.00000000
_cell_angle_beta   90.00000000
_cell_angle_gamma   119.95010247
_symmetry_Int_Tables_number   1
_chemical_formula_structural   La2ErThBi5
_chemical_formula_sum   'La4 Er2 Th2 Bi10'
_cell_volume   563.45591329
_cell_formula_units_Z   2
loop_
 _symmetry_equiv_pos_site_id
 _symmetry_equiv_pos_as_xyz
  1  'x, y, z'
loop_
 _atom_site_type_symbol
 _atom_site_label
 _atom_site_symmetry_multiplicity
 _atom_site_fract_x
 _atom_site_fract_y
 _atom_site_fract_z
 _atom_site_occupancy
  La  La0  1  0.000000  0.379490  0.750000  1
  La  La1  1  0.618369  0.000620  0.250000  1
  La  La2  1  0.381631  0.382250  0.250000  1
  La  La3  1  0.000000  0.615510  0.250000  1
  Er  Er4  1  0.000000  0.000462  0.002071  1
  Er  Er5  1  0.000000  0.000462  0.497929  1
  Th  Th6  1  0.381109  0.000428  0.750000  1
  Th  Th7  1  0.618891  0.619320  0.750000  1
  Bi  Bi8  1  0.271036  0.999303  0.250000  1
  Bi  Bi9  1  0.664016  0.333661  0.995969  1
  Bi  Bi10  1  0.728964  0.728267  0.250000  1
  Bi  Bi11  1  0.000000  0.731060  0.750000  1
  Bi  Bi12  1  0.000000  0.269545  0.250000  1
  Bi  Bi13  1  0.335984  0.669646  0.504031  1
  Bi  Bi14  1  0.664016  0.333661  0.504031  1
  Bi  Bi15  1  0.727490  0.997079  0.750000  1
  Bi  Bi16  1  0.272510  0.269589  0.750000  1
  Bi  Bi17  1  0.335984  0.669646  0.995969  1
