# generated using pymatgen
data_Ce2ZnNi9
_symmetry_space_group_name_H-M   'P 1'
_cell_length_a   4.89276200
_cell_length_b   4.89276134
_cell_length_c   16.09506600
_cell_angle_alpha   90.00000000
_cell_angle_beta   90.00000000
_cell_angle_gamma   119.99999095
_symmetry_Int_Tables_number   1
_chemical_formula_structural   Ce2ZnNi9
_chemical_formula_sum   'Ce4 Zn2 Ni18'
_cell_volume   333.68105965
_cell_formula_units_Z   2
loop_
 _symmetry_equiv_pos_site_id
 _symmetry_equiv_pos_as_xyz
  1  'x, y, z'
loop_
 _atom_site_type_symbol
 _atom_site_label
 _atom_site_symmetry_multiplicity
 _atom_site_fract_x
 _atom_site_fract_y
 _atom_site_fract_z
 _atom_site_occupancy
  Ce  Ce0  1  0.666667  0.333333  0.534260  1
  Ce  Ce1  1  0.333333  0.666667  0.034260  1
  Ce  Ce2  1  0.333333  0.666667  0.262056  1
  Ce  Ce3  1  0.666667  0.333333  0.762056  1
  Zn  Zn4  1  0.333333  0.666667  0.454411  1
  Zn  Zn5  1  0.666667  0.333333  0.954411  1
  Ni  Ni6  1  0.833040  0.166960  0.376530  1
  Ni  Ni7  1  0.166960  0.833040  0.876530  1
  Ni  Ni8  1  0.831807  0.663615  0.124202  1
  Ni  Ni9  1  0.168193  0.336385  0.624202  1
  Ni  Ni10  1  0.000000  0.000000  0.498661  1
  Ni  Ni11  1  0.666081  0.833040  0.876530  1
  Ni  Ni12  1  0.833040  0.666081  0.376530  1
  Ni  Ni13  1  0.166960  0.333919  0.876530  1
  Ni  Ni14  1  0.336385  0.168193  0.124202  1
  Ni  Ni15  1  0.666667  0.333333  0.249988  1
  Ni  Ni16  1  0.831807  0.168193  0.124202  1
  Ni  Ni17  1  0.000000  0.000000  0.748430  1
  Ni  Ni18  1  0.663615  0.831807  0.624202  1
  Ni  Ni19  1  0.333919  0.166960  0.376530  1
  Ni  Ni20  1  0.000000  0.000000  0.998661  1
  Ni  Ni21  1  0.168193  0.831807  0.624202  1
  Ni  Ni22  1  0.333333  0.666667  0.749988  1
  Ni  Ni23  1  0.000000  0.000000  0.248430  1
