# generated using pymatgen
data_Tb7Tm3(Cd2Ni)4
_symmetry_space_group_name_H-M   'P 1'
_cell_length_a   3.59346400
_cell_length_b   7.83941480
_cell_length_c   18.08776216
_cell_angle_alpha   89.81971158
_cell_angle_beta   90.00000000
_cell_angle_gamma   90.00000000
_symmetry_Int_Tables_number   1
_chemical_formula_structural   Tb7Tm3(Cd2Ni)4
_chemical_formula_sum   'Tb7 Tm3 Cd8 Ni4'
_cell_volume   509.54158260
_cell_formula_units_Z   1
loop_
 _symmetry_equiv_pos_site_id
 _symmetry_equiv_pos_as_xyz
  1  'x, y, z'
loop_
 _atom_site_type_symbol
 _atom_site_label
 _atom_site_symmetry_multiplicity
 _atom_site_fract_x
 _atom_site_fract_y
 _atom_site_fract_z
 _atom_site_occupancy
  Tb  Tb0  1  0.000000  0.500328  0.500404  1
  Tb  Tb1  1  0.000000  0.999560  0.999469  1
  Tb  Tb2  1  0.000000  0.747980  0.280671  1
  Tb  Tb3  1  0.000000  0.252644  0.719493  1
  Tb  Tb4  1  0.000000  0.751742  0.778986  1
  Tb  Tb5  1  0.000000  0.248087  0.221242  1
  Tb  Tb6  1  0.000000  0.615797  0.088394  1
  Tm  Tm7  1  0.000000  0.384614  0.910167  1
  Tm  Tm8  1  0.000000  0.884809  0.589103  1
  Tm  Tm9  1  0.000000  0.114824  0.411254  1
  Cd  Cd10  1  0.500000  0.706372  0.930924  1
  Cd  Cd11  1  0.500000  0.290537  0.067797  1
  Cd  Cd12  1  0.500000  0.794870  0.433513  1
  Cd  Cd13  1  0.500000  0.205431  0.566889  1
  Cd  Cd14  1  0.500000  0.570430  0.650829  1
  Cd  Cd15  1  0.500000  0.429511  0.350064  1
  Cd  Cd16  1  0.500000  0.932299  0.151890  1
  Cd  Cd17  1  0.500000  0.070937  0.848369  1
  Ni  Ni18  1  0.500000  0.529433  0.196800  1
  Ni  Ni19  1  0.500000  0.469547  0.804083  1
  Ni  Ni20  1  0.500000  0.969533  0.694710  1
  Ni  Ni21  1  0.500000  0.030716  0.304950  1
