# generated using pymatgen
data_Zr10Ga5PbS
_symmetry_space_group_name_H-M   'P 1'
_cell_length_a   8.31924726
_cell_length_b   8.28656267
_cell_length_c   5.81366225
_cell_angle_alpha   89.84568237
_cell_angle_beta   90.07685956
_cell_angle_gamma   119.87011384
_symmetry_Int_Tables_number   1
_chemical_formula_structural   Zr10Ga5PbS
_chemical_formula_sum   'Zr10 Ga5 Pb1 S1'
_cell_volume   347.53954818
_cell_formula_units_Z   1
loop_
 _symmetry_equiv_pos_site_id
 _symmetry_equiv_pos_as_xyz
  1  'x, y, z'
loop_
 _atom_site_type_symbol
 _atom_site_label
 _atom_site_symmetry_multiplicity
 _atom_site_fract_x
 _atom_site_fract_y
 _atom_site_fract_z
 _atom_site_occupancy
  Zr  Zr0  1  0.000000  0.759889  0.233420  1
  Zr  Zr1  1  0.259960  0.247805  0.242338  1
  Zr  Zr2  1  0.740040  0.987845  0.242338  1
  Zr  Zr3  1  0.000000  0.249667  0.757412  1
  Zr  Zr4  1  0.748548  0.747033  0.759245  1
  Zr  Zr5  1  0.251452  0.998485  0.759245  1
  Zr  Zr6  1  0.348070  0.675446  0.503848  1
  Zr  Zr7  1  0.651930  0.327376  0.503848  1
  Zr  Zr8  1  0.655622  0.330643  0.996134  1
  Zr  Zr9  1  0.344378  0.675022  0.996134  1
  Ga  Ga10  1  0.608866  0.604465  0.247765  1
  Ga  Ga11  1  0.391134  0.995598  0.247765  1
  Ga  Ga12  1  0.000000  0.607190  0.750658  1
  Ga  Ga13  1  0.387385  0.391907  0.753167  1
  Ga  Ga14  1  0.612615  0.004522  0.753167  1
  Pb  Pb15  1  0.000000  0.395241  0.252694  1
  S  S16  1  0.000000  0.001867  0.500821  1
