# generated using pymatgen
data_CeTh7CrS17
_symmetry_space_group_name_H-M   'P 1'
_cell_length_a   7.98935539
_cell_length_b   7.99222093
_cell_length_c   10.61011700
_cell_angle_alpha   80.32883114
_cell_angle_beta   80.33683058
_cell_angle_gamma   64.74369389
_symmetry_Int_Tables_number   1
_chemical_formula_structural   CeTh7CrS17
_chemical_formula_sum   'Ce1 Th7 Cr1 S17'
_cell_volume   600.48975803
_cell_formula_units_Z   1
loop_
 _symmetry_equiv_pos_site_id
 _symmetry_equiv_pos_as_xyz
  1  'x, y, z'
loop_
 _atom_site_type_symbol
 _atom_site_label
 _atom_site_symmetry_multiplicity
 _atom_site_fract_x
 _atom_site_fract_y
 _atom_site_fract_z
 _atom_site_occupancy
  Ce  Ce0  1  0.813213  0.303636  0.294767  1
  Th  Th1  1  0.697348  0.186782  0.703906  1
  Th  Th2  1  0.185492  0.697226  0.705038  1
  Th  Th3  1  0.302378  0.814127  0.293930  1
  Th  Th4  1  0.204902  0.204681  0.546313  1
  Th  Th5  1  0.794391  0.794963  0.451460  1
  Th  Th6  1  0.683698  0.679545  0.977265  1
  Th  Th7  1  0.316828  0.317865  0.025736  1
  Cr  Cr8  1  0.000451  0.001416  0.000633  1
  S  S9  1  0.822855  0.432121  0.535366  1
  S  S10  1  0.568635  0.175907  0.470640  1
  S  S11  1  0.178689  0.567918  0.468091  1
  S  S12  1  0.431558  0.819893  0.532612  1
  S  S13  1  0.946265  0.318414  0.024028  1
  S  S14  1  0.682210  0.055510  0.972904  1
  S  S15  1  0.055049  0.681741  0.973578  1
  S  S16  1  0.318433  0.945849  0.024651  1
  S  S17  1  0.215676  0.205520  0.280080  1
  S  S18  1  0.789740  0.789864  0.720620  1
  S  S19  1  0.057798  0.056721  0.777642  1
  S  S20  1  0.943839  0.941021  0.222868  1
  S  S21  1  0.301504  0.302118  0.758415  1
  S  S22  1  0.693285  0.704789  0.240511  1
  S  S23  1  0.519898  0.520895  0.831520  1
  S  S24  1  0.475411  0.483743  0.165064  1
  S  S25  1  0.000453  0.997734  0.502364  1
