# generated using pymatgen
data_La16Ho4Sn13Bi3
_symmetry_space_group_name_H-M   'P 1'
_cell_length_a   8.46918495
_cell_length_b   16.25742027
_cell_length_c   8.52002300
_cell_angle_alpha   90.07327343
_cell_angle_beta   89.90373784
_cell_angle_gamma   89.77546731
_symmetry_Int_Tables_number   1
_chemical_formula_structural   La16Ho4Sn13Bi3
_chemical_formula_sum   'La16 Ho4 Sn13 Bi3'
_cell_volume   1173.08561847
_cell_formula_units_Z   1
loop_
 _symmetry_equiv_pos_site_id
 _symmetry_equiv_pos_as_xyz
  1  'x, y, z'
loop_
 _atom_site_type_symbol
 _atom_site_label
 _atom_site_symmetry_multiplicity
 _atom_site_fract_x
 _atom_site_fract_y
 _atom_site_fract_z
 _atom_site_occupancy
  La  La0  1  0.610420  0.617421  0.162055  1
  La  La1  1  0.106968  0.881924  0.341009  1
  La  La2  1  0.391488  0.118726  0.842355  1
  La  La3  1  0.888354  0.382842  0.655711  1
  La  La4  1  0.382706  0.382959  0.840761  1
  La  La5  1  0.884625  0.116950  0.660608  1
  La  La6  1  0.614478  0.883288  0.160609  1
  La  La7  1  0.112822  0.617050  0.340841  1
  La  La8  1  0.455585  0.604312  0.673745  1
  La  La9  1  0.947292  0.893859  0.823483  1
  La  La10  1  0.552961  0.106247  0.324891  1
  La  La11  1  0.047371  0.396116  0.178599  1
  La  La12  1  0.541950  0.396662  0.326891  1
  La  La13  1  0.040976  0.105918  0.175202  1
  La  La14  1  0.459934  0.894122  0.675270  1
  La  La15  1  0.961792  0.604079  0.819057  1
  Ho  Ho16  1  0.777173  0.748488  0.497835  1
  Ho  Ho17  1  0.277515  0.744979  0.000596  1
  Ho  Ho18  1  0.223201  0.254692  0.501735  1
  Ho  Ho19  1  0.722907  0.247442  0.999546  1
  Sn  Sn20  1  0.773094  0.548493  0.476697  1
  Sn  Sn21  1  0.272510  0.548767  0.023146  1
  Sn  Sn22  1  0.771459  0.950509  0.478335  1
  Sn  Sn23  1  0.728190  0.049506  0.978836  1
  Sn  Sn24  1  0.226177  0.451506  0.524388  1
  Sn  Sn25  1  0.414227  0.751958  0.375064  1
  Sn  Sn26  1  0.914353  0.749434  0.123231  1
  Sn  Sn27  1  0.584753  0.250851  0.625693  1
  Sn  Sn28  1  0.084143  0.249644  0.875232  1
  Sn  Sn29  1  0.651763  0.748913  0.856643  1
  Sn  Sn30  1  0.152965  0.751187  0.643785  1
  Sn  Sn31  1  0.349287  0.249737  0.145886  1
  Sn  Sn32  1  0.849096  0.251027  0.355720  1
  Bi  Bi33  1  0.727636  0.450655  0.977131  1
  Bi  Bi34  1  0.230393  0.049662  0.520430  1
  Bi  Bi35  1  0.269436  0.950073  0.018990  1
