# generated using pymatgen
data_Tb2Fe9P7Ru3
_symmetry_space_group_name_H-M   'P 1'
_cell_length_a   9.01673800
_cell_length_b   9.01673959
_cell_length_c   3.72478900
_cell_angle_alpha   90.00000000
_cell_angle_beta   90.00000000
_cell_angle_gamma   119.99999418
_symmetry_Int_Tables_number   1
_chemical_formula_structural   Tb2Fe9P7Ru3
_chemical_formula_sum   'Tb2 Fe9 P7 Ru3'
_cell_volume   262.25954945
_cell_formula_units_Z   1
loop_
 _symmetry_equiv_pos_site_id
 _symmetry_equiv_pos_as_xyz
  1  'x, y, z'
loop_
 _atom_site_type_symbol
 _atom_site_label
 _atom_site_symmetry_multiplicity
 _atom_site_fract_x
 _atom_site_fract_y
 _atom_site_fract_z
 _atom_site_occupancy
  Tb  Tb0  1  0.666667  0.333333  0.000000  1
  Tb  Tb1  1  0.333333  0.666667  0.500000  1
  Fe  Fe2  1  0.056672  0.630927  0.000000  1
  Fe  Fe3  1  0.574255  0.943328  0.000000  1
  Fe  Fe4  1  0.369073  0.425745  0.000000  1
  Fe  Fe5  1  0.275837  0.120293  0.000000  1
  Fe  Fe6  1  0.844455  0.724163  0.000000  1
  Fe  Fe7  1  0.879707  0.155545  0.000000  1
  Fe  Fe8  1  0.436617  0.051537  0.500000  1
  Fe  Fe9  1  0.614920  0.563383  0.500000  1
  Fe  Fe10  1  0.948463  0.385080  0.500000  1
  P  P11  1  0.304924  0.890799  0.000000  1
  P  P12  1  0.585876  0.695076  0.000000  1
  P  P13  1  0.109201  0.414124  0.000000  1
  P  P14  1  0.406370  0.290520  0.500000  1
  P  P15  1  0.884150  0.593630  0.500000  1
  P  P16  1  0.709480  0.115850  0.500000  1
  P  P17  1  0.000000  0.000000  0.000000  1
  Ru  Ru18  1  0.097414  0.880778  0.500000  1
  Ru  Ru19  1  0.783362  0.902586  0.500000  1
  Ru  Ru20  1  0.119222  0.216638  0.500000  1
