# generated using pymatgen
data_LaB2IrRh
_symmetry_space_group_name_H-M   'P 1'
_cell_length_a   7.03513943
_cell_length_b   6.10672586
_cell_length_c   5.73714419
_cell_angle_alpha   72.80565952
_cell_angle_beta   56.02048478
_cell_angle_gamma   49.54860830
_symmetry_Int_Tables_number   1
_chemical_formula_structural   LaB2IrRh
_chemical_formula_sum   'La2 B4 Ir2 Rh2'
_cell_volume   154.65136359
_cell_formula_units_Z   2
loop_
 _symmetry_equiv_pos_site_id
 _symmetry_equiv_pos_as_xyz
  1  'x, y, z'
loop_
 _atom_site_type_symbol
 _atom_site_label
 _atom_site_symmetry_multiplicity
 _atom_site_fract_x
 _atom_site_fract_y
 _atom_site_fract_z
 _atom_site_occupancy
  La  La0  1  0.001768  0.001768  0.998232  1
  La  La1  1  0.248232  0.248232  0.251768  1
  B  B2  1  0.666964  0.324797  0.690206  1
  B  B3  1  0.324797  0.666964  0.318033  1
  B  B4  1  0.925203  0.583036  0.931967  1
  B  B5  1  0.583036  0.925203  0.559794  1
  Ir  Ir6  1  0.367250  0.367251  0.632749  1
  Ir  Ir7  1  0.882750  0.882749  0.617250  1
  Rh  Rh8  1  0.617790  0.617790  0.882210  1
  Rh  Rh9  1  0.632210  0.632210  0.367789  1
