# generated using pymatgen
data_Ho2Er2Ga2SiGe
_symmetry_space_group_name_H-M   'P 1'
_cell_length_a   3.96017800
_cell_length_b   4.28867400
_cell_length_c   10.67398200
_cell_angle_alpha   90.00000000
_cell_angle_beta   90.00000000
_cell_angle_gamma   90.00000000
_symmetry_Int_Tables_number   1
_chemical_formula_structural   Ho2Er2Ga2SiGe
_chemical_formula_sum   'Ho2 Er2 Ga2 Si1 Ge1'
_cell_volume   181.28597550
_cell_formula_units_Z   1
loop_
 _symmetry_equiv_pos_site_id
 _symmetry_equiv_pos_as_xyz
  1  'x, y, z'
loop_
 _atom_site_type_symbol
 _atom_site_label
 _atom_site_symmetry_multiplicity
 _atom_site_fract_x
 _atom_site_fract_y
 _atom_site_fract_z
 _atom_site_occupancy
  Ho  Ho0  1  0.500000  0.500000  0.360553  1
  Ho  Ho1  1  0.500000  0.000000  0.860406  1
  Er  Er2  1  0.000000  0.000000  0.141410  1
  Er  Er3  1  0.000000  0.500000  0.636868  1
  Ga  Ga4  1  0.500000  0.500000  0.080542  1
  Ga  Ga5  1  0.500000  0.000000  0.577973  1
  Si  Si6  1  0.000000  0.000000  0.423058  1
  Ge  Ge7  1  0.000000  0.500000  0.919189  1
