# generated using pymatgen
data_Y7Lu13(Ir2Ru)4
_symmetry_space_group_name_H-M   'P 1'
_cell_length_a   10.70061113
_cell_length_b   10.70232589
_cell_length_c   6.37713885
_cell_angle_alpha   89.93372068
_cell_angle_beta   89.91398774
_cell_angle_gamma   89.98448052
_symmetry_Int_Tables_number   1
_chemical_formula_structural   Y7Lu13(Ir2Ru)4
_chemical_formula_sum   'Y7 Lu13 Ir8 Ru4'
_cell_volume   730.31770675
_cell_formula_units_Z   1
loop_
 _symmetry_equiv_pos_site_id
 _symmetry_equiv_pos_as_xyz
  1  'x, y, z'
loop_
 _atom_site_type_symbol
 _atom_site_label
 _atom_site_symmetry_multiplicity
 _atom_site_fract_x
 _atom_site_fract_y
 _atom_site_fract_z
 _atom_site_occupancy
  Y  Y0  1  0.210297  0.587565  0.125267  1
  Y  Y1  1  0.790497  0.411927  0.124735  1
  Y  Y2  1  0.790206  0.588118  0.624874  1
  Y  Y3  1  0.912015  0.709562  0.124404  1
  Y  Y4  1  0.912843  0.290408  0.625280  1
  Y  Y5  1  0.089083  0.709044  0.624769  1
  Y  Y6  1  0.089320  0.290368  0.125007  1
  Lu  Lu7  1  0.295527  0.084494  0.378978  1
  Lu  Lu8  1  0.295238  0.915261  0.878363  1
  Lu  Lu9  1  0.704779  0.084662  0.878760  1
  Lu  Lu10  1  0.705076  0.915585  0.378432  1
  Lu  Lu11  1  0.584403  0.795201  0.878528  1
  Lu  Lu12  1  0.584458  0.204643  0.377993  1
  Lu  Lu13  1  0.415325  0.795090  0.378846  1
  Lu  Lu14  1  0.414257  0.206132  0.878238  1
  Lu  Lu15  1  0.207728  0.412417  0.622251  1
  Lu  Lu16  1  0.000536  0.999930  0.496384  1
  Lu  Lu17  1  0.000321  0.000374  0.996240  1
  Lu  Lu18  1  0.499747  0.499787  0.996942  1
  Lu  Lu19  1  0.498756  0.499265  0.497380  1
  Ir  Ir20  1  0.844844  0.146747  0.247899  1
  Ir  Ir21  1  0.844530  0.853584  0.748079  1
  Ir  Ir22  1  0.155250  0.149426  0.745638  1
  Ir  Ir23  1  0.155442  0.853505  0.247439  1
  Ir  Ir24  1  0.646467  0.344356  0.748017  1
  Ir  Ir25  1  0.646311  0.654988  0.247687  1
  Ir  Ir26  1  0.352150  0.345118  0.252703  1
  Ir  Ir27  1  0.351968  0.653437  0.746700  1
  Ru  Ru28  1  0.499883  0.000035  0.125560  1
  Ru  Ru29  1  0.500003  0.000355  0.626395  1
  Ru  Ru30  1  0.001301  0.499319  0.874783  1
  Ru  Ru31  1  0.001441  0.499299  0.377432  1
