# generated using pymatgen
data_DyZrCo9CuP6
_symmetry_space_group_name_H-M   'P 1'
_cell_length_a   3.64304500
_cell_length_b   10.19499300
_cell_length_c   11.75790000
_cell_angle_alpha   90.00000000
_cell_angle_beta   90.00000000
_cell_angle_gamma   90.00000000
_symmetry_Int_Tables_number   1
_chemical_formula_structural   DyZrCo9CuP6
_chemical_formula_sum   'Dy2 Zr2 Co18 Cu2 P12'
_cell_volume   436.69802718
_cell_formula_units_Z   2
loop_
 _symmetry_equiv_pos_site_id
 _symmetry_equiv_pos_as_xyz
  1  'x, y, z'
loop_
 _atom_site_type_symbol
 _atom_site_label
 _atom_site_symmetry_multiplicity
 _atom_site_fract_x
 _atom_site_fract_y
 _atom_site_fract_z
 _atom_site_occupancy
  Dy  Dy0  1  0.750000  0.420309  0.295624  1
  Dy  Dy1  1  0.750000  0.079691  0.795624  1
  Zr  Zr2  1  0.250000  0.578130  0.702377  1
  Zr  Zr3  1  0.250000  0.921870  0.202377  1
  Co  Co4  1  0.750000  0.285979  0.008194  1
  Co  Co5  1  0.750000  0.214021  0.508194  1
  Co  Co6  1  0.250000  0.408301  0.489498  1
  Co  Co7  1  0.250000  0.091699  0.989498  1
  Co  Co8  1  0.750000  0.592937  0.520827  1
  Co  Co9  1  0.750000  0.907063  0.020827  1
  Co  Co10  1  0.250000  0.223981  0.176185  1
  Co  Co11  1  0.250000  0.276019  0.676185  1
  Co  Co12  1  0.750000  0.775948  0.825876  1
  Co  Co13  1  0.750000  0.724052  0.325876  1
  Co  Co14  1  0.250000  0.878784  0.698606  1
  Co  Co15  1  0.250000  0.621216  0.198606  1
  Co  Co16  1  0.750000  0.118699  0.298474  1
  Co  Co17  1  0.750000  0.381301  0.798474  1
  Co  Co18  1  0.250000  0.466476  0.928303  1
  Co  Co19  1  0.250000  0.033524  0.428303  1
  Co  Co20  1  0.750000  0.538024  0.064385  1
  Co  Co21  1  0.750000  0.961976  0.564385  1
  Cu  Cu22  1  0.250000  0.711743  0.991068  1
  Cu  Cu23  1  0.250000  0.788257  0.491068  1
  P  P24  1  0.250000  0.421896  0.110070  1
  P  P25  1  0.250000  0.078104  0.610070  1
  P  P26  1  0.750000  0.576417  0.880070  1
  P  P27  1  0.750000  0.923583  0.380070  1
  P  P28  1  0.250000  0.267231  0.869397  1
  P  P29  1  0.250000  0.232769  0.369397  1
  P  P30  1  0.750000  0.733987  0.140024  1
  P  P31  1  0.750000  0.766013  0.640024  1
  P  P32  1  0.250000  0.599893  0.391682  1
  P  P33  1  0.250000  0.900107  0.891682  1
  P  P34  1  0.750000  0.397570  0.609343  1
  P  P35  1  0.750000  0.102430  0.109343  1
