# generated using pymatgen
data_Ho2Er3Hf5(Si5Ir2)4
_symmetry_space_group_name_H-M   'P 1'
_cell_length_a   12.47502747
_cell_length_b   12.47515847
_cell_length_c   4.16014900
_cell_angle_alpha   90.00000000
_cell_angle_beta   90.00000000
_cell_angle_gamma   90.03158937
_symmetry_Int_Tables_number   1
_chemical_formula_structural   Ho2Er3Hf5(Si5Ir2)4
_chemical_formula_sum   'Ho2 Er3 Hf5 Si20 Ir8'
_cell_volume   647.43534014
_cell_formula_units_Z   1
loop_
 _symmetry_equiv_pos_site_id
 _symmetry_equiv_pos_as_xyz
  1  'x, y, z'
loop_
 _atom_site_type_symbol
 _atom_site_label
 _atom_site_symmetry_multiplicity
 _atom_site_fract_x
 _atom_site_fract_y
 _atom_site_fract_z
 _atom_site_occupancy
  Ho  Ho0  1  0.884137  0.384459  0.500000  1
  Ho  Ho1  1  0.115863  0.615541  0.500000  1
  Er  Er2  1  0.000000  0.000000  0.000000  1
  Er  Er3  1  0.384447  0.115894  0.500000  1
  Er  Er4  1  0.615553  0.884106  0.500000  1
  Hf  Hf5  1  0.500000  0.500000  0.000000  1
  Hf  Hf6  1  0.673448  0.174965  0.500000  1
  Hf  Hf7  1  0.326552  0.825035  0.500000  1
  Hf  Hf8  1  0.175035  0.326457  0.500000  1
  Hf  Hf9  1  0.824965  0.673543  0.500000  1
  Si  Si10  1  0.565589  0.067488  0.000000  1
  Si  Si11  1  0.434411  0.932512  0.000000  1
  Si  Si12  1  0.067562  0.434326  0.000000  1
  Si  Si13  1  0.932438  0.565674  0.000000  1
  Si  Si14  1  0.665738  0.701387  0.000000  1
  Si  Si15  1  0.334262  0.298613  0.000000  1
  Si  Si16  1  0.164139  0.800839  0.000000  1
  Si  Si17  1  0.835861  0.199161  0.000000  1
  Si  Si18  1  0.298719  0.665750  0.000000  1
  Si  Si19  1  0.701281  0.334250  0.000000  1
  Si  Si20  1  0.199261  0.164120  0.000000  1
  Si  Si21  1  0.800739  0.835880  0.000000  1
  Si  Si22  1  0.651144  0.507657  0.500000  1
  Si  Si23  1  0.348856  0.492343  0.500000  1
  Si  Si24  1  0.156124  0.992791  0.500000  1
  Si  Si25  1  0.843876  0.007209  0.500000  1
  Si  Si26  1  0.492352  0.651193  0.500000  1
  Si  Si27  1  0.507648  0.348807  0.500000  1
  Si  Si28  1  0.007229  0.156064  0.500000  1
  Si  Si29  1  0.992771  0.843936  0.500000  1
  Ir  Ir30  1  0.742168  0.521484  0.000000  1
  Ir  Ir31  1  0.257832  0.478516  0.000000  1
  Ir  Ir32  1  0.246574  0.978329  0.000000  1
  Ir  Ir33  1  0.753426  0.021671  0.000000  1
  Ir  Ir34  1  0.478730  0.742438  0.000000  1
  Ir  Ir35  1  0.521270  0.257562  0.000000  1
  Ir  Ir36  1  0.021880  0.246296  0.000000  1
  Ir  Ir37  1  0.978120  0.753704  0.000000  1
