# generated using pymatgen
data_La6Pr2MgHgRu2
_symmetry_space_group_name_H-M   'P 1'
_cell_length_a   10.11082358
_cell_length_b   10.08326782
_cell_length_c   10.06910159
_cell_angle_alpha   60.05773220
_cell_angle_beta   59.95568196
_cell_angle_gamma   59.81681092
_symmetry_Int_Tables_number   1
_chemical_formula_structural   La6Pr2MgHgRu2
_chemical_formula_sum   'La12 Pr4 Mg2 Hg2 Ru4'
_cell_volume   724.93972304
_cell_formula_units_Z   2
loop_
 _symmetry_equiv_pos_site_id
 _symmetry_equiv_pos_as_xyz
  1  'x, y, z'
loop_
 _atom_site_type_symbol
 _atom_site_label
 _atom_site_symmetry_multiplicity
 _atom_site_fract_x
 _atom_site_fract_y
 _atom_site_fract_z
 _atom_site_occupancy
  La  La0  1  0.596899  0.595591  0.211062  1
  La  La1  1  0.441282  0.058718  0.058718  1
  La  La2  1  0.061206  0.439364  0.061284  1
  La  La3  1  0.438146  0.061284  0.439364  1
  La  La4  1  0.216247  0.593640  0.594471  1
  La  La5  1  0.062319  0.437681  0.437681  1
  La  La6  1  0.596449  0.211062  0.595591  1
  La  La7  1  0.595643  0.594471  0.593640  1
  La  La8  1  0.190053  0.812014  0.186896  1
  La  La9  1  0.811036  0.186896  0.812014  1
  La  La10  1  0.061654  0.061563  0.439223  1
  La  La11  1  0.437560  0.439223  0.061563  1
  Pr  Pr12  1  0.811433  0.188567  0.188567  1
  Pr  Pr13  1  0.190017  0.186182  0.812281  1
  Pr  Pr14  1  0.811520  0.812281  0.186182  1
  Pr  Pr15  1  0.188505  0.811495  0.811495  1
  Mg  Mg16  1  0.823372  0.524644  0.829499  1
  Mg  Mg17  1  0.822485  0.829499  0.524644  1
  Hg  Hg18  1  0.837467  0.829333  0.830114  1
  Hg  Hg19  1  0.503087  0.830114  0.829333  1
  Ru  Ru20  1  0.840885  0.385717  0.386356  1
  Ru  Ru21  1  0.387043  0.386356  0.385717  1
  Ru  Ru22  1  0.387307  0.838822  0.385485  1
  Ru  Ru23  1  0.388384  0.385485  0.838822  1
