# generated using pymatgen
data_Cs2Rb2Zr6FeI18
_symmetry_space_group_name_H-M   'P 1'
_cell_length_a   11.56445310
_cell_length_b   11.80317617
_cell_length_c   11.92946718
_cell_angle_alpha   118.42152026
_cell_angle_beta   100.22711898
_cell_angle_gamma   104.08677277
_symmetry_Int_Tables_number   1
_chemical_formula_structural   Cs2Rb2Zr6FeI18
_chemical_formula_sum   'Cs2 Rb2 Zr6 Fe1 I18'
_cell_volume   1304.26642702
_cell_formula_units_Z   1
loop_
 _symmetry_equiv_pos_site_id
 _symmetry_equiv_pos_as_xyz
  1  'x, y, z'
loop_
 _atom_site_type_symbol
 _atom_site_label
 _atom_site_symmetry_multiplicity
 _atom_site_fract_x
 _atom_site_fract_y
 _atom_site_fract_z
 _atom_site_occupancy
  Cs  Cs0  1  0.655660  0.537766  0.229038  1
  Cs  Cs1  1  0.344340  0.462234  0.770962  1
  Rb  Rb2  1  0.685791  0.225029  0.563764  1
  Rb  Rb3  1  0.314209  0.774971  0.436236  1
  Zr  Zr4  1  0.143883  0.052654  0.218203  1
  Zr  Zr5  1  0.856117  0.947346  0.781797  1
  Zr  Zr6  1  0.867943  0.118912  0.125695  1
  Zr  Zr7  1  0.132057  0.881088  0.874305  1
  Zr  Zr8  1  0.139222  0.227601  0.043867  1
  Zr  Zr9  1  0.860778  0.772399  0.956133  1
  Fe  Fe10  1  0.000000  0.000000  0.000000  1
  I  I11  1  0.007632  0.399704  0.192595  1
  I  I12  1  0.992368  0.600296  0.807405  1
  I  I13  1  0.324689  0.326257  0.305291  1
  I  I14  1  0.675311  0.673743  0.694709  1
  I  I15  1  0.311728  0.514430  0.103447  1
  I  I16  1  0.688272  0.485570  0.896553  1
  I  I17  1  0.003380  0.799397  0.203583  1
  I  I18  1  0.996620  0.200603  0.796417  1
  I  I19  1  0.707288  0.262017  0.282504  1
  I  I20  1  0.292712  0.737983  0.717496  1
  I  I21  1  0.312132  0.127230  0.906724  1
  I  I22  1  0.687868  0.872770  0.093276  1
  I  I23  1  0.015342  0.198830  0.398023  1
  I  I24  1  0.984658  0.801170  0.601977  1
  I  I25  1  0.315939  0.925350  0.107168  1
  I  I26  1  0.684061  0.074650  0.892832  1
  I  I27  1  0.328321  0.112505  0.487242  1
  I  I28  1  0.671679  0.887495  0.512758  1
