# generated using pymatgen
data_Rb2TcP2Pt
_symmetry_space_group_name_H-M   'P 1'
_cell_length_a   4.06017600
_cell_length_b   4.06017600
_cell_length_c   11.33458100
_cell_angle_alpha   90.00000000
_cell_angle_beta   90.00000000
_cell_angle_gamma   90.00000000
_symmetry_Int_Tables_number   1
_chemical_formula_structural   Rb2TcP2Pt
_chemical_formula_sum   'Rb2 Tc1 P2 Pt1'
_cell_volume   186.85089820
_cell_formula_units_Z   1
loop_
 _symmetry_equiv_pos_site_id
 _symmetry_equiv_pos_as_xyz
  1  'x, y, z'
loop_
 _atom_site_type_symbol
 _atom_site_label
 _atom_site_symmetry_multiplicity
 _atom_site_fract_x
 _atom_site_fract_y
 _atom_site_fract_z
 _atom_site_occupancy
  Rb  Rb0  1  0.000000  0.500000  0.283827  1
  Rb  Rb1  1  0.500000  0.000000  0.716173  1
  Tc  Tc2  1  0.000000  0.000000  0.000000  1
  P  P3  1  0.000000  0.500000  0.888612  1
  P  P4  1  0.500000  0.000000  0.111388  1
  Pt  Pt5  1  0.500000  0.500000  0.000000  1
