# generated using pymatgen
data_YUTcB6
_symmetry_space_group_name_H-M   'P 1'
_cell_length_a   3.63578000
_cell_length_b   9.30508800
_cell_length_c   11.42263200
_cell_angle_alpha   90.00000000
_cell_angle_beta   90.00000000
_cell_angle_gamma   90.00000000
_symmetry_Int_Tables_number   1
_chemical_formula_structural   YUTcB6
_chemical_formula_sum   'Y4 U4 Tc4 B24'
_cell_volume   386.44195139
_cell_formula_units_Z   4
loop_
 _symmetry_equiv_pos_site_id
 _symmetry_equiv_pos_as_xyz
  1  'x, y, z'
loop_
 _atom_site_type_symbol
 _atom_site_label
 _atom_site_symmetry_multiplicity
 _atom_site_fract_x
 _atom_site_fract_y
 _atom_site_fract_z
 _atom_site_occupancy
  Y  Y0  1  0.000000  0.337320  0.407588  1
  Y  Y1  1  0.000000  0.662680  0.592412  1
  Y  Y2  1  0.000000  0.837320  0.092412  1
  Y  Y3  1  0.000000  0.162680  0.907588  1
  U  U4  1  0.000000  0.956493  0.396423  1
  U  U5  1  0.000000  0.043507  0.603577  1
  U  U6  1  0.000000  0.456493  0.103577  1
  U  U7  1  0.000000  0.543507  0.896423  1
  Tc  Tc8  1  0.000000  0.645817  0.318495  1
  Tc  Tc9  1  0.000000  0.354183  0.681505  1
  Tc  Tc10  1  0.000000  0.145817  0.181505  1
  Tc  Tc11  1  0.000000  0.854183  0.818495  1
  B  B12  1  0.500000  0.552040  0.430743  1
  B  B13  1  0.500000  0.447960  0.569257  1
  B  B14  1  0.500000  0.052040  0.069257  1
  B  B15  1  0.500000  0.947960  0.930743  1
  B  B16  1  0.500000  0.742895  0.423066  1
  B  B17  1  0.500000  0.257105  0.576934  1
  B  B18  1  0.500000  0.242895  0.076934  1
  B  B19  1  0.500000  0.757105  0.923066  1
  B  B20  1  0.500000  0.802067  0.275475  1
  B  B21  1  0.500000  0.197933  0.724525  1
  B  B22  1  0.500000  0.302067  0.224525  1
  B  B23  1  0.500000  0.697933  0.775475  1
  B  B24  1  0.500000  0.644243  0.188877  1
  B  B25  1  0.500000  0.355757  0.811123  1
  B  B26  1  0.500000  0.144243  0.311123  1
  B  B27  1  0.500000  0.855757  0.688877  1
  B  B28  1  0.500000  0.989453  0.219648  1
  B  B29  1  0.500000  0.010547  0.780352  1
  B  B30  1  0.500000  0.489453  0.280352  1
  B  B31  1  0.500000  0.510547  0.719648  1
  B  B32  1  0.500000  0.640674  0.039142  1
  B  B33  1  0.500000  0.359326  0.960858  1
  B  B34  1  0.500000  0.140674  0.460858  1
  B  B35  1  0.500000  0.859326  0.539142  1
