# generated using pymatgen
data_RbAc(SO4)2
_symmetry_space_group_name_H-M   'P 1'
_cell_length_a   5.29457425
_cell_length_b   4.71346265
_cell_length_c   10.39898440
_cell_angle_alpha   62.58028892
_cell_angle_beta   81.28351758
_cell_angle_gamma   66.32396035
_symmetry_Int_Tables_number   1
_chemical_formula_structural   RbAc(SO4)2
_chemical_formula_sum   'Rb1 Ac1 S2 O8'
_cell_volume   210.79292051
_cell_formula_units_Z   1
loop_
 _symmetry_equiv_pos_site_id
 _symmetry_equiv_pos_as_xyz
  1  'x, y, z'
loop_
 _atom_site_type_symbol
 _atom_site_label
 _atom_site_symmetry_multiplicity
 _atom_site_fract_x
 _atom_site_fract_y
 _atom_site_fract_z
 _atom_site_occupancy
  Rb  Rb0  1  0.000000  0.499999  0.000000  1
  Ac  Ac1  1  0.000000  0.000000  0.499999  1
  S  S2  1  0.612324  0.806615  0.273350  1
  S  S3  1  0.387677  0.193385  0.726651  1
  O  O4  1  0.705486  0.005191  0.133929  1
  O  O5  1  0.640512  0.463642  0.288315  1
  O  O6  1  0.318228  0.002194  0.294075  1
  O  O7  1  0.788335  0.714331  0.400768  1
  O  O8  1  0.211667  0.285669  0.599231  1
  O  O9  1  0.681773  0.997806  0.705925  1
  O  O10  1  0.359487  0.536358  0.711685  1
  O  O11  1  0.294513  0.994809  0.866071  1
