# generated using pymatgen
data_Er2Ga7Ni2Au
_symmetry_space_group_name_H-M   'P 1'
_cell_length_a   7.89262887
_cell_length_b   7.89262832
_cell_length_c   6.51607837
_cell_angle_alpha   90.49045161
_cell_angle_beta   89.50954819
_cell_angle_gamma   149.76028499
_symmetry_Int_Tables_number   1
_chemical_formula_structural   Er2Ga7Ni2Au
_chemical_formula_sum   'Er2 Ga7 Ni2 Au1'
_cell_volume   204.41585757
_cell_formula_units_Z   1
loop_
 _symmetry_equiv_pos_site_id
 _symmetry_equiv_pos_as_xyz
  1  'x, y, z'
loop_
 _atom_site_type_symbol
 _atom_site_label
 _atom_site_symmetry_multiplicity
 _atom_site_fract_x
 _atom_site_fract_y
 _atom_site_fract_z
 _atom_site_occupancy
  Er  Er0  1  0.876752  0.123248  0.739315  1
  Er  Er1  1  0.123248  0.876752  0.260685  1
  Ga  Ga2  1  0.500000  0.500000  0.500000  1
  Ga  Ga3  1  0.068854  0.931146  0.760000  1
  Ga  Ga4  1  0.931146  0.068854  0.240000  1
  Ga  Ga5  1  0.683882  0.316118  0.952706  1
  Ga  Ga6  1  0.316118  0.683882  0.047294  1
  Ga  Ga7  1  0.685142  0.314858  0.553592  1
  Ga  Ga8  1  0.314858  0.685142  0.446408  1
  Ni  Ni9  1  0.223464  0.776536  0.749169  1
  Ni  Ni10  1  0.776536  0.223464  0.250831  1
  Au  Au11  1  0.500000  0.500000  0.000000  1
