# generated using pymatgen
data_Tb3SmSn5SbRh7
_symmetry_space_group_name_H-M   'P 1'
_cell_length_a   7.63244008
_cell_length_b   7.64902143
_cell_length_c   7.64527629
_cell_angle_alpha   109.47234304
_cell_angle_beta   109.38443631
_cell_angle_gamma   109.53286013
_symmetry_Int_Tables_number   1
_chemical_formula_structural   Tb3SmSn5SbRh7
_chemical_formula_sum   'Tb3 Sm1 Sn5 Sb1 Rh7'
_cell_volume   343.69143592
_cell_formula_units_Z   1
loop_
 _symmetry_equiv_pos_site_id
 _symmetry_equiv_pos_as_xyz
  1  'x, y, z'
loop_
 _atom_site_type_symbol
 _atom_site_label
 _atom_site_symmetry_multiplicity
 _atom_site_fract_x
 _atom_site_fract_y
 _atom_site_fract_z
 _atom_site_occupancy
  Tb  Tb0  1  0.998724  0.495914  0.000000  1
  Tb  Tb1  1  0.998590  0.998555  0.502700  1
  Tb  Tb2  1  0.495890  0.495854  0.497300  1
  Sm  Sm3  1  0.496052  0.998921  0.000000  1
  Sn  Sn4  1  0.998422  0.315138  0.317975  1
  Sn  Sn5  1  0.680447  0.997163  0.682025  1
  Sn  Sn6  1  0.691154  0.689655  0.000000  1
  Sn  Sn7  1  0.995598  0.678968  0.682080  1
  Sn  Sn8  1  0.313517  0.996888  0.317920  1
  Sb  Sb9  1  0.321225  0.322734  0.000000  1
  Rh  Rh10  1  0.008092  0.008215  0.000000  1
  Rh  Rh11  1  0.501570  0.749794  0.249605  1
  Rh  Rh12  1  0.751276  0.503018  0.249549  1
  Rh  Rh13  1  0.247180  0.747067  0.498606  1
  Rh  Rh14  1  0.251966  0.500189  0.750395  1
  Rh  Rh15  1  0.501727  0.253470  0.750451  1
  Rh  Rh16  1  0.748574  0.248460  0.501394  1
