# generated using pymatgen
data_Nd10Be3CuSi15Au
_symmetry_space_group_name_H-M   'P 1'
_cell_length_a   4.16120179
_cell_length_b   4.15023244
_cell_length_c   34.91534309
_cell_angle_alpha   86.57864935
_cell_angle_beta   86.54734921
_cell_angle_gamma   89.99771291
_symmetry_Int_Tables_number   1
_chemical_formula_structural   Nd10Be3CuSi15Au
_chemical_formula_sum   'Nd10 Be3 Cu1 Si15 Au1'
_cell_volume   600.81531730
_cell_formula_units_Z   1
loop_
 _symmetry_equiv_pos_site_id
 _symmetry_equiv_pos_as_xyz
  1  'x, y, z'
loop_
 _atom_site_type_symbol
 _atom_site_label
 _atom_site_symmetry_multiplicity
 _atom_site_fract_x
 _atom_site_fract_y
 _atom_site_fract_z
 _atom_site_occupancy
  Nd  Nd0  1  0.948282  0.448308  0.103486  1
  Nd  Nd1  1  0.350609  0.850614  0.298684  1
  Nd  Nd2  1  0.752586  0.252627  0.494919  1
  Nd  Nd3  1  0.150648  0.651435  0.698191  1
  Nd  Nd4  1  0.546084  0.046246  0.907688  1
  Nd  Nd5  1  0.997869  0.997553  0.004989  1
  Nd  Nd6  1  0.399880  0.399750  0.200636  1
  Nd  Nd7  1  0.801870  0.801732  0.396318  1
  Nd  Nd8  1  0.202888  0.202511  0.594263  1
  Nd  Nd9  1  0.601263  0.601014  0.797391  1
  Be  Be10  1  0.465185  0.965424  0.069302  1
  Be  Be11  1  0.867594  0.367817  0.264757  1
  Be  Be12  1  0.269287  0.769491  0.460918  1
  Cu  Cu13  1  0.684915  0.684482  0.630059  1
  Si  Si14  1  0.668648  0.168694  0.662054  1
  Si  Si15  1  0.063482  0.564361  0.871662  1
  Si  Si16  1  0.915865  0.916397  0.167886  1
  Si  Si17  1  0.318070  0.318781  0.363386  1
  Si  Si18  1  0.718292  0.718885  0.562644  1
  Si  Si19  1  0.117435  0.117167  0.765119  1
  Si  Si20  1  0.513514  0.513729  0.972745  1
  Si  Si21  1  0.433556  0.933097  0.133081  1
  Si  Si22  1  0.835838  0.335289  0.328469  1
  Si  Si23  1  0.237482  0.737167  0.525211  1
  Si  Si24  1  0.634723  0.135409  0.730357  1
  Si  Si25  1  0.030905  0.530534  0.938747  1
  Si  Si26  1  0.480100  0.479822  0.040235  1
  Si  Si27  1  0.882664  0.882413  0.235463  1
  Si  Si28  1  0.284566  0.284224  0.431218  1
  Au  Au29  1  0.083099  0.082229  0.835724  1
