# generated using pymatgen
data_Sc4In2B4IrRh9
_symmetry_space_group_name_H-M   'P 1'
_cell_length_a   9.49462734
_cell_length_b   9.49462734
_cell_length_c   3.15425800
_cell_angle_alpha   90.00000000
_cell_angle_beta   90.00000000
_cell_angle_gamma   90.16910015
_symmetry_Int_Tables_number   1
_chemical_formula_structural   Sc4In2B4IrRh9
_chemical_formula_sum   'Sc4 In2 B4 Ir1 Rh9'
_cell_volume   284.34864865
_cell_formula_units_Z   1
loop_
 _symmetry_equiv_pos_site_id
 _symmetry_equiv_pos_as_xyz
  1  'x, y, z'
loop_
 _atom_site_type_symbol
 _atom_site_label
 _atom_site_symmetry_multiplicity
 _atom_site_fract_x
 _atom_site_fract_y
 _atom_site_fract_z
 _atom_site_occupancy
  Sc  Sc0  1  0.825840  0.325840  0.000000  1
  Sc  Sc1  1  0.323927  0.176073  0.000000  1
  Sc  Sc2  1  0.676073  0.823927  0.000000  1
  Sc  Sc3  1  0.174160  0.674160  0.000000  1
  In  In4  1  0.000000  0.000000  0.000000  1
  In  In5  1  0.500000  0.500000  0.000000  1
  B  B6  1  0.622659  0.122659  0.000000  1
  B  B7  1  0.122151  0.377849  0.000000  1
  B  B8  1  0.877849  0.622151  0.000000  1
  B  B9  1  0.377341  0.877341  0.000000  1
  Ir  Ir10  1  0.500000  0.000000  0.500000  1
  Rh  Rh11  1  0.071666  0.224340  0.500000  1
  Rh  Rh12  1  0.223618  0.927509  0.500000  1
  Rh  Rh13  1  0.776382  0.072491  0.500000  1
  Rh  Rh14  1  0.928334  0.775660  0.500000  1
  Rh  Rh15  1  0.427509  0.723618  0.500000  1
  Rh  Rh16  1  0.572491  0.276382  0.500000  1
  Rh  Rh17  1  0.724340  0.571666  0.500000  1
  Rh  Rh18  1  0.275660  0.428334  0.500000  1
  Rh  Rh19  1  0.000000  0.500000  0.500000  1
