# generated using pymatgen
data_AlF17
_symmetry_space_group_name_H-M   'P 1'
_cell_length_a   8.62862772
_cell_length_b   8.08961505
_cell_length_c   10.02954260
_cell_angle_alpha   84.80900728
_cell_angle_beta   88.19317296
_cell_angle_gamma   66.91460057
_symmetry_Int_Tables_number   1
_chemical_formula_structural   AlF17
_chemical_formula_sum   'Al2 F34'
_cell_volume   641.37579638
_cell_formula_units_Z   2
loop_
 _symmetry_equiv_pos_site_id
 _symmetry_equiv_pos_as_xyz
  1  'x, y, z'
loop_
 _atom_site_type_symbol
 _atom_site_label
 _atom_site_symmetry_multiplicity
 _atom_site_fract_x
 _atom_site_fract_y
 _atom_site_fract_z
 _atom_site_occupancy
  Al  Al0  1  0.860660  0.252067  0.762898  1
  Al  Al1  1  0.139340  0.747933  0.237102  1
  F  F2  1  0.603559  0.195492  0.503493  1
  F  F3  1  0.396441  0.804508  0.496507  1
  F  F4  1  0.843121  0.677087  0.701766  1
  F  F5  1  0.156879  0.322913  0.298234  1
  F  F6  1  0.072612  0.793294  0.854093  1
  F  F7  1  0.927388  0.206706  0.145907  1
  F  F8  1  0.548243  0.156940  0.381528  1
  F  F9  1  0.451757  0.843060  0.618472  1
  F  F10  1  0.639792  0.297028  0.739798  1
  F  F11  1  0.360208  0.702972  0.260202  1
  F  F12  1  0.954535  0.092587  0.640520  1
  F  F13  1  0.045465  0.907413  0.359480  1
  F  F14  1  0.885979  0.367883  0.607044  1
  F  F15  1  0.114021  0.632117  0.392956  1
  F  F16  1  0.852217  0.823434  0.616243  1
  F  F17  1  0.147783  0.176566  0.383757  1
  F  F18  1  0.827349  0.435508  0.866698  1
  F  F19  1  0.172651  0.564492  0.133302  1
  F  F20  1  0.215814  0.692176  0.778855  1
  F  F21  1  0.784186  0.307824  0.221145  1
  F  F22  1  0.949621  0.781145  0.147493  1
  F  F23  1  0.050379  0.218855  0.852507  1
  F  F24  1  0.792300  0.109661  0.878776  1
  F  F25  1  0.207700  0.890339  0.121224  1
  F  F26  1  0.499188  0.584335  0.972024  1
  F  F27  1  0.500812  0.415665  0.027976  1
  F  F28  1  0.452282  0.075462  0.870165  1
  F  F29  1  0.547718  0.924538  0.129835  1
  F  F30  1  0.279943  0.223180  0.624636  1
  F  F31  1  0.720057  0.776820  0.375364  1
  F  F32  1  0.249951  0.393418  0.672924  1
  F  F33  1  0.750049  0.606582  0.327076  1
  F  F34  1  0.563601  0.898837  0.841513  1
  F  F35  1  0.436399  0.101163  0.158487  1
