# generated using pymatgen
data_Rb3Tl3(Ru2Cl9)2
_symmetry_space_group_name_H-M   'P 1'
_cell_length_a   7.09890900
_cell_length_b   7.09889566
_cell_length_c   17.57787400
_cell_angle_alpha   90.00000000
_cell_angle_beta   90.00000000
_cell_angle_gamma   120.00004816
_symmetry_Int_Tables_number   1
_chemical_formula_structural   Rb3Tl3(Ru2Cl9)2
_chemical_formula_sum   'Rb3 Tl3 Ru4 Cl18'
_cell_volume   767.14802308
_cell_formula_units_Z   1
loop_
 _symmetry_equiv_pos_site_id
 _symmetry_equiv_pos_as_xyz
  1  'x, y, z'
loop_
 _atom_site_type_symbol
 _atom_site_label
 _atom_site_symmetry_multiplicity
 _atom_site_fract_x
 _atom_site_fract_y
 _atom_site_fract_z
 _atom_site_occupancy
  Rb  Rb0  1  0.999994  0.999997  0.250160  1
  Rb  Rb1  1  0.999997  0.999998  0.750898  1
  Rb  Rb2  1  0.333326  0.666663  0.063237  1
  Tl  Tl3  1  0.666660  0.333329  0.557999  1
  Tl  Tl4  1  0.666658  0.333329  0.941080  1
  Tl  Tl5  1  0.333324  0.666663  0.444128  1
  Ru  Ru6  1  0.333341  0.666671  0.826055  1
  Ru  Ru7  1  0.666675  0.333337  0.326498  1
  Ru  Ru8  1  0.666663  0.333331  0.173450  1
  Ru  Ru9  1  0.333337  0.666669  0.673462  1
  Cl  Cl10  1  0.505050  0.010106  0.249769  1
  Cl  Cl11  1  0.494811  0.505185  0.749695  1
  Cl  Cl12  1  0.010410  0.505205  0.749687  1
  Cl  Cl13  1  0.989889  0.494944  0.249768  1
  Cl  Cl14  1  0.505049  0.494944  0.249769  1
  Cl  Cl15  1  0.494810  0.989626  0.749695  1
  Cl  Cl16  1  0.821602  0.643214  0.094126  1
  Cl  Cl17  1  0.178531  0.821472  0.594054  1
  Cl  Cl18  1  0.642977  0.821489  0.594045  1
  Cl  Cl19  1  0.356777  0.178387  0.094126  1
  Cl  Cl20  1  0.821602  0.178386  0.094126  1
  Cl  Cl21  1  0.177672  0.355341  0.904410  1
  Cl  Cl22  1  0.177672  0.822331  0.904410  1
  Cl  Cl23  1  0.178531  0.357060  0.594054  1
  Cl  Cl24  1  0.644652  0.822326  0.904408  1
  Cl  Cl25  1  0.357537  0.178768  0.405629  1
  Cl  Cl26  1  0.821227  0.642460  0.405630  1
  Cl  Cl27  1  0.821227  0.178766  0.405630  1
