# generated using pymatgen
data_Tm2CoNi(SnH)2
_symmetry_space_group_name_H-M   'P 1'
_cell_length_a   4.21190100
_cell_length_b   7.04558968
_cell_length_c   8.15616283
_cell_angle_alpha   90.62655472
_cell_angle_beta   90.00000000
_cell_angle_gamma   90.00000000
_symmetry_Int_Tables_number   1
_chemical_formula_structural   Tm2CoNi(SnH)2
_chemical_formula_sum   'Tm4 Co2 Ni2 Sn4 H4'
_cell_volume   242.02232091
_cell_formula_units_Z   2
loop_
 _symmetry_equiv_pos_site_id
 _symmetry_equiv_pos_as_xyz
  1  'x, y, z'
loop_
 _atom_site_type_symbol
 _atom_site_label
 _atom_site_symmetry_multiplicity
 _atom_site_fract_x
 _atom_site_fract_y
 _atom_site_fract_z
 _atom_site_occupancy
  Tm  Tm0  1  0.750000  0.515729  0.809709  1
  Tm  Tm1  1  0.250000  0.484271  0.190291  1
  Tm  Tm2  1  0.250000  0.985966  0.316712  1
  Tm  Tm3  1  0.750000  0.014034  0.683288  1
  Co  Co4  1  0.750000  0.268943  0.390340  1
  Co  Co5  1  0.250000  0.731057  0.609660  1
  Ni  Ni6  1  0.250000  0.228458  0.892364  1
  Ni  Ni7  1  0.750000  0.771542  0.107636  1
  Sn  Sn8  1  0.750000  0.156372  0.072427  1
  Sn  Sn9  1  0.250000  0.843628  0.927573  1
  Sn  Sn10  1  0.250000  0.345907  0.570521  1
  Sn  Sn11  1  0.750000  0.654093  0.429479  1
  H  H12  1  0.250000  0.952445  0.579491  1
  H  H13  1  0.750000  0.047555  0.420509  1
  H  H14  1  0.750000  0.549437  0.076382  1
  H  H15  1  0.250000  0.450563  0.923618  1
