# generated using pymatgen
data_Ba8Cu(Si4Au)3
_symmetry_space_group_name_H-M   'P 1'
_cell_length_a   12.49888490
_cell_length_b   10.94119328
_cell_length_c   8.51426700
_cell_angle_alpha   78.78878162
_cell_angle_beta   59.13783763
_cell_angle_gamma   42.02371486
_symmetry_Int_Tables_number   1
_chemical_formula_structural   Ba8Cu(Si4Au)3
_chemical_formula_sum   'Ba8 Cu1 Si12 Au3'
_cell_volume   632.81490199
_cell_formula_units_Z   1
loop_
 _symmetry_equiv_pos_site_id
 _symmetry_equiv_pos_as_xyz
  1  'x, y, z'
loop_
 _atom_site_type_symbol
 _atom_site_label
 _atom_site_symmetry_multiplicity
 _atom_site_fract_x
 _atom_site_fract_y
 _atom_site_fract_z
 _atom_site_occupancy
  Ba  Ba0  1  0.123561  0.125089  0.376101  1
  Ba  Ba1  1  0.876155  0.876193  0.123139  1
  Ba  Ba2  1  0.124110  0.124716  0.875649  1
  Ba  Ba3  1  0.375381  0.374626  0.124555  1
  Ba  Ba4  1  0.621361  0.622569  0.378304  1
  Ba  Ba5  1  0.377983  0.377380  0.622165  1
  Ba  Ba6  1  0.627370  0.626513  0.872820  1
  Ba  Ba7  1  0.873109  0.873590  0.626819  1
  Cu  Cu8  1  0.832012  0.168192  0.832947  1
  Si  Si9  1  0.336222  0.660809  0.825200  1
  Si  Si10  1  0.170133  0.833431  0.664075  1
  Si  Si11  1  0.825808  0.179431  0.335927  1
  Si  Si12  1  0.665353  0.332370  0.168572  1
  Si  Si13  1  0.914546  0.589257  0.423882  1
  Si  Si14  1  0.071942  0.422953  0.590777  1
  Si  Si15  1  0.422917  0.070838  0.915005  1
  Si  Si16  1  0.913390  0.588565  0.911493  1
  Si  Si17  1  0.664699  0.334027  0.666614  1
  Si  Si18  1  0.337819  0.660570  0.339223  1
  Si  Si19  1  0.588797  0.912853  0.586943  1
  Si  Si20  1  0.589314  0.914038  0.073047  1
  Au  Au21  1  0.082425  0.417506  0.084054  1
  Au  Au22  1  0.167729  0.832293  0.166458  1
  Au  Au23  1  0.417863  0.082197  0.416232  1
