# generated using pymatgen
data_Tm6CrMoO12
_symmetry_space_group_name_H-M   'P 1'
_cell_length_a   6.47041261
_cell_length_b   6.47041403
_cell_length_c   6.47041300
_cell_angle_alpha   92.53872071
_cell_angle_beta   92.53872126
_cell_angle_gamma   92.53872035
_symmetry_Int_Tables_number   1
_chemical_formula_structural   Tm6CrMoO12
_chemical_formula_sum   'Tm6 Cr1 Mo1 O12'
_cell_volume   270.06989224
_cell_formula_units_Z   1
loop_
 _symmetry_equiv_pos_site_id
 _symmetry_equiv_pos_as_xyz
  1  'x, y, z'
loop_
 _atom_site_type_symbol
 _atom_site_label
 _atom_site_symmetry_multiplicity
 _atom_site_fract_x
 _atom_site_fract_y
 _atom_site_fract_z
 _atom_site_occupancy
  Tm  Tm0  1  0.742279  0.926342  0.436939  1
  Tm  Tm1  1  0.926342  0.436939  0.742279  1
  Tm  Tm2  1  0.436939  0.742279  0.926342  1
  Tm  Tm3  1  0.257721  0.073658  0.563061  1
  Tm  Tm4  1  0.073658  0.563061  0.257721  1
  Tm  Tm5  1  0.563061  0.257721  0.073658  1
  Cr  Cr6  1  0.500000  0.500000  0.500000  1
  Mo  Mo7  1  0.000000  0.000000  0.000000  1
  O  O8  1  0.589257  0.461589  0.801262  1
  O  O9  1  0.461589  0.801262  0.589257  1
  O  O10  1  0.801262  0.589257  0.461589  1
  O  O11  1  0.410743  0.538411  0.198738  1
  O  O12  1  0.538411  0.198738  0.410743  1
  O  O13  1  0.198738  0.410743  0.538411  1
  O  O14  1  0.069716  0.909354  0.314356  1
  O  O15  1  0.909354  0.314356  0.069716  1
  O  O16  1  0.685644  0.930284  0.090646  1
  O  O17  1  0.090646  0.685644  0.930284  1
  O  O18  1  0.930284  0.090646  0.685644  1
  O  O19  1  0.314356  0.069716  0.909354  1
