# generated using pymatgen
data_PaNb2Co6(Ni7B3)2
_symmetry_space_group_name_H-M   'P 1'
_cell_length_a   7.55124326
_cell_length_b   7.55247855
_cell_length_c   7.55247800
_cell_angle_alpha   60.00000242
_cell_angle_beta   59.99459084
_cell_angle_gamma   59.99459096
_symmetry_Int_Tables_number   1
_chemical_formula_structural   PaNb2Co6(Ni7B3)2
_chemical_formula_sum   'Pa1 Nb2 Co6 Ni14 B6'
_cell_volume   304.54181292
_cell_formula_units_Z   1
loop_
 _symmetry_equiv_pos_site_id
 _symmetry_equiv_pos_as_xyz
  1  'x, y, z'
loop_
 _atom_site_type_symbol
 _atom_site_label
 _atom_site_symmetry_multiplicity
 _atom_site_fract_x
 _atom_site_fract_y
 _atom_site_fract_z
 _atom_site_occupancy
  Pa  Pa0  1  0.256997  0.247668  0.247668  1
  Nb  Nb1  1  0.744435  0.751855  0.751855  1
  Nb  Nb2  1  0.000037  0.999988  0.999988  1
  Co  Co3  1  0.385565  0.385743  0.385743  1
  Co  Co4  1  0.616623  0.617894  0.617894  1
  Co  Co5  1  0.385565  0.385743  0.842950  1
  Co  Co6  1  0.385565  0.842950  0.385743  1
  Co  Co7  1  0.616623  0.617894  0.147589  1
  Co  Co8  1  0.616623  0.147589  0.617894  1
  Ni  Ni9  1  0.833311  0.388897  0.388897  1
  Ni  Ni10  1  0.151005  0.616332  0.616332  1
  Ni  Ni11  1  0.342420  0.998669  0.998669  1
  Ni  Ni12  1  0.663246  0.996294  0.996294  1
  Ni  Ni13  1  0.998340  0.343486  0.660595  1
  Ni  Ni14  1  0.998340  0.660595  0.343486  1
  Ni  Ni15  1  0.998340  0.343486  0.997577  1
  Ni  Ni16  1  0.663246  0.996294  0.344165  1
  Ni  Ni17  1  0.998340  0.660595  0.997577  1
  Ni  Ni18  1  0.342420  0.998669  0.660240  1
  Ni  Ni19  1  0.998340  0.997577  0.343486  1
  Ni  Ni20  1  0.998340  0.997577  0.660595  1
  Ni  Ni21  1  0.663246  0.344165  0.996294  1
  Ni  Ni22  1  0.342420  0.660240  0.998669  1
  B  B23  1  0.726116  0.272364  0.272364  1
  B  B24  1  0.274087  0.727717  0.727717  1
  B  B25  1  0.274087  0.727717  0.270479  1
  B  B26  1  0.726116  0.272364  0.729156  1
  B  B27  1  0.274087  0.270479  0.727717  1
  B  B28  1  0.726116  0.729156  0.272364  1
