# generated using pymatgen
data_K3H7Os
_symmetry_space_group_name_H-M   'P 1'
_cell_length_a   5.95024762
_cell_length_b   5.92808238
_cell_length_c   6.14074778
_cell_angle_alpha   60.48517256
_cell_angle_beta   119.55186598
_cell_angle_gamma   91.00334728
_symmetry_Int_Tables_number   1
_chemical_formula_structural   K3H7Os
_chemical_formula_sum   'K3 H7 Os1'
_cell_volume   156.53330473
_cell_formula_units_Z   1
loop_
 _symmetry_equiv_pos_site_id
 _symmetry_equiv_pos_as_xyz
  1  'x, y, z'
loop_
 _atom_site_type_symbol
 _atom_site_label
 _atom_site_symmetry_multiplicity
 _atom_site_fract_x
 _atom_site_fract_y
 _atom_site_fract_z
 _atom_site_occupancy
  K  K0  1  0.543008  0.401824  0.640753  1
  K  K1  1  0.781084  0.640198  0.142374  1
  K  K2  1  0.042400  0.896611  0.644513  1
  H  H3  1  0.091581  0.358043  0.754487  1
  H  H4  1  0.414739  0.913292  0.120619  1
  H  H5  1  0.074325  0.285945  0.172581  1
  H  H6  1  0.577372  0.196912  0.139293  1
  H  H7  1  0.093471  0.953902  0.150092  1
  H  H8  1  0.508735  0.946453  0.536080  1
  H  H9  1  0.367216  0.429109  0.145589  1
  Os  Os10  1  0.302211  0.153806  0.145398  1
