# generated using pymatgen
data_Zr8Ni12GeAs11
_symmetry_space_group_name_H-M   'P 1'
_cell_length_a   3.77259900
_cell_length_b   10.40883662
_cell_length_c   12.73891441
_cell_angle_alpha   90.09545092
_cell_angle_beta   90.00000000
_cell_angle_gamma   90.00000000
_symmetry_Int_Tables_number   1
_chemical_formula_structural   Zr8Ni12GeAs11
_chemical_formula_sum   'Zr8 Ni12 Ge1 As11'
_cell_volume   500.23566721
_cell_formula_units_Z   1
loop_
 _symmetry_equiv_pos_site_id
 _symmetry_equiv_pos_as_xyz
  1  'x, y, z'
loop_
 _atom_site_type_symbol
 _atom_site_label
 _atom_site_symmetry_multiplicity
 _atom_site_fract_x
 _atom_site_fract_y
 _atom_site_fract_z
 _atom_site_occupancy
  Zr  Zr0  1  0.250000  0.335514  0.994535  1
  Zr  Zr1  1  0.250000  0.166748  0.493118  1
  Zr  Zr2  1  0.750000  0.666500  0.006325  1
  Zr  Zr3  1  0.750000  0.833608  0.505780  1
  Zr  Zr4  1  0.250000  0.425309  0.711275  1
  Zr  Zr5  1  0.250000  0.073895  0.210117  1
  Zr  Zr6  1  0.750000  0.573643  0.289457  1
  Zr  Zr7  1  0.750000  0.926557  0.788071  1
  Ni  Ni8  1  0.250000  0.901193  0.985467  1
  Ni  Ni9  1  0.250000  0.598122  0.485445  1
  Ni  Ni10  1  0.750000  0.096936  0.014157  1
  Ni  Ni11  1  0.750000  0.402202  0.515611  1
  Ni  Ni12  1  0.250000  0.138441  0.717251  1
  Ni  Ni13  1  0.250000  0.361419  0.218376  1
  Ni  Ni14  1  0.750000  0.861782  0.281983  1
  Ni  Ni15  1  0.750000  0.639228  0.782285  1
  Ni  Ni16  1  0.250000  0.774996  0.166040  1
  Ni  Ni17  1  0.250000  0.725043  0.666261  1
  Ni  Ni18  1  0.750000  0.223710  0.834558  1
  Ni  Ni19  1  0.750000  0.276155  0.334263  1
  Ge  Ge20  1  0.250000  0.098748  0.898091  1
  As  As21  1  0.250000  0.400560  0.398578  1
  As  As22  1  0.750000  0.900492  0.101425  1
  As  As23  1  0.750000  0.599567  0.602202  1
  As  As24  1  0.250000  0.739003  0.856563  1
  As  As25  1  0.250000  0.761560  0.355957  1
  As  As26  1  0.750000  0.260926  0.143597  1
  As  As27  1  0.750000  0.237723  0.644424  1
  As  As28  1  0.250000  0.552524  0.126314  1
  As  As29  1  0.250000  0.947570  0.625654  1
  As  As30  1  0.750000  0.447071  0.873397  1
  As  As31  1  0.750000  0.053257  0.373421  1
