# generated using pymatgen
data_Mn2V13Se20
_symmetry_space_group_name_H-M   'P 1'
_cell_length_a   8.47389091
_cell_length_b   8.59149716
_cell_length_c   9.34009603
_cell_angle_alpha   101.22020933
_cell_angle_beta   102.76844882
_cell_angle_gamma   89.58635811
_symmetry_Int_Tables_number   1
_chemical_formula_structural   Mn2V13Se20
_chemical_formula_sum   'Mn2 V13 Se20'
_cell_volume   650.04464760
_cell_formula_units_Z   1
loop_
 _symmetry_equiv_pos_site_id
 _symmetry_equiv_pos_as_xyz
  1  'x, y, z'
loop_
 _atom_site_type_symbol
 _atom_site_label
 _atom_site_symmetry_multiplicity
 _atom_site_fract_x
 _atom_site_fract_y
 _atom_site_fract_z
 _atom_site_occupancy
  Mn  Mn0  1  0.301148  0.303206  0.699458  1
  Mn  Mn1  1  0.698852  0.696794  0.300542  1
  V  V2  1  0.094456  0.091912  0.902336  1
  V  V3  1  0.500000  0.500000  0.500000  1
  V  V4  1  0.905544  0.908088  0.097664  1
  V  V5  1  0.118888  0.613369  0.070210  1
  V  V6  1  0.526702  0.021850  0.666412  1
  V  V7  1  0.943626  0.434910  0.261934  1
  V  V8  1  0.341472  0.830457  0.860407  1
  V  V9  1  0.722497  0.215538  0.469998  1
  V  V10  1  0.056374  0.565090  0.738066  1
  V  V11  1  0.473298  0.978150  0.333588  1
  V  V12  1  0.881112  0.386631  0.929790  1
  V  V13  1  0.277503  0.784462  0.530002  1
  V  V14  1  0.658528  0.169543  0.139593  1
  Se  Se15  1  0.194670  0.486450  0.504057  1
  Se  Se16  1  0.993806  0.265093  0.702724  1
  Se  Se17  1  0.792439  0.081499  0.904908  1
  Se  Se18  1  0.598172  0.874093  0.101631  1
  Se  Se19  1  0.392412  0.674111  0.302197  1
  Se  Se20  1  0.607588  0.325889  0.697803  1
  Se  Se21  1  0.401828  0.125907  0.898369  1
  Se  Se22  1  0.207561  0.918501  0.095092  1
  Se  Se23  1  0.006194  0.734907  0.297276  1
  Se  Se24  1  0.805330  0.513550  0.495943  1
  Se  Se25  1  0.679867  0.447505  0.091667  1
  Se  Se26  1  0.466471  0.254376  0.297244  1
  Se  Se27  1  0.272462  0.056179  0.489766  1
  Se  Se28  1  0.078250  0.846380  0.694284  1
  Se  Se29  1  0.868339  0.660182  0.897136  1
  Se  Se30  1  0.131661  0.339818  0.102864  1
  Se  Se31  1  0.921750  0.153620  0.305716  1
  Se  Se32  1  0.727538  0.943821  0.510234  1
  Se  Se33  1  0.533529  0.745624  0.702756  1
  Se  Se34  1  0.320133  0.552495  0.908333  1
