# generated using pymatgen
data_Na4HoPtO6
_symmetry_space_group_name_H-M   'P 1'
_cell_length_a   5.67594300
_cell_length_b   5.67593808
_cell_length_c   5.81857761
_cell_angle_alpha   99.32487982
_cell_angle_beta   99.32487124
_cell_angle_gamma   120.08995568
_symmetry_Int_Tables_number   1
_chemical_formula_structural   Na4HoPtO6
_chemical_formula_sum   'Na4 Ho1 Pt1 O6'
_cell_volume   153.41453014
_cell_formula_units_Z   1
loop_
 _symmetry_equiv_pos_site_id
 _symmetry_equiv_pos_as_xyz
  1  'x, y, z'
loop_
 _atom_site_type_symbol
 _atom_site_label
 _atom_site_symmetry_multiplicity
 _atom_site_fract_x
 _atom_site_fract_y
 _atom_site_fract_z
 _atom_site_occupancy
  Na  Na0  1  0.498021  0.501981  0.000000  1
  Na  Na1  1  0.014815  0.985187  0.499997  1
  Na  Na2  1  0.657173  0.342828  0.500000  1
  Na  Na3  1  0.338427  0.661572  0.500000  1
  Ho  Ho4  1  0.833046  0.166953  0.000000  1
  Pt  Pt5  1  0.165803  0.834202  0.000002  1
  O  O6  1  0.946274  0.598498  0.210286  1
  O  O7  1  0.541515  0.922001  0.216426  1
  O  O8  1  0.221589  0.196157  0.217038  1
  O  O9  1  0.803843  0.778410  0.782960  1
  O  O10  1  0.078000  0.458487  0.783576  1
  O  O11  1  0.401501  0.053725  0.789716  1
