# generated using pymatgen
data_Er20Ir5Au7
_symmetry_space_group_name_H-M   'P 1'
_cell_length_a   6.30427169
_cell_length_b   11.18319572
_cell_length_c   11.18319564
_cell_angle_alpha   90.38848889
_cell_angle_beta   89.85107115
_cell_angle_gamma   89.85106568
_symmetry_Int_Tables_number   1
_chemical_formula_structural   Er20Ir5Au7
_chemical_formula_sum   'Er20 Ir5 Au7'
_cell_volume   788.41310033
_cell_formula_units_Z   1
loop_
 _symmetry_equiv_pos_site_id
 _symmetry_equiv_pos_as_xyz
  1  'x, y, z'
loop_
 _atom_site_type_symbol
 _atom_site_label
 _atom_site_symmetry_multiplicity
 _atom_site_fract_x
 _atom_site_fract_y
 _atom_site_fract_z
 _atom_site_occupancy
  Er  Er0  1  0.359880  0.830281  0.549745  1
  Er  Er1  1  0.861106  0.656702  0.549516  1
  Er  Er2  1  0.859373  0.832048  0.950104  1
  Er  Er3  1  0.358411  0.666182  0.948924  1
  Er  Er4  1  0.858741  0.543573  0.825288  1
  Er  Er5  1  0.361663  0.952508  0.833093  1
  Er  Er6  1  0.372124  0.542674  0.661530  1
  Er  Er7  1  0.860375  0.948842  0.666191  1
  Er  Er8  1  0.641259  0.174712  0.456428  1
  Er  Er9  1  0.127876  0.338470  0.457327  1
  Er  Er10  1  0.138337  0.166907  0.047492  1
  Er  Er11  1  0.639625  0.333809  0.051158  1
  Er  Er12  1  0.140120  0.450256  0.169719  1
  Er  Er13  1  0.640627  0.049896  0.167952  1
  Er  Er14  1  0.638894  0.450485  0.343298  1
  Er  Er15  1  0.141589  0.051076  0.333818  1
  Er  Er16  1  0.501020  0.749626  0.249038  1
  Er  Er17  1  0.998980  0.750962  0.250374  1
  Er  Er18  1  0.998590  0.253945  0.743590  1
  Er  Er19  1  0.501410  0.256410  0.746055  1
  Ir  Ir20  1  0.750000  0.402547  0.597453  1
  Ir  Ir21  1  0.108627  0.749741  0.749673  1
  Ir  Ir22  1  0.606271  0.750021  0.749728  1
  Ir  Ir23  1  0.893729  0.250272  0.249979  1
  Ir  Ir24  1  0.391373  0.250327  0.250259  1
  Au  Au25  1  0.250000  0.905927  0.094073  1
  Au  Au26  1  0.751155  0.593730  0.092231  1
  Au  Au27  1  0.748845  0.907769  0.406270  1
  Au  Au28  1  0.250000  0.595458  0.404542  1
  Au  Au29  1  0.750000  0.096268  0.903732  1
  Au  Au30  1  0.248325  0.406398  0.907826  1
  Au  Au31  1  0.251675  0.092174  0.593602  1
