# generated using pymatgen
data_KDy2CuS4
_symmetry_space_group_name_H-M   'P 1'
_cell_length_a   3.95942600
_cell_length_b   7.04253137
_cell_length_c   13.77706200
_cell_angle_alpha   90.00000000
_cell_angle_beta   90.00000000
_cell_angle_gamma   73.67364602
_symmetry_Int_Tables_number   1
_chemical_formula_structural   KDy2CuS4
_chemical_formula_sum   'K2 Dy4 Cu2 S8'
_cell_volume   368.67382964
_cell_formula_units_Z   2
loop_
 _symmetry_equiv_pos_site_id
 _symmetry_equiv_pos_as_xyz
  1  'x, y, z'
loop_
 _atom_site_type_symbol
 _atom_site_label
 _atom_site_symmetry_multiplicity
 _atom_site_fract_x
 _atom_site_fract_y
 _atom_site_fract_z
 _atom_site_occupancy
  K  K0  1  0.890559  0.218882  0.250000  1
  K  K1  1  0.109442  0.781117  0.750000  1
  Dy  Dy2  1  0.634154  0.731692  0.063415  1
  Dy  Dy3  1  0.634154  0.731692  0.436585  1
  Dy  Dy4  1  0.365846  0.268308  0.563415  1
  Dy  Dy5  1  0.365846  0.268308  0.936585  1
  Cu  Cu6  1  0.162311  0.675377  0.250000  1
  Cu  Cu7  1  0.837689  0.324623  0.750000  1
  S  S8  1  0.000000  0.000000  0.000000  1
  S  S9  1  0.262351  0.475298  0.110555  1
  S  S10  1  0.569463  0.861074  0.250000  1
  S  S11  1  0.262351  0.475298  0.389445  1
  S  S12  1  0.000000  0.000000  0.500000  1
  S  S13  1  0.737650  0.524702  0.610554  1
  S  S14  1  0.430538  0.138925  0.750000  1
  S  S15  1  0.737650  0.524702  0.889446  1
