# generated using pymatgen
data_VGa2Ni3O8
_symmetry_space_group_name_H-M   'P 1'
_cell_length_a   5.89823291
_cell_length_b   5.89831682
_cell_length_c   10.34032180
_cell_angle_alpha   90.00083272
_cell_angle_beta   73.42335765
_cell_angle_gamma   120.00003289
_symmetry_Int_Tables_number   1
_chemical_formula_structural   VGa2Ni3O8
_chemical_formula_sum   'V2 Ga4 Ni6 O16'
_cell_volume   294.15087367
_cell_formula_units_Z   2
loop_
 _symmetry_equiv_pos_site_id
 _symmetry_equiv_pos_as_xyz
  1  'x, y, z'
loop_
 _atom_site_type_symbol
 _atom_site_label
 _atom_site_symmetry_multiplicity
 _atom_site_fract_x
 _atom_site_fract_y
 _atom_site_fract_z
 _atom_site_occupancy
  V  V0  1  0.375003  0.687499  0.937547  1
  V  V1  1  0.374978  0.187487  0.437562  1
  Ga  Ga2  1  0.007153  0.003582  0.989346  1
  Ga  Ga3  1  0.007149  0.503573  0.489336  1
  Ga  Ga4  1  0.742863  0.871431  0.385609  1
  Ga  Ga5  1  0.742885  0.371437  0.885597  1
  Ni  Ni6  1  0.375084  0.437394  0.187610  1
  Ni  Ni7  1  0.375075  0.937703  0.187609  1
  Ni  Ni8  1  0.874716  0.437376  0.187447  1
  Ni  Ni9  1  0.375010  0.937398  0.687577  1
  Ni  Ni10  1  0.375084  0.437606  0.687572  1
  Ni  Ni11  1  0.874839  0.937433  0.687420  1
  O  O12  1  0.616690  0.808336  0.574929  1
  O  O13  1  0.616701  0.308354  0.074927  1
  O  O14  1  0.133280  0.566650  0.299976  1
  O  O15  1  0.133280  0.066640  0.799970  1
  O  O16  1  0.137615  0.568797  0.819740  1
  O  O17  1  0.137593  0.068803  0.319759  1
  O  O18  1  0.611478  0.568812  0.819711  1
  O  O19  1  0.611448  0.068802  0.319732  1
  O  O20  1  0.611459  0.042662  0.819707  1
  O  O21  1  0.611441  0.542648  0.319734  1
  O  O22  1  0.138631  0.332420  0.055269  1
  O  O23  1  0.138615  0.832402  0.555259  1
  O  O24  1  0.138629  0.806213  0.055265  1
  O  O25  1  0.138624  0.306218  0.555261  1
  O  O26  1  0.612335  0.806170  0.055271  1
  O  O27  1  0.612340  0.306155  0.555267  1
