# generated using pymatgen
data_Ti8Al14ReGeRh6
_symmetry_space_group_name_H-M   'P 1'
_cell_length_a   8.64259020
_cell_length_b   8.64380065
_cell_length_c   8.66747375
_cell_angle_alpha   119.91194801
_cell_angle_beta   119.75733646
_cell_angle_gamma   90.04318751
_symmetry_Int_Tables_number   1
_chemical_formula_structural   Ti8Al14ReGeRh6
_chemical_formula_sum   'Ti8 Al14 Re1 Ge1 Rh6'
_cell_volume   459.96122899
_cell_formula_units_Z   1
loop_
 _symmetry_equiv_pos_site_id
 _symmetry_equiv_pos_as_xyz
  1  'x, y, z'
loop_
 _atom_site_type_symbol
 _atom_site_label
 _atom_site_symmetry_multiplicity
 _atom_site_fract_x
 _atom_site_fract_y
 _atom_site_fract_z
 _atom_site_occupancy
  Ti  Ti0  1  0.793163  0.294346  0.079997  1
  Ti  Ti1  1  0.202706  0.283109  0.499493  1
  Ti  Ti2  1  0.194591  0.717374  0.498956  1
  Ti  Ti3  1  0.212074  0.716246  0.922040  1
  Ti  Ti4  1  0.805791  0.729149  0.502574  1
  Ti  Ti5  1  0.798314  0.273528  0.501008  1
  Ti  Ti6  1  0.376600  0.121112  0.740845  1
  Ti  Ti7  1  0.381431  0.637203  0.259202  1
  Al  Al8  1  0.157018  0.343631  0.191073  1
  Al  Al9  1  0.164471  0.983982  0.828931  1
  Al  Al10  1  0.160396  0.346396  0.822484  1
  Al  Al11  1  0.540843  0.346181  0.197216  1
  Al  Al12  1  0.842073  0.650769  0.803932  1
  Al  Al13  1  0.837883  0.021335  0.174741  1
  Al  Al14  1  0.835545  0.655203  0.171188  1
  Al  Al15  1  0.464895  0.653134  0.808140  1
  Al  Al16  1  0.382848  0.123485  0.264041  1
  Al  Al17  1  0.863214  0.125109  0.749775  1
  Al  Al18  1  0.615859  0.873809  0.249914  1
  Al  Al19  1  0.618926  0.361045  0.738824  1
  Al  Al20  1  0.619643  0.877418  0.740137  1
  Al  Al21  1  0.136983  0.876971  0.255452  1
  Re  Re22  1  0.999653  0.000365  0.501265  1
  Ge  Ge23  1  0.995019  0.497131  0.499725  1
  Rh  Rh24  1  0.499398  0.999438  0.998892  1
  Rh  Rh25  1  0.498821  0.497095  0.000047  1
  Rh  Rh26  1  0.497755  0.499329  0.498539  1
  Rh  Rh27  1  0.002303  0.500188  0.002031  1
  Rh  Rh28  1  0.001100  0.998330  0.000163  1
  Rh  Rh29  1  0.500684  0.997586  0.499376  1
