# generated using pymatgen
data_Gd3Al3SiPd2
_symmetry_space_group_name_H-M   'P 1'
_cell_length_a   7.07949900
_cell_length_b   7.07949877
_cell_length_c   4.20519900
_cell_angle_alpha   90.00000000
_cell_angle_beta   90.00000000
_cell_angle_gamma   119.99999641
_symmetry_Int_Tables_number   1
_chemical_formula_structural   Gd3Al3SiPd2
_chemical_formula_sum   'Gd3 Al3 Si1 Pd2'
_cell_volume   182.52494871
_cell_formula_units_Z   1
loop_
 _symmetry_equiv_pos_site_id
 _symmetry_equiv_pos_as_xyz
  1  'x, y, z'
loop_
 _atom_site_type_symbol
 _atom_site_label
 _atom_site_symmetry_multiplicity
 _atom_site_fract_x
 _atom_site_fract_y
 _atom_site_fract_z
 _atom_site_occupancy
  Gd  Gd0  1  0.998833  0.581016  0.500000  1
  Gd  Gd1  1  0.418984  0.417817  0.500000  1
  Gd  Gd2  1  0.582183  0.001167  0.500000  1
  Al  Al3  1  0.765596  0.757717  0.000000  1
  Al  Al4  1  0.242283  0.007879  0.000000  1
  Al  Al5  1  0.992121  0.234404  0.000000  1
  Si  Si6  1  0.333333  0.666667  0.000000  1
  Pd  Pd7  1  0.666667  0.333333  0.000000  1
  Pd  Pd8  1  0.000000  0.000000  0.500000  1
