# generated using pymatgen
data_Nd2Si5Ir2Pt
_symmetry_space_group_name_H-M   'P 1'
_cell_length_a   8.25553764
_cell_length_b   8.24535727
_cell_length_c   8.24535641
_cell_angle_alpha   137.86015333
_cell_angle_beta   104.60249268
_cell_angle_gamma   90.34724040
_symmetry_Int_Tables_number   1
_chemical_formula_structural   Nd2Si5Ir2Pt
_chemical_formula_sum   'Nd4 Si10 Ir4 Pt2'
_cell_volume   347.93651418
_cell_formula_units_Z   2
loop_
 _symmetry_equiv_pos_site_id
 _symmetry_equiv_pos_as_xyz
  1  'x, y, z'
loop_
 _atom_site_type_symbol
 _atom_site_label
 _atom_site_symmetry_multiplicity
 _atom_site_fract_x
 _atom_site_fract_y
 _atom_site_fract_z
 _atom_site_occupancy
  Nd  Nd0  1  0.860484  0.628908  0.231577  1
  Nd  Nd1  1  0.139516  0.371092  0.768423  1
  Nd  Nd2  1  0.396290  0.130300  0.265991  1
  Nd  Nd3  1  0.603710  0.869700  0.734009  1
  Si  Si4  1  0.500000  0.759174  0.259174  1
  Si  Si5  1  0.500000  0.240826  0.740826  1
  Si  Si6  1  0.224791  0.974771  0.746307  1
  Si  Si7  1  0.775209  0.521516  0.749980  1
  Si  Si8  1  0.775209  0.025229  0.253693  1
  Si  Si9  1  0.224791  0.478484  0.250020  1
  Si  Si10  1  0.047563  0.892927  0.154636  1
  Si  Si11  1  0.952437  0.107073  0.845364  1
  Si  Si12  1  0.742265  0.392996  0.349269  1
  Si  Si13  1  0.257735  0.607004  0.650731  1
  Ir  Ir14  1  0.000000  0.752404  0.752404  1
  Ir  Ir15  1  0.000000  0.247596  0.247596  1
  Ir  Ir16  1  0.250007  0.861785  0.388223  1
  Ir  Ir17  1  0.749993  0.138215  0.611777  1
  Pt  Pt18  1  0.473807  0.362469  0.111338  1
  Pt  Pt19  1  0.526193  0.637531  0.888662  1
