# generated using pymatgen
data_CrTc(IrRu2)2
_symmetry_space_group_name_H-M   'P 1'
_cell_length_a   5.45955300
_cell_length_b   5.45293072
_cell_length_c   4.31238500
_cell_angle_alpha   90.00000000
_cell_angle_beta   90.00000000
_cell_angle_gamma   120.04018772
_symmetry_Int_Tables_number   1
_chemical_formula_structural   CrTc(IrRu2)2
_chemical_formula_sum   'Cr1 Tc1 Ir2 Ru4'
_cell_volume   111.13713860
_cell_formula_units_Z   1
loop_
 _symmetry_equiv_pos_site_id
 _symmetry_equiv_pos_as_xyz
  1  'x, y, z'
loop_
 _atom_site_type_symbol
 _atom_site_label
 _atom_site_symmetry_multiplicity
 _atom_site_fract_x
 _atom_site_fract_y
 _atom_site_fract_z
 _atom_site_occupancy
  Cr  Cr0  1  0.837217  0.674433  0.750000  1
  Tc  Tc1  1  0.164435  0.328869  0.250000  1
  Ir  Ir2  1  0.332868  0.665739  0.750000  1
  Ir  Ir3  1  0.669009  0.338017  0.250000  1
  Ru  Ru4  1  0.673346  0.833966  0.250000  1
  Ru  Ru5  1  0.160620  0.833966  0.250000  1
  Ru  Ru6  1  0.326400  0.162505  0.750000  1
  Ru  Ru7  1  0.836105  0.162505  0.750000  1
