# generated using pymatgen
data_Tb2GdY(NiPt)2
_symmetry_space_group_name_H-M   'P 1'
_cell_length_a   4.33195900
_cell_length_b   5.53694024
_cell_length_c   7.15260932
_cell_angle_alpha   90.03381125
_cell_angle_beta   90.00000000
_cell_angle_gamma   90.00000000
_symmetry_Int_Tables_number   1
_chemical_formula_structural   Tb2GdY(NiPt)2
_chemical_formula_sum   'Tb2 Gd1 Y1 Ni2 Pt2'
_cell_volume   171.56101303
_cell_formula_units_Z   1
loop_
 _symmetry_equiv_pos_site_id
 _symmetry_equiv_pos_as_xyz
  1  'x, y, z'
loop_
 _atom_site_type_symbol
 _atom_site_label
 _atom_site_symmetry_multiplicity
 _atom_site_fract_x
 _atom_site_fract_y
 _atom_site_fract_z
 _atom_site_occupancy
  Tb  Tb0  1  0.000000  0.118305  0.680510  1
  Tb  Tb1  1  0.000000  0.881133  0.178275  1
  Gd  Gd2  1  0.500000  0.384645  0.319469  1
  Y  Y3  1  0.500000  0.615791  0.818546  1
  Ni  Ni4  1  0.000000  0.611601  0.541573  1
  Ni  Ni5  1  0.000000  0.389008  0.040997  1
  Pt  Pt6  1  0.500000  0.884192  0.460428  1
  Pt  Pt7  1  0.500000  0.115325  0.960202  1
