# generated using pymatgen
data_SmDy3CS3
_symmetry_space_group_name_H-M   'P 1'
_cell_length_a   6.71319247
_cell_length_b   6.71319320
_cell_length_c   6.71664800
_cell_angle_alpha   79.89079075
_cell_angle_beta   79.89078963
_cell_angle_gamma   32.72722890
_symmetry_Int_Tables_number   1
_chemical_formula_structural   SmDy3CS3
_chemical_formula_sum   'Sm1 Dy3 C1 S3'
_cell_volume   160.88956709
_cell_formula_units_Z   1
loop_
 _symmetry_equiv_pos_site_id
 _symmetry_equiv_pos_as_xyz
  1  'x, y, z'
loop_
 _atom_site_type_symbol
 _atom_site_label
 _atom_site_symmetry_multiplicity
 _atom_site_fract_x
 _atom_site_fract_y
 _atom_site_fract_z
 _atom_site_occupancy
  Sm  Sm0  1  0.013867  0.013867  0.017223  1
  Dy  Dy1  1  0.235708  0.235708  0.231688  1
  Dy  Dy2  1  0.509636  0.509636  0.468543  1
  Dy  Dy3  1  0.740282  0.740282  0.781837  1
  C  C4  1  0.627767  0.627767  0.128122  1
  S  S5  1  0.867717  0.867717  0.383434  1
  S  S6  1  0.126568  0.126568  0.620699  1
  S  S7  1  0.378454  0.378454  0.868453  1
