# generated using pymatgen
data_Pr20Si15Au
_symmetry_space_group_name_H-M   'P 1'
_cell_length_a   7.95719758
_cell_length_b   7.94984047
_cell_length_c   15.34631079
_cell_angle_alpha   89.96963590
_cell_angle_beta   89.70725103
_cell_angle_gamma   90.02461926
_symmetry_Int_Tables_number   1
_chemical_formula_structural   Pr20Si15Au
_chemical_formula_sum   'Pr20 Si15 Au1'
_cell_volume   970.77095557
_cell_formula_units_Z   1
loop_
 _symmetry_equiv_pos_site_id
 _symmetry_equiv_pos_as_xyz
  1  'x, y, z'
loop_
 _atom_site_type_symbol
 _atom_site_label
 _atom_site_symmetry_multiplicity
 _atom_site_fract_x
 _atom_site_fract_y
 _atom_site_fract_z
 _atom_site_occupancy
  Pr  Pr0  1  0.307127  0.307343  0.999591  1
  Pr  Pr1  1  0.191571  0.808960  0.249867  1
  Pr  Pr2  1  0.806399  0.186917  0.751103  1
  Pr  Pr3  1  0.692737  0.688842  0.498957  1
  Pr  Pr4  1  0.375346  0.011090  0.447925  1
  Pr  Pr5  1  0.491873  0.871680  0.699364  1
  Pr  Pr6  1  0.510547  0.123456  0.198067  1
  Pr  Pr7  1  0.877194  0.489016  0.300960  1
  Pr  Pr8  1  0.121209  0.516623  0.802045  1
  Pr  Pr9  1  0.625498  0.988188  0.949614  1
  Pr  Pr10  1  0.003898  0.379776  0.549001  1
  Pr  Pr11  1  0.989172  0.625238  0.052032  1
  Pr  Pr12  1  0.131216  0.983926  0.877902  1
  Pr  Pr13  1  0.517384  0.629773  0.126318  1
  Pr  Pr14  1  0.482264  0.371242  0.626612  1
  Pr  Pr15  1  0.628236  0.518378  0.874901  1
  Pr  Pr16  1  0.372498  0.483005  0.373052  1
  Pr  Pr17  1  0.872173  0.019261  0.375645  1
  Pr  Pr18  1  0.982497  0.127114  0.124452  1
  Pr  Pr19  1  0.015065  0.867961  0.622231  1
  Si  Si20  1  0.333004  0.695971  0.951526  1
  Si  Si21  1  0.664265  0.303151  0.450860  1
  Si  Si22  1  0.697944  0.334627  0.049423  1
  Si  Si23  1  0.304978  0.668896  0.547681  1
  Si  Si24  1  0.804762  0.832335  0.202086  1
  Si  Si25  1  0.167887  0.197293  0.298937  1
  Si  Si26  1  0.834389  0.803268  0.798669  1
  Si  Si27  1  0.288165  0.921626  0.059940  1
  Si  Si28  1  0.578909  0.787543  0.309604  1
  Si  Si29  1  0.431983  0.209443  0.814054  1
  Si  Si30  1  0.786891  0.578746  0.690827  1
  Si  Si31  1  0.212076  0.422075  0.190597  1
  Si  Si32  1  0.708217  0.077120  0.558405  1
  Si  Si33  1  0.922000  0.289077  0.941375  1
  Si  Si34  1  0.079206  0.712741  0.440064  1
  Au  Au35  1  0.191421  0.168301  0.696313  1
