# generated using pymatgen
data_Y3Lu5(AgRh)2
_symmetry_space_group_name_H-M   'P 1'
_cell_length_a   9.41434483
_cell_length_b   9.41215469
_cell_length_c   9.41318606
_cell_angle_alpha   60.00917056
_cell_angle_beta   59.98757907
_cell_angle_gamma   59.99966797
_symmetry_Int_Tables_number   1
_chemical_formula_structural   Y3Lu5(AgRh)2
_chemical_formula_sum   'Y6 Lu10 Ag4 Rh4'
_cell_volume   589.77860488
_cell_formula_units_Z   2
loop_
 _symmetry_equiv_pos_site_id
 _symmetry_equiv_pos_as_xyz
  1  'x, y, z'
loop_
 _atom_site_type_symbol
 _atom_site_label
 _atom_site_symmetry_multiplicity
 _atom_site_fract_x
 _atom_site_fract_y
 _atom_site_fract_z
 _atom_site_occupancy
  Y  Y0  1  0.187126  0.812886  0.812874  1
  Y  Y1  1  0.812871  0.187151  0.187105  1
  Y  Y2  1  0.813111  0.186875  0.813144  1
  Y  Y3  1  0.186888  0.813108  0.186865  1
  Y  Y4  1  0.812978  0.812959  0.187014  1
  Y  Y5  1  0.187038  0.187016  0.812988  1
  Lu  Lu6  1  0.603281  0.603206  0.603318  1
  Lu  Lu7  1  0.603196  0.603266  0.190245  1
  Lu  Lu8  1  0.603319  0.190190  0.603286  1
  Lu  Lu9  1  0.190177  0.603329  0.603196  1
  Lu  Lu10  1  0.063371  0.436645  0.436600  1
  Lu  Lu11  1  0.436646  0.063383  0.063323  1
  Lu  Lu12  1  0.436238  0.063770  0.436252  1
  Lu  Lu13  1  0.063778  0.436273  0.063700  1
  Lu  Lu14  1  0.436446  0.436439  0.063537  1
  Lu  Lu15  1  0.063548  0.063548  0.436438  1
  Ag  Ag16  1  0.831469  0.831514  0.831463  1
  Ag  Ag17  1  0.831526  0.831466  0.505517  1
  Ag  Ag18  1  0.831485  0.505543  0.831458  1
  Ag  Ag19  1  0.505541  0.831476  0.831518  1
  Rh  Rh20  1  0.393919  0.393793  0.393921  1
  Rh  Rh21  1  0.393830  0.393934  0.818344  1
  Rh  Rh22  1  0.393884  0.818333  0.394016  1
  Rh  Rh23  1  0.818337  0.393897  0.393881  1
