# generated using pymatgen
data_Lu12Cd2Fe2Ru
_symmetry_space_group_name_H-M   'P 1'
_cell_length_a   8.17467011
_cell_length_b   8.17467059
_cell_length_c   8.17467001
_cell_angle_alpha   108.28870263
_cell_angle_beta   108.28869939
_cell_angle_gamma   111.86306078
_symmetry_Int_Tables_number   1
_chemical_formula_structural   Lu12Cd2Fe2Ru
_chemical_formula_sum   'Lu12 Cd2 Fe2 Ru1'
_cell_volume   419.96996250
_cell_formula_units_Z   1
loop_
 _symmetry_equiv_pos_site_id
 _symmetry_equiv_pos_as_xyz
  1  'x, y, z'
loop_
 _atom_site_type_symbol
 _atom_site_label
 _atom_site_symmetry_multiplicity
 _atom_site_fract_x
 _atom_site_fract_y
 _atom_site_fract_z
 _atom_site_occupancy
  Lu  Lu0  1  0.309187  0.309187  0.618374  1
  Lu  Lu1  1  0.690813  0.690813  0.381626  1
  Lu  Lu2  1  0.690813  0.309187  0.000000  1
  Lu  Lu3  1  0.309187  0.690813  0.000000  1
  Lu  Lu4  1  0.192055  0.430311  0.238256  1
  Lu  Lu5  1  0.807945  0.569689  0.761744  1
  Lu  Lu6  1  0.192055  0.953797  0.761744  1
  Lu  Lu7  1  0.953797  0.192055  0.761744  1
  Lu  Lu8  1  0.807945  0.046203  0.238256  1
  Lu  Lu9  1  0.046203  0.807945  0.238256  1
  Lu  Lu10  1  0.430311  0.192055  0.238256  1
  Lu  Lu11  1  0.569689  0.807945  0.761744  1
  Cd  Cd12  1  0.000000  0.500000  0.500000  1
  Cd  Cd13  1  0.500000  0.000000  0.500000  1
  Fe  Fe14  1  0.381810  0.381810  0.000000  1
  Fe  Fe15  1  0.618190  0.618190  0.000000  1
  Ru  Ru16  1  0.000000  0.000000  0.000000  1
