# generated using pymatgen
data_Dy8Ho4TlCuNi4
_symmetry_space_group_name_H-M   'P 1'
_cell_length_a   8.30910925
_cell_length_b   8.30429365
_cell_length_c   8.30910908
_cell_angle_alpha   112.19098041
_cell_angle_beta   109.41458579
_cell_angle_gamma   106.87537801
_symmetry_Int_Tables_number   1
_chemical_formula_structural   Dy8Ho4TlCuNi4
_chemical_formula_sum   'Dy8 Ho4 Tl1 Cu1 Ni4'
_cell_volume   440.27712853
_cell_formula_units_Z   1
loop_
 _symmetry_equiv_pos_site_id
 _symmetry_equiv_pos_as_xyz
  1  'x, y, z'
loop_
 _atom_site_type_symbol
 _atom_site_label
 _atom_site_symmetry_multiplicity
 _atom_site_fract_x
 _atom_site_fract_y
 _atom_site_fract_z
 _atom_site_occupancy
  Dy  Dy0  1  0.413469  0.219422  0.194118  1
  Dy  Dy1  1  0.586531  0.780578  0.805882  1
  Dy  Dy2  1  0.025303  0.219422  0.805953  1
  Dy  Dy3  1  0.974697  0.780578  0.194047  1
  Dy  Dy4  1  0.180598  0.293167  0.473830  1
  Dy  Dy5  1  0.819402  0.706833  0.526170  1
  Dy  Dy6  1  0.180663  0.706833  0.887431  1
  Dy  Dy7  1  0.819337  0.293167  0.112569  1
  Ho  Ho8  1  0.323806  0.631234  0.307428  1
  Ho  Ho9  1  0.676194  0.368766  0.692572  1
  Ho  Ho10  1  0.323677  0.016384  0.692708  1
  Ho  Ho11  1  0.676323  0.983616  0.307292  1
  Tl  Tl12  1  0.500000  0.500000  0.000000  1
  Cu  Cu13  1  0.000000  0.000000  0.000000  1
  Ni  Ni14  1  0.359770  0.000000  0.359770  1
  Ni  Ni15  1  0.640230  0.000000  0.640230  1
  Ni  Ni16  1  0.125515  0.625248  0.499733  1
  Ni  Ni17  1  0.874485  0.374752  0.500267  1
