# generated using pymatgen
data_Zr2ZnInCu4
_symmetry_space_group_name_H-M   'P 1'
_cell_length_a   4.48675301
_cell_length_b   6.33028600
_cell_length_c   13.45648102
_cell_angle_alpha   90.00004844
_cell_angle_beta   90.00653904
_cell_angle_gamma   90.00005269
_symmetry_Int_Tables_number   1
_chemical_formula_structural   Zr2ZnInCu4
_chemical_formula_sum   'Zr6 Zn3 In3 Cu12'
_cell_volume   382.19675440
_cell_formula_units_Z   3
loop_
 _symmetry_equiv_pos_site_id
 _symmetry_equiv_pos_as_xyz
  1  'x, y, z'
loop_
 _atom_site_type_symbol
 _atom_site_label
 _atom_site_symmetry_multiplicity
 _atom_site_fract_x
 _atom_site_fract_y
 _atom_site_fract_z
 _atom_site_occupancy
  Zr  Zr0  1  0.000030  0.500003  0.005536  1
  Zr  Zr1  1  0.500198  0.999998  0.166701  1
  Zr  Zr2  1  0.000170  0.499998  0.327736  1
  Zr  Zr3  1  0.499960  0.000002  0.494418  1
  Zr  Zr4  1  0.999799  0.500002  0.666758  1
  Zr  Zr5  1  0.499812  0.000001  0.838863  1
  Zn  Zn6  1  0.000046  0.000001  0.002390  1
  Zn  Zn7  1  0.500209  0.500001  0.166660  1
  Zn  Zn8  1  0.000189  0.000000  0.330945  1
  In  In9  1  0.499998  0.500000  0.497315  1
  In  In10  1  0.999659  0.000001  0.666741  1
  In  In11  1  0.499895  0.500000  0.835956  1
  Cu  Cu12  1  0.500042  0.247985  0.005658  1
  Cu  Cu13  1  0.500041  0.752015  0.005654  1
  Cu  Cu14  1  0.000218  0.243169  0.166540  1
  Cu  Cu15  1  0.000217  0.756824  0.166542  1
  Cu  Cu16  1  0.500201  0.247994  0.327682  1
  Cu  Cu17  1  0.500203  0.751997  0.327690  1
  Cu  Cu18  1  0.999989  0.242547  0.493392  1
  Cu  Cu19  1  0.999989  0.757458  0.493389  1
  Cu  Cu20  1  0.499734  0.249308  0.666531  1
  Cu  Cu21  1  0.499738  0.750695  0.666530  1
  Cu  Cu22  1  0.999831  0.242398  0.840188  1
  Cu  Cu23  1  0.999831  0.757606  0.840187  1
