# generated using pymatgen
data_LaYb11(LuSi2)8
_symmetry_space_group_name_H-M   'P 1'
_cell_length_a   7.32351883
_cell_length_b   7.78483791
_cell_length_c   14.94198220
_cell_angle_alpha   90.11451514
_cell_angle_beta   90.11642617
_cell_angle_gamma   89.98739360
_symmetry_Int_Tables_number   1
_chemical_formula_structural   LaYb11(LuSi2)8
_chemical_formula_sum   'La1 Yb11 Lu8 Si16'
_cell_volume   851.87489100
_cell_formula_units_Z   1
loop_
 _symmetry_equiv_pos_site_id
 _symmetry_equiv_pos_as_xyz
  1  'x, y, z'
loop_
 _atom_site_type_symbol
 _atom_site_label
 _atom_site_symmetry_multiplicity
 _atom_site_fract_x
 _atom_site_fract_y
 _atom_site_fract_z
 _atom_site_occupancy
  La  La0  1  0.975223  0.819191  0.403947  1
  Yb  Yb1  1  0.474912  0.682435  0.095298  1
  Yb  Yb2  1  0.524545  0.317021  0.596312  1
  Yb  Yb3  1  0.025341  0.182582  0.904200  1
  Yb  Yb4  1  0.025211  0.182399  0.596397  1
  Yb  Yb5  1  0.525312  0.317337  0.904218  1
  Yb  Yb6  1  0.474443  0.681859  0.404460  1
  Yb  Yb7  1  0.974905  0.817932  0.096071  1
  Yb  Yb8  1  0.351298  0.020318  0.750144  1
  Yb  Yb9  1  0.851234  0.479418  0.750234  1
  Yb  Yb10  1  0.150630  0.518484  0.248370  1
  Yb  Yb11  1  0.647506  0.981427  0.248454  1
  Lu  Lu12  1  0.315757  0.177055  0.120559  1
  Lu  Lu13  1  0.815362  0.322806  0.378696  1
  Lu  Lu14  1  0.184968  0.676616  0.878882  1
  Lu  Lu15  1  0.684371  0.823188  0.621823  1
  Lu  Lu16  1  0.315982  0.178500  0.378824  1
  Lu  Lu17  1  0.814558  0.323410  0.120788  1
  Lu  Lu18  1  0.185102  0.676306  0.622131  1
  Lu  Lu19  1  0.685097  0.823450  0.878823  1
  Si  Si20  1  0.854182  0.531654  0.537841  1
  Si  Si21  1  0.355215  0.965969  0.961813  1
  Si  Si22  1  0.644109  0.032948  0.462232  1
  Si  Si23  1  0.144602  0.466628  0.038379  1
  Si  Si24  1  0.144190  0.467334  0.462352  1
  Si  Si25  1  0.644907  0.033610  0.038259  1
  Si  Si26  1  0.352674  0.965376  0.537228  1
  Si  Si27  1  0.855031  0.533679  0.961949  1
  Si  Si28  1  0.977080  0.878557  0.750198  1
  Si  Si29  1  0.477239  0.621802  0.749857  1
  Si  Si30  1  0.524753  0.377651  0.250467  1
  Si  Si31  1  0.023777  0.120826  0.250369  1
  Si  Si32  1  0.248337  0.397136  0.750046  1
  Si  Si33  1  0.748356  0.102356  0.749867  1
  Si  Si34  1  0.251884  0.897884  0.249515  1
  Si  Si35  1  0.751908  0.604855  0.251000  1
