# generated using pymatgen
data_Y6Er10Cd4Os3Pd
_symmetry_space_group_name_H-M   'P 1'
_cell_length_a   9.61064329
_cell_length_b   9.69758821
_cell_length_c   9.69755354
_cell_angle_alpha   59.58808041
_cell_angle_beta   59.27247799
_cell_angle_gamma   59.27139733
_symmetry_Int_Tables_number   1
_chemical_formula_structural   Y6Er10Cd4Os3Pd
_chemical_formula_sum   'Y6 Er10 Cd4 Os3 Pd1'
_cell_volume   630.02177038
_cell_formula_units_Z   1
loop_
 _symmetry_equiv_pos_site_id
 _symmetry_equiv_pos_as_xyz
  1  'x, y, z'
loop_
 _atom_site_type_symbol
 _atom_site_label
 _atom_site_symmetry_multiplicity
 _atom_site_fract_x
 _atom_site_fract_y
 _atom_site_fract_z
 _atom_site_occupancy
  Y  Y0  1  0.940079  0.558017  0.558015  1
  Y  Y1  1  0.553990  0.940366  0.940351  1
  Y  Y2  1  0.552956  0.940356  0.566508  1
  Y  Y3  1  0.938100  0.558558  0.940674  1
  Y  Y4  1  0.552950  0.566501  0.940370  1
  Y  Y5  1  0.938101  0.940684  0.558545  1
  Er  Er6  1  0.347733  0.351191  0.351196  1
  Er  Er7  1  0.345556  0.351843  0.954899  1
  Er  Er8  1  0.345547  0.954903  0.351858  1
  Er  Er9  1  0.967100  0.344423  0.344408  1
  Er  Er10  1  0.815134  0.189310  0.189281  1
  Er  Er11  1  0.182743  0.811422  0.811446  1
  Er  Er12  1  0.186366  0.811855  0.189776  1
  Er  Er13  1  0.814803  0.189270  0.803558  1
  Er  Er14  1  0.186335  0.189765  0.811886  1
  Er  Er15  1  0.814789  0.803554  0.189253  1
  Cd  Cd16  1  0.579969  0.579426  0.579433  1
  Cd  Cd17  1  0.580499  0.579563  0.258932  1
  Cd  Cd18  1  0.580510  0.258929  0.579571  1
  Cd  Cd19  1  0.256645  0.581338  0.581325  1
  Os  Os20  1  0.146903  0.138148  0.138148  1
  Os  Os21  1  0.148186  0.140389  0.577948  1
  Os  Os22  1  0.148183  0.577957  0.140383  1
  Pd  Pd23  1  0.576822  0.142233  0.142235  1
