# generated using pymatgen
data_La4Sc(MoO4)3
_symmetry_space_group_name_H-M   'P 1'
_cell_length_a   5.73418812
_cell_length_b   5.91583900
_cell_length_c   8.20385506
_cell_angle_alpha   89.79836527
_cell_angle_beta   89.98396132
_cell_angle_gamma   89.98492947
_symmetry_Int_Tables_number   1
_chemical_formula_structural   La4Sc(MoO4)3
_chemical_formula_sum   'La4 Sc1 Mo3 O12'
_cell_volume   278.29380589
_cell_formula_units_Z   1
loop_
 _symmetry_equiv_pos_site_id
 _symmetry_equiv_pos_as_xyz
  1  'x, y, z'
loop_
 _atom_site_type_symbol
 _atom_site_label
 _atom_site_symmetry_multiplicity
 _atom_site_fract_x
 _atom_site_fract_y
 _atom_site_fract_z
 _atom_site_occupancy
  La  La0  1  0.984036  0.051649  0.751522  1
  La  La1  1  0.487094  0.448364  0.248170  1
  La  La2  1  0.512906  0.551636  0.751830  1
  La  La3  1  0.015964  0.948351  0.248478  1
  Sc  Sc4  1  0.000000  0.500000  0.000000  1
  Mo  Mo5  1  0.000000  0.500000  0.500000  1
  Mo  Mo6  1  0.500000  0.000000  0.500000  1
  Mo  Mo7  1  0.500000  0.000000  0.000000  1
  O  O8  1  0.696117  0.300452  0.561343  1
  O  O9  1  0.196605  0.199379  0.439316  1
  O  O10  1  0.801610  0.794284  0.943503  1
  O  O11  1  0.296166  0.699565  0.054685  1
  O  O12  1  0.303883  0.699548  0.438657  1
  O  O13  1  0.803395  0.800621  0.560684  1
  O  O14  1  0.198390  0.205716  0.056497  1
  O  O15  1  0.703834  0.300435  0.945315  1
  O  O16  1  0.893153  0.540419  0.247461  1
  O  O17  1  0.387359  0.956114  0.749827  1
  O  O18  1  0.612641  0.043886  0.250173  1
  O  O19  1  0.106847  0.459581  0.752539  1
