# generated using pymatgen
data_Hf16TiPt7
_symmetry_space_group_name_H-M   'P 1'
_cell_length_a   8.85411367
_cell_length_b   8.85411408
_cell_length_c   8.85411444
_cell_angle_alpha   59.80129633
_cell_angle_beta   59.80129991
_cell_angle_gamma   59.80130128
_symmetry_Int_Tables_number   1
_chemical_formula_structural   Hf16TiPt7
_chemical_formula_sum   'Hf16 Ti1 Pt7'
_cell_volume   488.60393578
_cell_formula_units_Z   1
loop_
 _symmetry_equiv_pos_site_id
 _symmetry_equiv_pos_as_xyz
  1  'x, y, z'
loop_
 _atom_site_type_symbol
 _atom_site_label
 _atom_site_symmetry_multiplicity
 _atom_site_fract_x
 _atom_site_fract_y
 _atom_site_fract_z
 _atom_site_occupancy
  Hf  Hf0  1  0.150088  0.614517  0.614517  1
  Hf  Hf1  1  0.614517  0.150088  0.614517  1
  Hf  Hf2  1  0.614517  0.614517  0.150088  1
  Hf  Hf3  1  0.625810  0.625810  0.625810  1
  Hf  Hf4  1  0.815273  0.815273  0.173016  1
  Hf  Hf5  1  0.182690  0.182690  0.816383  1
  Hf  Hf6  1  0.815273  0.173016  0.815273  1
  Hf  Hf7  1  0.182690  0.816383  0.182690  1
  Hf  Hf8  1  0.173016  0.815273  0.815273  1
  Hf  Hf9  1  0.816383  0.182690  0.182690  1
  Hf  Hf10  1  0.439596  0.439596  0.058458  1
  Hf  Hf11  1  0.055310  0.055310  0.450788  1
  Hf  Hf12  1  0.439596  0.058458  0.439596  1
  Hf  Hf13  1  0.055310  0.450788  0.055310  1
  Hf  Hf14  1  0.058458  0.439596  0.439596  1
  Hf  Hf15  1  0.450788  0.055310  0.055310  1
  Ti  Ti16  1  0.833322  0.833322  0.833322  1
  Pt  Pt17  1  0.798532  0.404539  0.404539  1
  Pt  Pt18  1  0.404539  0.798532  0.404539  1
  Pt  Pt19  1  0.404539  0.404539  0.798532  1
  Pt  Pt20  1  0.397637  0.397637  0.397637  1
  Pt  Pt21  1  0.473126  0.849492  0.849492  1
  Pt  Pt22  1  0.849492  0.473126  0.849492  1
  Pt  Pt23  1  0.849492  0.849492  0.473126  1
