# generated using pymatgen
data_GdWN2
_symmetry_space_group_name_H-M   'P 1'
_cell_length_a   3.24279100
_cell_length_b   5.76742700
_cell_length_c   10.61702900
_cell_angle_alpha   90.00000000
_cell_angle_beta   90.00000000
_cell_angle_gamma   90.00000000
_symmetry_Int_Tables_number   1
_chemical_formula_structural   GdWN2
_chemical_formula_sum   'Gd4 W4 N8'
_cell_volume   198.56562581
_cell_formula_units_Z   4
loop_
 _symmetry_equiv_pos_site_id
 _symmetry_equiv_pos_as_xyz
  1  'x, y, z'
loop_
 _atom_site_type_symbol
 _atom_site_label
 _atom_site_symmetry_multiplicity
 _atom_site_fract_x
 _atom_site_fract_y
 _atom_site_fract_z
 _atom_site_occupancy
  Gd  Gd0  1  0.250000  0.578397  0.855637  1
  Gd  Gd1  1  0.750000  0.421603  0.144363  1
  Gd  Gd2  1  0.750000  0.921603  0.355637  1
  Gd  Gd3  1  0.250000  0.078397  0.644363  1
  W  W4  1  0.250000  0.934482  0.095544  1
  W  W5  1  0.750000  0.065518  0.904456  1
  W  W6  1  0.750000  0.565518  0.595544  1
  W  W7  1  0.250000  0.434482  0.404456  1
  N  N8  1  0.250000  0.665253  0.249963  1
  N  N9  1  0.750000  0.334747  0.750037  1
  N  N10  1  0.750000  0.834747  0.749963  1
  N  N11  1  0.250000  0.165253  0.250037  1
  N  N12  1  0.250000  0.754983  0.508788  1
  N  N13  1  0.750000  0.245017  0.491212  1
  N  N14  1  0.750000  0.745017  0.008788  1
  N  N15  1  0.250000  0.254983  0.991212  1
