# generated using pymatgen
data_BaLiGdSe3
_symmetry_space_group_name_H-M   'P 1'
_cell_length_a   10.92659200
_cell_length_b   4.31285500
_cell_length_c   14.11609800
_cell_angle_alpha   90.00000000
_cell_angle_beta   90.00000000
_cell_angle_gamma   90.00000000
_symmetry_Int_Tables_number   1
_chemical_formula_structural   BaLiGdSe3
_chemical_formula_sum   'Ba4 Li4 Gd4 Se12'
_cell_volume   665.21839300
_cell_formula_units_Z   4
loop_
 _symmetry_equiv_pos_site_id
 _symmetry_equiv_pos_as_xyz
  1  'x, y, z'
loop_
 _atom_site_type_symbol
 _atom_site_label
 _atom_site_symmetry_multiplicity
 _atom_site_fract_x
 _atom_site_fract_y
 _atom_site_fract_z
 _atom_site_occupancy
  Ba  Ba0  1  0.267783  0.250000  0.998750  1
  Ba  Ba1  1  0.767782  0.250000  0.501250  1
  Ba  Ba2  1  0.232217  0.750000  0.498750  1
  Ba  Ba3  1  0.732218  0.750000  0.001250  1
  Li  Li4  1  0.261323  0.750000  0.223945  1
  Li  Li5  1  0.761323  0.750000  0.276055  1
  Li  Li6  1  0.238677  0.250000  0.723945  1
  Li  Li7  1  0.738677  0.250000  0.776054  1
  Gd  Gd8  1  0.012500  0.250000  0.243651  1
  Gd  Gd9  1  0.512501  0.250000  0.256349  1
  Gd  Gd10  1  0.487500  0.750000  0.743651  1
  Gd  Gd11  1  0.987500  0.750000  0.756349  1
  Se  Se12  1  0.077938  0.750000  0.114404  1
  Se  Se13  1  0.451504  0.750000  0.121750  1
  Se  Se14  1  0.759711  0.250000  0.179457  1
  Se  Se15  1  0.259711  0.250000  0.320543  1
  Se  Se16  1  0.951504  0.750000  0.378250  1
  Se  Se17  1  0.577938  0.750000  0.385597  1
  Se  Se18  1  0.422062  0.250000  0.614403  1
  Se  Se19  1  0.048496  0.250000  0.621749  1
  Se  Se20  1  0.740290  0.750000  0.679457  1
  Se  Se21  1  0.240289  0.750000  0.820543  1
  Se  Se22  1  0.548497  0.250000  0.878251  1
  Se  Se23  1  0.922062  0.250000  0.885597  1
