# generated using pymatgen
data_Dy2Er(TmSb4)5
_symmetry_space_group_name_H-M   'P 1'
_cell_length_a   4.20535900
_cell_length_b   13.16484857
_cell_length_c   14.57299014
_cell_angle_alpha   78.42140887
_cell_angle_beta   90.00000000
_cell_angle_gamma   90.00000000
_symmetry_Int_Tables_number   1
_chemical_formula_structural   Dy2Er(TmSb4)5
_chemical_formula_sum   'Dy2 Er1 Tm5 Sb20'
_cell_volume   790.38501500
_cell_formula_units_Z   1
loop_
 _symmetry_equiv_pos_site_id
 _symmetry_equiv_pos_as_xyz
  1  'x, y, z'
loop_
 _atom_site_type_symbol
 _atom_site_label
 _atom_site_symmetry_multiplicity
 _atom_site_fract_x
 _atom_site_fract_y
 _atom_site_fract_z
 _atom_site_occupancy
  Dy  Dy0  1  0.250000  0.953257  0.358851  1
  Dy  Dy1  1  0.750000  0.046292  0.641206  1
  Er  Er2  1  0.750000  0.331687  0.423871  1
  Tm  Tm3  1  0.250000  0.395540  0.771007  1
  Tm  Tm4  1  0.750000  0.604773  0.229250  1
  Tm  Tm5  1  0.250000  0.661445  0.856069  1
  Tm  Tm6  1  0.750000  0.338505  0.143581  1
  Tm  Tm7  1  0.250000  0.668667  0.576481  1
  Sb  Sb8  1  0.250000  0.144751  0.778737  1
  Sb  Sb9  1  0.750000  0.855139  0.221156  1
  Sb  Sb10  1  0.250000  0.144085  0.482362  1
  Sb  Sb11  1  0.750000  0.854607  0.517626  1
  Sb  Sb12  1  0.250000  0.153853  0.170200  1
  Sb  Sb13  1  0.750000  0.846118  0.829664  1
  Sb  Sb14  1  0.250000  0.420858  0.975404  1
  Sb  Sb15  1  0.750000  0.579249  0.024526  1
  Sb  Sb16  1  0.750000  0.028630  0.910041  1
  Sb  Sb17  1  0.250000  0.971281  0.090012  1
  Sb  Sb18  1  0.750000  0.140419  0.321701  1
  Sb  Sb19  1  0.250000  0.859158  0.678083  1
  Sb  Sb20  1  0.750000  0.279388  0.936806  1
  Sb  Sb21  1  0.250000  0.720573  0.063207  1
  Sb  Sb22  1  0.750000  0.286014  0.653417  1
  Sb  Sb23  1  0.250000  0.714239  0.346988  1
  Sb  Sb24  1  0.750000  0.576483  0.734533  1
  Sb  Sb25  1  0.250000  0.424265  0.264472  1
  Sb  Sb26  1  0.750000  0.572091  0.447306  1
  Sb  Sb27  1  0.250000  0.428628  0.553442  1
