# generated using pymatgen
data_Tb6Lu6Tl2CoTc2
_symmetry_space_group_name_H-M   'P 1'
_cell_length_a   8.36363802
_cell_length_b   8.34589375
_cell_length_c   8.36363880
_cell_angle_alpha   108.76775601
_cell_angle_beta   108.92513486
_cell_angle_gamma   110.81619998
_symmetry_Int_Tables_number   1
_chemical_formula_structural   Tb6Lu6Tl2CoTc2
_chemical_formula_sum   'Tb6 Lu6 Tl2 Co1 Tc2'
_cell_volume   448.74470080
_cell_formula_units_Z   1
loop_
 _symmetry_equiv_pos_site_id
 _symmetry_equiv_pos_as_xyz
  1  'x, y, z'
loop_
 _atom_site_type_symbol
 _atom_site_label
 _atom_site_symmetry_multiplicity
 _atom_site_fract_x
 _atom_site_fract_y
 _atom_site_fract_z
 _atom_site_occupancy
  Tb  Tb0  1  0.297797  0.299011  0.609027  1
  Tb  Tb1  1  0.694490  0.692081  0.390085  1
  Tb  Tb2  1  0.689985  0.299011  0.001215  1
  Tb  Tb3  1  0.301995  0.692081  0.997590  1
  Tb  Tb4  1  0.190423  0.431869  0.241446  1
  Tb  Tb5  1  0.805712  0.566918  0.761205  1
  Lu  Lu6  1  0.189019  0.949367  0.760350  1
  Lu  Lu7  1  0.950092  0.185202  0.761761  1
  Lu  Lu8  1  0.806861  0.044297  0.237434  1
  Lu  Lu9  1  0.045343  0.811541  0.236681  1
  Lu  Lu10  1  0.423440  0.185202  0.235109  1
  Lu  Lu11  1  0.574860  0.811541  0.766199  1
  Tl  Tl12  1  0.997843  0.497931  0.500087  1
  Tl  Tl13  1  0.499031  0.999812  0.500782  1
  Co  Co14  1  0.642260  0.645403  0.003143  1
  Tc  Tc15  1  0.390281  0.388106  0.997826  1
  Tc  Tc16  1  0.000565  0.000626  0.000060  1
