# generated using pymatgen
data_NdAl5Os
_symmetry_space_group_name_H-M   'P 1'
_cell_length_a   7.70476110
_cell_length_b   7.70476047
_cell_length_c   9.65700900
_cell_angle_alpha   90.00000000
_cell_angle_beta   90.00000000
_cell_angle_gamma   118.77077982
_symmetry_Int_Tables_number   1
_chemical_formula_structural   NdAl5Os
_chemical_formula_sum   'Nd4 Al20 Os4'
_cell_volume   502.50312393
_cell_formula_units_Z   4
loop_
 _symmetry_equiv_pos_site_id
 _symmetry_equiv_pos_as_xyz
  1  'x, y, z'
loop_
 _atom_site_type_symbol
 _atom_site_label
 _atom_site_symmetry_multiplicity
 _atom_site_fract_x
 _atom_site_fract_y
 _atom_site_fract_z
 _atom_site_occupancy
  Nd  Nd0  1  0.996910  0.688073  0.250000  1
  Nd  Nd1  1  0.003090  0.311927  0.750000  1
  Nd  Nd2  1  0.688073  0.996910  0.250000  1
  Nd  Nd3  1  0.311927  0.003090  0.750000  1
  Al  Al4  1  0.156072  0.156072  0.250000  1
  Al  Al5  1  0.843928  0.843928  0.750000  1
  Al  Al6  1  0.005660  0.355432  0.075702  1
  Al  Al7  1  0.994340  0.644568  0.924298  1
  Al  Al8  1  0.994340  0.644568  0.575702  1
  Al  Al9  1  0.355432  0.005660  0.424298  1
  Al  Al10  1  0.005660  0.355432  0.424298  1
  Al  Al11  1  0.644568  0.994340  0.575702  1
  Al  Al12  1  0.644568  0.994340  0.924298  1
  Al  Al13  1  0.355432  0.005660  0.075702  1
  Al  Al14  1  0.349611  0.349611  0.554388  1
  Al  Al15  1  0.650389  0.650389  0.445612  1
  Al  Al16  1  0.650389  0.650389  0.054388  1
  Al  Al17  1  0.349611  0.349611  0.945612  1
  Al  Al18  1  0.338848  0.558082  0.250000  1
  Al  Al19  1  0.661152  0.441918  0.750000  1
  Al  Al20  1  0.558082  0.338848  0.250000  1
  Al  Al21  1  0.441918  0.661152  0.750000  1
  Al  Al22  1  0.000000  0.000000  0.000000  1
  Al  Al23  1  0.000000  0.000000  0.500000  1
  Os  Os24  1  0.671646  0.328354  0.000000  1
  Os  Os25  1  0.328354  0.671646  0.000000  1
  Os  Os26  1  0.328354  0.671646  0.500000  1
  Os  Os27  1  0.671646  0.328354  0.500000  1
