# generated using pymatgen
data_Hf3Zr6Sc(Co2Si5)4
_symmetry_space_group_name_H-M   'P 1'
_cell_length_a   11.96145091
_cell_length_b   11.96351791
_cell_length_c   3.91695200
_cell_angle_alpha   90.00000000
_cell_angle_beta   90.00000000
_cell_angle_gamma   90.06475570
_symmetry_Int_Tables_number   1
_chemical_formula_structural   Hf3Zr6Sc(Co2Si5)4
_chemical_formula_sum   'Hf3 Zr6 Sc1 Co8 Si20'
_cell_volume   560.51951626
_cell_formula_units_Z   1
loop_
 _symmetry_equiv_pos_site_id
 _symmetry_equiv_pos_as_xyz
  1  'x, y, z'
loop_
 _atom_site_type_symbol
 _atom_site_label
 _atom_site_symmetry_multiplicity
 _atom_site_fract_x
 _atom_site_fract_y
 _atom_site_fract_z
 _atom_site_occupancy
  Hf  Hf0  1  0.678108  0.179118  0.500000  1
  Hf  Hf1  1  0.179137  0.321963  0.500000  1
  Hf  Hf2  1  0.820911  0.678070  0.500000  1
  Zr  Zr3  1  0.999692  0.000147  0.000000  1
  Zr  Zr4  1  0.321382  0.820434  0.500000  1
  Zr  Zr5  1  0.887071  0.387141  0.500000  1
  Zr  Zr6  1  0.387097  0.113343  0.500000  1
  Zr  Zr7  1  0.613234  0.886885  0.500000  1
  Zr  Zr8  1  0.112055  0.612020  0.500000  1
  Sc  Sc9  1  0.500076  0.499598  0.000000  1
  Co  Co10  1  0.528272  0.255342  0.000000  1
  Co  Co11  1  0.255397  0.471408  0.000000  1
  Co  Co12  1  0.744758  0.528104  0.000000  1
  Co  Co13  1  0.473132  0.744148  0.000000  1
  Co  Co14  1  0.971223  0.755287  0.000000  1
  Co  Co15  1  0.028310  0.244864  0.000000  1
  Co  Co16  1  0.755174  0.028474  0.000000  1
  Co  Co17  1  0.244312  0.973005  0.000000  1
  Si  Si18  1  0.568543  0.068737  0.000000  1
  Si  Si19  1  0.068629  0.431653  0.000000  1
  Si  Si20  1  0.931346  0.568364  0.000000  1
  Si  Si21  1  0.431790  0.931577  0.000000  1
  Si  Si22  1  0.200330  0.154411  0.000000  1
  Si  Si23  1  0.153353  0.799859  0.000000  1
  Si  Si24  1  0.845952  0.200465  0.000000  1
  Si  Si25  1  0.799560  0.846151  0.000000  1
  Si  Si26  1  0.301168  0.652084  0.000000  1
  Si  Si27  1  0.699110  0.347281  0.000000  1
  Si  Si28  1  0.653112  0.698819  0.000000  1
  Si  Si29  1  0.347423  0.301013  0.000000  1
  Si  Si30  1  0.000683  0.165555  0.500000  1
  Si  Si31  1  0.165251  0.999896  0.500000  1
  Si  Si32  1  0.834360  0.000617  0.500000  1
  Si  Si33  1  0.999455  0.834521  0.500000  1
  Si  Si34  1  0.498216  0.661980  0.500000  1
  Si  Si35  1  0.502306  0.337552  0.500000  1
  Si  Si36  1  0.662364  0.502269  0.500000  1
  Si  Si37  1  0.337709  0.497843  0.500000  1
