# generated using pymatgen
data_Sm2Y18Si15Pd
_symmetry_space_group_name_H-M   'P 1'
_cell_length_a   7.42861974
_cell_length_b   7.76515025
_cell_length_c   14.69678669
_cell_angle_alpha   89.89869158
_cell_angle_beta   90.00552350
_cell_angle_gamma   89.83641872
_symmetry_Int_Tables_number   1
_chemical_formula_structural   Sm2Y18Si15Pd
_chemical_formula_sum   'Sm2 Y18 Si15 Pd1'
_cell_volume   847.76977861
_cell_formula_units_Z   1
loop_
 _symmetry_equiv_pos_site_id
 _symmetry_equiv_pos_as_xyz
  1  'x, y, z'
loop_
 _atom_site_type_symbol
 _atom_site_label
 _atom_site_symmetry_multiplicity
 _atom_site_fract_x
 _atom_site_fract_y
 _atom_site_fract_z
 _atom_site_occupancy
  Sm  Sm0  1  0.524230  0.568512  0.344053  1
  Sm  Sm1  1  0.024792  0.431718  0.655180  1
  Y  Y2  1  0.812405  0.575114  0.874107  1
  Y  Y3  1  0.315987  0.424015  0.126636  1
  Y  Y4  1  0.182449  0.927838  0.373237  1
  Y  Y5  1  0.682553  0.070482  0.626808  1
  Y  Y6  1  0.182516  0.928358  0.627868  1
  Y  Y7  1  0.682590  0.070525  0.372008  1
  Y  Y8  1  0.814930  0.572190  0.127132  1
  Y  Y9  1  0.317445  0.426846  0.872274  1
  Y  Y10  1  0.644271  0.231572  0.999592  1
  Y  Y11  1  0.155005  0.759424  0.000604  1
  Y  Y12  1  0.351399  0.264075  0.499848  1
  Y  Y13  1  0.850828  0.734946  0.500051  1
  Y  Y14  1  0.474401  0.933951  0.844363  1
  Y  Y15  1  0.973294  0.066877  0.153380  1
  Y  Y16  1  0.473535  0.933869  0.155094  1
  Y  Y17  1  0.972407  0.067485  0.847312  1
  Y  Y18  1  0.527752  0.566294  0.652837  1
  Y  Y19  1  0.028139  0.434112  0.347388  1
  Si  Si20  1  0.018969  0.351690  0.999776  1
  Si  Si21  1  0.477187  0.855765  0.500365  1
  Si  Si22  1  0.977949  0.143699  0.499692  1
  Si  Si23  1  0.649811  0.277905  0.789913  1
  Si  Si24  1  0.152009  0.721151  0.209907  1
  Si  Si25  1  0.352521  0.219465  0.289493  1
  Si  Si26  1  0.852383  0.780294  0.711335  1
  Si  Si27  1  0.357334  0.221556  0.709418  1
  Si  Si28  1  0.856791  0.778296  0.289778  1
  Si  Si29  1  0.645631  0.273372  0.207772  1
  Si  Si30  1  0.147348  0.724927  0.792074  1
  Si  Si31  1  0.773016  0.880629  0.000822  1
  Si  Si32  1  0.259524  0.124547  0.999419  1
  Si  Si33  1  0.234833  0.625425  0.501091  1
  Si  Si34  1  0.733967  0.375120  0.498944  1
  Pd  Pd35  1  0.519797  0.657954  0.000431  1
