# generated using pymatgen
data_Ni(IrCl4)3
_symmetry_space_group_name_H-M   'P 1'
_cell_length_a   11.67245816
_cell_length_b   11.13932554
_cell_length_c   6.21878115
_cell_angle_alpha   78.96810552
_cell_angle_beta   69.50298955
_cell_angle_gamma   31.31709931
_symmetry_Int_Tables_number   1
_chemical_formula_structural   Ni(IrCl4)3
_chemical_formula_sum   'Ni1 Ir3 Cl12'
_cell_volume   383.90578113
_cell_formula_units_Z   1
loop_
 _symmetry_equiv_pos_site_id
 _symmetry_equiv_pos_as_xyz
  1  'x, y, z'
loop_
 _atom_site_type_symbol
 _atom_site_label
 _atom_site_symmetry_multiplicity
 _atom_site_fract_x
 _atom_site_fract_y
 _atom_site_fract_z
 _atom_site_occupancy
  Ni  Ni0  1  0.416648  0.416648  0.583352  1
  Ir  Ir1  1  0.834362  0.834362  0.665638  1
  Ir  Ir2  1  0.666316  0.666316  0.833684  1
  Ir  Ir3  1  0.582981  0.582981  0.417019  1
  Cl  Cl4  1  0.717193  0.284693  0.280092  1
  Cl  Cl5  1  0.879892  0.443340  0.089855  1
  Cl  Cl6  1  0.369128  0.806405  0.160150  1
  Cl  Cl7  1  0.443340  0.879892  0.586912  1
  Cl  Cl8  1  0.158409  0.663830  0.369136  1
  Cl  Cl9  1  0.284693  0.717193  0.718021  1
  Cl  Cl10  1  0.531800  0.968519  0.966958  1
  Cl  Cl11  1  0.968519  0.531800  0.532723  1
  Cl  Cl12  1  0.083834  0.592648  0.880787  1
  Cl  Cl13  1  0.806405  0.369128  0.664317  1
  Cl  Cl14  1  0.663830  0.158409  0.808626  1
  Cl  Cl15  1  0.592648  0.083834  0.442730  1
