# generated using pymatgen
data_Nd4DyTc6P12Ir13
_symmetry_space_group_name_H-M   'P 1'
_cell_length_a   12.74185500
_cell_length_b   12.74185551
_cell_length_c   4.02415100
_cell_angle_alpha   90.00000000
_cell_angle_beta   90.00000000
_cell_angle_gamma   119.99999608
_symmetry_Int_Tables_number   1
_chemical_formula_structural   Nd4DyTc6P12Ir13
_chemical_formula_sum   'Nd4 Dy1 Tc6 P12 Ir13'
_cell_volume   565.80952213
_cell_formula_units_Z   1
loop_
 _symmetry_equiv_pos_site_id
 _symmetry_equiv_pos_as_xyz
  1  'x, y, z'
loop_
 _atom_site_type_symbol
 _atom_site_label
 _atom_site_symmetry_multiplicity
 _atom_site_fract_x
 _atom_site_fract_y
 _atom_site_fract_z
 _atom_site_occupancy
  Nd  Nd0  1  0.333333  0.666667  0.500000  1
  Nd  Nd1  1  0.000837  0.812130  0.000000  1
  Nd  Nd2  1  0.187870  0.188707  0.000000  1
  Nd  Nd3  1  0.811293  0.999163  0.000000  1
  Dy  Dy4  1  0.666667  0.333333  0.500000  1
  Tc  Tc5  1  0.989928  0.445980  0.500000  1
  Tc  Tc6  1  0.554020  0.543948  0.500000  1
  Tc  Tc7  1  0.456052  0.010072  0.500000  1
  Tc  Tc8  1  0.619620  0.797415  0.500000  1
  Tc  Tc9  1  0.202585  0.822205  0.500000  1
  Tc  Tc10  1  0.177795  0.380380  0.500000  1
  P  P11  1  0.007589  0.636446  0.500000  1
  P  P12  1  0.363554  0.371144  0.500000  1
  P  P13  1  0.628856  0.992411  0.500000  1
  P  P14  1  0.522688  0.694481  0.000000  1
  P  P15  1  0.305519  0.828207  0.000000  1
  P  P16  1  0.171793  0.477312  0.000000  1
  P  P17  1  0.482915  0.169360  0.000000  1
  P  P18  1  0.686445  0.517085  0.000000  1
  P  P19  1  0.830640  0.313555  0.000000  1
  P  P20  1  0.002462  0.184168  0.500000  1
  P  P21  1  0.815832  0.818294  0.500000  1
  P  P22  1  0.181706  0.997538  0.500000  1
  Ir  Ir23  1  0.508656  0.877605  0.000000  1
  Ir  Ir24  1  0.122395  0.631052  0.000000  1
  Ir  Ir25  1  0.368948  0.491344  0.000000  1
  Ir  Ir26  1  0.495176  0.358676  0.000000  1
  Ir  Ir27  1  0.863501  0.504824  0.000000  1
  Ir  Ir28  1  0.641324  0.136499  0.000000  1
  Ir  Ir29  1  0.994645  0.283796  0.000000  1
  Ir  Ir30  1  0.716204  0.710850  0.000000  1
  Ir  Ir31  1  0.289150  0.005355  0.000000  1
  Ir  Ir32  1  0.377732  0.185751  0.500000  1
  Ir  Ir33  1  0.808020  0.622268  0.500000  1
  Ir  Ir34  1  0.814249  0.191980  0.500000  1
  Ir  Ir35  1  0.000000  0.000000  0.500000  1
