# generated using pymatgen
data_LiMn3Zn2(B2Rh5)2
_symmetry_space_group_name_H-M   'P 1'
_cell_length_a   9.35571871
_cell_length_b   9.35571871
_cell_length_c   2.90896900
_cell_angle_alpha   90.00000000
_cell_angle_beta   90.00000000
_cell_angle_gamma   90.15636172
_symmetry_Int_Tables_number   1
_chemical_formula_structural   LiMn3Zn2(B2Rh5)2
_chemical_formula_sum   'Li1 Mn3 Zn2 B4 Rh10'
_cell_volume   254.61957415
_cell_formula_units_Z   1
loop_
 _symmetry_equiv_pos_site_id
 _symmetry_equiv_pos_as_xyz
  1  'x, y, z'
loop_
 _atom_site_type_symbol
 _atom_site_label
 _atom_site_symmetry_multiplicity
 _atom_site_fract_x
 _atom_site_fract_y
 _atom_site_fract_z
 _atom_site_occupancy
  Li  Li0  1  0.823584  0.323584  0.000000  1
  Mn  Mn1  1  0.323666  0.177571  0.000000  1
  Mn  Mn2  1  0.677571  0.823666  0.000000  1
  Mn  Mn3  1  0.176964  0.676964  0.000000  1
  Zn  Zn4  1  0.998819  0.001519  0.000000  1
  Zn  Zn5  1  0.501519  0.498819  0.000000  1
  B  B6  1  0.631105  0.131105  0.000000  1
  B  B7  1  0.125058  0.372505  0.000000  1
  B  B8  1  0.872505  0.625058  0.000000  1
  B  B9  1  0.372701  0.872701  0.000000  1
  Rh  Rh10  1  0.077571  0.214161  0.500000  1
  Rh  Rh11  1  0.214902  0.928126  0.500000  1
  Rh  Rh12  1  0.781436  0.064501  0.500000  1
  Rh  Rh13  1  0.931537  0.783658  0.500000  1
  Rh  Rh14  1  0.428126  0.714902  0.500000  1
  Rh  Rh15  1  0.564501  0.281436  0.500000  1
  Rh  Rh16  1  0.714161  0.577571  0.500000  1
  Rh  Rh17  1  0.283658  0.431537  0.500000  1
  Rh  Rh18  1  0.499045  0.999045  0.500000  1
  Rh  Rh19  1  0.001573  0.501573  0.500000  1
