# generated using pymatgen
data_Ti24P5Se3
_symmetry_space_group_name_H-M   'P 1'
_cell_length_a   10.01330586
_cell_length_b   10.03048772
_cell_length_c   5.02320880
_cell_angle_alpha   89.91556158
_cell_angle_beta   89.95245537
_cell_angle_gamma   90.00112601
_symmetry_Int_Tables_number   1
_chemical_formula_structural   Ti24P5Se3
_chemical_formula_sum   'Ti24 P5 Se3'
_cell_volume   504.52203893
_cell_formula_units_Z   1
loop_
 _symmetry_equiv_pos_site_id
 _symmetry_equiv_pos_as_xyz
  1  'x, y, z'
loop_
 _atom_site_type_symbol
 _atom_site_label
 _atom_site_symmetry_multiplicity
 _atom_site_fract_x
 _atom_site_fract_y
 _atom_site_fract_z
 _atom_site_occupancy
  Ti  Ti0  1  0.970867  0.854591  0.284024  1
  Ti  Ti1  1  0.358643  0.533231  0.782120  1
  Ti  Ti2  1  0.643569  0.476215  0.783493  1
  Ti  Ti3  1  0.028884  0.144724  0.283849  1
  Ti  Ti4  1  0.528505  0.639146  0.219637  1
  Ti  Ti5  1  0.136047  0.972377  0.717484  1
  Ti  Ti6  1  0.863701  0.027877  0.718276  1
  Ti  Ti7  1  0.472404  0.364496  0.216905  1
  Ti  Ti8  1  0.820001  0.287856  0.008662  1
  Ti  Ti9  1  0.784033  0.679846  0.511983  1
  Ti  Ti10  1  0.212824  0.320804  0.509287  1
  Ti  Ti11  1  0.179524  0.712476  0.008736  1
  Ti  Ti12  1  0.683156  0.219387  0.488548  1
  Ti  Ti13  1  0.715490  0.815278  0.984056  1
  Ti  Ti14  1  0.280771  0.183117  0.988850  1
  Ti  Ti15  1  0.321070  0.779719  0.492806  1
  Ti  Ti16  1  0.915749  0.394084  0.536975  1
  Ti  Ti17  1  0.893400  0.584033  0.037236  1
  Ti  Ti18  1  0.106332  0.416192  0.037562  1
  Ti  Ti19  1  0.083884  0.605919  0.537280  1
  Ti  Ti20  1  0.582134  0.103384  0.961480  1
  Ti  Ti21  1  0.601876  0.913238  0.470184  1
  Ti  Ti22  1  0.396407  0.082291  0.463697  1
  Ti  Ti23  1  0.420203  0.892176  0.954957  1
  P  P24  1  0.541224  0.705008  0.713344  1
  P  P25  1  0.040064  0.208075  0.787478  1
  P  P26  1  0.707366  0.460199  0.287228  1
  P  P27  1  0.292562  0.540784  0.286950  1
  P  P28  1  0.959147  0.791785  0.786907  1
  Se  Se29  1  0.460009  0.295109  0.712831  1
  Se  Se30  1  0.792523  0.038564  0.214227  1
  Se  Se31  1  0.207633  0.958019  0.212949  1
