# generated using pymatgen
data_PrCdHg2Ru2(PtO7)2
_symmetry_space_group_name_H-M   'P 1'
_cell_length_a   7.34930568
_cell_length_b   7.34930686
_cell_length_c   7.39843400
_cell_angle_alpha   59.30768442
_cell_angle_beta   59.30767895
_cell_angle_gamma   59.25543499
_symmetry_Int_Tables_number   1
_chemical_formula_structural   PrCdHg2Ru2(PtO7)2
_chemical_formula_sum   'Pr1 Cd1 Hg2 Ru2 Pt2 O14'
_cell_volume   277.99757294
_cell_formula_units_Z   1
loop_
 _symmetry_equiv_pos_site_id
 _symmetry_equiv_pos_as_xyz
  1  'x, y, z'
loop_
 _atom_site_type_symbol
 _atom_site_label
 _atom_site_symmetry_multiplicity
 _atom_site_fract_x
 _atom_site_fract_y
 _atom_site_fract_z
 _atom_site_occupancy
  Pr  Pr0  1  0.125000  0.125000  0.125000  1
  Cd  Cd1  1  0.125000  0.125000  0.625000  1
  Hg  Hg2  1  0.125000  0.625000  0.125000  1
  Hg  Hg3  1  0.625000  0.125000  0.125000  1
  Ru  Ru4  1  0.625000  0.625000  0.125000  1
  Ru  Ru5  1  0.625000  0.625000  0.625000  1
  Pt  Pt6  1  0.625000  0.125000  0.625000  1
  Pt  Pt7  1  0.125000  0.625000  0.625000  1
  O  O8  1  0.678038  0.678038  0.321302  1
  O  O9  1  0.946063  0.555460  0.546513  1
  O  O10  1  0.547474  0.949242  0.954553  1
  O  O11  1  0.964489  0.964489  0.539440  1
  O  O12  1  0.949242  0.547474  0.954553  1
  O  O13  1  0.555460  0.946063  0.546513  1
  O  O14  1  0.300758  0.702526  0.295447  1
  O  O15  1  0.303937  0.694540  0.703487  1
  O  O16  1  0.702526  0.300758  0.295447  1
  O  O17  1  0.694540  0.303937  0.703487  1
  O  O18  1  0.571962  0.571962  0.928698  1
  O  O19  1  0.285511  0.285511  0.710560  1
  O  O20  1  0.262034  0.262034  0.247696  1
  O  O21  1  0.987966  0.987966  0.002304  1
