# generated using pymatgen
data_Pr2Er5Tm(WO6)4
_symmetry_space_group_name_H-M   'P 1'
_cell_length_a   5.42992506
_cell_length_b   7.74742612
_cell_length_c   11.50649460
_cell_angle_alpha   75.43278615
_cell_angle_beta   89.99399720
_cell_angle_gamma   89.96464958
_symmetry_Int_Tables_number   1
_chemical_formula_structural   Pr2Er5Tm(WO6)4
_chemical_formula_sum   'Pr2 Er5 Tm1 W4 O24'
_cell_volume   468.49369219
_cell_formula_units_Z   1
loop_
 _symmetry_equiv_pos_site_id
 _symmetry_equiv_pos_as_xyz
  1  'x, y, z'
loop_
 _atom_site_type_symbol
 _atom_site_label
 _atom_site_symmetry_multiplicity
 _atom_site_fract_x
 _atom_site_fract_y
 _atom_site_fract_z
 _atom_site_occupancy
  Pr  Pr0  1  0.685560  0.500121  0.749692  1
  Pr  Pr1  1  0.314227  0.500240  0.250123  1
  Er  Er2  1  0.743059  0.999782  0.749470  1
  Er  Er3  1  0.256899  0.999936  0.250426  1
  Er  Er4  1  0.815473  0.797140  0.076879  1
  Er  Er5  1  0.184221  0.202905  0.923140  1
  Er  Er6  1  0.816228  0.202888  0.423189  1
  Tm  Tm7  1  0.183856  0.796452  0.577194  1
  W  W8  1  0.254299  0.729106  0.883535  1
  W  W9  1  0.745223  0.729070  0.384338  1
  W  W10  1  0.254701  0.271078  0.616110  1
  W  W11  1  0.745395  0.271044  0.116116  1
  O  O12  1  0.042893  0.942306  0.895867  1
  O  O13  1  0.538270  0.844292  0.929676  1
  O  O14  1  0.957060  0.942008  0.396630  1
  O  O15  1  0.453978  0.797678  0.724968  1
  O  O16  1  0.460969  0.843941  0.431235  1
  O  O17  1  0.985812  0.721928  0.768186  1
  O  O18  1  0.544903  0.797799  0.226150  1
  O  O19  1  0.855936  0.641977  0.545971  1
  O  O20  1  0.345402  0.492776  0.886961  1
  O  O21  1  0.013962  0.721790  0.269063  1
  O  O22  1  0.344424  0.507749  0.612901  1
  O  O23  1  0.854470  0.358502  0.954258  1
  O  O24  1  0.145320  0.641860  0.045487  1
  O  O25  1  0.654367  0.492941  0.387568  1
  O  O26  1  0.985243  0.277859  0.730797  1
  O  O27  1  0.654225  0.507341  0.112955  1
  O  O28  1  0.145562  0.358325  0.454275  1
  O  O29  1  0.454926  0.202584  0.774164  1
  O  O30  1  0.014498  0.278332  0.231063  1
  O  O31  1  0.539185  0.156172  0.569782  1
  O  O32  1  0.545205  0.202434  0.274296  1
  O  O33  1  0.045066  0.056754  0.603783  1
  O  O34  1  0.462137  0.155205  0.069793  1
  O  O35  1  0.957051  0.057686  0.103958  1
