# generated using pymatgen
data_Er5P12Ru16Pt3
_symmetry_space_group_name_H-M   'P 1'
_cell_length_a   12.56712800
_cell_length_b   12.56712928
_cell_length_c   3.97520700
_cell_angle_alpha   90.00000000
_cell_angle_beta   90.00000000
_cell_angle_gamma   120.00000190
_symmetry_Int_Tables_number   1
_chemical_formula_structural   Er5P12Ru16Pt3
_chemical_formula_sum   'Er5 P12 Ru16 Pt3'
_cell_volume   543.70395622
_cell_formula_units_Z   1
loop_
 _symmetry_equiv_pos_site_id
 _symmetry_equiv_pos_as_xyz
  1  'x, y, z'
loop_
 _atom_site_type_symbol
 _atom_site_label
 _atom_site_symmetry_multiplicity
 _atom_site_fract_x
 _atom_site_fract_y
 _atom_site_fract_z
 _atom_site_occupancy
  Er  Er0  1  0.181967  0.181967  0.500000  1
  Er  Er1  1  0.818033  0.000000  0.500000  1
  Er  Er2  1  0.000000  0.818033  0.500000  1
  Er  Er3  1  0.333333  0.666667  0.000000  1
  Er  Er4  1  0.666667  0.333333  0.000000  1
  P  P5  1  0.815926  0.815926  0.000000  1
  P  P6  1  0.184074  0.000000  0.000000  1
  P  P7  1  0.000000  0.184074  0.000000  1
  P  P8  1  0.180118  0.480609  0.500000  1
  P  P9  1  0.519391  0.699510  0.500000  1
  P  P10  1  0.300490  0.819882  0.500000  1
  P  P11  1  0.699510  0.519391  0.500000  1
  P  P12  1  0.819882  0.300490  0.500000  1
  P  P13  1  0.480609  0.180118  0.500000  1
  P  P14  1  0.364702  0.364702  0.000000  1
  P  P15  1  0.635298  0.000000  0.000000  1
  P  P16  1  0.000000  0.635298  0.000000  1
  Ru  Ru17  1  0.712058  0.712058  0.500000  1
  Ru  Ru18  1  0.287942  0.000000  0.500000  1
  Ru  Ru19  1  0.000000  0.287942  0.500000  1
  Ru  Ru20  1  0.184761  0.377911  0.000000  1
  Ru  Ru21  1  0.622089  0.806850  0.000000  1
  Ru  Ru22  1  0.193150  0.815239  0.000000  1
  Ru  Ru23  1  0.806850  0.622089  0.000000  1
  Ru  Ru24  1  0.815239  0.193150  0.000000  1
  Ru  Ru25  1  0.377911  0.184761  0.000000  1
  Ru  Ru26  1  0.369190  0.494285  0.500000  1
  Ru  Ru27  1  0.505715  0.874904  0.500000  1
  Ru  Ru28  1  0.125096  0.630810  0.500000  1
  Ru  Ru29  1  0.874904  0.505715  0.500000  1
  Ru  Ru30  1  0.630810  0.125096  0.500000  1
  Ru  Ru31  1  0.494285  0.369190  0.500000  1
  Ru  Ru32  1  0.000000  0.000000  0.000000  1
  Pt  Pt33  1  0.551725  0.551725  0.000000  1
  Pt  Pt34  1  0.448275  0.000000  0.000000  1
  Pt  Pt35  1  0.000000  0.448275  0.000000  1
