# generated using pymatgen
data_Cs2Ce(WO4)3
_symmetry_space_group_name_H-M   'P 1'
_cell_length_a   7.49050689
_cell_length_b   7.49050709
_cell_length_c   7.75870334
_cell_angle_alpha   61.18437094
_cell_angle_beta   61.18436955
_cell_angle_gamma   59.98715071
_symmetry_Int_Tables_number   1
_chemical_formula_structural   Cs2Ce(WO4)3
_chemical_formula_sum   'Cs2 Ce1 W3 O12'
_cell_volume   313.18424646
_cell_formula_units_Z   1
loop_
 _symmetry_equiv_pos_site_id
 _symmetry_equiv_pos_as_xyz
  1  'x, y, z'
loop_
 _atom_site_type_symbol
 _atom_site_label
 _atom_site_symmetry_multiplicity
 _atom_site_fract_x
 _atom_site_fract_y
 _atom_site_fract_z
 _atom_site_occupancy
  Cs  Cs0  1  0.889508  0.855358  0.874785  1
  Cs  Cs1  1  0.144642  0.110492  0.125215  1
  Ce  Ce2  1  0.502775  0.497225  0.000000  1
  W  W3  1  0.504712  0.994882  0.499137  1
  W  W4  1  0.005118  0.495288  0.500863  1
  W  W5  1  0.503745  0.496255  0.500000  1
  O  O6  1  0.198404  0.195141  0.541402  1
  O  O7  1  0.569308  0.571615  0.207344  1
  O  O8  1  0.568942  0.150599  0.207450  1
  O  O9  1  0.198563  0.564638  0.540008  1
  O  O10  1  0.153759  0.568555  0.207601  1
  O  O11  1  0.566915  0.195844  0.539739  1
  O  O12  1  0.804859  0.801596  0.458598  1
  O  O13  1  0.428385  0.430692  0.792656  1
  O  O14  1  0.431445  0.846241  0.792399  1
  O  O15  1  0.804156  0.433085  0.460261  1
  O  O16  1  0.849401  0.431058  0.792550  1
  O  O17  1  0.435362  0.801437  0.459992  1
