# generated using pymatgen
data_Tb2DyEr3Ru2
_symmetry_space_group_name_H-M   'P 1'
_cell_length_a   6.29174047
_cell_length_b   7.29267900
_cell_length_c   9.13555526
_cell_angle_alpha   90.00000000
_cell_angle_beta   90.20056616
_cell_angle_gamma   90.00000000
_symmetry_Int_Tables_number   1
_chemical_formula_structural   Tb2DyEr3Ru2
_chemical_formula_sum   'Tb4 Dy2 Er6 Ru4'
_cell_volume   419.16999315
_cell_formula_units_Z   2
loop_
 _symmetry_equiv_pos_site_id
 _symmetry_equiv_pos_as_xyz
  1  'x, y, z'
loop_
 _atom_site_type_symbol
 _atom_site_label
 _atom_site_symmetry_multiplicity
 _atom_site_fract_x
 _atom_site_fract_y
 _atom_site_fract_z
 _atom_site_occupancy
  Tb  Tb0  1  0.866216  0.539236  0.250193  1
  Tb  Tb1  1  0.633784  0.039236  0.249807  1
  Tb  Tb2  1  0.132823  0.460677  0.749934  1
  Tb  Tb3  1  0.367177  0.960677  0.750066  1
  Dy  Dy4  1  0.330990  0.677092  0.064454  1
  Dy  Dy5  1  0.169010  0.177092  0.435546  1
  Er  Er6  1  0.668768  0.323512  0.565147  1
  Er  Er7  1  0.831232  0.823512  0.934853  1
  Er  Er8  1  0.669121  0.323136  0.934789  1
  Er  Er9  1  0.830879  0.823136  0.565211  1
  Er  Er10  1  0.331325  0.676361  0.435698  1
  Er  Er11  1  0.168675  0.176361  0.064302  1
  Ru  Ru12  1  0.041659  0.884421  0.249955  1
  Ru  Ru13  1  0.458341  0.384421  0.250045  1
  Ru  Ru14  1  0.957299  0.115565  0.750750  1
  Ru  Ru15  1  0.542701  0.615565  0.749250  1
