# generated using pymatgen
data_Sc5Tc4P12Ir14Rh
_symmetry_space_group_name_H-M   'P 1'
_cell_length_a   12.60559704
_cell_length_b   12.49582744
_cell_length_c   3.92103300
_cell_angle_alpha   90.00000000
_cell_angle_beta   90.00000000
_cell_angle_gamma   119.74672622
_symmetry_Int_Tables_number   1
_chemical_formula_structural   Sc5Tc4P12Ir14Rh
_chemical_formula_sum   'Sc5 Tc4 P12 Ir14 Rh1'
_cell_volume   536.24382865
_cell_formula_units_Z   1
loop_
 _symmetry_equiv_pos_site_id
 _symmetry_equiv_pos_as_xyz
  1  'x, y, z'
loop_
 _atom_site_type_symbol
 _atom_site_label
 _atom_site_symmetry_multiplicity
 _atom_site_fract_x
 _atom_site_fract_y
 _atom_site_fract_z
 _atom_site_occupancy
  Sc  Sc0  1  0.331039  0.662174  0.000000  1
  Sc  Sc1  1  0.666879  0.333705  0.000000  1
  Sc  Sc2  1  0.822191  0.002693  0.500000  1
  Sc  Sc3  1  0.000149  0.819303  0.500000  1
  Sc  Sc4  1  0.183245  0.185963  0.500000  1
  Tc  Tc5  1  0.454223  0.999320  0.000000  1
  Tc  Tc6  1  0.995123  0.452648  0.000000  1
  Tc  Tc7  1  0.548869  0.543766  0.000000  1
  Tc  Tc8  1  0.178092  0.377125  0.000000  1
  P  P9  1  0.176369  0.002288  0.000000  1
  P  P10  1  0.005094  0.181415  0.000000  1
  P  P11  1  0.824383  0.826222  0.000000  1
  P  P12  1  0.171842  0.480394  0.500000  1
  P  P13  1  0.516261  0.684066  0.500000  1
  P  P14  1  0.313903  0.827166  0.500000  1
  P  P15  1  0.684607  0.515649  0.500000  1
  P  P16  1  0.828564  0.314506  0.500000  1
  P  P17  1  0.484319  0.168150  0.500000  1
  P  P18  1  0.638597  0.998541  0.000000  1
  P  P19  1  0.000748  0.640437  0.000000  1
  P  P20  1  0.356525  0.362128  0.000000  1
  Ir  Ir21  1  0.362610  0.490922  0.500000  1
  Ir  Ir22  1  0.508180  0.865264  0.500000  1
  Ir  Ir23  1  0.132815  0.639419  0.500000  1
  Ir  Ir24  1  0.864710  0.509013  0.500000  1
  Ir  Ir25  1  0.640990  0.132388  0.500000  1
  Ir  Ir26  1  0.494382  0.356174  0.500000  1
  Ir  Ir27  1  0.191656  0.820079  0.000000  1
  Ir  Ir28  1  0.811620  0.632279  0.000000  1
  Ir  Ir29  1  0.816279  0.189266  0.000000  1
  Ir  Ir30  1  0.371201  0.180608  0.000000  1
  Ir  Ir31  1  0.288086  0.999688  0.500000  1
  Ir  Ir32  1  0.994080  0.284289  0.500000  1
  Ir  Ir33  1  0.713835  0.714289  0.500000  1
  Ir  Ir34  1  0.000241  0.000624  0.000000  1
  Rh  Rh35  1  0.628292  0.808043  0.000000  1
