# generated using pymatgen
data_LaY7(ThIr)6
_symmetry_space_group_name_H-M   'P 1'
_cell_length_a   6.35857440
_cell_length_b   9.98212434
_cell_length_c   9.98068586
_cell_angle_alpha   120.95294544
_cell_angle_beta   89.64451873
_cell_angle_gamma   90.04200476
_symmetry_Int_Tables_number   1
_chemical_formula_structural   LaY7(ThIr)6
_chemical_formula_sum   'La1 Y7 Th6 Ir6'
_cell_volume   543.26619256
_cell_formula_units_Z   1
loop_
 _symmetry_equiv_pos_site_id
 _symmetry_equiv_pos_as_xyz
  1  'x, y, z'
loop_
 _atom_site_type_symbol
 _atom_site_label
 _atom_site_symmetry_multiplicity
 _atom_site_fract_x
 _atom_site_fract_y
 _atom_site_fract_z
 _atom_site_occupancy
  La  La0  1  0.944245  0.459911  0.927053  1
  Y  Y1  1  0.741976  0.253720  0.126804  1
  Y  Y2  1  0.742681  0.873557  0.744111  1
  Y  Y3  1  0.445335  0.538770  0.461886  1
  Y  Y4  1  0.449210  0.924244  0.463518  1
  Y  Y5  1  0.450442  0.539047  0.077508  1
  Y  Y6  1  0.937393  0.463102  0.535640  1
  Y  Y7  1  0.942911  0.070133  0.536935  1
  Th  Th8  1  0.466050  0.333203  0.664041  1
  Th  Th9  1  0.974164  0.666282  0.333616  1
  Th  Th10  1  0.250114  0.126060  0.872831  1
  Th  Th11  1  0.244639  0.745907  0.870822  1
  Th  Th12  1  0.243291  0.130120  0.256076  1
  Th  Th13  1  0.739438  0.875428  0.128067  1
  Ir  Ir14  1  0.191991  0.816415  0.187706  1
  Ir  Ir15  1  0.196330  0.372503  0.186547  1
  Ir  Ir16  1  0.193433  0.813911  0.626651  1
  Ir  Ir17  1  0.673726  0.189430  0.807947  1
  Ir  Ir18  1  0.684361  0.625858  0.816890  1
  Ir  Ir19  1  0.690270  0.182400  0.375354  1
