# generated using pymatgen
data_Sc6C2SCl5
_symmetry_space_group_name_H-M   'P 1'
_cell_length_a   3.45239916
_cell_length_b   7.91026732
_cell_length_c   9.46225900
_cell_angle_alpha   87.02029708
_cell_angle_beta   79.42943575
_cell_angle_gamma   77.10150748
_symmetry_Int_Tables_number   1
_chemical_formula_structural   Sc6C2SCl5
_chemical_formula_sum   'Sc6 C2 S1 Cl5'
_cell_volume   247.59718678
_cell_formula_units_Z   1
loop_
 _symmetry_equiv_pos_site_id
 _symmetry_equiv_pos_as_xyz
  1  'x, y, z'
loop_
 _atom_site_type_symbol
 _atom_site_label
 _atom_site_symmetry_multiplicity
 _atom_site_fract_x
 _atom_site_fract_y
 _atom_site_fract_z
 _atom_site_occupancy
  Sc  Sc0  1  0.578011  0.070774  0.777169  1
  Sc  Sc1  1  0.962970  0.401000  0.675957  1
  Sc  Sc2  1  0.693405  0.158850  0.456744  1
  Sc  Sc3  1  0.042209  0.596732  0.322555  1
  Sc  Sc4  1  0.311865  0.838927  0.541739  1
  Sc  Sc5  1  0.427243  0.926939  0.221319  1
  C  C6  1  0.128273  0.121329  0.625610  1
  C  C7  1  0.876988  0.876403  0.372879  1
  S  S8  1  0.502602  0.498875  0.499253  1
  Cl  Cl9  1  0.754545  0.745187  0.749267  1
  Cl  Cl10  1  0.373707  0.376272  0.878787  1
  Cl  Cl11  1  0.250987  0.252505  0.249119  1
  Cl  Cl12  1  0.631443  0.621383  0.119762  1
  Cl  Cl13  1  0.002973  0.998414  0.999155  1
