# generated using pymatgen
data_PuNb6BiS12
_symmetry_space_group_name_H-M   'P 1'
_cell_length_a   5.80189637
_cell_length_b   5.81143783
_cell_length_c   14.20113200
_cell_angle_alpha   89.81760560
_cell_angle_beta   90.09134706
_cell_angle_gamma   120.05443082
_symmetry_Int_Tables_number   1
_chemical_formula_structural   PuNb6BiS12
_chemical_formula_sum   'Pu1 Nb6 Bi1 S12'
_cell_volume   414.44460937
_cell_formula_units_Z   1
loop_
 _symmetry_equiv_pos_site_id
 _symmetry_equiv_pos_as_xyz
  1  'x, y, z'
loop_
 _atom_site_type_symbol
 _atom_site_label
 _atom_site_symmetry_multiplicity
 _atom_site_fract_x
 _atom_site_fract_y
 _atom_site_fract_z
 _atom_site_occupancy
  Pu  Pu0  1  0.000000  0.000000  0.000000  1
  Nb  Nb1  1  0.333570  0.667488  0.249628  1
  Nb  Nb2  1  0.666430  0.332512  0.750372  1
  Nb  Nb3  1  0.666430  0.333918  0.249628  1
  Nb  Nb4  1  0.333570  0.666082  0.750372  1
  Nb  Nb5  1  0.000000  0.000648  0.249930  1
  Nb  Nb6  1  0.000000  0.999352  0.750070  1
  Bi  Bi7  1  0.000000  0.000000  0.500000  1
  S  S8  1  0.338076  0.003231  0.138525  1
  S  S9  1  0.000000  0.336553  0.138472  1
  S  S10  1  0.661924  0.665155  0.138525  1
  S  S11  1  0.341184  0.341364  0.638909  1
  S  S12  1  0.658816  0.658636  0.361091  1
  S  S13  1  0.658816  0.000180  0.638909  1
  S  S14  1  0.000000  0.659346  0.639098  1
  S  S15  1  0.000000  0.663447  0.861528  1
  S  S16  1  0.338076  0.334845  0.861475  1
  S  S17  1  0.000000  0.340654  0.360902  1
  S  S18  1  0.341184  0.999820  0.361091  1
  S  S19  1  0.661924  0.996769  0.861475  1
