# generated using pymatgen
data_Zr3Ti2Ga2Ge
_symmetry_space_group_name_H-M   'P 1'
_cell_length_a   7.95503700
_cell_length_b   7.93484343
_cell_length_c   5.46968200
_cell_angle_alpha   90.00000000
_cell_angle_beta   90.00000000
_cell_angle_gamma   120.08421697
_symmetry_Int_Tables_number   1
_chemical_formula_structural   Zr3Ti2Ga2Ge
_chemical_formula_sum   'Zr6 Ti4 Ga4 Ge2'
_cell_volume   298.74737355
_cell_formula_units_Z   2
loop_
 _symmetry_equiv_pos_site_id
 _symmetry_equiv_pos_as_xyz
  1  'x, y, z'
loop_
 _atom_site_type_symbol
 _atom_site_label
 _atom_site_symmetry_multiplicity
 _atom_site_fract_x
 _atom_site_fract_y
 _atom_site_fract_z
 _atom_site_occupancy
  Zr  Zr0  1  0.248791  0.000000  0.250000  1
  Zr  Zr1  1  0.751209  0.000000  0.750000  1
  Zr  Zr2  1  0.001623  0.244996  0.250000  1
  Zr  Zr3  1  0.998377  0.755004  0.750000  1
  Zr  Zr4  1  0.756627  0.755004  0.250000  1
  Zr  Zr5  1  0.243373  0.244996  0.750000  1
  Ti  Ti6  1  0.334255  0.668512  0.000000  1
  Ti  Ti7  1  0.665745  0.331488  0.000000  1
  Ti  Ti8  1  0.665745  0.331488  0.500000  1
  Ti  Ti9  1  0.334255  0.668512  0.500000  1
  Ga  Ga10  1  0.999921  0.599319  0.250000  1
  Ga  Ga11  1  0.000079  0.400681  0.750000  1
  Ga  Ga12  1  0.400602  0.400681  0.250000  1
  Ga  Ga13  1  0.599398  0.599319  0.750000  1
  Ge  Ge14  1  0.604648  0.000000  0.250000  1
  Ge  Ge15  1  0.395352  0.000000  0.750000  1
