# generated using pymatgen
data_Dy3HoFePt3O14
_symmetry_space_group_name_H-M   'P 1'
_cell_length_a   7.27985246
_cell_length_b   7.21143438
_cell_length_c   7.21143500
_cell_angle_alpha   59.99999258
_cell_angle_beta   60.31040125
_cell_angle_gamma   60.31040708
_symmetry_Int_Tables_number   1
_chemical_formula_structural   Dy3HoFePt3O14
_chemical_formula_sum   'Dy3 Ho1 Fe1 Pt3 O14'
_cell_volume   268.95068490
_cell_formula_units_Z   1
loop_
 _symmetry_equiv_pos_site_id
 _symmetry_equiv_pos_as_xyz
  1  'x, y, z'
loop_
 _atom_site_type_symbol
 _atom_site_label
 _atom_site_symmetry_multiplicity
 _atom_site_fract_x
 _atom_site_fract_y
 _atom_site_fract_z
 _atom_site_occupancy
  Dy  Dy0  1  0.125000  0.625000  0.125000  1
  Dy  Dy1  1  0.125000  0.125000  0.625000  1
  Dy  Dy2  1  0.125000  0.125000  0.125000  1
  Ho  Ho3  1  0.625000  0.125000  0.125000  1
  Fe  Fe4  1  0.125000  0.625000  0.625000  1
  Pt  Pt5  1  0.625000  0.625000  0.625000  1
  Pt  Pt6  1  0.625000  0.125000  0.625000  1
  Pt  Pt7  1  0.625000  0.625000  0.125000  1
  O  O8  1  0.288388  0.713532  0.713532  1
  O  O9  1  0.537432  0.964675  0.964675  1
  O  O10  1  0.712568  0.285325  0.716782  1
  O  O11  1  0.288388  0.284549  0.713532  1
  O  O12  1  0.712568  0.716782  0.285325  1
  O  O13  1  0.994064  0.001978  0.001978  1
  O  O14  1  0.288388  0.713532  0.284549  1
  O  O15  1  0.961612  0.536468  0.965451  1
  O  O16  1  0.961612  0.965451  0.536468  1
  O  O17  1  0.537432  0.533218  0.964675  1
  O  O18  1  0.255936  0.248022  0.248022  1
  O  O19  1  0.537432  0.964675  0.533218  1
  O  O20  1  0.712568  0.285325  0.285325  1
  O  O21  1  0.961612  0.536468  0.536468  1
