# generated using pymatgen
data_Sc4As3S
_symmetry_space_group_name_H-M   'P 1'
_cell_length_a   3.84263359
_cell_length_b   6.64967381
_cell_length_c   10.16316700
_cell_angle_alpha   40.16280090
_cell_angle_beta   100.97806615
_cell_angle_gamma   106.95298877
_symmetry_Int_Tables_number   1
_chemical_formula_structural   Sc4As3S
_chemical_formula_sum   'Sc4 As3 S1'
_cell_volume   159.99174028
_cell_formula_units_Z   1
loop_
 _symmetry_equiv_pos_site_id
 _symmetry_equiv_pos_as_xyz
  1  'x, y, z'
loop_
 _atom_site_type_symbol
 _atom_site_label
 _atom_site_symmetry_multiplicity
 _atom_site_fract_x
 _atom_site_fract_y
 _atom_site_fract_z
 _atom_site_occupancy
  Sc  Sc0  1  0.902633  0.695768  0.412715  1
  Sc  Sc1  1  0.403887  0.190541  0.916059  1
  Sc  Sc2  1  0.655208  0.444340  0.164431  1
  Sc  Sc3  1  0.154319  0.949051  0.661178  1
  As  As4  1  0.527598  0.819443  0.537803  1
  As  As5  1  0.030375  0.320555  0.039282  1
  As  As6  1  0.779168  0.069891  0.788566  1
  S  S7  1  0.278949  0.570021  0.288580  1
