# generated using pymatgen
data_Hf3TaMn3V5
_symmetry_space_group_name_H-M   'P 1'
_cell_length_a   8.81105781
_cell_length_b   8.84438479
_cell_length_c   8.76431612
_cell_angle_alpha   33.11040933
_cell_angle_beta   33.48274158
_cell_angle_gamma   32.94352059
_symmetry_Int_Tables_number   1
_chemical_formula_structural   Hf3TaMn3V5
_chemical_formula_sum   'Hf3 Ta1 Mn3 V5'
_cell_volume   182.05600517
_cell_formula_units_Z   1
loop_
 _symmetry_equiv_pos_site_id
 _symmetry_equiv_pos_as_xyz
  1  'x, y, z'
loop_
 _atom_site_type_symbol
 _atom_site_label
 _atom_site_symmetry_multiplicity
 _atom_site_fract_x
 _atom_site_fract_y
 _atom_site_fract_z
 _atom_site_occupancy
  Hf  Hf0  1  0.624740  0.628308  0.625196  1
  Hf  Hf1  1  0.000007  0.001154  0.006091  1
  Hf  Hf2  1  0.499691  0.496165  0.499359  1
  Ta  Ta3  1  0.126345  0.124191  0.120495  1
  Mn  Mn4  1  0.562665  0.064210  0.562852  1
  Mn  Mn5  1  0.061531  0.561580  0.061961  1
  Mn  Mn6  1  0.064266  0.562195  0.563362  1
  V  V7  1  0.560328  0.061545  0.062677  1
  V  V8  1  0.817477  0.808120  0.806399  1
  V  V9  1  0.306852  0.317481  0.318119  1
  V  V10  1  0.563584  0.563534  0.063058  1
  V  V11  1  0.062511  0.061515  0.560430  1
