# generated using pymatgen
data_Yb12Sc3Al5(GeO4)12
_symmetry_space_group_name_H-M   'P 1'
_cell_length_a   10.65751143
_cell_length_b   10.65751200
_cell_length_c   10.65751200
_cell_angle_alpha   109.39412229
_cell_angle_beta   109.39411196
_cell_angle_gamma   109.39411066
_symmetry_Int_Tables_number   1
_chemical_formula_structural   Yb12Sc3Al5(GeO4)12
_chemical_formula_sum   'Yb12 Sc3 Al5 Ge12 O48'
_cell_volume   934.49981302
_cell_formula_units_Z   1
loop_
 _symmetry_equiv_pos_site_id
 _symmetry_equiv_pos_as_xyz
  1  'x, y, z'
loop_
 _atom_site_type_symbol
 _atom_site_label
 _atom_site_symmetry_multiplicity
 _atom_site_fract_x
 _atom_site_fract_y
 _atom_site_fract_z
 _atom_site_occupancy
  Yb  Yb0  1  0.375143  0.750859  0.125287  1
  Yb  Yb1  1  0.253409  0.376837  0.129052  1
  Yb  Yb2  1  0.376837  0.129051  0.253409  1
  Yb  Yb3  1  0.874714  0.624858  0.249140  1
  Yb  Yb4  1  0.750859  0.125288  0.375143  1
  Yb  Yb5  1  0.129051  0.253409  0.376837  1
  Yb  Yb6  1  0.870949  0.746592  0.623162  1
  Yb  Yb7  1  0.249141  0.874712  0.624858  1
  Yb  Yb8  1  0.125287  0.375143  0.750860  1
  Yb  Yb9  1  0.623164  0.870949  0.746591  1
  Yb  Yb10  1  0.746591  0.623164  0.870949  1
  Yb  Yb11  1  0.624856  0.249140  0.874713  1
  Sc  Sc12  1  0.500000  0.000000  0.000000  1
  Sc  Sc13  1  0.000000  0.499999  0.000000  1
  Sc  Sc14  1  0.000000  0.000000  0.500000  1
  Al  Al15  1  0.000000  0.000000  0.000000  1
  Al  Al16  1  0.499999  0.500000  0.000000  1
  Al  Al17  1  0.499999  0.500000  0.500000  1
  Al  Al18  1  0.000000  0.500000  0.500000  1
  Al  Al19  1  0.499999  0.000000  0.500000  1
  Ge  Ge20  1  0.879056  0.250083  0.129788  1
  Ge  Ge21  1  0.749919  0.870212  0.120943  1
  Ge  Ge22  1  0.628614  0.383449  0.256237  1
  Ge  Ge23  1  0.129788  0.879057  0.250082  1
  Ge  Ge24  1  0.256237  0.628613  0.383450  1
  Ge  Ge25  1  0.616550  0.743763  0.371386  1
  Ge  Ge26  1  0.743764  0.371386  0.616549  1
  Ge  Ge27  1  0.383449  0.256236  0.628613  1
  Ge  Ge28  1  0.870213  0.120944  0.749918  1
  Ge  Ge29  1  0.371386  0.616550  0.743763  1
  Ge  Ge30  1  0.250082  0.129787  0.879057  1
  Ge  Ge31  1  0.120944  0.749918  0.870212  1
  O  O32  1  0.198175  0.119367  0.020287  1
  O  O33  1  0.308259  0.900628  0.019784  1
  O  O34  1  0.697366  0.677302  0.078872  1
  O  O35  1  0.878324  0.400350  0.091212  1
  O  O36  1  0.615953  0.422130  0.102647  1
  O  O37  1  0.980217  0.691741  0.099372  1
  O  O38  1  0.020287  0.198175  0.119367  1
  O  O39  1  0.599650  0.908788  0.121676  1
  O  O40  1  0.211483  0.589132  0.193110  1
  O  O41  1  0.478835  0.597849  0.176482  1
  O  O42  1  0.119367  0.020287  0.198176  1
  O  O43  1  0.589133  0.193110  0.211482  1
  O  O44  1  0.322698  0.921127  0.302635  1
  O  O45  1  0.483419  0.388077  0.304285  1
  O  O46  1  0.921128  0.302635  0.322698  1
  O  O47  1  0.900628  0.019783  0.308259  1
  O  O48  1  0.577869  0.897352  0.384046  1
  O  O49  1  0.304286  0.483419  0.388077  1
  O  O50  1  0.823518  0.521165  0.402150  1
  O  O51  1  0.091212  0.878324  0.400351  1
  O  O52  1  0.806890  0.788518  0.410866  1
  O  O53  1  0.102647  0.615952  0.422130  1
  O  O54  1  0.388077  0.304285  0.483419  1
  O  O55  1  0.597849  0.176482  0.478835  1
  O  O56  1  0.402151  0.823519  0.521165  1
  O  O57  1  0.611924  0.695716  0.516583  1
  O  O58  1  0.897352  0.384047  0.577870  1
  O  O59  1  0.193110  0.211482  0.589134  1
  O  O60  1  0.908788  0.121676  0.599650  1
  O  O61  1  0.176482  0.478835  0.597849  1
  O  O62  1  0.422129  0.102647  0.615952  1
  O  O63  1  0.695716  0.516582  0.611925  1
  O  O64  1  0.099372  0.980216  0.691741  1
  O  O65  1  0.078871  0.697365  0.677302  1
  O  O66  1  0.677301  0.078872  0.697365  1
  O  O67  1  0.516582  0.611924  0.695716  1
  O  O68  1  0.410866  0.806889  0.788517  1
  O  O69  1  0.880633  0.979713  0.801825  1
  O  O70  1  0.521165  0.402152  0.823518  1
  O  O71  1  0.788517  0.410867  0.806889  1
  O  O72  1  0.400350  0.091211  0.878324  1
  O  O73  1  0.979713  0.801825  0.880634  1
  O  O74  1  0.384047  0.577869  0.897352  1
  O  O75  1  0.019783  0.308260  0.900628  1
  O  O76  1  0.302635  0.322698  0.921128  1
  O  O77  1  0.121676  0.599650  0.908788  1
  O  O78  1  0.691741  0.099371  0.980215  1
  O  O79  1  0.801825  0.880633  0.979714  1
