# generated using pymatgen
data_Tb4YbSm2CoI12
_symmetry_space_group_name_H-M   'P 1'
_cell_length_a   9.83911189
_cell_length_b   9.76027895
_cell_length_c   9.84922127
_cell_angle_alpha   106.85274674
_cell_angle_beta   106.87796423
_cell_angle_gamma   107.04143494
_symmetry_Int_Tables_number   1
_chemical_formula_structural   Tb4YbSm2CoI12
_chemical_formula_sum   'Tb4 Yb1 Sm2 Co1 I12'
_cell_volume   789.33324846
_cell_formula_units_Z   1
loop_
 _symmetry_equiv_pos_site_id
 _symmetry_equiv_pos_as_xyz
  1  'x, y, z'
loop_
 _atom_site_type_symbol
 _atom_site_label
 _atom_site_symmetry_multiplicity
 _atom_site_fract_x
 _atom_site_fract_y
 _atom_site_fract_z
 _atom_site_occupancy
  Tb  Tb0  1  0.296575  0.023778  0.095852  1
  Tb  Tb1  1  0.975257  0.902782  0.703887  1
  Tb  Tb2  1  0.907776  0.716810  0.976315  1
  Tb  Tb3  1  0.702866  0.975426  0.902442  1
  Yb  Yb4  1  0.500087  0.499863  0.499907  1
  Sm  Sm5  1  0.024191  0.096860  0.299998  1
  Sm  Sm6  1  0.093163  0.286651  0.023274  1
  Co  Co7  1  0.999722  0.999992  0.999500  1
  I  I8  1  0.155333  0.462151  0.381924  1
  I  I9  1  0.459692  0.379346  0.153748  1
  I  I10  1  0.381923  0.151421  0.457085  1
  I  I11  1  0.847402  0.542491  0.622284  1
  I  I12  1  0.544568  0.620793  0.848163  1
  I  I13  1  0.621696  0.848664  0.542835  1
  I  I14  1  0.675703  0.070889  0.220805  1
  I  I15  1  0.072192  0.223229  0.679020  1
  I  I16  1  0.221866  0.681057  0.071493  1
  I  I17  1  0.320062  0.927869  0.776251  1
  I  I18  1  0.925885  0.770367  0.317989  1
  I  I19  1  0.774041  0.319562  0.927230  1
