# generated using pymatgen
data_Hf3ReSi3TcRu
_symmetry_space_group_name_H-M   'P 1'
_cell_length_a   6.89772171
_cell_length_b   6.93608385
_cell_length_c   3.43644800
_cell_angle_alpha   90.00000000
_cell_angle_beta   90.00000000
_cell_angle_gamma   119.89187038
_symmetry_Int_Tables_number   1
_chemical_formula_structural   Hf3ReSi3TcRu
_chemical_formula_sum   'Hf3 Re1 Si3 Tc1 Ru1'
_cell_volume   142.53863058
_cell_formula_units_Z   1
loop_
 _symmetry_equiv_pos_site_id
 _symmetry_equiv_pos_as_xyz
  1  'x, y, z'
loop_
 _atom_site_type_symbol
 _atom_site_label
 _atom_site_symmetry_multiplicity
 _atom_site_fract_x
 _atom_site_fract_y
 _atom_site_fract_z
 _atom_site_occupancy
  Hf  Hf0  1  0.403873  0.408046  0.500000  1
  Hf  Hf1  1  0.598117  0.000866  0.500000  1
  Hf  Hf2  1  0.996638  0.591526  0.500000  1
  Re  Re3  1  0.999923  0.252345  0.000000  1
  Si  Si4  1  0.664243  0.332222  0.000000  1
  Si  Si5  1  0.333041  0.668633  0.000000  1
  Si  Si6  1  0.003890  0.997749  0.500000  1
  Tc  Tc7  1  0.747633  0.747991  0.000000  1
  Ru  Ru8  1  0.252642  0.000622  0.000000  1
