# generated using pymatgen
data_Ti5GaSn2
_symmetry_space_group_name_H-M   'P 1'
_cell_length_a   7.90239504
_cell_length_b   7.90239581
_cell_length_c   7.90241903
_cell_angle_alpha   96.13680544
_cell_angle_beta   96.14033877
_cell_angle_gamma   141.82555482
_symmetry_Int_Tables_number   1
_chemical_formula_structural   Ti5GaSn2
_chemical_formula_sum   'Ti10 Ga2 Sn4'
_cell_volume   288.23628510
_cell_formula_units_Z   2
loop_
 _symmetry_equiv_pos_site_id
 _symmetry_equiv_pos_as_xyz
  1  'x, y, z'
loop_
 _atom_site_type_symbol
 _atom_site_label
 _atom_site_symmetry_multiplicity
 _atom_site_fract_x
 _atom_site_fract_y
 _atom_site_fract_z
 _atom_site_occupancy
  Ti  Ti0  1  0.217140  0.926430  0.143570  1
  Ti  Ti1  1  0.426435  0.717139  0.143575  1
  Ti  Ti2  1  0.073564  0.217140  0.290704  1
  Ti  Ti3  1  0.717138  0.573567  0.290705  1
  Ti  Ti4  1  0.749998  0.249998  0.500000  1
  Ti  Ti5  1  0.250000  0.750000  0.500000  1
  Ti  Ti6  1  0.282862  0.426433  0.709295  1
  Ti  Ti7  1  0.926436  0.782860  0.709296  1
  Ti  Ti8  1  0.782860  0.073570  0.856430  1
  Ti  Ti9  1  0.573564  0.282861  0.856424  1
  Ga  Ga10  1  0.250008  0.250008  0.000000  1
  Ga  Ga11  1  0.749990  0.749990  0.000000  1
  Sn  Sn12  1  0.834373  0.334371  0.168744  1
  Sn  Sn13  1  0.334375  0.165633  0.500007  1
  Sn  Sn14  1  0.665625  0.834367  0.499991  1
  Sn  Sn15  1  0.165627  0.665629  0.831256  1
