# generated using pymatgen
data_Y3MgSc2Ir3
_symmetry_space_group_name_H-M   'P 1'
_cell_length_a   7.30308317
_cell_length_b   7.33756055
_cell_length_c   4.22284000
_cell_angle_alpha   90.00000000
_cell_angle_beta   90.00000000
_cell_angle_gamma   120.15629423
_symmetry_Int_Tables_number   1
_chemical_formula_structural   Y3MgSc2Ir3
_chemical_formula_sum   'Y3 Mg1 Sc2 Ir3'
_cell_volume   195.66226007
_cell_formula_units_Z   1
loop_
 _symmetry_equiv_pos_site_id
 _symmetry_equiv_pos_as_xyz
  1  'x, y, z'
loop_
 _atom_site_type_symbol
 _atom_site_label
 _atom_site_symmetry_multiplicity
 _atom_site_fract_x
 _atom_site_fract_y
 _atom_site_fract_z
 _atom_site_occupancy
  Y  Y0  1  0.402490  0.991316  0.499999  1
  Y  Y1  1  0.000000  0.423100  0.499999  1
  Y  Y2  1  0.597510  0.588827  0.499999  1
  Mg  Mg3  1  0.000000  0.751877  0.000000  1
  Sc  Sc4  1  0.750729  0.999779  0.000000  1
  Sc  Sc5  1  0.249271  0.249051  0.000000  1
  Ir  Ir6  1  0.656104  0.316393  0.000000  1
  Ir  Ir7  1  0.343896  0.660289  0.000000  1
  Ir  Ir8  1  0.000000  0.019367  0.499999  1
