# generated using pymatgen
data_Ho2Er6Sc12Si15As
_symmetry_space_group_name_H-M   'P 1'
_cell_length_a   7.11316885
_cell_length_b   7.34555188
_cell_length_c   13.95235375
_cell_angle_alpha   90.02175709
_cell_angle_beta   88.55003676
_cell_angle_gamma   90.09848795
_symmetry_Int_Tables_number   1
_chemical_formula_structural   Ho2Er6Sc12Si15As
_chemical_formula_sum   'Ho2 Er6 Sc12 Si15 As1'
_cell_volume   728.77804242
_cell_formula_units_Z   1
loop_
 _symmetry_equiv_pos_site_id
 _symmetry_equiv_pos_as_xyz
  1  'x, y, z'
loop_
 _atom_site_type_symbol
 _atom_site_label
 _atom_site_symmetry_multiplicity
 _atom_site_fract_x
 _atom_site_fract_y
 _atom_site_fract_z
 _atom_site_occupancy
  Ho  Ho0  1  0.501561  0.319939  0.402216  1
  Ho  Ho1  1  0.503204  0.679030  0.597545  1
  Er  Er2  1  0.010979  0.177094  0.097088  1
  Er  Er3  1  0.989556  0.823363  0.902609  1
  Er  Er4  1  0.490111  0.676477  0.902757  1
  Er  Er5  1  0.996578  0.821399  0.595871  1
  Er  Er6  1  0.510733  0.324144  0.097271  1
  Er  Er7  1  0.001320  0.178529  0.403592  1
  Sc  Sc8  1  0.168374  0.501120  0.749686  1
  Sc  Sc9  1  0.831716  0.499146  0.253133  1
  Sc  Sc10  1  0.330842  0.000991  0.251469  1
  Sc  Sc11  1  0.668951  0.998682  0.748699  1
  Sc  Sc12  1  0.344965  0.169351  0.626502  1
  Sc  Sc13  1  0.655555  0.829037  0.373986  1
  Sc  Sc14  1  0.154461  0.671300  0.376919  1
  Sc  Sc15  1  0.666395  0.823625  0.125432  1
  Sc  Sc16  1  0.842745  0.329645  0.622968  1
  Sc  Sc17  1  0.333158  0.176191  0.874223  1
  Sc  Sc18  1  0.834549  0.322688  0.874680  1
  Sc  Sc19  1  0.165893  0.676925  0.124886  1
  Si  Si20  1  0.040247  0.115795  0.749940  1
  Si  Si21  1  0.959355  0.884322  0.249137  1
  Si  Si22  1  0.456598  0.616219  0.248917  1
  Si  Si23  1  0.542384  0.384109  0.750798  1
  Si  Si24  1  0.291931  0.869851  0.750827  1
  Si  Si25  1  0.708835  0.128735  0.248645  1
  Si  Si26  1  0.206969  0.372267  0.249170  1
  Si  Si27  1  0.794601  0.628356  0.750799  1
  Si  Si28  1  0.808457  0.540559  0.457611  1
  Si  Si29  1  0.323367  0.961271  0.460506  1
  Si  Si30  1  0.841909  0.535303  0.038956  1
  Si  Si31  1  0.676190  0.038819  0.540131  1
  Si  Si32  1  0.157962  0.465341  0.960576  1
  Si  Si33  1  0.657086  0.034647  0.959938  1
  Si  Si34  1  0.343068  0.965945  0.039958  1
  As  As35  1  0.189399  0.459782  0.542557  1
