# generated using pymatgen
data_Rb4Hf6FeBr18
_symmetry_space_group_name_H-M   'P 1'
_cell_length_a   10.66235375
_cell_length_b   10.88828954
_cell_length_c   10.99227445
_cell_angle_alpha   118.46931634
_cell_angle_beta   100.26194202
_cell_angle_gamma   103.94747782
_symmetry_Int_Tables_number   1
_chemical_formula_structural   Rb4Hf6FeBr18
_chemical_formula_sum   'Rb4 Hf6 Fe1 Br18'
_cell_volume   1022.50854047
_cell_formula_units_Z   1
loop_
 _symmetry_equiv_pos_site_id
 _symmetry_equiv_pos_as_xyz
  1  'x, y, z'
loop_
 _atom_site_type_symbol
 _atom_site_label
 _atom_site_symmetry_multiplicity
 _atom_site_fract_x
 _atom_site_fract_y
 _atom_site_fract_z
 _atom_site_occupancy
  Rb  Rb0  1  0.655956  0.537593  0.228330  1
  Rb  Rb1  1  0.344044  0.462407  0.771670  1
  Rb  Rb2  1  0.690542  0.226461  0.564367  1
  Rb  Rb3  1  0.309458  0.773539  0.435633  1
  Hf  Hf4  1  0.150388  0.055921  0.228624  1
  Hf  Hf5  1  0.849612  0.944079  0.771376  1
  Hf  Hf6  1  0.861392  0.124326  0.130717  1
  Hf  Hf7  1  0.138608  0.875674  0.869283  1
  Hf  Hf8  1  0.145224  0.237171  0.045075  1
  Hf  Hf9  1  0.854776  0.762829  0.954925  1
  Fe  Fe10  1  0.000000  0.000000  0.000000  1
  Br  Br11  1  0.007826  0.403159  0.193668  1
  Br  Br12  1  0.992174  0.596841  0.806332  1
  Br  Br13  1  0.326960  0.329946  0.308067  1
  Br  Br14  1  0.673040  0.670054  0.691933  1
  Br  Br15  1  0.316286  0.511984  0.098564  1
  Br  Br16  1  0.683714  0.488016  0.901436  1
  Br  Br17  1  0.004100  0.798770  0.206428  1
  Br  Br18  1  0.995900  0.201230  0.793572  1
  Br  Br19  1  0.706906  0.268102  0.280634  1
  Br  Br20  1  0.293094  0.731898  0.719366  1
  Br  Br21  1  0.314354  0.126836  0.904775  1
  Br  Br22  1  0.685646  0.873164  0.095225  1
  Br  Br23  1  0.015059  0.201382  0.401768  1
  Br  Br24  1  0.984941  0.798618  0.598232  1
  Br  Br25  1  0.318129  0.923604  0.109374  1
  Br  Br26  1  0.681871  0.076396  0.890626  1
  Br  Br27  1  0.328440  0.119863  0.492490  1
  Br  Br28  1  0.671560  0.880137  0.507510  1
