# generated using pymatgen
data_SmTm2ThS6
_symmetry_space_group_name_H-M   'P 1'
_cell_length_a   10.71822200
_cell_length_b   3.90015000
_cell_length_c   10.45360500
_cell_angle_alpha   90.00000000
_cell_angle_beta   90.00000000
_cell_angle_gamma   90.00000000
_symmetry_Int_Tables_number   1
_chemical_formula_structural   SmTm2ThS6
_chemical_formula_sum   'Sm2 Tm4 Th2 S12'
_cell_volume   436.98863706
_cell_formula_units_Z   2
loop_
 _symmetry_equiv_pos_site_id
 _symmetry_equiv_pos_as_xyz
  1  'x, y, z'
loop_
 _atom_site_type_symbol
 _atom_site_label
 _atom_site_symmetry_multiplicity
 _atom_site_fract_x
 _atom_site_fract_y
 _atom_site_fract_z
 _atom_site_occupancy
  Sm  Sm0  1  0.696714  0.750000  0.496712  1
  Sm  Sm1  1  0.196714  0.750000  0.003288  1
  Tm  Tm2  1  0.486793  0.250000  0.186332  1
  Tm  Tm3  1  0.986793  0.250000  0.313668  1
  Tm  Tm4  1  0.510751  0.750000  0.812906  1
  Tm  Tm5  1  0.010751  0.750000  0.687094  1
  Th  Th6  1  0.306210  0.250000  0.496519  1
  Th  Th7  1  0.806210  0.250000  0.003481  1
  S  S8  1  0.545223  0.250000  0.631198  1
  S  S9  1  0.045223  0.250000  0.868802  1
  S  S10  1  0.455095  0.750000  0.366879  1
  S  S11  1  0.955095  0.750000  0.133121  1
  S  S12  1  0.613627  0.750000  0.053173  1
  S  S13  1  0.113627  0.750000  0.446827  1
  S  S14  1  0.384800  0.250000  0.945869  1
  S  S15  1  0.884800  0.250000  0.554131  1
  S  S16  1  0.728310  0.250000  0.294556  1
  S  S17  1  0.228310  0.250000  0.205444  1
  S  S18  1  0.272475  0.750000  0.700102  1
  S  S19  1  0.772475  0.750000  0.799898  1
