# generated using pymatgen
data_TbNd7(GePt)8
_symmetry_space_group_name_H-M   'P 1'
_cell_length_a   4.48892000
_cell_length_b   7.68666700
_cell_length_c   14.56342200
_cell_angle_alpha   90.00000000
_cell_angle_beta   90.00000000
_cell_angle_gamma   90.00000000
_symmetry_Int_Tables_number   1
_chemical_formula_structural   TbNd7(GePt)8
_chemical_formula_sum   'Tb1 Nd7 Ge8 Pt8'
_cell_volume   502.50844736
_cell_formula_units_Z   1
loop_
 _symmetry_equiv_pos_site_id
 _symmetry_equiv_pos_as_xyz
  1  'x, y, z'
loop_
 _atom_site_type_symbol
 _atom_site_label
 _atom_site_symmetry_multiplicity
 _atom_site_fract_x
 _atom_site_fract_y
 _atom_site_fract_z
 _atom_site_occupancy
  Tb  Tb0  1  0.000000  0.288691  0.500000  1
  Nd  Nd1  1  0.500000  0.789477  0.747588  1
  Nd  Nd2  1  0.000000  0.210878  0.751356  1
  Nd  Nd3  1  0.500000  0.789477  0.252412  1
  Nd  Nd4  1  0.000000  0.210878  0.248644  1
  Nd  Nd5  1  0.500000  0.709608  0.000000  1
  Nd  Nd6  1  0.500000  0.703739  0.500000  1
  Nd  Nd7  1  0.000000  0.294833  0.000000  1
  Ge  Ge8  1  0.500000  0.411009  0.647349  1
  Ge  Ge9  1  0.000000  0.587940  0.850533  1
  Ge  Ge10  1  0.500000  0.411009  0.352651  1
  Ge  Ge11  1  0.000000  0.587940  0.149467  1
  Ge  Ge12  1  0.500000  0.087348  0.095401  1
  Ge  Ge13  1  0.000000  0.914798  0.405183  1
  Ge  Ge14  1  0.500000  0.087348  0.904599  1
  Ge  Ge15  1  0.000000  0.914798  0.594817  1
  Pt  Pt16  1  0.500000  0.082128  0.606559  1
  Pt  Pt17  1  0.000000  0.921118  0.890930  1
  Pt  Pt18  1  0.500000  0.082128  0.393441  1
  Pt  Pt19  1  0.000000  0.921118  0.109070  1
  Pt  Pt20  1  0.500000  0.419363  0.150651  1
  Pt  Pt21  1  0.000000  0.577504  0.350935  1
  Pt  Pt22  1  0.500000  0.419363  0.849349  1
  Pt  Pt23  1  0.000000  0.577504  0.649065  1
