# generated using pymatgen
data_Tb7YHf11Si16Os
_symmetry_space_group_name_H-M   'P 1'
_cell_length_a   7.25480552
_cell_length_b   7.25537700
_cell_length_c   13.27490137
_cell_angle_alpha   89.88339622
_cell_angle_beta   90.15357933
_cell_angle_gamma   89.99684592
_symmetry_Int_Tables_number   1
_chemical_formula_structural   Tb7YHf11Si16Os
_chemical_formula_sum   'Tb7 Y1 Hf11 Si16 Os1'
_cell_volume   698.73838409
_cell_formula_units_Z   1
loop_
 _symmetry_equiv_pos_site_id
 _symmetry_equiv_pos_as_xyz
  1  'x, y, z'
loop_
 _atom_site_type_symbol
 _atom_site_label
 _atom_site_symmetry_multiplicity
 _atom_site_fract_x
 _atom_site_fract_y
 _atom_site_fract_z
 _atom_site_occupancy
  Tb  Tb0  1  0.005488  0.654465  0.717303  1
  Tb  Tb1  1  0.155559  0.494326  0.465023  1
  Tb  Tb2  1  0.502008  0.846589  0.032640  1
  Tb  Tb3  1  0.846562  0.501938  0.967415  1
  Tb  Tb4  1  0.494256  0.155668  0.534824  1
  Tb  Tb5  1  0.344036  0.998365  0.788296  1
  Tb  Tb6  1  0.654514  0.005472  0.282720  1
  Y  Y7  1  0.998230  0.344283  0.211827  1
  Hf  Hf8  1  0.824726  0.824525  0.499917  1
  Hf  Hf9  1  0.324063  0.675224  0.247857  1
  Hf  Hf10  1  0.675304  0.324129  0.752126  1
  Hf  Hf11  1  0.146965  0.997668  0.371777  1
  Hf  Hf12  1  0.853258  0.004345  0.878670  1
  Hf  Hf13  1  0.502860  0.647294  0.625267  1
  Hf  Hf14  1  0.351669  0.496447  0.877157  1
  Hf  Hf15  1  0.496402  0.351717  0.122958  1
  Hf  Hf16  1  0.647347  0.502782  0.374680  1
  Hf  Hf17  1  0.997844  0.147114  0.628151  1
  Hf  Hf18  1  0.004276  0.853435  0.121458  1
  Si  Si19  1  0.359896  0.295757  0.314973  1
  Si  Si20  1  0.639333  0.705024  0.818272  1
  Si  Si21  1  0.205080  0.861438  0.566697  1
  Si  Si22  1  0.136394  0.793763  0.931027  1
  Si  Si23  1  0.794161  0.136679  0.069118  1
  Si  Si24  1  0.861328  0.205112  0.433283  1
  Si  Si25  1  0.295669  0.360216  0.684980  1
  Si  Si26  1  0.705118  0.639272  0.181694  1
  Si  Si27  1  0.292521  0.054711  0.180061  1
  Si  Si28  1  0.704400  0.950108  0.686143  1
  Si  Si29  1  0.449155  0.796153  0.434785  1
  Si  Si30  1  0.206681  0.547855  0.064275  1
  Si  Si31  1  0.548227  0.206763  0.935719  1
  Si  Si32  1  0.796164  0.449169  0.565144  1
  Si  Si33  1  0.054618  0.292565  0.819898  1
  Si  Si34  1  0.950188  0.704124  0.313733  1
  Os  Os35  1  0.175703  0.175509  0.000132  1
