# generated using pymatgen
data_Tb2CrP7Rh8W3
_symmetry_space_group_name_H-M   'P 1'
_cell_length_a   3.91185908
_cell_length_b   9.51998526
_cell_length_c   9.53964750
_cell_angle_alpha   119.95605150
_cell_angle_beta   90.00005135
_cell_angle_gamma   89.99717676
_symmetry_Int_Tables_number   1
_chemical_formula_structural   Tb2CrP7Rh8W3
_chemical_formula_sum   'Tb2 Cr1 P7 Rh8 W3'
_cell_volume   307.80423745
_cell_formula_units_Z   1
loop_
 _symmetry_equiv_pos_site_id
 _symmetry_equiv_pos_as_xyz
  1  'x, y, z'
loop_
 _atom_site_type_symbol
 _atom_site_label
 _atom_site_symmetry_multiplicity
 _atom_site_fract_x
 _atom_site_fract_y
 _atom_site_fract_z
 _atom_site_occupancy
  Tb  Tb0  1  0.261971  0.664812  0.330708  1
  Tb  Tb1  1  0.761902  0.333318  0.666609  1
  Cr  Cr2  1  0.261969  0.883842  0.160403  1
  P  P3  1  0.261781  0.996860  0.005174  1
  P  P4  1  0.761868  0.884405  0.594356  1
  P  P5  1  0.761863  0.405968  0.288089  1
  P  P6  1  0.761843  0.717164  0.122862  1
  P  P7  1  0.261962  0.113048  0.405516  1
  P  P8  1  0.261909  0.586359  0.704560  1
  P  P9  1  0.261900  0.295547  0.882017  1
  Rh  Rh10  1  0.261924  0.841070  0.728264  1
  Rh  Rh11  1  0.261919  0.271988  0.112260  1
  Rh  Rh12  1  0.761945  0.614061  0.560071  1
  Rh  Rh13  1  0.761958  0.441413  0.053945  1
  Rh  Rh14  1  0.761953  0.946559  0.385566  1
  Rh  Rh15  1  0.261878  0.368469  0.435643  1
  Rh  Rh16  1  0.261881  0.565971  0.932925  1
  Rh  Rh17  1  0.261887  0.068749  0.631318  1
  W  W18  1  0.761903  0.090780  0.873685  1
  W  W19  1  0.761888  0.123364  0.214587  1
  W  W20  1  0.761895  0.786254  0.911441  1
