# generated using pymatgen
data_Nd4SiTc16P7
_symmetry_space_group_name_H-M   'P 1'
_cell_length_a   4.05378700
_cell_length_b   7.35103249
_cell_length_c   15.32352415
_cell_angle_alpha   90.04301016
_cell_angle_beta   90.00000000
_cell_angle_gamma   90.00000000
_symmetry_Int_Tables_number   1
_chemical_formula_structural   Nd4SiTc16P7
_chemical_formula_sum   'Nd4 Si1 Tc16 P7'
_cell_volume   456.63353456
_cell_formula_units_Z   1
loop_
 _symmetry_equiv_pos_site_id
 _symmetry_equiv_pos_as_xyz
  1  'x, y, z'
loop_
 _atom_site_type_symbol
 _atom_site_label
 _atom_site_symmetry_multiplicity
 _atom_site_fract_x
 _atom_site_fract_y
 _atom_site_fract_z
 _atom_site_occupancy
  Nd  Nd0  1  0.000000  0.578371  0.117826  1
  Nd  Nd1  1  0.000000  0.422433  0.883123  1
  Nd  Nd2  1  0.500000  0.078923  0.382203  1
  Nd  Nd3  1  0.500000  0.920820  0.616488  1
  Si  Si4  1  0.500000  0.201929  0.772142  1
  Tc  Tc5  1  0.000000  0.139897  0.051695  1
  Tc  Tc6  1  0.000000  0.859279  0.950671  1
  Tc  Tc7  1  0.500000  0.639985  0.448374  1
  Tc  Tc8  1  0.500000  0.360722  0.550386  1
  Tc  Tc9  1  0.000000  0.735419  0.323316  1
  Tc  Tc10  1  0.000000  0.264488  0.676155  1
  Tc  Tc11  1  0.500000  0.235380  0.176594  1
  Tc  Tc12  1  0.500000  0.767966  0.822744  1
  Tc  Tc13  1  0.000000  0.422351  0.416722  1
  Tc  Tc14  1  0.000000  0.577995  0.581187  1
  Tc  Tc15  1  0.500000  0.921677  0.084084  1
  Tc  Tc16  1  0.500000  0.073647  0.920557  1
  Tc  Tc17  1  0.000000  0.997659  0.207806  1
  Tc  Tc18  1  0.000000  0.998330  0.792657  1
  Tc  Tc19  1  0.500000  0.497219  0.292426  1
  Tc  Tc20  1  0.500000  0.507044  0.706116  1
  P  P21  1  0.000000  0.816917  0.473729  1
  P  P22  1  0.000000  0.183640  0.526030  1
  P  P23  1  0.500000  0.317510  0.025829  1
  P  P24  1  0.500000  0.684046  0.973882  1
  P  P25  1  0.000000  0.297750  0.270897  1
  P  P26  1  0.000000  0.701732  0.726986  1
  P  P27  1  0.500000  0.796869  0.229375  1
