# generated using pymatgen
data_Eu2SnAu2
_symmetry_space_group_name_H-M   'P 1'
_cell_length_a   8.33043100
_cell_length_b   8.33043100
_cell_length_c   3.85038000
_cell_angle_alpha   90.00000000
_cell_angle_beta   90.00000000
_cell_angle_gamma   90.00000000
_symmetry_Int_Tables_number   1
_chemical_formula_structural   Eu2SnAu2
_chemical_formula_sum   'Eu4 Sn2 Au4'
_cell_volume   267.20128100
_cell_formula_units_Z   2
loop_
 _symmetry_equiv_pos_site_id
 _symmetry_equiv_pos_as_xyz
  1  'x, y, z'
loop_
 _atom_site_type_symbol
 _atom_site_label
 _atom_site_symmetry_multiplicity
 _atom_site_fract_x
 _atom_site_fract_y
 _atom_site_fract_z
 _atom_site_occupancy
  Eu  Eu0  1  0.675615  0.175615  0.500000  1
  Eu  Eu1  1  0.324385  0.824385  0.500000  1
  Eu  Eu2  1  0.175615  0.324385  0.500000  1
  Eu  Eu3  1  0.824385  0.675615  0.500000  1
  Sn  Sn4  1  0.500000  0.500000  0.000000  1
  Sn  Sn5  1  0.000000  0.000000  0.000000  1
  Au  Au6  1  0.122897  0.622897  0.000000  1
  Au  Au7  1  0.877103  0.377103  0.000000  1
  Au  Au8  1  0.622897  0.877103  0.000000  1
  Au  Au9  1  0.377103  0.122897  0.000000  1
