# generated using pymatgen
data_Pr8Be(Si4Rh)3
_symmetry_space_group_name_H-M   'P 1'
_cell_length_a   8.22506900
_cell_length_b   8.22506951
_cell_length_c   8.57511300
_cell_angle_alpha   90.00000000
_cell_angle_beta   90.00000000
_cell_angle_gamma   120.00000198
_symmetry_Int_Tables_number   1
_chemical_formula_structural   Pr8Be(Si4Rh)3
_chemical_formula_sum   'Pr8 Be1 Si12 Rh3'
_cell_volume   502.39996615
_cell_formula_units_Z   1
loop_
 _symmetry_equiv_pos_site_id
 _symmetry_equiv_pos_as_xyz
  1  'x, y, z'
loop_
 _atom_site_type_symbol
 _atom_site_label
 _atom_site_symmetry_multiplicity
 _atom_site_fract_x
 _atom_site_fract_y
 _atom_site_fract_z
 _atom_site_occupancy
  Pr  Pr0  1  0.498498  0.501502  0.752111  1
  Pr  Pr1  1  0.499718  0.500282  0.247831  1
  Pr  Pr2  1  0.003005  0.501502  0.752111  1
  Pr  Pr3  1  0.000564  0.500282  0.247831  1
  Pr  Pr4  1  0.498498  0.996995  0.752111  1
  Pr  Pr5  1  0.499718  0.999436  0.247831  1
  Pr  Pr6  1  0.000000  0.000000  0.749580  1
  Pr  Pr7  1  0.000000  0.000000  0.250132  1
  Be  Be8  1  0.666667  0.333333  0.502226  1
  Si  Si9  1  0.833139  0.166861  0.000468  1
  Si  Si10  1  0.166915  0.833085  0.999460  1
  Si  Si11  1  0.333721  0.166861  0.000468  1
  Si  Si12  1  0.167365  0.832635  0.500817  1
  Si  Si13  1  0.666170  0.833085  0.999460  1
  Si  Si14  1  0.829926  0.170074  0.499380  1
  Si  Si15  1  0.833139  0.666279  0.000468  1
  Si  Si16  1  0.665271  0.832635  0.500817  1
  Si  Si17  1  0.166915  0.333830  0.999460  1
  Si  Si18  1  0.340149  0.170074  0.499380  1
  Si  Si19  1  0.167365  0.334729  0.500817  1
  Si  Si20  1  0.829926  0.659851  0.499380  1
  Rh  Rh21  1  0.666667  0.333333  0.997151  1
  Rh  Rh22  1  0.333333  0.666667  0.003047  1
  Rh  Rh23  1  0.333333  0.666667  0.497663  1
