# generated using pymatgen
data_Y3AlIn2CuAu2
_symmetry_space_group_name_H-M   'P 1'
_cell_length_a   7.62244500
_cell_length_b   7.67185555
_cell_length_c   3.88679000
_cell_angle_alpha   90.00000000
_cell_angle_beta   90.00000000
_cell_angle_gamma   119.78718214
_symmetry_Int_Tables_number   1
_chemical_formula_structural   Y3AlIn2CuAu2
_chemical_formula_sum   'Y3 Al1 In2 Cu1 Au2'
_cell_volume   197.26215712
_cell_formula_units_Z   1
loop_
 _symmetry_equiv_pos_site_id
 _symmetry_equiv_pos_as_xyz
  1  'x, y, z'
loop_
 _atom_site_type_symbol
 _atom_site_label
 _atom_site_symmetry_multiplicity
 _atom_site_fract_x
 _atom_site_fract_y
 _atom_site_fract_z
 _atom_site_occupancy
  Y  Y0  1  0.411708  0.000000  0.500000  1
  Y  Y1  1  0.999594  0.402537  0.500000  1
  Y  Y2  1  0.597057  0.597463  0.500000  1
  Al  Al3  1  0.757346  0.000000  0.000000  1
  In  In4  1  0.998636  0.755820  0.000000  1
  In  In5  1  0.242816  0.244180  0.000000  1
  Cu  Cu6  1  0.977854  0.000000  0.500000  1
  Au  Au7  1  0.345435  0.675883  0.000000  1
  Au  Au8  1  0.669553  0.324117  0.000000  1
