# generated using pymatgen
data_Tm10Lu2InFe2RuAu
_symmetry_space_group_name_H-M   'P 1'
_cell_length_a   8.15499138
_cell_length_b   8.14747667
_cell_length_c   8.14754300
_cell_angle_alpha   110.21037830
_cell_angle_beta   107.27352115
_cell_angle_gamma   110.91528860
_symmetry_Int_Tables_number   1
_chemical_formula_structural   Tm10Lu2InFe2RuAu
_chemical_formula_sum   'Tm10 Lu2 In1 Fe2 Ru1 Au1'
_cell_volume   416.44868036
_cell_formula_units_Z   1
loop_
 _symmetry_equiv_pos_site_id
 _symmetry_equiv_pos_as_xyz
  1  'x, y, z'
loop_
 _atom_site_type_symbol
 _atom_site_label
 _atom_site_symmetry_multiplicity
 _atom_site_fract_x
 _atom_site_fract_y
 _atom_site_fract_z
 _atom_site_occupancy
  Tm  Tm0  1  0.307812  0.310451  0.617147  1
  Tm  Tm1  1  0.692188  0.689549  0.382853  1
  Tm  Tm2  1  0.692186  0.309339  0.002639  1
  Tm  Tm3  1  0.307814  0.690661  0.997361  1
  Tm  Tm4  1  0.195082  0.451474  0.257355  1
  Tm  Tm5  1  0.804918  0.548526  0.742645  1
  Tm  Tm6  1  0.195082  0.937726  0.743603  1
  Tm  Tm7  1  0.961412  0.189884  0.771531  1
  Tm  Tm8  1  0.804918  0.062274  0.256397  1
  Tm  Tm9  1  0.038588  0.810116  0.228469  1
  Lu  Lu10  1  0.417248  0.189405  0.227844  1
  Lu  Lu11  1  0.582752  0.810595  0.772156  1
  In  In12  1  0.500000  0.000000  0.500000  1
  Fe  Fe13  1  0.382000  0.381715  0.000267  1
  Fe  Fe14  1  0.618000  0.618285  0.999733  1
  Ru  Ru15  1  0.000000  0.000000  0.000000  1
  Au  Au16  1  0.000000  0.500000  0.500000  1
