# generated using pymatgen
data_Hf3Zr3MnI12
_symmetry_space_group_name_H-M   'P 1'
_cell_length_a   9.39332100
_cell_length_b   9.39279015
_cell_length_c   9.39770126
_cell_angle_alpha   106.91461438
_cell_angle_beta   106.90711112
_cell_angle_gamma   106.91260183
_symmetry_Int_Tables_number   1
_chemical_formula_structural   Hf3Zr3MnI12
_chemical_formula_sum   'Hf3 Zr3 Mn1 I12'
_cell_volume   692.18909989
_cell_formula_units_Z   1
loop_
 _symmetry_equiv_pos_site_id
 _symmetry_equiv_pos_as_xyz
  1  'x, y, z'
loop_
 _atom_site_type_symbol
 _atom_site_label
 _atom_site_symmetry_multiplicity
 _atom_site_fract_x
 _atom_site_fract_y
 _atom_site_fract_z
 _atom_site_occupancy
  Hf  Hf0  1  0.970395  0.722624  0.908019  1
  Hf  Hf1  1  0.276785  0.091659  0.028398  1
  Hf  Hf2  1  0.091989  0.029348  0.276029  1
  Zr  Zr3  1  0.906698  0.970838  0.716268  1
  Zr  Zr4  1  0.716529  0.906062  0.969775  1
  Zr  Zr5  1  0.029110  0.282885  0.093696  1
  Mn  Mn6  1  0.996941  0.001099  0.997486  1
  I  I7  1  0.923269  0.312403  0.778390  1
  I  I8  1  0.688158  0.222095  0.078033  1
  I  I9  1  0.439952  0.140609  0.366212  1
  I  I10  1  0.859163  0.628658  0.560576  1
  I  I11  1  0.227164  0.078442  0.695166  1
  I  I12  1  0.634475  0.555680  0.857189  1
  I  I13  1  0.371254  0.439783  0.141767  1
  I  I14  1  0.783651  0.923933  0.313469  1
  I  I15  1  0.143625  0.365141  0.444564  1
  I  I16  1  0.556040  0.856781  0.629620  1
  I  I17  1  0.307235  0.778631  0.923667  1
  I  I18  1  0.077568  0.693330  0.221676  1
