# generated using pymatgen
data_Er2Tm2Ti3GaIr4
_symmetry_space_group_name_H-M   'P 1'
_cell_length_a   4.28793400
_cell_length_b   6.91170956
_cell_length_c   7.97162997
_cell_angle_alpha   92.90922684
_cell_angle_beta   90.00000000
_cell_angle_gamma   90.00000000
_symmetry_Int_Tables_number   1
_chemical_formula_structural   Er2Tm2Ti3GaIr4
_chemical_formula_sum   'Er2 Tm2 Ti3 Ga1 Ir4'
_cell_volume   235.95034817
_cell_formula_units_Z   1
loop_
 _symmetry_equiv_pos_site_id
 _symmetry_equiv_pos_as_xyz
  1  'x, y, z'
loop_
 _atom_site_type_symbol
 _atom_site_label
 _atom_site_symmetry_multiplicity
 _atom_site_fract_x
 _atom_site_fract_y
 _atom_site_fract_z
 _atom_site_occupancy
  Er  Er0  1  0.250000  0.977349  0.316426  1
  Er  Er1  1  0.250000  0.467657  0.171043  1
  Tm  Tm2  1  0.750000  0.030897  0.687145  1
  Tm  Tm3  1  0.750000  0.514695  0.825605  1
  Ti  Ti4  1  0.250000  0.365280  0.569092  1
  Ti  Ti5  1  0.250000  0.866258  0.939968  1
  Ti  Ti6  1  0.750000  0.634677  0.432872  1
  Ga  Ga7  1  0.750000  0.144841  0.069529  1
  Ir  Ir8  1  0.250000  0.226861  0.870844  1
  Ir  Ir9  1  0.250000  0.728408  0.605213  1
  Ir  Ir10  1  0.750000  0.768232  0.114321  1
  Ir  Ir11  1  0.750000  0.274845  0.397942  1
