# generated using pymatgen
data_Y6Er10Cd4OsPt3
_symmetry_space_group_name_H-M   'P 1'
_cell_length_a   9.66704854
_cell_length_b   9.66704991
_cell_length_c   9.66704945
_cell_angle_alpha   59.47266427
_cell_angle_beta   59.47266535
_cell_angle_gamma   59.47266146
_symmetry_Int_Tables_number   1
_chemical_formula_structural   Y6Er10Cd4OsPt3
_chemical_formula_sum   'Y6 Er10 Cd4 Os1 Pt3'
_cell_volume   631.14032871
_cell_formula_units_Z   1
loop_
 _symmetry_equiv_pos_site_id
 _symmetry_equiv_pos_as_xyz
  1  'x, y, z'
loop_
 _atom_site_type_symbol
 _atom_site_label
 _atom_site_symmetry_multiplicity
 _atom_site_fract_x
 _atom_site_fract_y
 _atom_site_fract_z
 _atom_site_occupancy
  Y  Y0  1  0.936651  0.564403  0.564403  1
  Y  Y1  1  0.557364  0.938910  0.938910  1
  Y  Y2  1  0.564403  0.936651  0.564403  1
  Y  Y3  1  0.938910  0.557364  0.938910  1
  Y  Y4  1  0.564403  0.564403  0.936651  1
  Y  Y5  1  0.938910  0.938910  0.557364  1
  Er  Er6  1  0.351311  0.351311  0.351311  1
  Er  Er7  1  0.349815  0.349815  0.948751  1
  Er  Er8  1  0.349815  0.948751  0.349815  1
  Er  Er9  1  0.948751  0.349815  0.349815  1
  Er  Er10  1  0.815057  0.188380  0.188380  1
  Er  Er11  1  0.187994  0.810387  0.810387  1
  Er  Er12  1  0.188380  0.815057  0.188380  1
  Er  Er13  1  0.810387  0.187994  0.810387  1
  Er  Er14  1  0.188380  0.188380  0.815057  1
  Er  Er15  1  0.810387  0.810387  0.187994  1
  Cd  Cd16  1  0.579577  0.579577  0.579577  1
  Cd  Cd17  1  0.580455  0.580455  0.256287  1
  Cd  Cd18  1  0.580455  0.256287  0.580455  1
  Cd  Cd19  1  0.256287  0.580455  0.580455  1
  Os  Os20  1  0.143092  0.143092  0.143092  1
  Pt  Pt21  1  0.143140  0.143140  0.572940  1
  Pt  Pt22  1  0.143140  0.572940  0.143140  1
  Pt  Pt23  1  0.572940  0.143140  0.143140  1
