# generated using pymatgen
data_LaGa5Pt3
_symmetry_space_group_name_H-M   'P 1'
_cell_length_a   4.18258200
_cell_length_b   7.45820000
_cell_length_c   21.12584500
_cell_angle_alpha   90.00000000
_cell_angle_beta   90.00000000
_cell_angle_gamma   90.00000000
_symmetry_Int_Tables_number   1
_chemical_formula_structural   LaGa5Pt3
_chemical_formula_sum   'La4 Ga20 Pt12'
_cell_volume   659.01087053
_cell_formula_units_Z   4
loop_
 _symmetry_equiv_pos_site_id
 _symmetry_equiv_pos_as_xyz
  1  'x, y, z'
loop_
 _atom_site_type_symbol
 _atom_site_label
 _atom_site_symmetry_multiplicity
 _atom_site_fract_x
 _atom_site_fract_y
 _atom_site_fract_z
 _atom_site_occupancy
  La  La0  1  0.250000  0.116749  0.640815  1
  La  La1  1  0.750000  0.883251  0.359185  1
  La  La2  1  0.250000  0.383251  0.140815  1
  La  La3  1  0.750000  0.616749  0.859185  1
  Ga  Ga4  1  0.750000  0.353652  0.383546  1
  Ga  Ga5  1  0.750000  0.884157  0.982903  1
  Ga  Ga6  1  0.750000  0.680751  0.200527  1
  Ga  Ga7  1  0.250000  0.869915  0.490474  1
  Ga  Ga8  1  0.250000  0.630085  0.990474  1
  Ga  Ga9  1  0.250000  0.319249  0.799473  1
  Ga  Ga10  1  0.750000  0.080099  0.207134  1
  Ga  Ga11  1  0.250000  0.646348  0.616454  1
  Ga  Ga12  1  0.250000  0.580099  0.292866  1
  Ga  Ga13  1  0.250000  0.180751  0.299473  1
  Ga  Ga14  1  0.750000  0.146348  0.883546  1
  Ga  Ga15  1  0.250000  0.919901  0.792866  1
  Ga  Ga16  1  0.750000  0.369915  0.009526  1
  Ga  Ga17  1  0.750000  0.615843  0.482903  1
  Ga  Ga18  1  0.750000  0.130085  0.509526  1
  Ga  Ga19  1  0.250000  0.115843  0.017097  1
  Ga  Ga20  1  0.250000  0.853652  0.116454  1
  Ga  Ga21  1  0.250000  0.384157  0.517097  1
  Ga  Ga22  1  0.750000  0.419901  0.707134  1
  Ga  Ga23  1  0.750000  0.819249  0.700527  1
  Pt  Pt24  1  0.750000  0.383604  0.263587  1
  Pt  Pt25  1  0.250000  0.883604  0.236413  1
  Pt  Pt26  1  0.250000  0.616396  0.736413  1
  Pt  Pt27  1  0.750000  0.116396  0.763587  1
  Pt  Pt28  1  0.250000  0.163049  0.425737  1
  Pt  Pt29  1  0.750000  0.423735  0.585485  1
  Pt  Pt30  1  0.750000  0.076265  0.085485  1
  Pt  Pt31  1  0.250000  0.923735  0.914515  1
  Pt  Pt32  1  0.750000  0.836951  0.574263  1
  Pt  Pt33  1  0.250000  0.336951  0.925737  1
  Pt  Pt34  1  0.750000  0.663049  0.074263  1
  Pt  Pt35  1  0.250000  0.576265  0.414515  1
