# generated using pymatgen
data_Pa4AlBiRh4
_symmetry_space_group_name_H-M   'P 1'
_cell_length_a   7.67850500
_cell_length_b   7.67850500
_cell_length_c   3.63749500
_cell_angle_alpha   90.00000000
_cell_angle_beta   90.00000000
_cell_angle_gamma   90.00000000
_symmetry_Int_Tables_number   1
_chemical_formula_structural   Pa4AlBiRh4
_chemical_formula_sum   'Pa4 Al1 Bi1 Rh4'
_cell_volume   214.46466469
_cell_formula_units_Z   1
loop_
 _symmetry_equiv_pos_site_id
 _symmetry_equiv_pos_as_xyz
  1  'x, y, z'
loop_
 _atom_site_type_symbol
 _atom_site_label
 _atom_site_symmetry_multiplicity
 _atom_site_fract_x
 _atom_site_fract_y
 _atom_site_fract_z
 _atom_site_occupancy
  Pa  Pa0  1  0.661942  0.186652  0.500000  1
  Pa  Pa1  1  0.186652  0.338058  0.500000  1
  Pa  Pa2  1  0.813349  0.661942  0.500000  1
  Pa  Pa3  1  0.338058  0.813349  0.500000  1
  Al  Al4  1  0.500000  0.500000  0.000000  1
  Bi  Bi5  1  0.000000  0.000000  0.000000  1
  Rh  Rh6  1  0.379833  0.144619  0.000000  1
  Rh  Rh7  1  0.855381  0.379833  0.000000  1
  Rh  Rh8  1  0.144619  0.620168  0.000000  1
  Rh  Rh9  1  0.620168  0.855381  0.000000  1
