# generated using pymatgen
data_Sc12Si12Os3Au
_symmetry_space_group_name_H-M   'P 1'
_cell_length_a   4.05057800
_cell_length_b   10.31504650
_cell_length_c   11.69026043
_cell_angle_alpha   89.89632324
_cell_angle_beta   90.00000000
_cell_angle_gamma   90.00000000
_symmetry_Int_Tables_number   1
_chemical_formula_structural   Sc12Si12Os3Au
_chemical_formula_sum   'Sc12 Si12 Os3 Au1'
_cell_volume   488.44049760
_cell_formula_units_Z   1
loop_
 _symmetry_equiv_pos_site_id
 _symmetry_equiv_pos_as_xyz
  1  'x, y, z'
loop_
 _atom_site_type_symbol
 _atom_site_label
 _atom_site_symmetry_multiplicity
 _atom_site_fract_x
 _atom_site_fract_y
 _atom_site_fract_z
 _atom_site_occupancy
  Sc  Sc0  1  0.250000  0.878588  0.020640  1
  Sc  Sc1  1  0.250000  0.627367  0.515701  1
  Sc  Sc2  1  0.750000  0.123357  0.981987  1
  Sc  Sc3  1  0.750000  0.378071  0.476040  1
  Sc  Sc4  1  0.250000  0.920712  0.602039  1
  Sc  Sc5  1  0.250000  0.579482  0.104376  1
  Sc  Sc6  1  0.750000  0.080203  0.395202  1
  Sc  Sc7  1  0.750000  0.420547  0.898563  1
  Sc  Sc8  1  0.250000  0.664648  0.801193  1
  Sc  Sc9  1  0.250000  0.842280  0.297849  1
  Sc  Sc10  1  0.750000  0.341805  0.202396  1
  Sc  Sc11  1  0.750000  0.153383  0.701987  1
  Si  Si12  1  0.250000  0.010673  0.821148  1
  Si  Si13  1  0.250000  0.485937  0.322832  1
  Si  Si14  1  0.750000  0.985915  0.178295  1
  Si  Si15  1  0.750000  0.526136  0.674764  1
  Si  Si16  1  0.250000  0.244546  0.849736  1
  Si  Si17  1  0.250000  0.249269  0.340743  1
  Si  Si18  1  0.750000  0.748392  0.158844  1
  Si  Si19  1  0.750000  0.754560  0.658163  1
  Si  Si20  1  0.250000  0.181702  0.540035  1
  Si  Si21  1  0.250000  0.306532  0.049043  1
  Si  Si22  1  0.750000  0.805921  0.452441  1
  Si  Si23  1  0.750000  0.696380  0.955835  1
  Os  Os24  1  0.250000  0.108904  0.176247  1
  Os  Os25  1  0.750000  0.608781  0.323693  1
  Os  Os26  1  0.750000  0.890213  0.824087  1
  Au  Au27  1  0.250000  0.385697  0.676122  1
