# generated using pymatgen
data_Tm12TcOsRh2
_symmetry_space_group_name_H-M   'P 1'
_cell_length_a   7.28497877
_cell_length_b   8.98834600
_cell_length_c   6.25134689
_cell_angle_alpha   90.00000000
_cell_angle_beta   89.95844640
_cell_angle_gamma   90.00000000
_symmetry_Int_Tables_number   1
_chemical_formula_structural   Tm12TcOsRh2
_chemical_formula_sum   'Tm12 Tc1 Os1 Rh2'
_cell_volume   409.33752291
_cell_formula_units_Z   1
loop_
 _symmetry_equiv_pos_site_id
 _symmetry_equiv_pos_as_xyz
  1  'x, y, z'
loop_
 _atom_site_type_symbol
 _atom_site_label
 _atom_site_symmetry_multiplicity
 _atom_site_fract_x
 _atom_site_fract_y
 _atom_site_fract_z
 _atom_site_occupancy
  Tm  Tm0  1  0.039313  0.250000  0.627013  1
  Tm  Tm1  1  0.960655  0.750000  0.376727  1
  Tm  Tm2  1  0.463820  0.750000  0.131077  1
  Tm  Tm3  1  0.535744  0.250000  0.869221  1
  Tm  Tm4  1  0.173717  0.060578  0.164651  1
  Tm  Tm5  1  0.825551  0.939757  0.834726  1
  Tm  Tm6  1  0.318928  0.934859  0.670834  1
  Tm  Tm7  1  0.825551  0.560243  0.834726  1
  Tm  Tm8  1  0.682685  0.065595  0.328071  1
  Tm  Tm9  1  0.173717  0.439422  0.164651  1
  Tm  Tm10  1  0.682685  0.434405  0.328071  1
  Tm  Tm11  1  0.318928  0.565141  0.670834  1
  Tc  Tc12  1  0.115720  0.750000  0.966550  1
  Os  Os13  1  0.882432  0.250000  0.034663  1
  Rh  Rh14  1  0.386082  0.250000  0.456308  1
  Rh  Rh15  1  0.614474  0.750000  0.541877  1
