# generated using pymatgen
data_Tm2Lu4Al24Ru5Pt3
_symmetry_space_group_name_H-M   'P 1'
_cell_length_a   8.77160685
_cell_length_b   8.84069921
_cell_length_c   9.47814322
_cell_angle_alpha   89.79321062
_cell_angle_beta   90.26351390
_cell_angle_gamma   120.02088461
_symmetry_Int_Tables_number   1
_chemical_formula_structural   Tm2Lu4Al24Ru5Pt3
_chemical_formula_sum   'Tm2 Lu4 Al24 Ru5 Pt3'
_cell_volume   636.38970866
_cell_formula_units_Z   1
loop_
 _symmetry_equiv_pos_site_id
 _symmetry_equiv_pos_as_xyz
  1  'x, y, z'
loop_
 _atom_site_type_symbol
 _atom_site_label
 _atom_site_symmetry_multiplicity
 _atom_site_fract_x
 _atom_site_fract_y
 _atom_site_fract_z
 _atom_site_occupancy
  Tm  Tm0  1  0.805195  0.614368  0.749490  1
  Tm  Tm1  1  0.194805  0.385632  0.250510  1
  Lu  Lu2  1  0.800755  0.189680  0.748455  1
  Lu  Lu3  1  0.199245  0.810320  0.251545  1
  Lu  Lu4  1  0.390048  0.193010  0.749211  1
  Lu  Lu5  1  0.609952  0.806990  0.250789  1
  Al  Al6  1  0.663684  0.327577  0.970965  1
  Al  Al7  1  0.336316  0.672423  0.029035  1
  Al  Al8  1  0.339290  0.669772  0.472217  1
  Al  Al9  1  0.660710  0.330228  0.527783  1
  Al  Al10  1  0.833309  0.158345  0.421699  1
  Al  Al11  1  0.166691  0.841655  0.578301  1
  Al  Al12  1  0.326662  0.163826  0.421239  1
  Al  Al13  1  0.166442  0.842235  0.920631  1
  Al  Al14  1  0.673338  0.836174  0.578761  1
  Al  Al15  1  0.833558  0.157765  0.079369  1
  Al  Al16  1  0.833589  0.676456  0.421036  1
  Al  Al17  1  0.674500  0.841911  0.920298  1
  Al  Al18  1  0.166411  0.323544  0.578964  1
  Al  Al19  1  0.325500  0.158089  0.079702  1
  Al  Al20  1  0.160285  0.322012  0.919222  1
  Al  Al21  1  0.839715  0.677988  0.080778  1
  Al  Al22  1  0.437355  0.561613  0.746778  1
  Al  Al23  1  0.562645  0.438387  0.253222  1
  Al  Al24  1  0.126251  0.563128  0.750496  1
  Al  Al25  1  0.873749  0.436872  0.249504  1
  Al  Al26  1  0.439012  0.878956  0.750424  1
  Al  Al27  1  0.560988  0.121044  0.249576  1
  Al  Al28  1  0.997694  0.998087  0.749846  1
  Al  Al29  1  0.002306  0.001913  0.250154  1
  Ru  Ru30  1  0.500000  0.500000  0.500000  1
  Ru  Ru31  1  0.500000  0.000000  0.000000  1
  Ru  Ru32  1  0.500000  0.000000  0.500000  1
  Ru  Ru33  1  0.000000  0.000000  0.000000  1
  Ru  Ru34  1  0.000000  0.000000  0.500000  1
  Pt  Pt35  1  0.500000  0.500000  0.000000  1
  Pt  Pt36  1  0.000000  0.500000  0.000000  1
  Pt  Pt37  1  0.000000  0.500000  0.500000  1
