# generated using pymatgen
data_CaErSi7Ir12
_symmetry_space_group_name_H-M   'P 1'
_cell_length_a   9.76417900
_cell_length_b   9.76417870
_cell_length_c   3.89035400
_cell_angle_alpha   90.00000000
_cell_angle_beta   90.00000000
_cell_angle_gamma   119.99999764
_symmetry_Int_Tables_number   1
_chemical_formula_structural   CaErSi7Ir12
_chemical_formula_sum   'Ca1 Er1 Si7 Ir12'
_cell_volume   321.21159571
_cell_formula_units_Z   1
loop_
 _symmetry_equiv_pos_site_id
 _symmetry_equiv_pos_as_xyz
  1  'x, y, z'
loop_
 _atom_site_type_symbol
 _atom_site_label
 _atom_site_symmetry_multiplicity
 _atom_site_fract_x
 _atom_site_fract_y
 _atom_site_fract_z
 _atom_site_occupancy
  Ca  Ca0  1  0.666667  0.333333  0.250845  1
  Er  Er1  1  0.333333  0.666667  0.749806  1
  Si  Si2  1  0.000000  0.000000  0.499927  1
  Si  Si3  1  0.290039  0.885016  0.248786  1
  Si  Si4  1  0.594978  0.709961  0.248786  1
  Si  Si5  1  0.114984  0.405022  0.248786  1
  Si  Si6  1  0.711310  0.117460  0.751010  1
  Si  Si7  1  0.406150  0.288690  0.751010  1
  Si  Si8  1  0.882540  0.593850  0.751010  1
  Ir  Ir9  1  0.260399  0.115813  0.253906  1
  Ir  Ir10  1  0.855415  0.739601  0.253906  1
  Ir  Ir11  1  0.884187  0.144585  0.253906  1
  Ir  Ir12  1  0.739501  0.885495  0.746147  1
  Ir  Ir13  1  0.145994  0.260499  0.746147  1
  Ir  Ir14  1  0.114505  0.854006  0.746147  1
  Ir  Ir15  1  0.063866  0.619811  0.248924  1
  Ir  Ir16  1  0.555945  0.936134  0.248924  1
  Ir  Ir17  1  0.380189  0.444055  0.248924  1
  Ir  Ir18  1  0.941629  0.383276  0.751034  1
  Ir  Ir19  1  0.441648  0.058371  0.751034  1
  Ir  Ir20  1  0.616724  0.558352  0.751034  1
