# generated using pymatgen
data_Ac2Se3
_symmetry_space_group_name_H-M   'P 1'
_cell_length_a   12.05969800
_cell_length_b   4.44758600
_cell_length_c   11.71956700
_cell_angle_alpha   90.00000000
_cell_angle_beta   90.00000000
_cell_angle_gamma   90.00000000
_symmetry_Int_Tables_number   1
_chemical_formula_structural   Ac2Se3
_chemical_formula_sum   'Ac8 Se12'
_cell_volume   628.59707093
_cell_formula_units_Z   4
loop_
 _symmetry_equiv_pos_site_id
 _symmetry_equiv_pos_as_xyz
  1  'x, y, z'
loop_
 _atom_site_type_symbol
 _atom_site_label
 _atom_site_symmetry_multiplicity
 _atom_site_fract_x
 _atom_site_fract_y
 _atom_site_fract_z
 _atom_site_occupancy
  Ac  Ac0  1  0.493205  0.250000  0.186811  1
  Ac  Ac1  1  0.993205  0.250000  0.313189  1
  Ac  Ac2  1  0.506795  0.750000  0.813189  1
  Ac  Ac3  1  0.006795  0.750000  0.686811  1
  Ac  Ac4  1  0.690986  0.750000  0.493228  1
  Ac  Ac5  1  0.190986  0.750000  0.006772  1
  Ac  Ac6  1  0.309014  0.250000  0.506772  1
  Ac  Ac7  1  0.809014  0.250000  0.993228  1
  Se  Se8  1  0.547602  0.250000  0.626353  1
  Se  Se9  1  0.047602  0.250000  0.873647  1
  Se  Se10  1  0.452398  0.750000  0.373647  1
  Se  Se11  1  0.952398  0.750000  0.126353  1
  Se  Se12  1  0.620895  0.750000  0.055372  1
  Se  Se13  1  0.120895  0.750000  0.444628  1
  Se  Se14  1  0.379105  0.250000  0.944628  1
  Se  Se15  1  0.879105  0.250000  0.555372  1
  Se  Se16  1  0.730056  0.250000  0.299515  1
  Se  Se17  1  0.230056  0.250000  0.200485  1
  Se  Se18  1  0.269944  0.750000  0.700485  1
  Se  Se19  1  0.769944  0.750000  0.799515  1
