# generated using pymatgen
data_Hf4Zr6GaSn6Sb
_symmetry_space_group_name_H-M   'P 1'
_cell_length_a   8.76014000
_cell_length_b   8.76014019
_cell_length_c   5.91982400
_cell_angle_alpha   90.00000000
_cell_angle_beta   90.00000000
_cell_angle_gamma   119.99999928
_symmetry_Int_Tables_number   1
_chemical_formula_structural   Hf4Zr6GaSn6Sb
_chemical_formula_sum   'Hf4 Zr6 Ga1 Sn6 Sb1'
_cell_volume   393.42461918
_cell_formula_units_Z   1
loop_
 _symmetry_equiv_pos_site_id
 _symmetry_equiv_pos_as_xyz
  1  'x, y, z'
loop_
 _atom_site_type_symbol
 _atom_site_label
 _atom_site_symmetry_multiplicity
 _atom_site_fract_x
 _atom_site_fract_y
 _atom_site_fract_z
 _atom_site_occupancy
  Hf  Hf0  1  0.666667  0.333333  0.000000  1
  Hf  Hf1  1  0.333333  0.666667  0.000000  1
  Hf  Hf2  1  0.333333  0.666667  0.500000  1
  Hf  Hf3  1  0.666667  0.333333  0.500000  1
  Zr  Zr4  1  0.725425  0.725425  0.736103  1
  Zr  Zr5  1  0.274575  0.000000  0.736103  1
  Zr  Zr6  1  0.000000  0.274575  0.736103  1
  Zr  Zr7  1  0.274575  0.274575  0.263897  1
  Zr  Zr8  1  0.725425  0.000000  0.263897  1
  Zr  Zr9  1  0.000000  0.725425  0.263897  1
  Ga  Ga10  1  0.000000  0.000000  0.500000  1
  Sn  Sn11  1  0.388904  0.388904  0.753490  1
  Sn  Sn12  1  0.611096  0.000000  0.753490  1
  Sn  Sn13  1  0.000000  0.611096  0.753490  1
  Sn  Sn14  1  0.611096  0.611096  0.246510  1
  Sn  Sn15  1  0.388904  0.000000  0.246510  1
  Sn  Sn16  1  0.000000  0.388904  0.246510  1
  Sb  Sb17  1  0.000000  0.000000  0.000000  1
