# generated using pymatgen
data_Th2Re5BrO24
_symmetry_space_group_name_H-M   'P 1'
_cell_length_a   10.68804468
_cell_length_b   10.59241604
_cell_length_c   6.35753300
_cell_angle_alpha   90.00000000
_cell_angle_beta   90.00000000
_cell_angle_gamma   117.89610064
_symmetry_Int_Tables_number   1
_chemical_formula_structural   Th2Re5BrO24
_chemical_formula_sum   'Th2 Re5 Br1 O24'
_cell_volume   636.11358383
_cell_formula_units_Z   1
loop_
 _symmetry_equiv_pos_site_id
 _symmetry_equiv_pos_as_xyz
  1  'x, y, z'
loop_
 _atom_site_type_symbol
 _atom_site_label
 _atom_site_symmetry_multiplicity
 _atom_site_fract_x
 _atom_site_fract_y
 _atom_site_fract_z
 _atom_site_occupancy
  Th  Th0  1  0.683478  0.325113  0.750000  1
  Th  Th1  1  0.326605  0.658631  0.250000  1
  Re  Re2  1  0.407116  0.311166  0.250000  1
  Re  Re3  1  0.601238  0.689341  0.750000  1
  Re  Re4  1  0.915674  0.610244  0.250000  1
  Re  Re5  1  0.304229  0.909393  0.750000  1
  Re  Re6  1  0.669091  0.066001  0.250000  1
  Br  Br7  1  0.108202  0.420868  0.750000  1
  O  O8  1  0.494498  0.651558  0.522143  1
  O  O9  1  0.346465  0.841134  0.521268  1
  O  O10  1  0.867439  0.744611  0.250000  1
  O  O11  1  0.125679  0.858590  0.750000  1
  O  O12  1  0.282771  0.133392  0.250000  1
  O  O13  1  0.165545  0.303086  0.750000  1
  O  O14  1  0.515847  0.347581  0.026123  1
  O  O15  1  0.847378  0.117532  0.250000  1
  O  O16  1  0.102482  0.684323  0.250000  1
  O  O17  1  0.192208  0.533050  0.968437  1
  O  O18  1  0.192208  0.533050  0.531563  1
  O  O19  1  0.849379  0.293351  0.750000  1
  O  O20  1  0.323799  0.420771  0.250000  1
  O  O21  1  0.689743  0.585822  0.750000  1
  O  O22  1  0.843343  0.502172  0.473019  1
  O  O23  1  0.401043  0.095890  0.750000  1
  O  O24  1  0.626528  0.137691  0.028130  1
  O  O25  1  0.494498  0.651558  0.977857  1
  O  O26  1  0.346465  0.841134  0.978732  1
  O  O27  1  0.626528  0.137691  0.471870  1
  O  O28  1  0.515847  0.347581  0.473877  1
  O  O29  1  0.843343  0.502172  0.026981  1
  O  O30  1  0.722324  0.868203  0.750000  1
  O  O31  1  0.569006  0.877300  0.250000  1
