# generated using pymatgen
data_Y8Tm12Ga5Si11
_symmetry_space_group_name_H-M   'P 1'
_cell_length_a   7.32608120
_cell_length_b   7.62038052
_cell_length_c   14.53112700
_cell_angle_alpha   89.98845871
_cell_angle_beta   90.10457973
_cell_angle_gamma   90.07408071
_symmetry_Int_Tables_number   1
_chemical_formula_structural   Y8Tm12Ga5Si11
_chemical_formula_sum   'Y8 Tm12 Ga5 Si11'
_cell_volume   811.23483212
_cell_formula_units_Z   1
loop_
 _symmetry_equiv_pos_site_id
 _symmetry_equiv_pos_as_xyz
  1  'x, y, z'
loop_
 _atom_site_type_symbol
 _atom_site_label
 _atom_site_symmetry_multiplicity
 _atom_site_fract_x
 _atom_site_fract_y
 _atom_site_fract_z
 _atom_site_occupancy
  Y  Y0  1  0.017337  0.177568  0.400555  1
  Y  Y1  1  0.516897  0.322519  0.400794  1
  Y  Y2  1  0.485411  0.678920  0.899778  1
  Y  Y3  1  0.482944  0.680292  0.599085  1
  Y  Y4  1  0.983064  0.820068  0.598899  1
  Y  Y5  1  0.983073  0.825076  0.900111  1
  Y  Y6  1  0.515394  0.321460  0.100395  1
  Y  Y7  1  0.015506  0.178156  0.100761  1
  Tm  Tm8  1  0.327081  0.173695  0.623741  1
  Tm  Tm9  1  0.673866  0.822772  0.376064  1
  Tm  Tm10  1  0.661583  0.992365  0.750989  1
  Tm  Tm11  1  0.173104  0.677216  0.375994  1
  Tm  Tm12  1  0.826005  0.324486  0.876111  1
  Tm  Tm13  1  0.826842  0.325925  0.623630  1
  Tm  Tm14  1  0.838781  0.492554  0.250447  1
  Tm  Tm15  1  0.339415  0.006417  0.251243  1
  Tm  Tm16  1  0.328744  0.175645  0.874629  1
  Tm  Tm17  1  0.172237  0.672976  0.125255  1
  Tm  Tm18  1  0.671288  0.825977  0.124773  1
  Tm  Tm19  1  0.160966  0.507017  0.750682  1
  Ga  Ga20  1  0.158593  0.463858  0.537928  1
  Ga  Ga21  1  0.840154  0.535950  0.038887  1
  Ga  Ga22  1  0.339957  0.963976  0.038217  1
  Ga  Ga23  1  0.159159  0.464670  0.960773  1
  Ga  Ga24  1  0.658740  0.035959  0.537918  1
  Si  Si25  1  0.278570  0.872746  0.749472  1
  Si  Si26  1  0.468308  0.609026  0.251308  1
  Si  Si27  1  0.031266  0.109516  0.749214  1
  Si  Si28  1  0.531763  0.392187  0.749073  1
  Si  Si29  1  0.968678  0.891397  0.250525  1
  Si  Si30  1  0.720146  0.128013  0.251040  1
  Si  Si31  1  0.345081  0.967305  0.460213  1
  Si  Si32  1  0.844930  0.532456  0.460163  1
  Si  Si33  1  0.779498  0.627893  0.749093  1
  Si  Si34  1  0.220580  0.371173  0.251476  1
  Si  Si35  1  0.655042  0.032770  0.960767  1
