# generated using pymatgen
data_Li4Sm2YPb4
_symmetry_space_group_name_H-M   'P 1'
_cell_length_a   4.72047594
_cell_length_b   7.19761699
_cell_length_c   8.86332872
_cell_angle_alpha   113.95591409
_cell_angle_beta   105.44376522
_cell_angle_gamma   90.00000390
_symmetry_Int_Tables_number   1
_chemical_formula_structural   Li4Sm2YPb4
_chemical_formula_sum   'Li4 Sm2 Y1 Pb4'
_cell_volume   263.25825895
_cell_formula_units_Z   1
loop_
 _symmetry_equiv_pos_site_id
 _symmetry_equiv_pos_as_xyz
  1  'x, y, z'
loop_
 _atom_site_type_symbol
 _atom_site_label
 _atom_site_symmetry_multiplicity
 _atom_site_fract_x
 _atom_site_fract_y
 _atom_site_fract_z
 _atom_site_occupancy
  Li  Li0  1  0.672527  0.981311  0.345053  1
  Li  Li1  1  0.327473  0.018689  0.654947  1
  Li  Li2  1  0.327473  0.636258  0.654947  1
  Li  Li3  1  0.672527  0.363742  0.345053  1
  Sm  Sm4  1  0.129620  0.629620  0.259237  1
  Sm  Sm5  1  0.870380  0.370380  0.740763  1
  Y  Y6  1  0.000000  0.000000  0.000000  1
  Pb  Pb7  1  0.500000  0.707803  0.000000  1
  Pb  Pb8  1  0.500000  0.292197  0.000000  1
  Pb  Pb9  1  0.787189  0.787189  0.574379  1
  Pb  Pb10  1  0.212811  0.212811  0.425621  1
