# generated using pymatgen
data_Ce7NdZn3Si12Pd
_symmetry_space_group_name_H-M   'P 1'
_cell_length_a   8.23644100
_cell_length_b   8.23644149
_cell_length_c   8.48128400
_cell_angle_alpha   90.00000000
_cell_angle_beta   90.00000000
_cell_angle_gamma   119.99999401
_symmetry_Int_Tables_number   1
_chemical_formula_structural   Ce7NdZn3Si12Pd
_chemical_formula_sum   'Ce7 Nd1 Zn3 Si12 Pd1'
_cell_volume   498.27772568
_cell_formula_units_Z   1
loop_
 _symmetry_equiv_pos_site_id
 _symmetry_equiv_pos_as_xyz
  1  'x, y, z'
loop_
 _atom_site_type_symbol
 _atom_site_label
 _atom_site_symmetry_multiplicity
 _atom_site_fract_x
 _atom_site_fract_y
 _atom_site_fract_z
 _atom_site_occupancy
  Ce  Ce0  1  0.499574  0.500426  0.749917  1
  Ce  Ce1  1  0.500558  0.499442  0.249833  1
  Ce  Ce2  1  0.000852  0.500426  0.749917  1
  Ce  Ce3  1  0.998884  0.499442  0.249833  1
  Ce  Ce4  1  0.499574  0.999148  0.749917  1
  Ce  Ce5  1  0.500558  0.001116  0.249833  1
  Ce  Ce6  1  0.000000  0.000000  0.749998  1
  Nd  Nd7  1  0.000000  0.000000  0.250186  1
  Zn  Zn8  1  0.666667  0.333333  0.995332  1
  Zn  Zn9  1  0.333333  0.666667  0.003058  1
  Zn  Zn10  1  0.333333  0.666667  0.497784  1
  Si  Si11  1  0.833657  0.166343  0.000066  1
  Si  Si12  1  0.166356  0.833644  0.998556  1
  Si  Si13  1  0.332686  0.166343  0.000066  1
  Si  Si14  1  0.165281  0.834719  0.500846  1
  Si  Si15  1  0.667289  0.833644  0.998556  1
  Si  Si16  1  0.833890  0.166110  0.501419  1
  Si  Si17  1  0.833657  0.667314  0.000066  1
  Si  Si18  1  0.669437  0.834719  0.500846  1
  Si  Si19  1  0.166356  0.332711  0.998556  1
  Si  Si20  1  0.332219  0.166110  0.501419  1
  Si  Si21  1  0.165281  0.330563  0.500846  1
  Si  Si22  1  0.833890  0.667781  0.501419  1
  Pd  Pd23  1  0.666667  0.333333  0.501729  1
