# generated using pymatgen
data_Ho3ErB16Ir3Rh
_symmetry_space_group_name_H-M   'P 1'
_cell_length_a   3.56490700
_cell_length_b   5.96189262
_cell_length_c   11.56027602
_cell_angle_alpha   89.97679086
_cell_angle_beta   90.00000000
_cell_angle_gamma   90.00000000
_symmetry_Int_Tables_number   1
_chemical_formula_structural   Ho3ErB16Ir3Rh
_chemical_formula_sum   'Ho3 Er1 B16 Ir3 Rh1'
_cell_volume   245.69737831
_cell_formula_units_Z   1
loop_
 _symmetry_equiv_pos_site_id
 _symmetry_equiv_pos_as_xyz
  1  'x, y, z'
loop_
 _atom_site_type_symbol
 _atom_site_label
 _atom_site_symmetry_multiplicity
 _atom_site_fract_x
 _atom_site_fract_y
 _atom_site_fract_z
 _atom_site_occupancy
  Ho  Ho0  1  0.000000  0.131966  0.648734  1
  Ho  Ho1  1  0.000000  0.868049  0.350724  1
  Ho  Ho2  1  0.000000  0.631445  0.852208  1
  Er  Er3  1  0.000000  0.368434  0.148110  1
  B  B4  1  0.500000  0.792171  0.687816  1
  B  B5  1  0.500000  0.207994  0.312000  1
  B  B6  1  0.500000  0.291222  0.812407  1
  B  B7  1  0.500000  0.708614  0.187605  1
  B  B8  1  0.500000  0.864077  0.529915  1
  B  B9  1  0.500000  0.136035  0.469742  1
  B  B10  1  0.500000  0.364154  0.970011  1
  B  B11  1  0.500000  0.636000  0.030127  1
  B  B12  1  0.500000  0.022555  0.192917  1
  B  B13  1  0.500000  0.977948  0.806940  1
  B  B14  1  0.500000  0.523890  0.306828  1
  B  B15  1  0.500000  0.476481  0.692743  1
  B  B16  1  0.500000  0.112521  0.046552  1
  B  B17  1  0.500000  0.887857  0.952977  1
  B  B18  1  0.500000  0.612170  0.453110  1
  B  B19  1  0.500000  0.387853  0.546768  1
  Ir  Ir20  1  0.000000  0.644750  0.596899  1
  Ir  Ir21  1  0.000000  0.355872  0.403710  1
  Ir  Ir22  1  0.000000  0.141524  0.904624  1
  Rh  Rh23  1  0.000000  0.856419  0.096536  1
