# generated using pymatgen
data_Dy4MnCo5(P6Ir7)2
_symmetry_space_group_name_H-M   'P 1'
_cell_length_a   3.90508500
_cell_length_b   10.67490371
_cell_length_c   12.34826164
_cell_angle_alpha   90.03438881
_cell_angle_beta   90.00000000
_cell_angle_gamma   90.00000000
_symmetry_Int_Tables_number   1
_chemical_formula_structural   Dy4MnCo5(P6Ir7)2
_chemical_formula_sum   'Dy4 Mn1 Co5 P12 Ir14'
_cell_volume   514.75455993
_cell_formula_units_Z   1
loop_
 _symmetry_equiv_pos_site_id
 _symmetry_equiv_pos_as_xyz
  1  'x, y, z'
loop_
 _atom_site_type_symbol
 _atom_site_label
 _atom_site_symmetry_multiplicity
 _atom_site_fract_x
 _atom_site_fract_y
 _atom_site_fract_z
 _atom_site_occupancy
  Dy  Dy0  1  0.250000  0.582762  0.711201  1
  Dy  Dy1  1  0.250000  0.913280  0.209074  1
  Dy  Dy2  1  0.750000  0.417163  0.289889  1
  Dy  Dy3  1  0.750000  0.086332  0.792871  1
  Mn  Mn4  1  0.250000  0.714186  0.977816  1
  Co  Co5  1  0.750000  0.383710  0.805559  1
  Co  Co6  1  0.250000  0.465235  0.932402  1
  Co  Co7  1  0.250000  0.037771  0.434007  1
  Co  Co8  1  0.750000  0.534744  0.062484  1
  Co  Co9  1  0.750000  0.962734  0.565012  1
  P  P10  1  0.250000  0.428004  0.104984  1
  P  P11  1  0.250000  0.078835  0.606084  1
  P  P12  1  0.750000  0.568609  0.889021  1
  P  P13  1  0.750000  0.926416  0.393393  1
  P  P14  1  0.250000  0.274893  0.870565  1
  P  P15  1  0.250000  0.229499  0.371276  1
  P  P16  1  0.750000  0.727843  0.126251  1
  P  P17  1  0.750000  0.771264  0.628697  1
  P  P18  1  0.250000  0.594685  0.383749  1
  P  P19  1  0.250000  0.898850  0.888695  1
  P  P20  1  0.750000  0.403577  0.626682  1
  P  P21  1  0.750000  0.094777  0.112446  1
  Ir  Ir22  1  0.250000  0.776314  0.486629  1
  Ir  Ir23  1  0.750000  0.280625  0.013808  1
  Ir  Ir24  1  0.750000  0.222710  0.519348  1
  Ir  Ir25  1  0.250000  0.407623  0.477811  1
  Ir  Ir26  1  0.250000  0.093792  0.978867  1
  Ir  Ir27  1  0.750000  0.588087  0.524827  1
  Ir  Ir28  1  0.750000  0.904616  0.018837  1
  Ir  Ir29  1  0.250000  0.232757  0.177982  1
  Ir  Ir30  1  0.250000  0.276611  0.681363  1
  Ir  Ir31  1  0.750000  0.766465  0.819642  1
  Ir  Ir32  1  0.750000  0.729809  0.323307  1
  Ir  Ir33  1  0.250000  0.891205  0.699441  1
  Ir  Ir34  1  0.250000  0.618851  0.195393  1
  Ir  Ir35  1  0.750000  0.115366  0.300584  1
