# generated using pymatgen
data_Sc4AlGa5Ru2
_symmetry_space_group_name_H-M   'P 1'
_cell_length_a   5.28009400
_cell_length_b   5.25996005
_cell_length_c   8.52427500
_cell_angle_alpha   90.00000000
_cell_angle_beta   90.00000000
_cell_angle_gamma   120.12670283
_symmetry_Int_Tables_number   1
_chemical_formula_structural   Sc4AlGa5Ru2
_chemical_formula_sum   'Sc4 Al1 Ga5 Ru2'
_cell_volume   204.76526334
_cell_formula_units_Z   1
loop_
 _symmetry_equiv_pos_site_id
 _symmetry_equiv_pos_as_xyz
  1  'x, y, z'
loop_
 _atom_site_type_symbol
 _atom_site_label
 _atom_site_symmetry_multiplicity
 _atom_site_fract_x
 _atom_site_fract_y
 _atom_site_fract_z
 _atom_site_occupancy
  Sc  Sc0  1  0.333448  0.666896  0.054895  1
  Sc  Sc1  1  0.667513  0.335024  0.553525  1
  Sc  Sc2  1  0.333448  0.666896  0.445105  1
  Sc  Sc3  1  0.667513  0.335024  0.946475  1
  Al  Al4  1  0.162710  0.325420  0.750000  1
  Ga  Ga5  1  0.833073  0.666145  0.250000  1
  Ga  Ga6  1  0.164920  0.827697  0.750000  1
  Ga  Ga7  1  0.662776  0.827697  0.750000  1
  Ga  Ga8  1  0.335165  0.167071  0.250000  1
  Ga  Ga9  1  0.831906  0.167071  0.250000  1
  Ru  Ru10  1  0.003765  0.007529  0.500309  1
  Ru  Ru11  1  0.003765  0.007529  0.999691  1
