# generated using pymatgen
data_Ta8TcMo3Os4
_symmetry_space_group_name_H-M   'P 1'
_cell_length_a   6.40876300
_cell_length_b   4.51826700
_cell_length_c   9.07229100
_cell_angle_alpha   90.00000000
_cell_angle_beta   90.00003683
_cell_angle_gamma   90.00000000
_symmetry_Int_Tables_number   1
_chemical_formula_structural   Ta8TcMo3Os4
_chemical_formula_sum   'Ta8 Tc1 Mo3 Os4'
_cell_volume   262.70181588
_cell_formula_units_Z   1
loop_
 _symmetry_equiv_pos_site_id
 _symmetry_equiv_pos_as_xyz
  1  'x, y, z'
loop_
 _atom_site_type_symbol
 _atom_site_label
 _atom_site_symmetry_multiplicity
 _atom_site_fract_x
 _atom_site_fract_y
 _atom_site_fract_z
 _atom_site_occupancy
  Ta  Ta0  1  0.500657  0.749999  0.125501  1
  Ta  Ta1  1  0.999327  0.749999  0.125501  1
  Ta  Ta2  1  0.499956  0.250000  0.374995  1
  Ta  Ta3  1  0.000063  0.250000  0.374995  1
  Ta  Ta4  1  0.999321  0.749999  0.624511  1
  Ta  Ta5  1  0.500657  0.749999  0.624512  1
  Ta  Ta6  1  0.999792  0.250000  0.874996  1
  Ta  Ta7  1  0.500225  0.250000  0.874996  1
  Tc  Tc8  1  0.249998  0.749999  0.875001  1
  Mo  Mo9  1  0.750002  0.250000  0.124294  1
  Mo  Mo10  1  0.250002  0.749999  0.374991  1
  Mo  Mo11  1  0.749999  0.250000  0.625719  1
  Os  Os12  1  0.250002  0.250000  0.123539  1
  Os  Os13  1  0.750000  0.749999  0.374994  1
  Os  Os14  1  0.250000  0.250000  0.626463  1
  Os  Os15  1  0.749999  0.749999  0.874993  1
