# generated using pymatgen
data_CeTm(AlRh)2
_symmetry_space_group_name_H-M   'P 1'
_cell_length_a   4.25448000
_cell_length_b   6.84494100
_cell_length_c   7.96580600
_cell_angle_alpha   90.00000000
_cell_angle_beta   90.00000000
_cell_angle_gamma   90.00000000
_symmetry_Int_Tables_number   1
_chemical_formula_structural   CeTm(AlRh)2
_chemical_formula_sum   'Ce2 Tm2 Al4 Rh4'
_cell_volume   231.97753049
_cell_formula_units_Z   2
loop_
 _symmetry_equiv_pos_site_id
 _symmetry_equiv_pos_as_xyz
  1  'x, y, z'
loop_
 _atom_site_type_symbol
 _atom_site_label
 _atom_site_symmetry_multiplicity
 _atom_site_fract_x
 _atom_site_fract_y
 _atom_site_fract_z
 _atom_site_occupancy
  Ce  Ce0  1  0.250000  0.962689  0.324972  1
  Ce  Ce1  1  0.750000  0.537311  0.824972  1
  Tm  Tm2  1  0.250000  0.457796  0.181410  1
  Tm  Tm3  1  0.750000  0.042204  0.681410  1
  Al  Al4  1  0.750000  0.628957  0.439724  1
  Al  Al5  1  0.750000  0.134126  0.059301  1
  Al  Al6  1  0.250000  0.365874  0.559301  1
  Al  Al7  1  0.250000  0.871043  0.939724  1
  Rh  Rh8  1  0.750000  0.756479  0.118930  1
  Rh  Rh9  1  0.750000  0.258275  0.375663  1
  Rh  Rh10  1  0.250000  0.241725  0.875663  1
  Rh  Rh11  1  0.250000  0.743521  0.618930  1
