# generated using pymatgen
data_LaAu6
_symmetry_space_group_name_H-M   'P 1'
_cell_length_a   5.62636427
_cell_length_b   5.62636371
_cell_length_c   9.30211128
_cell_angle_alpha   82.73369877
_cell_angle_beta   82.73369913
_cell_angle_gamma   89.92049907
_symmetry_Int_Tables_number   1
_chemical_formula_structural   LaAu6
_chemical_formula_sum   'La2 Au12'
_cell_volume   289.72469234
_cell_formula_units_Z   2
loop_
 _symmetry_equiv_pos_site_id
 _symmetry_equiv_pos_as_xyz
  1  'x, y, z'
loop_
 _atom_site_type_symbol
 _atom_site_label
 _atom_site_symmetry_multiplicity
 _atom_site_fract_x
 _atom_site_fract_y
 _atom_site_fract_z
 _atom_site_occupancy
  La  La0  1  0.685201  0.314799  0.250000  1
  La  La1  1  0.314799  0.685201  0.750000  1
  Au  Au2  1  0.220505  0.384605  0.080517  1
  Au  Au3  1  0.615395  0.779495  0.419483  1
  Au  Au4  1  0.959068  0.843138  0.135733  1
  Au  Au5  1  0.843138  0.959068  0.635733  1
  Au  Au6  1  0.040932  0.156862  0.864267  1
  Au  Au7  1  0.165563  0.541184  0.372498  1
  Au  Au8  1  0.458816  0.834437  0.127502  1
  Au  Au9  1  0.156862  0.040932  0.364267  1
  Au  Au10  1  0.384605  0.220505  0.580517  1
  Au  Au11  1  0.541184  0.165563  0.872498  1
  Au  Au12  1  0.779495  0.615395  0.919483  1
  Au  Au13  1  0.834437  0.458816  0.627502  1
