# generated using pymatgen
data_Y12TmLu7Bi12
_symmetry_space_group_name_H-M   'P 1'
_cell_length_a   8.19933605
_cell_length_b   9.46931601
_cell_length_c   12.01903808
_cell_angle_alpha   90.00416000
_cell_angle_beta   90.01266584
_cell_angle_gamma   89.99777350
_symmetry_Int_Tables_number   1
_chemical_formula_structural   Y12TmLu7Bi12
_chemical_formula_sum   'Y12 Tm1 Lu7 Bi12'
_cell_volume   933.18338028
_cell_formula_units_Z   1
loop_
 _symmetry_equiv_pos_site_id
 _symmetry_equiv_pos_as_xyz
  1  'x, y, z'
loop_
 _atom_site_type_symbol
 _atom_site_label
 _atom_site_symmetry_multiplicity
 _atom_site_fract_x
 _atom_site_fract_y
 _atom_site_fract_z
 _atom_site_occupancy
  Y  Y0  1  0.185796  0.749916  0.718841  1
  Y  Y1  1  0.685861  0.750519  0.781407  1
  Y  Y2  1  0.814214  0.249565  0.281248  1
  Y  Y3  1  0.314165  0.250461  0.218728  1
  Y  Y4  1  0.693384  0.562007  0.059514  1
  Y  Y5  1  0.193322  0.937982  0.440352  1
  Y  Y6  1  0.306562  0.062004  0.940439  1
  Y  Y7  1  0.806815  0.437933  0.559495  1
  Y  Y8  1  0.354471  0.750600  0.215815  1
  Y  Y9  1  0.853956  0.749992  0.283969  1
  Y  Y10  1  0.645823  0.250369  0.784012  1
  Y  Y11  1  0.145953  0.249928  0.715946  1
  Tm  Tm12  1  0.192409  0.566895  0.440809  1
  Lu  Lu13  1  0.024326  0.750315  0.989294  1
  Lu  Lu14  1  0.524763  0.750054  0.510783  1
  Lu  Lu15  1  0.975958  0.250333  0.010702  1
  Lu  Lu16  1  0.475855  0.249804  0.489251  1
  Lu  Lu17  1  0.307318  0.431749  0.940764  1
  Lu  Lu18  1  0.807189  0.068047  0.559280  1
  Lu  Lu19  1  0.692663  0.931827  0.059207  1
  Bi  Bi20  1  0.434517  0.003690  0.671789  1
  Bi  Bi21  1  0.934321  0.496482  0.828335  1
  Bi  Bi22  1  0.565607  0.503654  0.328159  1
  Bi  Bi23  1  0.065507  0.996519  0.171704  1
  Bi  Bi24  1  0.566795  0.996235  0.328591  1
  Bi  Bi25  1  0.066741  0.504050  0.171366  1
  Bi  Bi26  1  0.432998  0.496261  0.671358  1
  Bi  Bi27  1  0.933141  0.004037  0.828670  1
  Bi  Bi28  1  0.405302  0.745692  0.957538  1
  Bi  Bi29  1  0.905387  0.754438  0.542415  1
  Bi  Bi30  1  0.594676  0.245744  0.042383  1
  Bi  Bi31  1  0.094205  0.252898  0.457836  1
