# generated using pymatgen
data_Nd2Dy14Cd4OsPt3
_symmetry_space_group_name_H-M   'P 1'
_cell_length_a   9.73422309
_cell_length_b   9.73422369
_cell_length_c   9.73533632
_cell_angle_alpha   59.71115061
_cell_angle_beta   59.71115598
_cell_angle_gamma   59.46465228
_symmetry_Int_Tables_number   1
_chemical_formula_structural   Nd2Dy14Cd4OsPt3
_chemical_formula_sum   'Nd2 Dy14 Cd4 Os1 Pt3'
_cell_volume   646.77915467
_cell_formula_units_Z   1
loop_
 _symmetry_equiv_pos_site_id
 _symmetry_equiv_pos_as_xyz
  1  'x, y, z'
loop_
 _atom_site_type_symbol
 _atom_site_label
 _atom_site_symmetry_multiplicity
 _atom_site_fract_x
 _atom_site_fract_y
 _atom_site_fract_z
 _atom_site_occupancy
  Nd  Nd0  1  0.569228  0.569228  0.933152  1
  Nd  Nd1  1  0.934811  0.934811  0.561889  1
  Dy  Dy2  1  0.352310  0.352310  0.350847  1
  Dy  Dy3  1  0.350269  0.350269  0.950628  1
  Dy  Dy4  1  0.348907  0.949073  0.350187  1
  Dy  Dy5  1  0.949073  0.348907  0.350187  1
  Dy  Dy6  1  0.815929  0.187909  0.187822  1
  Dy  Dy7  1  0.187528  0.809983  0.810030  1
  Dy  Dy8  1  0.187909  0.815929  0.187822  1
  Dy  Dy9  1  0.809983  0.187528  0.810030  1
  Dy  Dy10  1  0.188885  0.188885  0.814621  1
  Dy  Dy11  1  0.809827  0.809827  0.185176  1
  Dy  Dy12  1  0.938019  0.562436  0.561964  1
  Dy  Dy13  1  0.554260  0.941749  0.939992  1
  Dy  Dy14  1  0.562436  0.938019  0.561964  1
  Dy  Dy15  1  0.941749  0.554260  0.939992  1
  Cd  Cd16  1  0.580766  0.580766  0.578118  1
  Cd  Cd17  1  0.580990  0.580990  0.256382  1
  Cd  Cd18  1  0.577044  0.255973  0.582563  1
  Cd  Cd19  1  0.255973  0.577044  0.582563  1
  Os  Os20  1  0.145123  0.145123  0.139630  1
  Pt  Pt21  1  0.144944  0.144944  0.573013  1
  Pt  Pt22  1  0.141124  0.572916  0.145715  1
  Pt  Pt23  1  0.572916  0.141124  0.145715  1
