# generated using pymatgen
data_Ca3Tm5Np4O24
_symmetry_space_group_name_H-M   'P 1'
_cell_length_a   5.53821300
_cell_length_b   7.82705698
_cell_length_c   11.66109319
_cell_angle_alpha   74.63835365
_cell_angle_beta   90.00000000
_cell_angle_gamma   90.00000000
_symmetry_Int_Tables_number   1
_chemical_formula_structural   Ca3Tm5Np4O24
_chemical_formula_sum   'Ca3 Tm5 Np4 O24'
_cell_volume   487.42455140
_cell_formula_units_Z   1
loop_
 _symmetry_equiv_pos_site_id
 _symmetry_equiv_pos_as_xyz
  1  'x, y, z'
loop_
 _atom_site_type_symbol
 _atom_site_label
 _atom_site_symmetry_multiplicity
 _atom_site_fract_x
 _atom_site_fract_y
 _atom_site_fract_z
 _atom_site_occupancy
  Ca  Ca0  1  0.746955  0.000000  0.750000  1
  Ca  Ca1  1  0.253364  0.000000  0.250000  1
  Ca  Ca2  1  0.695734  0.500000  0.750000  1
  Tm  Tm3  1  0.181747  0.792442  0.580874  1
  Tm  Tm4  1  0.820564  0.790865  0.082777  1
  Tm  Tm5  1  0.300472  0.500000  0.250000  1
  Tm  Tm6  1  0.181747  0.207558  0.919126  1
  Tm  Tm7  1  0.820564  0.209135  0.417223  1
  Np  Np8  1  0.257286  0.723044  0.886092  1
  Np  Np9  1  0.742078  0.721913  0.385755  1
  Np  Np10  1  0.257286  0.276956  0.613908  1
  Np  Np11  1  0.742078  0.278087  0.114245  1
  O  O12  1  0.055411  0.939711  0.903186  1
  O  O13  1  0.548920  0.835175  0.939742  1
  O  O14  1  0.943963  0.942323  0.400117  1
  O  O15  1  0.440313  0.802445  0.726870  1
  O  O16  1  0.451121  0.837418  0.440154  1
  O  O17  1  0.984564  0.712102  0.769077  1
  O  O18  1  0.556937  0.797811  0.227585  1
  O  O19  1  0.880400  0.626663  0.549082  1
  O  O20  1  0.374015  0.483815  0.886799  1
  O  O21  1  0.026878  0.703144  0.267377  1
  O  O22  1  0.374015  0.516185  0.613201  1
  O  O23  1  0.880400  0.373337  0.950918  1
  O  O24  1  0.127234  0.626740  0.056605  1
  O  O25  1  0.610306  0.481408  0.381658  1
  O  O26  1  0.984564  0.287898  0.730923  1
  O  O27  1  0.610306  0.518592  0.118342  1
  O  O28  1  0.127234  0.373260  0.443395  1
  O  O29  1  0.440313  0.197555  0.773130  1
  O  O30  1  0.026878  0.296856  0.232623  1
  O  O31  1  0.548920  0.164825  0.560258  1
  O  O32  1  0.556937  0.202189  0.272415  1
  O  O33  1  0.055411  0.060289  0.596814  1
  O  O34  1  0.451121  0.162582  0.059846  1
  O  O35  1  0.943963  0.057677  0.099883  1
