# generated using pymatgen
data_La2Yb2ScSn3
_symmetry_space_group_name_H-M   'P 1'
_cell_length_a   9.27975610
_cell_length_b   9.27975714
_cell_length_c   9.27975677
_cell_angle_alpha   96.39905808
_cell_angle_beta   96.39905494
_cell_angle_gamma   140.99534825
_symmetry_Int_Tables_number   1
_chemical_formula_structural   La2Yb2ScSn3
_chemical_formula_sum   'La4 Yb4 Sc2 Sn6'
_cell_volume   474.09504461
_cell_formula_units_Z   2
loop_
 _symmetry_equiv_pos_site_id
 _symmetry_equiv_pos_as_xyz
  1  'x, y, z'
loop_
 _atom_site_type_symbol
 _atom_site_label
 _atom_site_symmetry_multiplicity
 _atom_site_fract_x
 _atom_site_fract_y
 _atom_site_fract_z
 _atom_site_occupancy
  La  La0  1  0.723087  0.408902  0.131989  1
  La  La1  1  0.276913  0.591098  0.868011  1
  La  La2  1  0.591098  0.723087  0.314185  1
  La  La3  1  0.408902  0.276913  0.685815  1
  Yb  Yb4  1  0.919009  0.216183  0.135192  1
  Yb  Yb5  1  0.216183  0.080991  0.297174  1
  Yb  Yb6  1  0.783817  0.919009  0.702826  1
  Yb  Yb7  1  0.080991  0.783817  0.864808  1
  Sc  Sc8  1  0.750000  0.250000  0.500000  1
  Sc  Sc9  1  0.250000  0.750000  0.500000  1
  Sn  Sn10  1  0.743663  0.743663  0.000000  1
  Sn  Sn11  1  0.256337  0.256337  0.000000  1
  Sn  Sn12  1  0.849677  0.651064  0.500741  1
  Sn  Sn13  1  0.651064  0.150323  0.801387  1
  Sn  Sn14  1  0.348936  0.849677  0.198613  1
  Sn  Sn15  1  0.150323  0.348936  0.499259  1
