# generated using pymatgen
data_TaNb7Cr2(SiB2)2
_symmetry_space_group_name_H-M   'P 1'
_cell_length_a   7.22615592
_cell_length_b   7.22615553
_cell_length_c   7.22614189
_cell_angle_alpha   130.09636018
_cell_angle_beta   130.09635056
_cell_angle_gamma   73.25344205
_symmetry_Int_Tables_number   1
_chemical_formula_structural   TaNb7Cr2(SiB2)2
_chemical_formula_sum   'Ta1 Nb7 Cr2 Si2 B4'
_cell_volume   215.56386679
_cell_formula_units_Z   1
loop_
 _symmetry_equiv_pos_site_id
 _symmetry_equiv_pos_as_xyz
  1  'x, y, z'
loop_
 _atom_site_type_symbol
 _atom_site_label
 _atom_site_symmetry_multiplicity
 _atom_site_fract_x
 _atom_site_fract_y
 _atom_site_fract_z
 _atom_site_occupancy
  Ta  Ta0  1  0.806535  0.306535  0.841153  1
  Nb  Nb1  1  0.193147  0.693147  0.158511  1
  Nb  Nb2  1  0.465630  0.965630  0.158756  1
  Nb  Nb3  1  0.306878  0.465128  0.499689  1
  Nb  Nb4  1  0.034137  0.193046  0.500066  1
  Nb  Nb5  1  0.534478  0.034478  0.841443  1
  Nb  Nb6  1  0.693046  0.534137  0.500066  1
  Nb  Nb7  1  0.965128  0.806878  0.499689  1
  Cr  Cr8  1  0.000060  0.000227  0.000177  1
  Cr  Cr9  1  0.500227  0.500060  0.000177  1
  Si  Si10  1  0.249665  0.250063  0.999913  1
  Si  Si11  1  0.750063  0.749665  0.999913  1
  B  B12  1  0.118352  0.618352  0.736648  1
  B  B13  1  0.880939  0.380939  0.261392  1
  B  B14  1  0.619065  0.882648  0.501204  1
  B  B15  1  0.382648  0.119065  0.501204  1
