# generated using pymatgen
data_Dy2Lu3Si6P6Ir19
_symmetry_space_group_name_H-M   'P 1'
_cell_length_a   12.77943700
_cell_length_b   12.77943617
_cell_length_c   3.93484600
_cell_angle_alpha   90.00000000
_cell_angle_beta   90.00000000
_cell_angle_gamma   119.99999886
_symmetry_Int_Tables_number   1
_chemical_formula_structural   Dy2Lu3Si6P6Ir19
_chemical_formula_sum   'Dy2 Lu3 Si6 P6 Ir19'
_cell_volume   556.52130023
_cell_formula_units_Z   1
loop_
 _symmetry_equiv_pos_site_id
 _symmetry_equiv_pos_as_xyz
  1  'x, y, z'
loop_
 _atom_site_type_symbol
 _atom_site_label
 _atom_site_symmetry_multiplicity
 _atom_site_fract_x
 _atom_site_fract_y
 _atom_site_fract_z
 _atom_site_occupancy
  Dy  Dy0  1  0.333333  0.666667  0.500000  1
  Dy  Dy1  1  0.666667  0.333333  0.500000  1
  Lu  Lu2  1  0.002297  0.816712  0.000000  1
  Lu  Lu3  1  0.183288  0.185584  0.000000  1
  Lu  Lu4  1  0.814416  0.997703  0.000000  1
  Si  Si5  1  0.000525  0.636798  0.500000  1
  Si  Si6  1  0.363202  0.363728  0.500000  1
  Si  Si7  1  0.636272  0.999475  0.500000  1
  Si  Si8  1  0.519935  0.681191  0.000000  1
  Si  Si9  1  0.318809  0.838744  0.000000  1
  Si  Si10  1  0.161256  0.480065  0.000000  1
  P  P11  1  0.483631  0.177313  0.000000  1
  P  P12  1  0.693682  0.516369  0.000000  1
  P  P13  1  0.822687  0.306318  0.000000  1
  P  P14  1  0.995184  0.174916  0.500000  1
  P  P15  1  0.825084  0.820268  0.500000  1
  P  P16  1  0.179732  0.004816  0.500000  1
  Ir  Ir17  1  0.516481  0.868465  0.000000  1
  Ir  Ir18  1  0.131535  0.648017  0.000000  1
  Ir  Ir19  1  0.351983  0.483519  0.000000  1
  Ir  Ir20  1  0.494065  0.368627  0.000000  1
  Ir  Ir21  1  0.874562  0.505935  0.000000  1
  Ir  Ir22  1  0.631373  0.125438  0.000000  1
  Ir  Ir23  1  0.016734  0.459071  0.500000  1
  Ir  Ir24  1  0.540929  0.557662  0.500000  1
  Ir  Ir25  1  0.442338  0.983266  0.500000  1
  Ir  Ir26  1  0.992950  0.275807  0.000000  1
  Ir  Ir27  1  0.724193  0.717143  0.000000  1
  Ir  Ir28  1  0.282857  0.007050  0.000000  1
  Ir  Ir29  1  0.635651  0.811053  0.500000  1
  Ir  Ir30  1  0.188947  0.824598  0.500000  1
  Ir  Ir31  1  0.175402  0.364349  0.500000  1
  Ir  Ir32  1  0.381174  0.182841  0.500000  1
  Ir  Ir33  1  0.801668  0.618826  0.500000  1
  Ir  Ir34  1  0.817159  0.198332  0.500000  1
  Ir  Ir35  1  0.000000  0.000000  0.500000  1
