# generated using pymatgen
data_Ta8BeAlTe8
_symmetry_space_group_name_H-M   'P 1'
_cell_length_a   4.80468800
_cell_length_b   11.24970200
_cell_length_c   19.46907100
_cell_angle_alpha   90.00000000
_cell_angle_beta   90.00000000
_cell_angle_gamma   90.00000000
_symmetry_Int_Tables_number   1
_chemical_formula_structural   Ta8BeAlTe8
_chemical_formula_sum   'Ta16 Be2 Al2 Te16'
_cell_volume   1052.32875705
_cell_formula_units_Z   2
loop_
 _symmetry_equiv_pos_site_id
 _symmetry_equiv_pos_as_xyz
  1  'x, y, z'
loop_
 _atom_site_type_symbol
 _atom_site_label
 _atom_site_symmetry_multiplicity
 _atom_site_fract_x
 _atom_site_fract_y
 _atom_site_fract_z
 _atom_site_occupancy
  Ta  Ta0  1  0.506481  0.561513  0.385682  1
  Ta  Ta1  1  0.506481  0.438487  0.614318  1
  Ta  Ta2  1  0.493519  0.061513  0.114318  1
  Ta  Ta3  1  0.493519  0.938487  0.885682  1
  Ta  Ta4  1  0.506398  0.698031  0.535519  1
  Ta  Ta5  1  0.506398  0.301969  0.464481  1
  Ta  Ta6  1  0.493602  0.198031  0.964481  1
  Ta  Ta7  1  0.493602  0.801969  0.035519  1
  Ta  Ta8  1  0.993666  0.683559  0.443997  1
  Ta  Ta9  1  0.993666  0.316441  0.556003  1
  Ta  Ta10  1  0.006334  0.183559  0.056003  1
  Ta  Ta11  1  0.006334  0.816441  0.943997  1
  Ta  Ta12  1  0.993561  0.403460  0.394055  1
  Ta  Ta13  1  0.993561  0.596540  0.605945  1
  Ta  Ta14  1  0.006439  0.903460  0.105945  1
  Ta  Ta15  1  0.006439  0.096540  0.894055  1
  Be  Be16  1  0.750099  0.500000  0.500000  1
  Be  Be17  1  0.249901  0.000000  0.000000  1
  Al  Al18  1  0.249641  0.500000  0.500000  1
  Al  Al19  1  0.750359  0.000000  0.000000  1
  Te  Te20  1  0.999626  0.838874  0.560515  1
  Te  Te21  1  0.999626  0.161126  0.439485  1
  Te  Te22  1  0.000374  0.338874  0.939485  1
  Te  Te23  1  0.000374  0.661126  0.060515  1
  Te  Te24  1  0.500353  0.335162  0.318748  1
  Te  Te25  1  0.500353  0.664838  0.681252  1
  Te  Te26  1  0.499647  0.835162  0.181252  1
  Te  Te27  1  0.499647  0.164838  0.818748  1
  Te  Te28  1  0.500341  0.814133  0.404660  1
  Te  Te29  1  0.500341  0.185867  0.595340  1
  Te  Te30  1  0.499659  0.314133  0.095340  1
  Te  Te31  1  0.499659  0.685867  0.904660  1
  Te  Te32  1  0.999623  0.604761  0.304289  1
  Te  Te33  1  0.999623  0.395239  0.695711  1
  Te  Te34  1  0.000377  0.104761  0.195711  1
  Te  Te35  1  0.000377  0.895239  0.804289  1
