# generated using pymatgen
data_Dy4ReBr4
_symmetry_space_group_name_H-M   'P 1'
_cell_length_a   9.02038315
_cell_length_b   9.02038339
_cell_length_c   6.60151112
_cell_angle_alpha   89.53179210
_cell_angle_beta   89.53178418
_cell_angle_gamma   89.34411795
_symmetry_Int_Tables_number   1
_chemical_formula_structural   Dy4ReBr4
_chemical_formula_sum   'Dy8 Re2 Br8'
_cell_volume   537.07657458
_cell_formula_units_Z   2
loop_
 _symmetry_equiv_pos_site_id
 _symmetry_equiv_pos_as_xyz
  1  'x, y, z'
loop_
 _atom_site_type_symbol
 _atom_site_label
 _atom_site_symmetry_multiplicity
 _atom_site_fract_x
 _atom_site_fract_y
 _atom_site_fract_z
 _atom_site_occupancy
  Dy  Dy0  1  0.247209  0.901847  0.012685  1
  Dy  Dy1  1  0.752791  0.098153  0.987315  1
  Dy  Dy2  1  0.098153  0.752791  0.487315  1
  Dy  Dy3  1  0.901847  0.247209  0.512685  1
  Dy  Dy4  1  0.753499  0.903345  0.506573  1
  Dy  Dy5  1  0.246501  0.096655  0.493427  1
  Dy  Dy6  1  0.096655  0.246501  0.993427  1
  Dy  Dy7  1  0.903345  0.753499  0.006573  1
  Re  Re8  1  0.994951  0.005049  0.250000  1
  Re  Re9  1  0.005049  0.994951  0.750000  1
  Br  Br10  1  0.416959  0.818036  0.413014  1
  Br  Br11  1  0.583041  0.181964  0.586986  1
  Br  Br12  1  0.181964  0.583041  0.086986  1
  Br  Br13  1  0.818036  0.416959  0.913014  1
  Br  Br14  1  0.412579  0.188371  0.089787  1
  Br  Br15  1  0.587421  0.811629  0.910213  1
  Br  Br16  1  0.811629  0.587421  0.410213  1
  Br  Br17  1  0.188371  0.412579  0.589787  1
