# generated using pymatgen
data_Yb(FeRe2)4
_symmetry_space_group_name_H-M   'P 1'
_cell_length_a   4.80021193
_cell_length_b   6.73089624
_cell_length_c   6.73089576
_cell_angle_alpha   82.69508244
_cell_angle_beta   69.10965328
_cell_angle_gamma   69.10965685
_symmetry_Int_Tables_number   1
_chemical_formula_structural   Yb(FeRe2)4
_chemical_formula_sum   'Yb1 Fe4 Re8'
_cell_volume   189.82173424
_cell_formula_units_Z   1
loop_
 _symmetry_equiv_pos_site_id
 _symmetry_equiv_pos_as_xyz
  1  'x, y, z'
loop_
 _atom_site_type_symbol
 _atom_site_label
 _atom_site_symmetry_multiplicity
 _atom_site_fract_x
 _atom_site_fract_y
 _atom_site_fract_z
 _atom_site_occupancy
  Yb  Yb0  1  0.000000  0.000000  0.000000  1
  Fe  Fe1  1  0.000000  0.000000  0.500000  1
  Fe  Fe2  1  0.500000  0.000000  0.500000  1
  Fe  Fe3  1  0.500000  0.500000  0.000000  1
  Fe  Fe4  1  0.000000  0.500000  0.000000  1
  Re  Re5  1  0.000000  0.356949  0.643051  1
  Re  Re6  1  0.000000  0.643051  0.356949  1
  Re  Re7  1  0.643051  0.356949  0.356949  1
  Re  Re8  1  0.356949  0.643051  0.643051  1
  Re  Re9  1  0.500000  0.787257  0.212743  1
  Re  Re10  1  0.500000  0.212743  0.787257  1
  Re  Re11  1  0.712743  0.787257  0.787257  1
  Re  Re12  1  0.287257  0.212743  0.212743  1
