# generated using pymatgen
data_Ho8Nb12Si15As
_symmetry_space_group_name_H-M   'P 1'
_cell_length_a   6.87039064
_cell_length_b   7.06591797
_cell_length_c   13.39864419
_cell_angle_alpha   90.03543678
_cell_angle_beta   89.79259600
_cell_angle_gamma   90.08374358
_symmetry_Int_Tables_number   1
_chemical_formula_structural   Ho8Nb12Si15As
_chemical_formula_sum   'Ho8 Nb12 Si15 As1'
_cell_volume   650.44036688
_cell_formula_units_Z   1
loop_
 _symmetry_equiv_pos_site_id
 _symmetry_equiv_pos_as_xyz
  1  'x, y, z'
loop_
 _atom_site_type_symbol
 _atom_site_label
 _atom_site_symmetry_multiplicity
 _atom_site_fract_x
 _atom_site_fract_y
 _atom_site_fract_z
 _atom_site_occupancy
  Ho  Ho0  1  0.502599  0.328152  0.096264  1
  Ho  Ho1  1  0.000993  0.173137  0.404031  1
  Ho  Ho2  1  0.501649  0.674209  0.597170  1
  Ho  Ho3  1  0.997282  0.827888  0.904271  1
  Ho  Ho4  1  0.497452  0.671770  0.904133  1
  Ho  Ho5  1  0.997984  0.827262  0.596145  1
  Ho  Ho6  1  0.502164  0.326444  0.402662  1
  Ho  Ho7  1  0.002605  0.172188  0.095801  1
  Nb  Nb8  1  0.663500  0.007144  0.749768  1
  Nb  Nb9  1  0.164290  0.491972  0.751261  1
  Nb  Nb10  1  0.336362  0.992792  0.250302  1
  Nb  Nb11  1  0.836128  0.506853  0.250152  1
  Nb  Nb12  1  0.838574  0.325996  0.624956  1
  Nb  Nb13  1  0.337905  0.174666  0.874303  1
  Nb  Nb14  1  0.161410  0.675058  0.125856  1
  Nb  Nb15  1  0.660150  0.826288  0.373872  1
  Nb  Nb16  1  0.159842  0.675630  0.373514  1
  Nb  Nb17  1  0.661209  0.825135  0.125635  1
  Nb  Nb18  1  0.838311  0.325288  0.874186  1
  Nb  Nb19  1  0.341016  0.170926  0.626754  1
  Si  Si20  1  0.797521  0.627782  0.750490  1
  Si  Si21  1  0.297253  0.871781  0.750863  1
  Si  Si22  1  0.202896  0.372281  0.249555  1
  Si  Si23  1  0.703124  0.127423  0.249357  1
  Si  Si24  1  0.543182  0.376693  0.750382  1
  Si  Si25  1  0.041999  0.122738  0.750174  1
  Si  Si26  1  0.457253  0.622495  0.249808  1
  Si  Si27  1  0.956586  0.877246  0.249400  1
  Si  Si28  1  0.665032  0.037545  0.540459  1
  Si  Si29  1  0.163211  0.463027  0.959223  1
  Si  Si30  1  0.336370  0.963389  0.040890  1
  Si  Si31  1  0.826164  0.539894  0.457171  1
  Si  Si32  1  0.335714  0.962812  0.459147  1
  Si  Si33  1  0.836502  0.536879  0.041035  1
  Si  Si34  1  0.663395  0.037014  0.959363  1
  As  As35  1  0.172371  0.462206  0.541641  1
