# generated using pymatgen
data_TbGd3(Pd2Pb)2
_symmetry_space_group_name_H-M   'P 1'
_cell_length_a   7.90148300
_cell_length_b   7.90148247
_cell_length_c   3.64219300
_cell_angle_alpha   90.00000000
_cell_angle_beta   90.00000000
_cell_angle_gamma   89.82833319
_symmetry_Int_Tables_number   1
_chemical_formula_structural   TbGd3(Pd2Pb)2
_chemical_formula_sum   'Tb1 Gd3 Pd4 Pb2'
_cell_volume   227.39357879
_cell_formula_units_Z   1
loop_
 _symmetry_equiv_pos_site_id
 _symmetry_equiv_pos_as_xyz
  1  'x, y, z'
loop_
 _atom_site_type_symbol
 _atom_site_label
 _atom_site_symmetry_multiplicity
 _atom_site_fract_x
 _atom_site_fract_y
 _atom_site_fract_z
 _atom_site_occupancy
  Tb  Tb0  1  0.671173  0.171173  0.500000  1
  Gd  Gd1  1  0.171162  0.328991  0.500000  1
  Gd  Gd2  1  0.828991  0.671162  0.500000  1
  Gd  Gd3  1  0.328795  0.828795  0.500000  1
  Pd  Pd4  1  0.374257  0.125698  0.000000  1
  Pd  Pd5  1  0.126015  0.626015  0.000000  1
  Pd  Pd6  1  0.625698  0.874257  0.000000  1
  Pd  Pd7  1  0.874026  0.374026  0.000000  1
  Pb  Pb8  1  0.999817  0.000064  0.000000  1
  Pb  Pb9  1  0.500064  0.499817  0.000000  1
