# generated using pymatgen
data_NaHoPt3Rh
_symmetry_space_group_name_H-M   'P 1'
_cell_length_a   5.36052731
_cell_length_b   5.36052815
_cell_length_c   5.36052846
_cell_angle_alpha   60.08953790
_cell_angle_beta   60.08953346
_cell_angle_gamma   60.08953579
_symmetry_Int_Tables_number   1
_chemical_formula_structural   NaHoPt3Rh
_chemical_formula_sum   'Na1 Ho1 Pt3 Rh1'
_cell_volume   109.14099962
_cell_formula_units_Z   1
loop_
 _symmetry_equiv_pos_site_id
 _symmetry_equiv_pos_as_xyz
  1  'x, y, z'
loop_
 _atom_site_type_symbol
 _atom_site_label
 _atom_site_symmetry_multiplicity
 _atom_site_fract_x
 _atom_site_fract_y
 _atom_site_fract_z
 _atom_site_occupancy
  Na  Na0  1  0.750024  0.750024  0.750024  1
  Ho  Ho1  1  0.499938  0.499938  0.499938  1
  Pt  Pt2  1  0.625556  0.124809  0.124809  1
  Pt  Pt3  1  0.124809  0.625556  0.124809  1
  Pt  Pt4  1  0.124809  0.124809  0.625556  1
  Rh  Rh5  1  0.124867  0.124867  0.124867  1
