# generated using pymatgen
data_Tb5Tl3O
_symmetry_space_group_name_H-M   'P 1'
_cell_length_a   8.99054233
_cell_length_b   8.99052830
_cell_length_c   8.99053500
_cell_angle_alpha   126.01028892
_cell_angle_beta   126.01049969
_cell_angle_gamma   79.87093827
_symmetry_Int_Tables_number   1
_chemical_formula_structural   Tb5Tl3O
_chemical_formula_sum   'Tb10 Tl6 O2'
_cell_volume   459.21857204
_cell_formula_units_Z   2
loop_
 _symmetry_equiv_pos_site_id
 _symmetry_equiv_pos_as_xyz
  1  'x, y, z'
loop_
 _atom_site_type_symbol
 _atom_site_label
 _atom_site_symmetry_multiplicity
 _atom_site_fract_x
 _atom_site_fract_y
 _atom_site_fract_z
 _atom_site_occupancy
  Tb  Tb0  1  0.500363  0.308770  0.500054  1
  Tb  Tb1  1  0.808764  0.000358  0.500044  1
  Tb  Tb2  1  0.000255  0.500263  0.191541  1
  Tb  Tb3  1  0.308658  0.808649  0.808324  1
  Tb  Tb4  1  0.501987  0.693417  0.499948  1
  Tb  Tb5  1  0.193422  0.001990  0.499957  1
  Tb  Tb6  1  0.002095  0.502088  0.808620  1
  Tb  Tb7  1  0.693531  0.193541  0.191516  1
  Tb  Tb8  1  0.502319  0.502318  0.999998  1
  Tb  Tb9  1  0.002319  0.002320  0.999999  1
  Tl  Tl10  1  0.139712  0.362153  0.499995  1
  Tl  Tl11  1  0.862155  0.639714  0.499998  1
  Tl  Tl12  1  0.639519  0.139523  0.777275  1
  Tl  Tl13  1  0.362347  0.862343  0.222733  1
  Tl  Tl14  1  0.751661  0.751610  0.999998  1
  Tl  Tl15  1  0.251614  0.251665  0.999998  1
  O  O16  1  0.751057  0.251058  0.499979  1
  O  O17  1  0.251061  0.751059  0.500023  1
