# generated using pymatgen
data_HfMgMoH6
_symmetry_space_group_name_H-M   'P 1'
_cell_length_a   4.65839553
_cell_length_b   4.65839338
_cell_length_c   4.65839500
_cell_angle_alpha   59.99995296
_cell_angle_beta   59.99995404
_cell_angle_gamma   59.99995298
_symmetry_Int_Tables_number   1
_chemical_formula_structural   HfMgMoH6
_chemical_formula_sum   'Hf1 Mg1 Mo1 H6'
_cell_volume   71.48145324
_cell_formula_units_Z   1
loop_
 _symmetry_equiv_pos_site_id
 _symmetry_equiv_pos_as_xyz
  1  'x, y, z'
loop_
 _atom_site_type_symbol
 _atom_site_label
 _atom_site_symmetry_multiplicity
 _atom_site_fract_x
 _atom_site_fract_y
 _atom_site_fract_z
 _atom_site_occupancy
  Hf  Hf0  1  0.250000  0.250000  0.250000  1
  Mg  Mg1  1  0.750000  0.750000  0.750000  1
  Mo  Mo2  1  0.000000  0.000000  0.000000  1
  H  H3  1  0.728612  0.271388  0.271388  1
  H  H4  1  0.728612  0.728612  0.271388  1
  H  H5  1  0.271386  0.728610  0.271389  1
  H  H6  1  0.271388  0.728612  0.728612  1
  H  H7  1  0.271388  0.271388  0.728613  1
  H  H8  1  0.728611  0.271386  0.728613  1
