# generated using pymatgen
data_HoTh6Fe2Co
_symmetry_space_group_name_H-M   'P 1'
_cell_length_a   9.73424738
_cell_length_b   9.74500445
_cell_length_c   6.12900300
_cell_angle_alpha   90.01521615
_cell_angle_beta   89.96953995
_cell_angle_gamma   119.96348471
_symmetry_Int_Tables_number   1
_chemical_formula_structural   HoTh6Fe2Co
_chemical_formula_sum   'Ho2 Th12 Fe4 Co2'
_cell_volume   503.69136617
_cell_formula_units_Z   2
loop_
 _symmetry_equiv_pos_site_id
 _symmetry_equiv_pos_as_xyz
  1  'x, y, z'
loop_
 _atom_site_type_symbol
 _atom_site_label
 _atom_site_symmetry_multiplicity
 _atom_site_fract_x
 _atom_site_fract_y
 _atom_site_fract_z
 _atom_site_occupancy
  Ho  Ho0  1  0.333370  0.666572  0.042683  1
  Ho  Ho1  1  0.666799  0.333428  0.542683  1
  Th  Th2  1  0.125168  0.870112  0.240140  1
  Th  Th3  1  0.255058  0.129888  0.740140  1
  Th  Th4  1  0.869582  0.744340  0.739010  1
  Th  Th5  1  0.125241  0.255660  0.239010  1
  Th  Th6  1  0.747633  0.873964  0.239564  1
  Th  Th7  1  0.873672  0.126036  0.739564  1
  Th  Th8  1  0.542801  0.460210  0.071472  1
  Th  Th9  1  0.082590  0.539790  0.571472  1
  Th  Th10  1  0.461417  0.917590  0.569999  1
  Th  Th11  1  0.543827  0.082410  0.069999  1
  Th  Th12  1  0.915710  0.457231  0.070698  1
  Th  Th13  1  0.458478  0.542769  0.570698  1
  Fe  Fe14  1  0.815796  0.181172  0.282479  1
  Fe  Fe15  1  0.634625  0.818828  0.782479  1
  Fe  Fe16  1  0.182038  0.364415  0.783780  1
  Fe  Fe17  1  0.817621  0.635585  0.283780  1
  Co  Co18  1  0.365198  0.181824  0.290174  1
  Co  Co19  1  0.183376  0.818176  0.790174  1
