# generated using pymatgen
data_TbLu7Ti11Si16Mo
_symmetry_space_group_name_H-M   'P 1'
_cell_length_a   6.97307704
_cell_length_b   6.97573530
_cell_length_c   12.80155661
_cell_angle_alpha   89.91743679
_cell_angle_beta   90.05415354
_cell_angle_gamma   89.97409746
_symmetry_Int_Tables_number   1
_chemical_formula_structural   TbLu7Ti11Si16Mo
_chemical_formula_sum   'Tb1 Lu7 Ti11 Si16 Mo1'
_cell_volume   622.69667556
_cell_formula_units_Z   1
loop_
 _symmetry_equiv_pos_site_id
 _symmetry_equiv_pos_as_xyz
  1  'x, y, z'
loop_
 _atom_site_type_symbol
 _atom_site_label
 _atom_site_symmetry_multiplicity
 _atom_site_fract_x
 _atom_site_fract_y
 _atom_site_fract_z
 _atom_site_occupancy
  Tb  Tb0  1  0.997331  0.658569  0.032945  1
  Lu  Lu1  1  0.340883  0.002087  0.467369  1
  Lu  Lu2  1  0.498082  0.840520  0.716988  1
  Lu  Lu3  1  0.500366  0.159582  0.216730  1
  Lu  Lu4  1  0.840356  0.497998  0.283063  1
  Lu  Lu5  1  0.159773  0.500395  0.783596  1
  Lu  Lu6  1  0.657466  0.999517  0.966726  1
  Lu  Lu7  1  0.002135  0.341014  0.532728  1
  Ti  Ti8  1  0.173810  0.827935  0.250183  1
  Ti  Ti9  1  0.827286  0.173584  0.749817  1
  Ti  Ti10  1  0.672980  0.673113  0.499987  1
  Ti  Ti11  1  0.153006  0.007445  0.875209  1
  Ti  Ti12  1  0.492448  0.650469  0.124795  1
  Ti  Ti13  1  0.506574  0.349925  0.625723  1
  Ti  Ti14  1  0.650245  0.491202  0.874765  1
  Ti  Ti15  1  0.350146  0.506594  0.374692  1
  Ti  Ti16  1  0.849442  0.993487  0.376093  1
  Ti  Ti17  1  0.008067  0.152965  0.124441  1
  Ti  Ti18  1  0.993112  0.849600  0.624068  1
  Si  Si19  1  0.203578  0.132322  0.682354  1
  Si  Si20  1  0.370463  0.703119  0.932233  1
  Si  Si21  1  0.632314  0.296379  0.432789  1
  Si  Si22  1  0.700626  0.366355  0.066928  1
  Si  Si23  1  0.296391  0.632347  0.567407  1
  Si  Si24  1  0.795012  0.869993  0.184682  1
  Si  Si25  1  0.132341  0.203401  0.317768  1
  Si  Si26  1  0.867752  0.797002  0.815836  1
  Si  Si27  1  0.293855  0.955081  0.064835  1
  Si  Si28  1  0.545807  0.793472  0.315468  1
  Si  Si29  1  0.452673  0.206323  0.814746  1
  Si  Si30  1  0.793372  0.546438  0.684629  1
  Si  Si31  1  0.207885  0.451639  0.185951  1
  Si  Si32  1  0.706848  0.047036  0.564735  1
  Si  Si33  1  0.953165  0.290026  0.934571  1
  Si  Si34  1  0.046952  0.706995  0.435269  1
  Mo  Mo35  1  0.327457  0.326070  0.999878  1
