# generated using pymatgen
data_TiHg3(PO4)2
_symmetry_space_group_name_H-M   'P 1'
_cell_length_a   5.24397698
_cell_length_b   5.24397663
_cell_length_c   19.34390749
_cell_angle_alpha   77.06069336
_cell_angle_beta   77.06069366
_cell_angle_gamma   60.25314351
_symmetry_Int_Tables_number   1
_chemical_formula_structural   TiHg3(PO4)2
_chemical_formula_sum   'Ti2 Hg6 P4 O16'
_cell_volume   446.10158946
_cell_formula_units_Z   2
loop_
 _symmetry_equiv_pos_site_id
 _symmetry_equiv_pos_as_xyz
  1  'x, y, z'
loop_
 _atom_site_type_symbol
 _atom_site_label
 _atom_site_symmetry_multiplicity
 _atom_site_fract_x
 _atom_site_fract_y
 _atom_site_fract_z
 _atom_site_occupancy
  Ti  Ti0  1  0.000000  0.000000  0.500000  1
  Ti  Ti1  1  0.000000  0.000000  0.000000  1
  Hg  Hg2  1  0.257196  0.341230  0.698950  1
  Hg  Hg3  1  0.341230  0.257196  0.198950  1
  Hg  Hg4  1  0.658770  0.742804  0.801050  1
  Hg  Hg5  1  0.742804  0.658770  0.301050  1
  Hg  Hg6  1  0.956685  0.043315  0.750000  1
  Hg  Hg7  1  0.043315  0.956685  0.250000  1
  P  P8  1  0.380242  0.363226  0.916432  1
  P  P9  1  0.363226  0.380242  0.416432  1
  P  P10  1  0.636774  0.619758  0.583568  1
  P  P11  1  0.619758  0.636774  0.083568  1
  O  O12  1  0.690533  0.152256  0.939801  1
  O  O13  1  0.152256  0.690533  0.439801  1
  O  O14  1  0.210976  0.630835  0.958671  1
  O  O15  1  0.630835  0.210976  0.458671  1
  O  O16  1  0.419526  0.479944  0.834858  1
  O  O17  1  0.813921  0.790388  0.575656  1
  O  O18  1  0.479944  0.419526  0.334858  1
  O  O19  1  0.790388  0.813921  0.075656  1
  O  O20  1  0.209612  0.186079  0.924344  1
  O  O21  1  0.520056  0.580474  0.665142  1
  O  O22  1  0.186079  0.209612  0.424344  1
  O  O23  1  0.580474  0.520056  0.165142  1
  O  O24  1  0.369165  0.789024  0.541329  1
  O  O25  1  0.789024  0.369165  0.041329  1
  O  O26  1  0.847744  0.309467  0.560199  1
  O  O27  1  0.309467  0.847744  0.060199  1
