# generated using pymatgen
data_Na4CaIrO6
_symmetry_space_group_name_H-M   'P 1'
_cell_length_a   5.71871502
_cell_length_b   5.71833041
_cell_length_c   5.75673989
_cell_angle_alpha   99.66883646
_cell_angle_beta   99.66874253
_cell_angle_gamma   119.96826558
_symmetry_Int_Tables_number   1
_chemical_formula_structural   Na4CaIrO6
_chemical_formula_sum   'Na4 Ca1 Ir1 O6'
_cell_volume   153.61835852
_cell_formula_units_Z   1
loop_
 _symmetry_equiv_pos_site_id
 _symmetry_equiv_pos_as_xyz
  1  'x, y, z'
loop_
 _atom_site_type_symbol
 _atom_site_label
 _atom_site_symmetry_multiplicity
 _atom_site_fract_x
 _atom_site_fract_y
 _atom_site_fract_z
 _atom_site_occupancy
  Na  Na0  1  0.501120  0.498887  0.000001  1
  Na  Na1  1  0.992028  0.007965  0.499998  1
  Na  Na2  1  0.664366  0.335641  0.499999  1
  Na  Na3  1  0.339692  0.660311  0.500003  1
  Ca  Ca4  1  0.166329  0.833646  0.999997  1
  Ir  Ir5  1  0.833215  0.166779  0.000001  1
  O  O6  1  0.614977  0.954840  0.206098  1
  O  O7  1  0.911177  0.523882  0.215640  1
  O  O8  1  0.185552  0.229776  0.214665  1
  O  O9  1  0.770217  0.814408  0.785320  1
  O  O10  1  0.476167  0.088838  0.784377  1
  O  O11  1  0.045163  0.385025  0.793902  1
