# generated using pymatgen
data_Tm9LuCo4
_symmetry_space_group_name_H-M   'P 1'
_cell_length_a   6.22503813
_cell_length_b   6.86793760
_cell_length_c   8.37581392
_cell_angle_alpha   96.32904199
_cell_angle_beta   111.71992497
_cell_angle_gamma   89.98321597
_symmetry_Int_Tables_number   1
_chemical_formula_structural   Tm9LuCo4
_chemical_formula_sum   'Tm9 Lu1 Co4'
_cell_volume   330.32364442
_cell_formula_units_Z   1
loop_
 _symmetry_equiv_pos_site_id
 _symmetry_equiv_pos_as_xyz
  1  'x, y, z'
loop_
 _atom_site_type_symbol
 _atom_site_label
 _atom_site_symmetry_multiplicity
 _atom_site_fract_x
 _atom_site_fract_y
 _atom_site_fract_z
 _atom_site_occupancy
  Tm  Tm0  1  0.796125  0.588183  0.813658  1
  Tm  Tm1  1  0.017282  0.087257  0.813156  1
  Tm  Tm2  1  0.203766  0.411950  0.186706  1
  Tm  Tm3  1  0.650876  0.816467  0.433939  1
  Tm  Tm4  1  0.216109  0.683590  0.565206  1
  Tm  Tm5  1  0.348969  0.183392  0.565279  1
  Tm  Tm6  1  0.783462  0.316487  0.434253  1
  Tm  Tm7  1  0.428182  0.750635  0.000409  1
  Tm  Tm8  1  0.572574  0.249419  0.000109  1
  Lu  Lu9  1  0.983088  0.912433  0.187204  1
  Co  Co10  1  0.824954  0.572182  0.220119  1
  Co  Co11  1  0.603614  0.928395  0.779234  1
  Co  Co12  1  0.175197  0.428345  0.780009  1
  Co  Co13  1  0.395801  0.071263  0.220718  1
