# generated using pymatgen
data_Ti3BeRe3P2
_symmetry_space_group_name_H-M   'P 1'
_cell_length_a   6.57874300
_cell_length_b   6.57874176
_cell_length_c   3.25196700
_cell_angle_alpha   90.00000000
_cell_angle_beta   90.00000000
_cell_angle_gamma   119.99999114
_symmetry_Int_Tables_number   1
_chemical_formula_structural   Ti3BeRe3P2
_chemical_formula_sum   'Ti3 Be1 Re3 P2'
_cell_volume   121.88845172
_cell_formula_units_Z   1
loop_
 _symmetry_equiv_pos_site_id
 _symmetry_equiv_pos_as_xyz
  1  'x, y, z'
loop_
 _atom_site_type_symbol
 _atom_site_label
 _atom_site_symmetry_multiplicity
 _atom_site_fract_x
 _atom_site_fract_y
 _atom_site_fract_z
 _atom_site_occupancy
  Ti  Ti0  1  0.397298  0.397298  0.500000  1
  Ti  Ti1  1  0.602702  0.000000  0.500000  1
  Ti  Ti2  1  0.000000  0.602702  0.500000  1
  Be  Be3  1  0.000000  0.000000  0.500000  1
  Re  Re4  1  0.746878  0.746878  0.000000  1
  Re  Re5  1  0.253122  0.000000  0.000000  1
  Re  Re6  1  0.000000  0.253122  0.000000  1
  P  P7  1  0.666667  0.333333  0.000000  1
  P  P8  1  0.333333  0.666667  0.000000  1
