# generated using pymatgen
data_Nd12Ir3AuBr12
_symmetry_space_group_name_H-M   'P 1'
_cell_length_a   10.57001330
_cell_length_b   10.57001308
_cell_length_c   10.43372200
_cell_angle_alpha   109.21023015
_cell_angle_beta   109.21022974
_cell_angle_gamma   109.73094624
_symmetry_Int_Tables_number   1
_chemical_formula_structural   Nd12Ir3AuBr12
_chemical_formula_sum   'Nd12 Ir3 Au1 Br12'
_cell_volume   900.23760516
_cell_formula_units_Z   1
loop_
 _symmetry_equiv_pos_site_id
 _symmetry_equiv_pos_as_xyz
  1  'x, y, z'
loop_
 _atom_site_type_symbol
 _atom_site_label
 _atom_site_symmetry_multiplicity
 _atom_site_fract_x
 _atom_site_fract_y
 _atom_site_fract_z
 _atom_site_occupancy
  Nd  Nd0  1  0.258741  0.737554  0.231119  1
  Nd  Nd1  1  0.478813  0.737554  0.006435  1
  Nd  Nd2  1  0.235381  0.470761  0.485381  1
  Nd  Nd3  1  0.015934  0.031869  0.265934  1
  Nd  Nd4  1  0.235381  0.264619  0.750000  1
  Nd  Nd5  1  0.015934  0.484066  0.750000  1
  Nd  Nd6  1  0.478813  0.241259  0.472378  1
  Nd  Nd7  1  0.258741  0.021187  0.027622  1
  Nd  Nd8  1  0.762446  0.241259  0.268881  1
  Nd  Nd9  1  0.762446  0.021187  0.493565  1
  Nd  Nd10  1  0.468131  0.484066  0.234066  1
  Nd  Nd11  1  0.029239  0.264619  0.014619  1
  Ir  Ir12  1  0.249084  0.498169  0.999084  1
  Ir  Ir13  1  0.001831  0.250916  0.500916  1
  Ir  Ir14  1  0.249084  0.250916  0.250000  1
  Au  Au15  1  0.500000  0.000000  0.250000  1
  Br  Br16  1  0.249989  0.995124  0.503064  1
  Br  Br17  1  0.513368  0.506684  0.756684  1
  Br  Br18  1  0.249989  0.754865  0.746925  1
  Br  Br19  1  0.994506  0.747252  0.997252  1
  Br  Br20  1  0.993316  0.506684  0.250000  1
  Br  Br21  1  0.745135  0.995124  0.992061  1
  Br  Br22  1  0.752748  0.747252  0.250000  1
  Br  Br23  1  0.504876  0.754865  0.507939  1
  Br  Br24  1  0.504876  0.250011  0.996936  1
  Br  Br25  1  0.752748  0.505494  0.502748  1
  Br  Br26  1  0.745135  0.250011  0.753075  1
  Br  Br27  1  0.993316  0.986632  0.743316  1
