# generated using pymatgen
data_SrCa2LaAs7Ir8
_symmetry_space_group_name_H-M   'P 1'
_cell_length_a   4.13737000
_cell_length_b   13.29303278
_cell_length_c   13.56621422
_cell_angle_alpha   82.11518982
_cell_angle_beta   90.00000000
_cell_angle_gamma   90.00000000
_symmetry_Int_Tables_number   1
_chemical_formula_structural   SrCa2LaAs7Ir8
_chemical_formula_sum   'Sr2 Ca4 La2 As14 Ir16'
_cell_volume   739.06340330
_cell_formula_units_Z   2
loop_
 _symmetry_equiv_pos_site_id
 _symmetry_equiv_pos_as_xyz
  1  'x, y, z'
loop_
 _atom_site_type_symbol
 _atom_site_label
 _atom_site_symmetry_multiplicity
 _atom_site_fract_x
 _atom_site_fract_y
 _atom_site_fract_z
 _atom_site_occupancy
  Sr  Sr0  1  0.250000  0.103822  0.793999  1
  Sr  Sr1  1  0.750000  0.896178  0.206001  1
  Ca  Ca2  1  0.250000  0.516436  0.291501  1
  Ca  Ca3  1  0.750000  0.483564  0.708499  1
  Ca  Ca4  1  0.250000  0.213001  0.435355  1
  Ca  Ca5  1  0.750000  0.786999  0.564645  1
  La  La6  1  0.250000  0.288088  0.106885  1
  La  La7  1  0.750000  0.711912  0.893115  1
  As  As8  1  0.250000  0.058771  0.100135  1
  As  As9  1  0.750000  0.941229  0.899865  1
  As  As10  1  0.250000  0.313039  0.685836  1
  As  As11  1  0.750000  0.686961  0.314164  1
  As  As12  1  0.250000  0.608406  0.567555  1
  As  As13  1  0.750000  0.391594  0.432445  1
  As  As14  1  0.250000  0.848301  0.719749  1
  As  As15  1  0.750000  0.151699  0.280251  1
  As  As16  1  0.750000  0.256309  0.917093  1
  As  As17  1  0.250000  0.743691  0.082907  1
  As  As18  1  0.750000  0.096179  0.585732  1
  As  As19  1  0.250000  0.903821  0.414268  1
  As  As20  1  0.750000  0.471653  0.129027  1
  As  As21  1  0.250000  0.528347  0.870973  1
  Ir  Ir22  1  0.250000  0.984020  0.572059  1
  Ir  Ir23  1  0.750000  0.015980  0.427941  1
  Ir  Ir24  1  0.250000  0.666402  0.733342  1
  Ir  Ir25  1  0.750000  0.333598  0.266658  1
  Ir  Ir26  1  0.250000  0.554783  0.048011  1
  Ir  Ir27  1  0.750000  0.445217  0.951989  1
  Ir  Ir28  1  0.250000  0.057336  0.281860  1
  Ir  Ir29  1  0.750000  0.942664  0.718140  1
  Ir  Ir30  1  0.250000  0.426563  0.525608  1
  Ir  Ir31  1  0.750000  0.573437  0.474392  1
  Ir  Ir32  1  0.250000  0.918645  0.999120  1
  Ir  Ir33  1  0.750000  0.081355  0.000880  1
  Ir  Ir34  1  0.250000  0.720277  0.402621  1
  Ir  Ir35  1  0.750000  0.279723  0.597379  1
  Ir  Ir36  1  0.250000  0.345016  0.858657  1
  Ir  Ir37  1  0.750000  0.654984  0.141343  1
