# generated using pymatgen
data_Li6MgSn5Pt12
_symmetry_space_group_name_H-M   'P 1'
_cell_length_a   4.10595300
_cell_length_b   7.43134300
_cell_length_c   12.36447800
_cell_angle_alpha   90.00000000
_cell_angle_beta   89.99960538
_cell_angle_gamma   90.00000000
_symmetry_Int_Tables_number   1
_chemical_formula_structural   Li6MgSn5Pt12
_chemical_formula_sum   'Li6 Mg1 Sn5 Pt12'
_cell_volume   377.27416532
_cell_formula_units_Z   1
loop_
 _symmetry_equiv_pos_site_id
 _symmetry_equiv_pos_as_xyz
  1  'x, y, z'
loop_
 _atom_site_type_symbol
 _atom_site_label
 _atom_site_symmetry_multiplicity
 _atom_site_fract_x
 _atom_site_fract_y
 _atom_site_fract_z
 _atom_site_occupancy
  Li  Li0  1  0.000000  0.000000  0.000000  1
  Li  Li1  1  0.501452  0.499999  0.163008  1
  Li  Li2  1  0.001355  0.000000  0.332443  1
  Li  Li3  1  0.500001  0.499999  0.500000  1
  Li  Li4  1  0.998646  0.000000  0.667557  1
  Li  Li5  1  0.498546  0.499999  0.836992  1
  Mg  Mg6  1  0.000000  0.499999  0.000000  1
  Sn  Sn7  1  0.501100  0.000000  0.166120  1
  Sn  Sn8  1  0.001138  0.499999  0.330466  1
  Sn  Sn9  1  0.500001  0.000000  0.500000  1
  Sn  Sn10  1  0.998862  0.499999  0.669534  1
  Sn  Sn11  1  0.498900  0.000000  0.833880  1
  Pt  Pt12  1  0.500001  0.248660  0.000000  1
  Pt  Pt13  1  0.500001  0.751340  0.000000  1
  Pt  Pt14  1  0.000928  0.250599  0.164725  1
  Pt  Pt15  1  0.000928  0.749401  0.164725  1
  Pt  Pt16  1  0.500992  0.250711  0.333395  1
  Pt  Pt17  1  0.500992  0.749289  0.333395  1
  Pt  Pt18  1  0.000000  0.250396  0.500000  1
  Pt  Pt19  1  0.000000  0.749604  0.500000  1
  Pt  Pt20  1  0.499011  0.250711  0.666605  1
  Pt  Pt21  1  0.499011  0.749289  0.666605  1
  Pt  Pt22  1  0.999072  0.250599  0.835274  1
  Pt  Pt23  1  0.999072  0.749401  0.835274  1
