# generated using pymatgen
data_Pa4Mn3(Ge3Rh2)2
_symmetry_space_group_name_H-M   'P 1'
_cell_length_a   7.22009181
_cell_length_b   7.22009205
_cell_length_c   7.20806600
_cell_angle_alpha   109.43747755
_cell_angle_beta   109.43747822
_cell_angle_gamma   109.50494130
_symmetry_Int_Tables_number   1
_chemical_formula_structural   Pa4Mn3(Ge3Rh2)2
_chemical_formula_sum   'Pa4 Mn3 Ge6 Rh4'
_cell_volume   289.37633208
_cell_formula_units_Z   1
loop_
 _symmetry_equiv_pos_site_id
 _symmetry_equiv_pos_as_xyz
  1  'x, y, z'
loop_
 _atom_site_type_symbol
 _atom_site_label
 _atom_site_symmetry_multiplicity
 _atom_site_fract_x
 _atom_site_fract_y
 _atom_site_fract_z
 _atom_site_occupancy
  Pa  Pa0  1  0.509225  0.490775  0.500000  1
  Pa  Pa1  1  0.981550  0.490775  0.990775  1
  Pa  Pa2  1  0.509225  0.018450  0.009225  1
  Pa  Pa3  1  0.000000  0.000000  0.500000  1
  Mn  Mn4  1  0.749542  0.499084  0.249542  1
  Mn  Mn5  1  0.500916  0.250458  0.750458  1
  Mn  Mn6  1  0.749542  0.250458  0.500000  1
  Ge  Ge7  1  0.683424  0.006699  0.683918  1
  Ge  Ge8  1  0.683424  0.676724  0.999506  1
  Ge  Ge9  1  0.323276  0.316576  0.000494  1
  Ge  Ge10  1  0.993301  0.676724  0.677218  1
  Ge  Ge11  1  0.993301  0.316576  0.316082  1
  Ge  Ge12  1  0.323276  0.006699  0.322782  1
  Rh  Rh13  1  0.249260  0.750740  0.500000  1
  Rh  Rh14  1  0.249260  0.498519  0.749260  1
  Rh  Rh15  1  0.501481  0.750740  0.250740  1
  Rh  Rh16  1  0.000000  0.000000  0.000000  1
