# generated using pymatgen
data_Lu4MnSi4Ni3
_symmetry_space_group_name_H-M   'P 1'
_cell_length_a   4.10342700
_cell_length_b   6.68407450
_cell_length_c   7.14911250
_cell_angle_alpha   91.12479075
_cell_angle_beta   90.00000000
_cell_angle_gamma   90.00000000
_symmetry_Int_Tables_number   1
_chemical_formula_structural   Lu4MnSi4Ni3
_chemical_formula_sum   'Lu4 Mn1 Si4 Ni3'
_cell_volume   196.04529932
_cell_formula_units_Z   1
loop_
 _symmetry_equiv_pos_site_id
 _symmetry_equiv_pos_as_xyz
  1  'x, y, z'
loop_
 _atom_site_type_symbol
 _atom_site_label
 _atom_site_symmetry_multiplicity
 _atom_site_fract_x
 _atom_site_fract_y
 _atom_site_fract_z
 _atom_site_occupancy
  Lu  Lu0  1  0.250000  0.490023  0.195539  1
  Lu  Lu1  1  0.750000  0.499455  0.807657  1
  Lu  Lu2  1  0.250000  0.993472  0.295122  1
  Lu  Lu3  1  0.750000  0.004613  0.703536  1
  Mn  Mn4  1  0.250000  0.672281  0.577132  1
  Si  Si5  1  0.250000  0.799011  0.906823  1
  Si  Si6  1  0.750000  0.195351  0.095190  1
  Si  Si7  1  0.250000  0.297808  0.594662  1
  Si  Si8  1  0.750000  0.702994  0.398083  1
  Ni  Ni9  1  0.750000  0.823803  0.076506  1
  Ni  Ni10  1  0.250000  0.185484  0.922456  1
  Ni  Ni11  1  0.750000  0.335704  0.427294  1
