# generated using pymatgen
data_LiNdSmSi3Ag
_symmetry_space_group_name_H-M   'P 1'
_cell_length_a   9.46042120
_cell_length_b   9.46042233
_cell_length_c   6.88540807
_cell_angle_alpha   89.76535786
_cell_angle_beta   90.23464081
_cell_angle_gamma   153.29999596
_symmetry_Int_Tables_number   1
_chemical_formula_structural   LiNdSmSi3Ag
_chemical_formula_sum   'Li2 Nd2 Sm2 Si6 Ag2'
_cell_volume   276.88643371
_cell_formula_units_Z   2
loop_
 _symmetry_equiv_pos_site_id
 _symmetry_equiv_pos_as_xyz
  1  'x, y, z'
loop_
 _atom_site_type_symbol
 _atom_site_label
 _atom_site_symmetry_multiplicity
 _atom_site_fract_x
 _atom_site_fract_y
 _atom_site_fract_z
 _atom_site_occupancy
  Li  Li0  1  0.188538  0.811462  0.057699  1
  Li  Li1  1  0.811462  0.188538  0.942301  1
  Nd  Nd2  1  0.552579  0.447421  0.250955  1
  Nd  Nd3  1  0.447421  0.552579  0.749045  1
  Sm  Sm4  1  0.345457  0.654543  0.242410  1
  Sm  Sm5  1  0.654543  0.345457  0.757590  1
  Si  Si6  1  0.941604  0.058396  0.072872  1
  Si  Si7  1  0.058396  0.941604  0.927128  1
  Si  Si8  1  0.057686  0.942314  0.579671  1
  Si  Si9  1  0.942314  0.057686  0.420329  1
  Si  Si10  1  0.721439  0.278561  0.240792  1
  Si  Si11  1  0.278561  0.721439  0.759208  1
  Ag  Ag12  1  0.813225  0.186775  0.566227  1
  Ag  Ag13  1  0.186775  0.813225  0.433773  1
