# generated using pymatgen
data_K2Si2Te5
_symmetry_space_group_name_H-M   'P 1'
_cell_length_a   13.05017600
_cell_length_b   10.65665093
_cell_length_c   11.01908643
_cell_angle_alpha   90.27243423
_cell_angle_beta   90.00000000
_cell_angle_gamma   90.00000000
_symmetry_Int_Tables_number   1
_chemical_formula_structural   K2Si2Te5
_chemical_formula_sum   'K8 Si8 Te20'
_cell_volume   1532.41992096
_cell_formula_units_Z   4
loop_
 _symmetry_equiv_pos_site_id
 _symmetry_equiv_pos_as_xyz
  1  'x, y, z'
loop_
 _atom_site_type_symbol
 _atom_site_label
 _atom_site_symmetry_multiplicity
 _atom_site_fract_x
 _atom_site_fract_y
 _atom_site_fract_z
 _atom_site_occupancy
  K  K0  1  0.493011  0.638840  0.668793  1
  K  K1  1  0.993011  0.361160  0.331207  1
  K  K2  1  0.506989  0.361160  0.331207  1
  K  K3  1  0.006989  0.638840  0.668793  1
  K  K4  1  0.750000  0.041875  0.575033  1
  K  K5  1  0.250000  0.958125  0.424967  1
  K  K6  1  0.750000  0.414347  0.890157  1
  K  K7  1  0.250000  0.585653  0.109843  1
  Si  Si8  1  0.095238  0.232699  0.737835  1
  Si  Si9  1  0.595238  0.767301  0.262165  1
  Si  Si10  1  0.904762  0.767301  0.262165  1
  Si  Si11  1  0.404762  0.232699  0.737835  1
  Si  Si12  1  0.750000  0.085363  0.181996  1
  Si  Si13  1  0.250000  0.914637  0.818004  1
  Si  Si14  1  0.750000  0.795960  0.948903  1
  Si  Si15  1  0.250000  0.204040  0.051097  1
  Te  Te16  1  0.563502  0.314914  0.645924  1
  Te  Te17  1  0.063502  0.685086  0.354076  1
  Te  Te18  1  0.436498  0.685086  0.354076  1
  Te  Te19  1  0.936498  0.314914  0.645924  1
  Te  Te20  1  0.087777  0.297237  0.960164  1
  Te  Te21  1  0.587777  0.702763  0.039836  1
  Te  Te22  1  0.912223  0.702763  0.039836  1
  Te  Te23  1  0.412223  0.297237  0.960164  1
  Te  Te24  1  0.089548  0.995032  0.710429  1
  Te  Te25  1  0.589548  0.004968  0.289571  1
  Te  Te26  1  0.910452  0.004968  0.289571  1
  Te  Te27  1  0.410452  0.995032  0.710429  1
  Te  Te28  1  0.750000  0.315352  0.204776  1
  Te  Te29  1  0.250000  0.684648  0.795224  1
  Te  Te30  1  0.750000  0.732716  0.732212  1
  Te  Te31  1  0.250000  0.267284  0.267788  1
  Te  Te32  1  0.750000  0.033316  0.957936  1
  Te  Te33  1  0.250000  0.966684  0.042064  1
  Te  Te34  1  0.750000  0.672182  0.371890  1
  Te  Te35  1  0.250000  0.327818  0.628110  1
