# generated using pymatgen
data_Pr4Sn10Pt5Rh
_symmetry_space_group_name_H-M   'P 1'
_cell_length_a   13.70070049
_cell_length_b   13.70070064
_cell_length_c   7.51847324
_cell_angle_alpha   90.23791747
_cell_angle_beta   89.76208307
_cell_angle_gamma   160.82221412
_symmetry_Int_Tables_number   1
_chemical_formula_structural   Pr4Sn10Pt5Rh
_chemical_formula_sum   'Pr4 Sn10 Pt5 Rh1'
_cell_volume   463.60420136
_cell_formula_units_Z   1
loop_
 _symmetry_equiv_pos_site_id
 _symmetry_equiv_pos_as_xyz
  1  'x, y, z'
loop_
 _atom_site_type_symbol
 _atom_site_label
 _atom_site_symmetry_multiplicity
 _atom_site_fract_x
 _atom_site_fract_y
 _atom_site_fract_z
 _atom_site_occupancy
  Pr  Pr0  1  0.475995  0.524005  0.237235  1
  Pr  Pr1  1  0.173518  0.826482  0.251669  1
  Pr  Pr2  1  0.523387  0.476613  0.740121  1
  Pr  Pr3  1  0.826477  0.173523  0.748990  1
  Sn  Sn4  1  0.703675  0.296325  0.551353  1
  Sn  Sn5  1  0.598804  0.401196  0.111246  1
  Sn  Sn6  1  0.046106  0.953894  0.403602  1
  Sn  Sn7  1  0.951363  0.048637  0.890902  1
  Sn  Sn8  1  0.711270  0.288730  0.979203  1
  Sn  Sn9  1  0.289504  0.710496  0.478619  1
  Sn  Sn10  1  0.297327  0.702673  0.050140  1
  Sn  Sn11  1  0.880359  0.119641  0.236751  1
  Sn  Sn12  1  0.120132  0.879868  0.732952  1
  Sn  Sn13  1  0.402833  0.597167  0.606150  1
  Pt  Pt14  1  0.395473  0.604527  0.976669  1
  Pt  Pt15  1  0.777702  0.222298  0.272978  1
  Pt  Pt16  1  0.222038  0.777962  0.773919  1
  Pt  Pt17  1  0.052182  0.947818  0.023157  1
  Pt  Pt18  1  0.604905  0.395095  0.479496  1
  Rh  Rh19  1  0.946948  0.053052  0.518647  1
