# generated using pymatgen
data_RbTh2(Se2S)2
_symmetry_space_group_name_H-M   'P 1'
_cell_length_a   12.31198653
_cell_length_b   12.31198626
_cell_length_c   12.31198700
_cell_angle_alpha   160.53689281
_cell_angle_beta   154.25602505
_cell_angle_gamma   32.47774024
_symmetry_Int_Tables_number   1
_chemical_formula_structural   RbTh2(Se2S)2
_chemical_formula_sum   'Rb1 Th2 Se4 S2'
_cell_volume   269.89556860
_cell_formula_units_Z   1
loop_
 _symmetry_equiv_pos_site_id
 _symmetry_equiv_pos_as_xyz
  1  'x, y, z'
loop_
 _atom_site_type_symbol
 _atom_site_label
 _atom_site_symmetry_multiplicity
 _atom_site_fract_x
 _atom_site_fract_y
 _atom_site_fract_z
 _atom_site_occupancy
  Rb  Rb0  1  0.500000  0.000000  0.500000  1
  Th  Th1  1  0.687196  0.187196  0.500000  1
  Th  Th2  1  0.312804  0.812804  0.500000  1
  Se  Se3  1  0.863155  0.614988  0.248167  1
  Se  Se4  1  0.136845  0.385012  0.751833  1
  Se  Se5  1  0.633177  0.385012  0.248167  1
  Se  Se6  1  0.366823  0.614988  0.751833  1
  S  S7  1  0.769206  0.769206  0.000000  1
  S  S8  1  0.230794  0.230794  0.000000  1
