# generated using pymatgen
data_Li4Ac3LaPd4
_symmetry_space_group_name_H-M   'P 1'
_cell_length_a   7.57978988
_cell_length_b   4.25358600
_cell_length_c   8.91919200
_cell_angle_alpha   90.00000000
_cell_angle_beta   90.10561468
_cell_angle_gamma   90.00000000
_symmetry_Int_Tables_number   1
_chemical_formula_structural   Li4Ac3LaPd4
_chemical_formula_sum   'Li4 Ac3 La1 Pd4'
_cell_volume   287.56575039
_cell_formula_units_Z   1
loop_
 _symmetry_equiv_pos_site_id
 _symmetry_equiv_pos_as_xyz
  1  'x, y, z'
loop_
 _atom_site_type_symbol
 _atom_site_label
 _atom_site_symmetry_multiplicity
 _atom_site_fract_x
 _atom_site_fract_y
 _atom_site_fract_z
 _atom_site_occupancy
  Li  Li0  1  0.628520  0.250000  0.555792  1
  Li  Li1  1  0.129249  0.250000  0.945024  1
  Li  Li2  1  0.372143  0.750000  0.447270  1
  Li  Li3  1  0.870302  0.750000  0.054126  1
  Ac  Ac4  1  0.043321  0.250000  0.311628  1
  Ac  Ac5  1  0.541896  0.250000  0.186502  1
  Ac  Ac6  1  0.958400  0.750000  0.690301  1
  La  La7  1  0.457148  0.750000  0.811034  1
  Pd  Pd8  1  0.254341  0.250000  0.619566  1
  Pd  Pd9  1  0.744849  0.250000  0.881650  1
  Pd  Pd10  1  0.749985  0.750000  0.383400  1
  Pd  Pd11  1  0.249846  0.750000  0.113706  1
