# generated using pymatgen
data_LaPrCo17Si8Tc
_symmetry_space_group_name_H-M   'P 1'
_cell_length_a   7.98407203
_cell_length_b   8.01343819
_cell_length_c   7.98933246
_cell_angle_alpha   121.84769937
_cell_angle_beta   121.72143549
_cell_angle_gamma   87.00379117
_symmetry_Int_Tables_number   1
_chemical_formula_structural   LaPrCo17Si8Tc
_chemical_formula_sum   'La1 Pr1 Co17 Si8 Tc1'
_cell_volume   350.94822944
_cell_formula_units_Z   1
loop_
 _symmetry_equiv_pos_site_id
 _symmetry_equiv_pos_as_xyz
  1  'x, y, z'
loop_
 _atom_site_type_symbol
 _atom_site_label
 _atom_site_symmetry_multiplicity
 _atom_site_fract_x
 _atom_site_fract_y
 _atom_site_fract_z
 _atom_site_occupancy
  La  La0  1  0.749790  0.750473  0.000524  1
  Pr  Pr1  1  0.249070  0.249879  0.999278  1
  Co  Co2  1  0.446360  0.949288  0.756261  1
  Co  Co3  1  0.190256  0.692889  0.243788  1
  Co  Co4  1  0.547015  0.044561  0.237877  1
  Co  Co5  1  0.947336  0.192358  0.500157  1
  Co  Co6  1  0.198384  0.928235  0.128554  1
  Co  Co7  1  0.799198  0.068696  0.869150  1
  Co  Co8  1  0.429777  0.699265  0.130915  1
  Co  Co9  1  0.569536  0.299276  0.871385  1
  Co  Co10  1  0.699875  0.572536  0.264158  1
  Co  Co11  1  0.299956  0.429991  0.732031  1
  Co  Co12  1  0.936051  0.808585  0.735792  1
  Co  Co13  1  0.312722  0.550148  0.499828  1
  Co  Co14  1  0.809392  0.306583  0.762110  1
  Co  Co15  1  0.003422  0.502871  0.500090  1
  Co  Co16  1  0.499726  0.001202  0.500007  1
  Co  Co17  1  0.068173  0.198239  0.267910  1
  Co  Co18  1  0.051530  0.810778  0.500185  1
  Si  Si19  1  0.290377  0.788624  0.834454  1
  Si  Si20  1  0.055511  0.546126  0.843685  1
  Si  Si21  1  0.540715  0.717273  0.499659  1
  Si  Si22  1  0.790259  0.954405  0.500581  1
  Si  Si23  1  0.443189  0.284908  0.499559  1
  Si  Si24  1  0.956383  0.453601  0.165480  1
  Si  Si25  1  0.711377  0.203072  0.156421  1
  Si  Si26  1  0.210152  0.048009  0.500540  1
  Tc  Tc27  1  0.694468  0.448133  0.499620  1
