# generated using pymatgen
data_La5In4IrAu
_symmetry_space_group_name_H-M   'P 1'
_cell_length_a   3.78430000
_cell_length_b   8.56417568
_cell_length_c   19.21624000
_cell_angle_alpha   90.25478922
_cell_angle_beta   90.00000000
_cell_angle_gamma   90.00000000
_symmetry_Int_Tables_number   1
_chemical_formula_structural   La5In4IrAu
_chemical_formula_sum   'La10 In8 Ir2 Au2'
_cell_volume   622.78084338
_cell_formula_units_Z   2
loop_
 _symmetry_equiv_pos_site_id
 _symmetry_equiv_pos_as_xyz
  1  'x, y, z'
loop_
 _atom_site_type_symbol
 _atom_site_label
 _atom_site_symmetry_multiplicity
 _atom_site_fract_x
 _atom_site_fract_y
 _atom_site_fract_z
 _atom_site_occupancy
  La  La0  1  0.000000  0.500000  0.500000  1
  La  La1  1  0.000000  0.000000  0.000000  1
  La  La2  1  0.000000  0.763669  0.282150  1
  La  La3  1  0.000000  0.236331  0.717850  1
  La  La4  1  0.000000  0.774292  0.775225  1
  La  La5  1  0.000000  0.225708  0.224775  1
  La  La6  1  0.000000  0.624550  0.080068  1
  La  La7  1  0.000000  0.375450  0.919932  1
  La  La8  1  0.000000  0.879456  0.586118  1
  La  La9  1  0.000000  0.120544  0.413882  1
  In  In10  1  0.500000  0.709073  0.928015  1
  In  In11  1  0.500000  0.290927  0.071985  1
  In  In12  1  0.500000  0.794607  0.431335  1
  In  In13  1  0.500000  0.205393  0.568665  1
  In  In14  1  0.500000  0.562731  0.648391  1
  In  In15  1  0.500000  0.437269  0.351609  1
  In  In16  1  0.500000  0.933581  0.148796  1
  In  In17  1  0.500000  0.066419  0.851204  1
  Ir  Ir18  1  0.500000  0.985157  0.695528  1
  Ir  Ir19  1  0.500000  0.014843  0.304472  1
  Au  Au20  1  0.500000  0.522177  0.199094  1
  Au  Au21  1  0.500000  0.477823  0.800906  1
