# generated using pymatgen
data_Sc2SiB2Ru5
_symmetry_space_group_name_H-M   'P 1'
_cell_length_a   9.32711100
_cell_length_b   9.32711100
_cell_length_c   3.00097000
_cell_angle_alpha   90.00000000
_cell_angle_beta   90.00000000
_cell_angle_gamma   90.00000000
_symmetry_Int_Tables_number   1
_chemical_formula_structural   Sc2SiB2Ru5
_chemical_formula_sum   'Sc4 Si2 B4 Ru10'
_cell_volume   261.06938397
_cell_formula_units_Z   2
loop_
 _symmetry_equiv_pos_site_id
 _symmetry_equiv_pos_as_xyz
  1  'x, y, z'
loop_
 _atom_site_type_symbol
 _atom_site_label
 _atom_site_symmetry_multiplicity
 _atom_site_fract_x
 _atom_site_fract_y
 _atom_site_fract_z
 _atom_site_occupancy
  Sc  Sc0  1  0.174977  0.674977  0.000000  1
  Sc  Sc1  1  0.674977  0.825023  0.000000  1
  Sc  Sc2  1  0.325023  0.174977  0.000000  1
  Sc  Sc3  1  0.825023  0.325023  0.000000  1
  Si  Si4  1  0.000000  0.000000  0.000000  1
  Si  Si5  1  0.500000  0.500000  0.000000  1
  B  B6  1  0.375741  0.875741  0.000000  1
  B  B7  1  0.875741  0.624259  0.000000  1
  B  B8  1  0.124259  0.375741  0.000000  1
  B  B9  1  0.624259  0.124259  0.000000  1
  Ru  Ru10  1  0.000000  0.500000  0.500000  1
  Ru  Ru11  1  0.500000  0.000000  0.500000  1
  Ru  Ru12  1  0.290110  0.430828  0.500000  1
  Ru  Ru13  1  0.709891  0.569172  0.500000  1
  Ru  Ru14  1  0.569172  0.290110  0.500000  1
  Ru  Ru15  1  0.430828  0.709891  0.500000  1
  Ru  Ru16  1  0.930828  0.790109  0.500000  1
  Ru  Ru17  1  0.790109  0.069172  0.500000  1
  Ru  Ru18  1  0.209890  0.930828  0.500000  1
  Ru  Ru19  1  0.069172  0.209890  0.500000  1
