# generated using pymatgen
data_InAg5BiO6
_symmetry_space_group_name_H-M   'P 1'
_cell_length_a   5.99438400
_cell_length_b   5.99438415
_cell_length_c   6.46807400
_cell_angle_alpha   90.00000000
_cell_angle_beta   90.00000000
_cell_angle_gamma   119.99999916
_symmetry_Int_Tables_number   1
_chemical_formula_structural   InAg5BiO6
_chemical_formula_sum   'In1 Ag5 Bi1 O6'
_cell_volume   201.27727641
_cell_formula_units_Z   1
loop_
 _symmetry_equiv_pos_site_id
 _symmetry_equiv_pos_as_xyz
  1  'x, y, z'
loop_
 _atom_site_type_symbol
 _atom_site_label
 _atom_site_symmetry_multiplicity
 _atom_site_fract_x
 _atom_site_fract_y
 _atom_site_fract_z
 _atom_site_occupancy
  In  In0  1  0.333333  0.666667  0.500000  1
  Ag  Ag1  1  0.000000  0.000000  0.234100  1
  Ag  Ag2  1  0.003263  0.501632  0.000000  1
  Ag  Ag3  1  0.498368  0.996737  0.000000  1
  Ag  Ag4  1  0.000000  0.000000  0.765900  1
  Ag  Ag5  1  0.498368  0.501632  0.000000  1
  Bi  Bi6  1  0.666667  0.333333  0.500000  1
  O  O7  1  0.619332  0.623569  0.311014  1
  O  O8  1  0.376431  0.380668  0.688986  1
  O  O9  1  0.004237  0.623569  0.688986  1
  O  O10  1  0.619332  0.995763  0.688986  1
  O  O11  1  0.004237  0.380668  0.311014  1
  O  O12  1  0.376431  0.995763  0.311014  1
