# generated using pymatgen
data_TiV11GaPt3
_symmetry_space_group_name_H-M   'P 1'
_cell_length_a   4.82405700
_cell_length_b   4.82433000
_cell_length_c   9.66484400
_cell_angle_alpha   90.00000000
_cell_angle_beta   90.00000000
_cell_angle_gamma   90.00000000
_symmetry_Int_Tables_number   1
_chemical_formula_structural   TiV11GaPt3
_chemical_formula_sum   'Ti1 V11 Ga1 Pt3'
_cell_volume   224.92839613
_cell_formula_units_Z   1
loop_
 _symmetry_equiv_pos_site_id
 _symmetry_equiv_pos_as_xyz
  1  'x, y, z'
loop_
 _atom_site_type_symbol
 _atom_site_label
 _atom_site_symmetry_multiplicity
 _atom_site_fract_x
 _atom_site_fract_y
 _atom_site_fract_z
 _atom_site_occupancy
  Ti  Ti0  1  0.000000  0.749142  0.000000  1
  V  V1  1  0.500000  0.000588  0.628597  1
  V  V2  1  0.500000  0.002788  0.122996  1
  V  V3  1  0.750260  0.498720  0.254283  1
  V  V4  1  0.750260  0.498720  0.745717  1
  V  V5  1  0.000000  0.749834  0.500000  1
  V  V6  1  0.500000  0.000588  0.371403  1
  V  V7  1  0.500000  0.002788  0.877004  1
  V  V8  1  0.249740  0.498720  0.254283  1
  V  V9  1  0.249740  0.498720  0.745717  1
  V  V10  1  0.000000  0.251499  0.500000  1
  V  V11  1  0.000000  0.248127  0.000000  1
  Ga  Ga12  1  0.500000  0.500461  0.500000  1
  Pt  Pt13  1  0.500000  0.499926  0.000000  1
  Pt  Pt14  1  0.000000  0.999691  0.250702  1
  Pt  Pt15  1  0.000000  0.999691  0.749298  1
