# generated using pymatgen
data_Tb5Ga6As6Rh19
_symmetry_space_group_name_H-M   'P 1'
_cell_length_a   13.15254100
_cell_length_b   13.15254057
_cell_length_c   4.06288700
_cell_angle_alpha   90.00000000
_cell_angle_beta   90.00000000
_cell_angle_gamma   119.99999354
_symmetry_Int_Tables_number   1
_chemical_formula_structural   Tb5Ga6As6Rh19
_chemical_formula_sum   'Tb5 Ga6 As6 Rh19'
_cell_volume   608.67395378
_cell_formula_units_Z   1
loop_
 _symmetry_equiv_pos_site_id
 _symmetry_equiv_pos_as_xyz
  1  'x, y, z'
loop_
 _atom_site_type_symbol
 _atom_site_label
 _atom_site_symmetry_multiplicity
 _atom_site_fract_x
 _atom_site_fract_y
 _atom_site_fract_z
 _atom_site_occupancy
  Tb  Tb0  1  0.000000  0.189496  0.500000  1
  Tb  Tb1  1  0.810504  0.810504  0.500000  1
  Tb  Tb2  1  0.189496  0.000000  0.500000  1
  Tb  Tb3  1  0.666667  0.333333  0.000000  1
  Tb  Tb4  1  0.333333  0.666667  0.000000  1
  Ga  Ga5  1  0.481919  0.320654  0.500000  1
  Ga  Ga6  1  0.679346  0.161265  0.500000  1
  Ga  Ga7  1  0.838735  0.518081  0.500000  1
  Ga  Ga8  1  0.518081  0.838735  0.500000  1
  Ga  Ga9  1  0.161265  0.679346  0.500000  1
  Ga  Ga10  1  0.320654  0.481919  0.500000  1
  As  As11  1  0.819980  0.000000  0.000000  1
  As  As12  1  0.180020  0.180020  0.000000  1
  As  As13  1  0.000000  0.819980  0.000000  1
  As  As14  1  0.371064  0.000000  0.000000  1
  As  As15  1  0.000000  0.371064  0.000000  1
  As  As16  1  0.628936  0.628936  0.000000  1
  Rh  Rh17  1  0.810007  0.181016  0.000000  1
  Rh  Rh18  1  0.371010  0.189993  0.000000  1
  Rh  Rh19  1  0.647170  0.522336  0.500000  1
  Rh  Rh20  1  0.875166  0.352830  0.500000  1
  Rh  Rh21  1  0.352830  0.875166  0.500000  1
  Rh  Rh22  1  0.522336  0.647170  0.500000  1
  Rh  Rh23  1  0.124834  0.477664  0.500000  1
  Rh  Rh24  1  0.818984  0.628990  0.000000  1
  Rh  Rh25  1  0.628990  0.818984  0.000000  1
  Rh  Rh26  1  0.181016  0.810007  0.000000  1
  Rh  Rh27  1  0.189993  0.371010  0.000000  1
  Rh  Rh28  1  0.000000  0.723861  0.500000  1
  Rh  Rh29  1  0.276139  0.276139  0.500000  1
  Rh  Rh30  1  0.723861  0.000000  0.500000  1
  Rh  Rh31  1  0.000000  0.555752  0.000000  1
  Rh  Rh32  1  0.444248  0.444248  0.000000  1
  Rh  Rh33  1  0.555752  0.000000  0.000000  1
  Rh  Rh34  1  0.000000  0.000000  0.000000  1
  Rh  Rh35  1  0.477664  0.124834  0.500000  1
