# generated using pymatgen
data_YbIrRuPbO7
_symmetry_space_group_name_H-M   'P 1'
_cell_length_a   7.26662500
_cell_length_b   7.26662457
_cell_length_c   7.25108500
_cell_angle_alpha   60.07071988
_cell_angle_beta   60.07072183
_cell_angle_gamma   60.30979552
_symmetry_Int_Tables_number   1
_chemical_formula_structural   YbIrRuPbO7
_chemical_formula_sum   'Yb2 Ir2 Ru2 Pb2 O14'
_cell_volume   271.65991464
_cell_formula_units_Z   2
loop_
 _symmetry_equiv_pos_site_id
 _symmetry_equiv_pos_as_xyz
  1  'x, y, z'
loop_
 _atom_site_type_symbol
 _atom_site_label
 _atom_site_symmetry_multiplicity
 _atom_site_fract_x
 _atom_site_fract_y
 _atom_site_fract_z
 _atom_site_occupancy
  Yb  Yb0  1  0.625000  0.125000  0.125000  1
  Yb  Yb1  1  0.125000  0.625000  0.125000  1
  Ir  Ir2  1  0.125000  0.625000  0.625000  1
  Ir  Ir3  1  0.625000  0.125000  0.625000  1
  Ru  Ru4  1  0.625000  0.625000  0.625000  1
  Ru  Ru5  1  0.625000  0.625000  0.125000  1
  Pb  Pb6  1  0.125000  0.125000  0.125000  1
  Pb  Pb7  1  0.125000  0.125000  0.625000  1
  O  O8  1  0.998025  0.998025  0.001975  1
  O  O9  1  0.251975  0.251975  0.248025  1
  O  O10  1  0.293745  0.293745  0.706255  1
  O  O11  1  0.552623  0.552623  0.947377  1
  O  O12  1  0.706604  0.297777  0.696607  1
  O  O13  1  0.706604  0.297777  0.299012  1
  O  O14  1  0.297777  0.706604  0.696607  1
  O  O15  1  0.297777  0.706604  0.299012  1
  O  O16  1  0.697377  0.697377  0.302623  1
  O  O17  1  0.952223  0.543396  0.553393  1
  O  O18  1  0.543396  0.952223  0.950988  1
  O  O19  1  0.956255  0.956255  0.543745  1
  O  O20  1  0.952223  0.543396  0.950988  1
  O  O21  1  0.543396  0.952223  0.553393  1
