# generated using pymatgen
data_Ho2CoTc5Ni6P7
_symmetry_space_group_name_H-M   'P 1'
_cell_length_a   9.23129075
_cell_length_b   9.21488537
_cell_length_c   3.72974100
_cell_angle_alpha   90.00000000
_cell_angle_beta   90.00000000
_cell_angle_gamma   119.30566861
_symmetry_Int_Tables_number   1
_chemical_formula_structural   Ho2CoTc5Ni6P7
_chemical_formula_sum   'Ho2 Co1 Tc5 Ni6 P7'
_cell_volume   276.66735060
_cell_formula_units_Z   1
loop_
 _symmetry_equiv_pos_site_id
 _symmetry_equiv_pos_as_xyz
  1  'x, y, z'
loop_
 _atom_site_type_symbol
 _atom_site_label
 _atom_site_symmetry_multiplicity
 _atom_site_fract_x
 _atom_site_fract_y
 _atom_site_fract_z
 _atom_site_occupancy
  Ho  Ho0  1  0.671574  0.339900  0.500000  1
  Ho  Ho1  1  0.328109  0.664728  0.000000  1
  Co  Co2  1  0.156874  0.278330  0.000000  1
  Tc  Tc3  1  0.390785  0.438051  0.500000  1
  Tc  Tc4  1  0.564024  0.955254  0.500000  1
  Tc  Tc5  1  0.203934  0.088012  0.500000  1
  Tc  Tc6  1  0.875120  0.772131  0.500000  1
  Tc  Tc7  1  0.911942  0.122195  0.500000  1
  Ni  Ni8  1  0.118396  0.836961  0.000000  1
  Ni  Ni9  1  0.728077  0.883013  0.000000  1
  Ni  Ni10  1  0.934283  0.368043  0.000000  1
  Ni  Ni11  1  0.636873  0.573285  0.000000  1
  Ni  Ni12  1  0.427472  0.065462  0.000000  1
  Ni  Ni13  1  0.051031  0.608593  0.500000  1
  P  P14  1  0.003609  0.003752  0.000000  1
  P  P15  1  0.597136  0.716841  0.500000  1
  P  P16  1  0.704201  0.117735  0.000000  1
  P  P17  1  0.888119  0.590011  0.000000  1
  P  P18  1  0.408854  0.295983  0.000000  1
  P  P19  1  0.281536  0.877902  0.500000  1
  P  P20  1  0.118050  0.403820  0.500000  1
