# generated using pymatgen
data_Hf4Fe3Co(SiAs)2
_symmetry_space_group_name_H-M   'P 1'
_cell_length_a   3.88852800
_cell_length_b   6.38018961
_cell_length_c   7.14683737
_cell_angle_alpha   89.38041915
_cell_angle_beta   90.00000000
_cell_angle_gamma   90.00000000
_symmetry_Int_Tables_number   1
_chemical_formula_structural   Hf4Fe3Co(SiAs)2
_chemical_formula_sum   'Hf4 Fe3 Co1 Si2 As2'
_cell_volume   177.29942318
_cell_formula_units_Z   1
loop_
 _symmetry_equiv_pos_site_id
 _symmetry_equiv_pos_as_xyz
  1  'x, y, z'
loop_
 _atom_site_type_symbol
 _atom_site_label
 _atom_site_symmetry_multiplicity
 _atom_site_fract_x
 _atom_site_fract_y
 _atom_site_fract_z
 _atom_site_occupancy
  Hf  Hf0  1  0.250000  0.514522  0.194354  1
  Hf  Hf1  1  0.750000  0.483229  0.804565  1
  Hf  Hf2  1  0.250000  0.009558  0.311537  1
  Hf  Hf3  1  0.750000  0.995241  0.691610  1
  Fe  Fe4  1  0.250000  0.652736  0.556530  1
  Fe  Fe5  1  0.750000  0.347161  0.440848  1
  Fe  Fe6  1  0.250000  0.147949  0.926403  1
  Co  Co7  1  0.750000  0.848987  0.074785  1
  Si  Si8  1  0.750000  0.714592  0.393910  1
  Si  Si9  1  0.250000  0.286679  0.608418  1
  As  As10  1  0.750000  0.225289  0.113434  1
  As  As11  1  0.250000  0.774057  0.883607  1
