# generated using pymatgen
data_Dy3Ho5(ScGa5)4
_symmetry_space_group_name_H-M   'P 1'
_cell_length_a   6.00811105
_cell_length_b   9.46497603
_cell_length_c   11.36043107
_cell_angle_alpha   89.99892514
_cell_angle_beta   89.98720144
_cell_angle_gamma   89.99138988
_symmetry_Int_Tables_number   1
_chemical_formula_structural   Dy3Ho5(ScGa5)4
_chemical_formula_sum   'Dy3 Ho5 Sc4 Ga20'
_cell_volume   646.02937389
_cell_formula_units_Z   1
loop_
 _symmetry_equiv_pos_site_id
 _symmetry_equiv_pos_as_xyz
  1  'x, y, z'
loop_
 _atom_site_type_symbol
 _atom_site_label
 _atom_site_symmetry_multiplicity
 _atom_site_fract_x
 _atom_site_fract_y
 _atom_site_fract_z
 _atom_site_occupancy
  Dy  Dy0  1  0.891119  0.510067  0.352043  1
  Dy  Dy1  1  0.608876  0.989906  0.852187  1
  Dy  Dy2  1  0.108930  0.010029  0.647839  1
  Ho  Ho3  1  0.391142  0.489954  0.147840  1
  Ho  Ho4  1  0.108813  0.490000  0.647990  1
  Ho  Ho5  1  0.391195  0.010010  0.148003  1
  Ho  Ho6  1  0.891173  0.989968  0.351978  1
  Ho  Ho7  1  0.608782  0.510032  0.852138  1
  Sc  Sc8  1  0.849275  0.749946  0.074594  1
  Sc  Sc9  1  0.650594  0.750056  0.574535  1
  Sc  Sc10  1  0.150603  0.249991  0.925527  1
  Sc  Sc11  1  0.349449  0.250077  0.425399  1
  Ga  Ga12  1  0.877270  0.050422  0.089393  1
  Ga  Ga13  1  0.622718  0.449639  0.589380  1
  Ga  Ga14  1  0.122754  0.550384  0.910705  1
  Ga  Ga15  1  0.377315  0.949568  0.410635  1
  Ga  Ga16  1  0.122544  0.949414  0.910945  1
  Ga  Ga17  1  0.377489  0.550491  0.410758  1
  Ga  Ga18  1  0.877248  0.449561  0.089127  1
  Ga  Ga19  1  0.622540  0.050505  0.589066  1
  Ga  Ga20  1  0.165290  0.750138  0.248500  1
  Ga  Ga21  1  0.334872  0.749669  0.748650  1
  Ga  Ga22  1  0.834884  0.250314  0.751361  1
  Ga  Ga23  1  0.665023  0.249838  0.251269  1
  Ga  Ga24  1  0.379961  0.749901  0.003978  1
  Ga  Ga25  1  0.120044  0.749869  0.503730  1
  Ga  Ga26  1  0.619923  0.250189  0.996309  1
  Ga  Ga27  1  0.879931  0.249887  0.496257  1
  Ga  Ga28  1  0.603838  0.750226  0.295935  1
  Ga  Ga29  1  0.896140  0.749721  0.795973  1
  Ga  Ga30  1  0.396175  0.250267  0.704008  1
  Ga  Ga31  1  0.104089  0.249959  0.203949  1
