# generated using pymatgen
data_K2YbErB24
_symmetry_space_group_name_H-M   'P 1'
_cell_length_a   4.15959800
_cell_length_b   4.15959800
_cell_length_c   16.64630200
_cell_angle_alpha   90.00000000
_cell_angle_beta   90.00000000
_cell_angle_gamma   90.00000000
_symmetry_Int_Tables_number   1
_chemical_formula_structural   K2YbErB24
_chemical_formula_sum   'K2 Yb1 Er1 B24'
_cell_volume   288.01857069
_cell_formula_units_Z   1
loop_
 _symmetry_equiv_pos_site_id
 _symmetry_equiv_pos_as_xyz
  1  'x, y, z'
loop_
 _atom_site_type_symbol
 _atom_site_label
 _atom_site_symmetry_multiplicity
 _atom_site_fract_x
 _atom_site_fract_y
 _atom_site_fract_z
 _atom_site_occupancy
  K  K0  1  0.000000  0.000000  0.250159  1
  K  K1  1  0.000000  0.000000  0.749841  1
  Yb  Yb2  1  0.000000  0.000000  0.500000  1
  Er  Er3  1  0.000000  0.000000  0.000000  1
  B  B4  1  0.201436  0.500000  0.121192  1
  B  B5  1  0.200019  0.500000  0.376475  1
  B  B6  1  0.200019  0.500000  0.623525  1
  B  B7  1  0.201436  0.500000  0.878808  1
  B  B8  1  0.500000  0.500000  0.197723  1
  B  B9  1  0.500000  0.500000  0.450731  1
  B  B10  1  0.500000  0.500000  0.699352  1
  B  B11  1  0.500000  0.500000  0.951501  1
  B  B12  1  0.500000  0.201436  0.121192  1
  B  B13  1  0.500000  0.200019  0.376475  1
  B  B14  1  0.500000  0.200019  0.623525  1
  B  B15  1  0.500000  0.201436  0.878808  1
  B  B16  1  0.500000  0.500000  0.048499  1
  B  B17  1  0.500000  0.500000  0.300648  1
  B  B18  1  0.500000  0.500000  0.549269  1
  B  B19  1  0.500000  0.500000  0.802277  1
  B  B20  1  0.500000  0.798564  0.121192  1
  B  B21  1  0.500000  0.799981  0.376475  1
  B  B22  1  0.500000  0.799981  0.623525  1
  B  B23  1  0.500000  0.798564  0.878808  1
  B  B24  1  0.798564  0.500000  0.121192  1
  B  B25  1  0.799981  0.500000  0.376475  1
  B  B26  1  0.799981  0.500000  0.623525  1
  B  B27  1  0.798564  0.500000  0.878808  1
