# generated using pymatgen
data_Hf16Ni4Mo3Rh
_symmetry_space_group_name_H-M   'P 1'
_cell_length_a   8.69841100
_cell_length_b   8.69841111
_cell_length_c   8.69841229
_cell_angle_alpha   60.13670097
_cell_angle_beta   60.13669654
_cell_angle_gamma   60.13670255
_symmetry_Int_Tables_number   1
_chemical_formula_structural   Hf16Ni4Mo3Rh
_chemical_formula_sum   'Hf16 Ni4 Mo3 Rh1'
_cell_volume   466.81803337
_cell_formula_units_Z   1
loop_
 _symmetry_equiv_pos_site_id
 _symmetry_equiv_pos_as_xyz
  1  'x, y, z'
loop_
 _atom_site_type_symbol
 _atom_site_label
 _atom_site_symmetry_multiplicity
 _atom_site_fract_x
 _atom_site_fract_y
 _atom_site_fract_z
 _atom_site_occupancy
  Hf  Hf0  1  0.684730  0.105425  0.105425  1
  Hf  Hf1  1  0.105425  0.684730  0.105425  1
  Hf  Hf2  1  0.105425  0.105425  0.684730  1
  Hf  Hf3  1  0.104568  0.104568  0.104568  1
  Hf  Hf4  1  0.315588  0.315588  0.687331  1
  Hf  Hf5  1  0.685328  0.685328  0.315018  1
  Hf  Hf6  1  0.315588  0.687331  0.315588  1
  Hf  Hf7  1  0.685328  0.315018  0.685328  1
  Hf  Hf8  1  0.687331  0.315588  0.315588  1
  Hf  Hf9  1  0.315018  0.685328  0.685328  1
  Hf  Hf10  1  0.951392  0.951392  0.548146  1
  Hf  Hf11  1  0.551980  0.551980  0.946804  1
  Hf  Hf12  1  0.951392  0.548146  0.951392  1
  Hf  Hf13  1  0.551980  0.946804  0.551980  1
  Hf  Hf14  1  0.548146  0.951392  0.951392  1
  Hf  Hf15  1  0.946804  0.551980  0.551980  1
  Ni  Ni16  1  0.320776  0.891917  0.891917  1
  Ni  Ni17  1  0.891917  0.320776  0.891917  1
  Ni  Ni18  1  0.891917  0.891917  0.320776  1
  Ni  Ni19  1  0.893125  0.893125  0.893125  1
  Mo  Mo20  1  0.996497  0.333310  0.333310  1
  Mo  Mo21  1  0.333310  0.996497  0.333310  1
  Mo  Mo22  1  0.333310  0.333310  0.996497  1
  Rh  Rh23  1  0.333121  0.333121  0.333121  1
