# generated using pymatgen
data_PrScTcB6
_symmetry_space_group_name_H-M   'P 1'
_cell_length_a   3.66175300
_cell_length_b   9.10618300
_cell_length_c   11.58007400
_cell_angle_alpha   90.00000000
_cell_angle_beta   90.00000000
_cell_angle_gamma   90.00000000
_symmetry_Int_Tables_number   1
_chemical_formula_structural   PrScTcB6
_chemical_formula_sum   'Pr4 Sc4 Tc4 B24'
_cell_volume   386.13285350
_cell_formula_units_Z   4
loop_
 _symmetry_equiv_pos_site_id
 _symmetry_equiv_pos_as_xyz
  1  'x, y, z'
loop_
 _atom_site_type_symbol
 _atom_site_label
 _atom_site_symmetry_multiplicity
 _atom_site_fract_x
 _atom_site_fract_y
 _atom_site_fract_z
 _atom_site_occupancy
  Pr  Pr0  1  0.000000  0.321872  0.415093  1
  Pr  Pr1  1  0.000000  0.678128  0.584907  1
  Pr  Pr2  1  0.000000  0.821872  0.084907  1
  Pr  Pr3  1  0.000000  0.178128  0.915093  1
  Sc  Sc4  1  0.000000  0.943726  0.369038  1
  Sc  Sc5  1  0.000000  0.056274  0.630962  1
  Sc  Sc6  1  0.000000  0.443726  0.130962  1
  Sc  Sc7  1  0.000000  0.556274  0.869038  1
  Tc  Tc8  1  0.000000  0.642142  0.316462  1
  Tc  Tc9  1  0.000000  0.357858  0.683538  1
  Tc  Tc10  1  0.000000  0.142142  0.183538  1
  Tc  Tc11  1  0.000000  0.857858  0.816462  1
  B  B12  1  0.500000  0.556870  0.428993  1
  B  B13  1  0.500000  0.443130  0.571007  1
  B  B14  1  0.500000  0.056870  0.071007  1
  B  B15  1  0.500000  0.943130  0.928993  1
  B  B16  1  0.500000  0.755018  0.415026  1
  B  B17  1  0.500000  0.244982  0.584974  1
  B  B18  1  0.500000  0.255018  0.084974  1
  B  B19  1  0.500000  0.744982  0.915026  1
  B  B20  1  0.500000  0.794780  0.265718  1
  B  B21  1  0.500000  0.205220  0.734282  1
  B  B22  1  0.500000  0.294780  0.234282  1
  B  B23  1  0.500000  0.705220  0.765718  1
  B  B24  1  0.500000  0.627918  0.183770  1
  B  B25  1  0.500000  0.372082  0.816230  1
  B  B26  1  0.500000  0.127918  0.316230  1
  B  B27  1  0.500000  0.872082  0.683770  1
  B  B28  1  0.500000  0.983093  0.215239  1
  B  B29  1  0.500000  0.016907  0.784761  1
  B  B30  1  0.500000  0.483093  0.284761  1
  B  B31  1  0.500000  0.516907  0.715239  1
  B  B32  1  0.500000  0.593165  0.024989  1
  B  B33  1  0.500000  0.406835  0.975011  1
  B  B34  1  0.500000  0.093165  0.475011  1
  B  B35  1  0.500000  0.906835  0.524989  1
