# generated using pymatgen
data_Dy5Er15Sn16
_symmetry_space_group_name_H-M   'P 1'
_cell_length_a   7.99074891
_cell_length_b   8.11438965
_cell_length_c   15.34692027
_cell_angle_alpha   89.96106839
_cell_angle_beta   89.90390112
_cell_angle_gamma   89.89876414
_symmetry_Int_Tables_number   1
_chemical_formula_structural   Dy5Er15Sn16
_chemical_formula_sum   'Dy5 Er15 Sn16'
_cell_volume   995.09190128
_cell_formula_units_Z   1
loop_
 _symmetry_equiv_pos_site_id
 _symmetry_equiv_pos_as_xyz
  1  'x, y, z'
loop_
 _atom_site_type_symbol
 _atom_site_label
 _atom_site_symmetry_multiplicity
 _atom_site_fract_x
 _atom_site_fract_y
 _atom_site_fract_z
 _atom_site_occupancy
  Dy  Dy0  1  0.978954  0.820622  0.097157  1
  Dy  Dy1  1  0.479154  0.678722  0.096713  1
  Dy  Dy2  1  0.978798  0.820909  0.403135  1
  Dy  Dy3  1  0.520828  0.320971  0.596746  1
  Dy  Dy4  1  0.020574  0.179364  0.903191  1
  Er  Er5  1  0.367596  0.837300  0.877339  1
  Er  Er6  1  0.867846  0.662751  0.622489  1
  Er  Er7  1  0.632070  0.162785  0.377380  1
  Er  Er8  1  0.132345  0.337511  0.122647  1
  Er  Er9  1  0.632130  0.162548  0.122773  1
  Er  Er10  1  0.131973  0.337346  0.377591  1
  Er  Er11  1  0.368207  0.837361  0.622556  1
  Er  Er12  1  0.867629  0.662501  0.877331  1
  Er  Er13  1  0.521627  0.320876  0.902583  1
  Er  Er14  1  0.021901  0.179141  0.597394  1
  Er  Er15  1  0.478005  0.678749  0.402775  1
  Er  Er16  1  0.199001  0.503653  0.749964  1
  Er  Er17  1  0.698995  0.996398  0.749928  1
  Er  Er18  1  0.801055  0.496319  0.250169  1
  Er  Er19  1  0.301354  0.003713  0.250207  1
  Sn  Sn20  1  0.293616  0.037708  0.041562  1
  Sn  Sn21  1  0.792529  0.463236  0.458292  1
  Sn  Sn22  1  0.707558  0.963499  0.541674  1
  Sn  Sn23  1  0.207120  0.536979  0.958147  1
  Sn  Sn24  1  0.705866  0.962602  0.958592  1
  Sn  Sn25  1  0.206784  0.538164  0.541198  1
  Sn  Sn26  1  0.293140  0.037484  0.458838  1
  Sn  Sn27  1  0.793410  0.461340  0.041067  1
  Sn  Sn28  1  0.565165  0.618815  0.749905  1
  Sn  Sn29  1  0.065071  0.880897  0.749933  1
  Sn  Sn30  1  0.434946  0.380757  0.250006  1
  Sn  Sn31  1  0.935097  0.119566  0.250064  1
  Sn  Sn32  1  0.331080  0.148652  0.750291  1
  Sn  Sn33  1  0.830972  0.351319  0.749660  1
  Sn  Sn34  1  0.668320  0.851063  0.250448  1
  Sn  Sn35  1  0.169283  0.648379  0.250254  1
