# generated using pymatgen
data_Nb3(Ga2Ni)2
_symmetry_space_group_name_H-M   'P 1'
_cell_length_a   8.77149100
_cell_length_b   8.79278517
_cell_length_c   8.15863100
_cell_angle_alpha   90.00000000
_cell_angle_beta   90.00000000
_cell_angle_gamma   121.04324154
_symmetry_Int_Tables_number   1
_chemical_formula_structural   Nb3(Ga2Ni)2
_chemical_formula_sum   'Nb12 Ga16 Ni8'
_cell_volume   539.12027039
_cell_formula_units_Z   4
loop_
 _symmetry_equiv_pos_site_id
 _symmetry_equiv_pos_as_xyz
  1  'x, y, z'
loop_
 _atom_site_type_symbol
 _atom_site_label
 _atom_site_symmetry_multiplicity
 _atom_site_fract_x
 _atom_site_fract_y
 _atom_site_fract_z
 _atom_site_occupancy
  Nb  Nb0  1  0.329625  0.995134  0.066703  1
  Nb  Nb1  1  0.670375  0.004866  0.933297  1
  Nb  Nb2  1  0.998665  0.329841  0.068601  1
  Nb  Nb3  1  0.670375  0.004866  0.566703  1
  Nb  Nb4  1  0.998665  0.329841  0.431399  1
  Nb  Nb5  1  0.001335  0.670159  0.931399  1
  Nb  Nb6  1  0.329625  0.995134  0.433297  1
  Nb  Nb7  1  0.001335  0.670159  0.568601  1
  Nb  Nb8  1  0.668537  0.665444  0.067753  1
  Nb  Nb9  1  0.331463  0.334556  0.932247  1
  Nb  Nb10  1  0.331463  0.334556  0.567753  1
  Nb  Nb11  1  0.668537  0.665444  0.432247  1
  Ga  Ga12  1  0.344846  0.848469  0.750000  1
  Ga  Ga13  1  0.651157  0.506219  0.750000  1
  Ga  Ga14  1  0.655154  0.151531  0.250000  1
  Ga  Ga15  1  0.348843  0.493781  0.250000  1
  Ga  Ga16  1  0.846367  0.341690  0.750000  1
  Ga  Ga17  1  0.153633  0.658310  0.250000  1
  Ga  Ga18  1  0.341783  0.664810  0.506582  1
  Ga  Ga19  1  0.658217  0.335190  0.493418  1
  Ga  Ga20  1  0.658217  0.335190  0.006582  1
  Ga  Ga21  1  0.341783  0.664810  0.993418  1
  Ga  Ga22  1  0.181645  0.010489  0.750000  1
  Ga  Ga23  1  0.818355  0.989511  0.250000  1
  Ga  Ga24  1  0.010768  0.182099  0.750000  1
  Ga  Ga25  1  0.989232  0.817901  0.250000  1
  Ga  Ga26  1  0.824886  0.835348  0.750000  1
  Ga  Ga27  1  0.175114  0.164652  0.250000  1
  Ni  Ni28  1  0.167041  0.502325  0.750000  1
  Ni  Ni29  1  0.832959  0.497675  0.250000  1
  Ni  Ni30  1  0.506654  0.673403  0.750000  1
  Ni  Ni31  1  0.506482  0.172245  0.750000  1
  Ni  Ni32  1  0.493346  0.326597  0.250000  1
  Ni  Ni33  1  0.493518  0.827755  0.250000  1
  Ni  Ni34  1  0.000000  0.000000  0.500000  1
  Ni  Ni35  1  0.000000  0.000000  0.000000  1
