# generated using pymatgen
data_SrBi3Ir3RhO14
_symmetry_space_group_name_H-M   'P 1'
_cell_length_a   7.42119503
_cell_length_b   7.34677595
_cell_length_c   7.41102100
_cell_angle_alpha   59.71030945
_cell_angle_beta   60.04534450
_cell_angle_gamma   59.70179362
_symmetry_Int_Tables_number   1
_chemical_formula_structural   SrBi3Ir3RhO14
_chemical_formula_sum   'Sr1 Bi3 Ir3 Rh1 O14'
_cell_volume   284.53586108
_cell_formula_units_Z   1
loop_
 _symmetry_equiv_pos_site_id
 _symmetry_equiv_pos_as_xyz
  1  'x, y, z'
loop_
 _atom_site_type_symbol
 _atom_site_label
 _atom_site_symmetry_multiplicity
 _atom_site_fract_x
 _atom_site_fract_y
 _atom_site_fract_z
 _atom_site_occupancy
  Sr  Sr0  1  0.125000  0.625000  0.125000  1
  Bi  Bi1  1  0.125000  0.125000  0.125000  1
  Bi  Bi2  1  0.625000  0.125000  0.125000  1
  Bi  Bi3  1  0.125000  0.125000  0.625000  1
  Ir  Ir4  1  0.625000  0.625000  0.625000  1
  Ir  Ir5  1  0.625000  0.625000  0.125000  1
  Ir  Ir6  1  0.625000  0.125000  0.625000  1
  Rh  Rh7  1  0.125000  0.625000  0.625000  1
  O  O8  1  0.257052  0.231514  0.255717  1
  O  O9  1  0.299264  0.711406  0.292529  1
  O  O10  1  0.951205  0.960144  0.544326  1
  O  O11  1  0.548196  0.955499  0.544371  1
  O  O12  1  0.691877  0.710934  0.298595  1
  O  O13  1  0.950736  0.538594  0.553197  1
  O  O14  1  0.701804  0.294501  0.705629  1
  O  O15  1  0.298795  0.289856  0.705674  1
  O  O16  1  0.701804  0.294501  0.298065  1
  O  O17  1  0.299264  0.711406  0.696803  1
  O  O18  1  0.950736  0.538594  0.957471  1
  O  O19  1  0.558123  0.539066  0.951405  1
  O  O20  1  0.992948  0.018486  0.994283  1
  O  O21  1  0.548196  0.955499  0.951935  1
