# generated using pymatgen
data_Ba4BeSi7Au20
_symmetry_space_group_name_H-M   'P 1'
_cell_length_a   7.07245800
_cell_length_b   9.11463001
_cell_length_c   10.32159116
_cell_angle_alpha   89.79154370
_cell_angle_beta   90.00000000
_cell_angle_gamma   90.00000000
_symmetry_Int_Tables_number   1
_chemical_formula_structural   Ba4BeSi7Au20
_chemical_formula_sum   'Ba4 Be1 Si7 Au20'
_cell_volume   665.35465444
_cell_formula_units_Z   1
loop_
 _symmetry_equiv_pos_site_id
 _symmetry_equiv_pos_as_xyz
  1  'x, y, z'
loop_
 _atom_site_type_symbol
 _atom_site_label
 _atom_site_symmetry_multiplicity
 _atom_site_fract_x
 _atom_site_fract_y
 _atom_site_fract_z
 _atom_site_occupancy
  Ba  Ba0  1  0.250000  0.242624  0.117853  1
  Ba  Ba1  1  0.250000  0.743802  0.384675  1
  Ba  Ba2  1  0.750000  0.760388  0.881106  1
  Ba  Ba3  1  0.750000  0.256045  0.616968  1
  Be  Be4  1  0.250000  0.042930  0.634418  1
  Si  Si5  1  0.250000  0.547864  0.864117  1
  Si  Si6  1  0.750000  0.954576  0.374294  1
  Si  Si7  1  0.750000  0.456866  0.133490  1
  Si  Si8  1  0.250000  0.319611  0.458834  1
  Si  Si9  1  0.250000  0.828638  0.040472  1
  Si  Si10  1  0.750000  0.672998  0.544335  1
  Si  Si11  1  0.750000  0.169513  0.954064  1
  Au  Au12  1  0.049640  0.094062  0.397486  1
  Au  Au13  1  0.452309  0.598949  0.106053  1
  Au  Au14  1  0.540505  0.904022  0.608631  1
  Au  Au15  1  0.952427  0.403609  0.895095  1
  Au  Au16  1  0.959495  0.904022  0.608631  1
  Au  Au17  1  0.547573  0.403609  0.895095  1
  Au  Au18  1  0.450360  0.094062  0.397486  1
  Au  Au19  1  0.047691  0.598949  0.106053  1
  Au  Au20  1  0.036431  0.079720  0.845128  1
  Au  Au21  1  0.466834  0.571649  0.646595  1
  Au  Au22  1  0.533794  0.926067  0.145841  1
  Au  Au23  1  0.968782  0.424595  0.355275  1
  Au  Au24  1  0.966206  0.926067  0.145841  1
  Au  Au25  1  0.531218  0.424595  0.355275  1
  Au  Au26  1  0.463569  0.079720  0.845128  1
  Au  Au27  1  0.033166  0.571649  0.646595  1
  Au  Au28  1  0.250000  0.299590  0.694151  1
  Au  Au29  1  0.250000  0.814020  0.801019  1
  Au  Au30  1  0.750000  0.692483  0.306745  1
  Au  Au31  1  0.750000  0.192704  0.193255  1
