# generated using pymatgen
data_CsTa3(SeO6)2
_symmetry_space_group_name_H-M   'P 1'
_cell_length_a   7.41182400
_cell_length_b   7.41182377
_cell_length_c   12.80325200
_cell_angle_alpha   90.00000000
_cell_angle_beta   90.00000000
_cell_angle_gamma   119.99984035
_symmetry_Int_Tables_number   1
_chemical_formula_structural   CsTa3(SeO6)2
_chemical_formula_sum   'Cs2 Ta6 Se4 O24'
_cell_volume   609.11852339
_cell_formula_units_Z   2
loop_
 _symmetry_equiv_pos_site_id
 _symmetry_equiv_pos_as_xyz
  1  'x, y, z'
loop_
 _atom_site_type_symbol
 _atom_site_label
 _atom_site_symmetry_multiplicity
 _atom_site_fract_x
 _atom_site_fract_y
 _atom_site_fract_z
 _atom_site_occupancy
  Cs  Cs0  1  0.666664  0.333332  0.456219  1
  Cs  Cs1  1  0.333335  0.666668  0.956219  1
  Ta  Ta2  1  0.160705  0.332201  0.294680  1
  Ta  Ta3  1  0.171496  0.839297  0.294682  1
  Ta  Ta4  1  0.667800  0.828507  0.294681  1
  Ta  Ta5  1  0.839295  0.667798  0.794681  1
  Ta  Ta6  1  0.828506  0.160703  0.794682  1
  Ta  Ta7  1  0.332199  0.171493  0.794680  1
  Se  Se8  1  0.666668  0.333335  0.011028  1
  Se  Se9  1  0.999999  0.000000  0.080790  1
  Se  Se10  1  0.333331  0.666666  0.511027  1
  Se  Se11  1  0.000001  0.000000  0.580790  1
  O  O12  1  0.118372  0.243358  0.140703  1
  O  O13  1  0.756639  0.875014  0.140703  1
  O  O14  1  0.124987  0.881629  0.140704  1
  O  O15  1  0.458407  0.913718  0.269494  1
  O  O16  1  0.455308  0.541594  0.269494  1
  O  O17  1  0.086285  0.544693  0.269496  1
  O  O18  1  0.877886  0.753146  0.328161  1
  O  O19  1  0.246858  0.124743  0.328162  1
  O  O20  1  0.875259  0.122117  0.328159  1
  O  O21  1  0.211623  0.789947  0.453475  1
  O  O22  1  0.210051  0.421677  0.453475  1
  O  O23  1  0.578321  0.788375  0.453475  1
  O  O24  1  0.243360  0.124985  0.640703  1
  O  O25  1  0.881628  0.756641  0.640704  1
  O  O26  1  0.875015  0.118372  0.640704  1
  O  O27  1  0.541594  0.086282  0.769494  1
  O  O28  1  0.544691  0.458406  0.769495  1
  O  O29  1  0.913715  0.455306  0.769495  1
  O  O30  1  0.122115  0.246854  0.828161  1
  O  O31  1  0.753141  0.875256  0.828162  1
  O  O32  1  0.124742  0.877882  0.828160  1
  O  O33  1  0.788376  0.210052  0.953475  1
  O  O34  1  0.421678  0.211624  0.953475  1
  O  O35  1  0.789948  0.578324  0.953475  1
