# generated using pymatgen
data_BaCd2GeAu
_symmetry_space_group_name_H-M   'P 1'
_cell_length_a   6.75393587
_cell_length_b   6.75393605
_cell_length_c   6.75393570
_cell_angle_alpha   139.18574166
_cell_angle_beta   139.18574209
_cell_angle_gamma   59.09174938
_symmetry_Int_Tables_number   1
_chemical_formula_structural   BaCd2GeAu
_chemical_formula_sum   'Ba1 Cd2 Ge1 Au1'
_cell_volume   130.34858246
_cell_formula_units_Z   1
loop_
 _symmetry_equiv_pos_site_id
 _symmetry_equiv_pos_as_xyz
  1  'x, y, z'
loop_
 _atom_site_type_symbol
 _atom_site_label
 _atom_site_symmetry_multiplicity
 _atom_site_fract_x
 _atom_site_fract_y
 _atom_site_fract_z
 _atom_site_occupancy
  Ba  Ba0  1  0.996877  0.996877  0.000000  1
  Cd  Cd1  1  0.752669  0.252669  0.500000  1
  Cd  Cd2  1  0.252669  0.752669  0.500000  1
  Ge  Ge3  1  0.389310  0.389310  0.000000  1
  Au  Au4  1  0.608475  0.608475  0.000000  1
