# generated using pymatgen
data_YbU(NiB4)2
_symmetry_space_group_name_H-M   'P 1'
_cell_length_a   6.79906784
_cell_length_b   6.79906829
_cell_length_c   6.79906767
_cell_angle_alpha   112.83623471
_cell_angle_beta   112.83623507
_cell_angle_gamma   102.93250223
_symmetry_Int_Tables_number   1
_chemical_formula_structural   YbU(NiB4)2
_chemical_formula_sum   'Yb2 U2 Ni4 B16'
_cell_volume   239.62416883
_cell_formula_units_Z   2
loop_
 _symmetry_equiv_pos_site_id
 _symmetry_equiv_pos_as_xyz
  1  'x, y, z'
loop_
 _atom_site_type_symbol
 _atom_site_label
 _atom_site_symmetry_multiplicity
 _atom_site_fract_x
 _atom_site_fract_y
 _atom_site_fract_z
 _atom_site_occupancy
  Yb  Yb0  1  0.203420  0.203420  0.000000  1
  Yb  Yb1  1  0.796580  0.796580  0.000000  1
  U  U2  1  0.750000  0.250000  0.500000  1
  U  U3  1  0.250000  0.750000  0.500000  1
  Ni  Ni4  1  0.500000  0.273253  0.773253  1
  Ni  Ni5  1  0.500000  0.726747  0.226747  1
  Ni  Ni6  1  0.726747  0.500000  0.226747  1
  Ni  Ni7  1  0.273253  0.500000  0.773253  1
  B  B8  1  0.112017  0.279105  0.391123  1
  B  B9  1  0.887983  0.720895  0.608877  1
  B  B10  1  0.887983  0.279105  0.167088  1
  B  B11  1  0.112017  0.720895  0.832912  1
  B  B12  1  0.720895  0.887983  0.608877  1
  B  B13  1  0.279105  0.112017  0.391123  1
  B  B14  1  0.720895  0.112017  0.832912  1
  B  B15  1  0.279105  0.887983  0.167088  1
  B  B16  1  0.417878  0.417878  0.529842  1
  B  B17  1  0.888036  0.888036  0.470158  1
  B  B18  1  0.582122  0.111964  0.000000  1
  B  B19  1  0.111964  0.582122  0.000000  1
  B  B20  1  0.582122  0.582122  0.470158  1
  B  B21  1  0.111964  0.111964  0.529842  1
  B  B22  1  0.888036  0.417878  0.000000  1
  B  B23  1  0.417878  0.888036  0.000000  1
