# generated using pymatgen
data_Tb17(ThIr4)3
_symmetry_space_group_name_H-M   'P 1'
_cell_length_a   11.10611034
_cell_length_b   10.98909421
_cell_length_c   6.36611697
_cell_angle_alpha   90.00759726
_cell_angle_beta   89.84399159
_cell_angle_gamma   89.87897555
_symmetry_Int_Tables_number   1
_chemical_formula_structural   Tb17(ThIr4)3
_chemical_formula_sum   'Tb17 Th3 Ir12'
_cell_volume   776.95508145
_cell_formula_units_Z   1
loop_
 _symmetry_equiv_pos_site_id
 _symmetry_equiv_pos_as_xyz
  1  'x, y, z'
loop_
 _atom_site_type_symbol
 _atom_site_label
 _atom_site_symmetry_multiplicity
 _atom_site_fract_x
 _atom_site_fract_y
 _atom_site_fract_z
 _atom_site_occupancy
  Tb  Tb0  1  0.706601  0.907403  0.376740  1
  Tb  Tb1  1  0.592815  0.786554  0.880503  1
  Tb  Tb2  1  0.592102  0.210541  0.379377  1
  Tb  Tb3  1  0.415159  0.786747  0.379078  1
  Tb  Tb4  1  0.409942  0.214967  0.878579  1
  Tb  Tb5  1  0.207589  0.412722  0.620784  1
  Tb  Tb6  1  0.207125  0.589040  0.120205  1
  Tb  Tb7  1  0.791547  0.412649  0.119803  1
  Tb  Tb8  1  0.792506  0.588289  0.620156  1
  Tb  Tb9  1  0.910849  0.707937  0.119648  1
  Tb  Tb10  1  0.913310  0.292309  0.616724  1
  Tb  Tb11  1  0.086270  0.706421  0.618059  1
  Tb  Tb12  1  0.086514  0.293840  0.114619  1
  Tb  Tb13  1  0.995096  0.998462  0.499103  1
  Tb  Tb14  1  0.000074  0.000055  0.000391  1
  Tb  Tb15  1  0.499173  0.499453  0.007866  1
  Tb  Tb16  1  0.501923  0.498299  0.507795  1
  Th  Th17  1  0.292973  0.094368  0.378912  1
  Th  Th18  1  0.291691  0.905885  0.878997  1
  Th  Th19  1  0.707152  0.091072  0.881984  1
  Ir  Ir20  1  0.846708  0.155016  0.241117  1
  Ir  Ir21  1  0.842351  0.850190  0.754552  1
  Ir  Ir22  1  0.156511  0.149712  0.744179  1
  Ir  Ir23  1  0.157146  0.849615  0.248397  1
  Ir  Ir24  1  0.655008  0.344187  0.755270  1
  Ir  Ir25  1  0.654321  0.650806  0.253674  1
  Ir  Ir26  1  0.345576  0.345766  0.258179  1
  Ir  Ir27  1  0.346849  0.656000  0.755826  1
  Ir  Ir28  1  0.497179  0.000809  0.116123  1
  Ir  Ir29  1  0.499150  0.999705  0.622749  1
  Ir  Ir30  1  0.999441  0.500351  0.875272  1
  Ir  Ir31  1  0.999349  0.500830  0.375338  1
