# generated using pymatgen
data_Zr18Ti3Tc5O6
_symmetry_space_group_name_H-M   'P 1'
_cell_length_a   8.66757500
_cell_length_b   8.66757505
_cell_length_c   8.58948500
_cell_angle_alpha   90.00000000
_cell_angle_beta   90.00000000
_cell_angle_gamma   120.19003353
_symmetry_Int_Tables_number   1
_chemical_formula_structural   Zr18Ti3Tc5O6
_chemical_formula_sum   'Zr18 Ti3 Tc5 O6'
_cell_volume   557.77385707
_cell_formula_units_Z   1
loop_
 _symmetry_equiv_pos_site_id
 _symmetry_equiv_pos_as_xyz
  1  'x, y, z'
loop_
 _atom_site_type_symbol
 _atom_site_label
 _atom_site_symmetry_multiplicity
 _atom_site_fract_x
 _atom_site_fract_y
 _atom_site_fract_z
 _atom_site_occupancy
  Zr  Zr0  1  0.452926  0.906633  0.250000  1
  Zr  Zr1  1  0.549203  0.094793  0.750000  1
  Zr  Zr2  1  0.093367  0.547074  0.250000  1
  Zr  Zr3  1  0.905207  0.450797  0.750000  1
  Zr  Zr4  1  0.453635  0.546365  0.250000  1
  Zr  Zr5  1  0.546971  0.453029  0.750000  1
  Zr  Zr6  1  0.204472  0.410244  0.562277  1
  Zr  Zr7  1  0.796048  0.593624  0.437132  1
  Zr  Zr8  1  0.589756  0.795528  0.562277  1
  Zr  Zr9  1  0.796048  0.593624  0.062868  1
  Zr  Zr10  1  0.406376  0.203952  0.437132  1
  Zr  Zr11  1  0.204472  0.410244  0.937723  1
  Zr  Zr12  1  0.203058  0.796942  0.562612  1
  Zr  Zr13  1  0.406376  0.203952  0.062868  1
  Zr  Zr14  1  0.795351  0.204649  0.435860  1
  Zr  Zr15  1  0.589756  0.795528  0.937723  1
  Zr  Zr16  1  0.795351  0.204649  0.064140  1
  Zr  Zr17  1  0.203058  0.796942  0.937388  1
  Ti  Ti18  1  0.895246  0.104754  0.750000  1
  Ti  Ti19  1  0.001460  0.998540  0.005704  1
  Ti  Ti20  1  0.001460  0.998540  0.494296  1
  Tc  Tc21  1  0.109301  0.218961  0.250000  1
  Tc  Tc22  1  0.891977  0.780817  0.750000  1
  Tc  Tc23  1  0.781039  0.890699  0.250000  1
  Tc  Tc24  1  0.219183  0.108023  0.750000  1
  Tc  Tc25  1  0.110375  0.889625  0.250000  1
  O  O26  1  0.498244  0.999387  0.000690  1
  O  O27  1  0.000613  0.501756  0.000690  1
  O  O28  1  0.498244  0.999387  0.499310  1
  O  O29  1  0.500406  0.499594  0.999907  1
  O  O30  1  0.000613  0.501756  0.499310  1
  O  O31  1  0.500406  0.499594  0.500093  1
