# generated using pymatgen
data_Ho6Al7Au16
_symmetry_space_group_name_H-M   'P 1'
_cell_length_a   9.26474500
_cell_length_b   9.26474620
_cell_length_c   9.26474500
_cell_angle_alpha   119.99999930
_cell_angle_beta   90.00000000
_cell_angle_gamma   119.99999930
_symmetry_Int_Tables_number   1
_chemical_formula_structural   Ho6Al7Au16
_chemical_formula_sum   'Ho6 Al7 Au16'
_cell_volume   562.32252280
_cell_formula_units_Z   1
loop_
 _symmetry_equiv_pos_site_id
 _symmetry_equiv_pos_as_xyz
  1  'x, y, z'
loop_
 _atom_site_type_symbol
 _atom_site_label
 _atom_site_symmetry_multiplicity
 _atom_site_fract_x
 _atom_site_fract_y
 _atom_site_fract_z
 _atom_site_occupancy
  Ho  Ho0  1  0.286944  0.000000  0.286944  1
  Ho  Ho1  1  0.286944  0.573888  0.286944  1
  Ho  Ho2  1  0.713057  0.000000  0.286944  1
  Ho  Ho3  1  0.713056  0.000000  0.713056  1
  Ho  Ho4  1  0.286944  0.000000  0.713057  1
  Ho  Ho5  1  0.713057  0.426111  0.713057  1
  Al  Al6  1  0.000000  0.000000  0.000000  1
  Al  Al7  1  0.500000  0.000000  0.000000  1
  Al  Al8  1  0.000000  0.500000  0.000000  1
  Al  Al9  1  0.500000  0.500000  0.000000  1
  Al  Al10  1  0.000000  0.000000  0.500000  1
  Al  Al11  1  0.000000  0.500000  0.500000  1
  Al  Al12  1  0.500000  0.500000  0.500000  1
  Au  Au13  1  0.659214  0.318427  0.977640  1
  Au  Au14  1  0.882405  0.764810  0.117596  1
  Au  Au15  1  0.352787  0.235191  0.117596  1
  Au  Au16  1  0.882405  0.235191  0.117596  1
  Au  Au17  1  0.659214  0.318427  0.340787  1
  Au  Au18  1  0.659214  0.681574  0.340787  1
  Au  Au19  1  0.022361  0.681574  0.340787  1
  Au  Au20  1  0.117596  0.235191  0.352787  1
  Au  Au21  1  0.882405  0.764810  0.647214  1
  Au  Au22  1  0.977640  0.318427  0.659214  1
  Au  Au23  1  0.340787  0.318427  0.659214  1
  Au  Au24  1  0.340787  0.681574  0.659214  1
  Au  Au25  1  0.117596  0.235191  0.882405  1
  Au  Au26  1  0.117596  0.764810  0.882405  1
  Au  Au27  1  0.647214  0.764810  0.882405  1
  Au  Au28  1  0.340787  0.681574  0.022361  1
