# generated using pymatgen
data_NdY9(In2Pd)4
_symmetry_space_group_name_H-M   'P 1'
_cell_length_a   3.65115200
_cell_length_b   8.17610908
_cell_length_c   18.42211621
_cell_angle_alpha   90.01694090
_cell_angle_beta   90.00000000
_cell_angle_gamma   90.00000000
_symmetry_Int_Tables_number   1
_chemical_formula_structural   NdY9(In2Pd)4
_chemical_formula_sum   'Nd1 Y9 In8 Pd4'
_cell_volume   549.94098741
_cell_formula_units_Z   1
loop_
 _symmetry_equiv_pos_site_id
 _symmetry_equiv_pos_as_xyz
  1  'x, y, z'
loop_
 _atom_site_type_symbol
 _atom_site_label
 _atom_site_symmetry_multiplicity
 _atom_site_fract_x
 _atom_site_fract_y
 _atom_site_fract_z
 _atom_site_occupancy
  Nd  Nd0  1  0.500000  0.000000  0.000000  1
  Y  Y1  1  0.500000  0.240715  0.780885  1
  Y  Y2  1  0.500000  0.759285  0.219115  1
  Y  Y3  1  0.500000  0.259566  0.281402  1
  Y  Y4  1  0.500000  0.740434  0.718598  1
  Y  Y5  1  0.500000  0.118831  0.582897  1
  Y  Y6  1  0.500000  0.881169  0.417103  1
  Y  Y7  1  0.500000  0.378966  0.082978  1
  Y  Y8  1  0.500000  0.621034  0.917022  1
  Y  Y9  1  0.500000  0.500000  0.500000  1
  In  In10  1  0.000000  0.080735  0.152858  1
  In  In11  1  0.000000  0.919265  0.847142  1
  In  In12  1  0.000000  0.420117  0.650826  1
  In  In13  1  0.000000  0.579883  0.349174  1
  In  In14  1  0.000000  0.207616  0.432009  1
  In  In15  1  0.000000  0.792384  0.567991  1
  In  In16  1  0.000000  0.297124  0.930827  1
  In  In17  1  0.000000  0.702876  0.069173  1
  Pd  Pd18  1  0.000000  0.025110  0.695310  1
  Pd  Pd19  1  0.000000  0.974890  0.304690  1
  Pd  Pd20  1  0.000000  0.474743  0.196133  1
  Pd  Pd21  1  0.000000  0.525257  0.803867  1
