# generated using pymatgen
data_Nb14Ni8W2C3N
_symmetry_space_group_name_H-M   'P 1'
_cell_length_a   8.23281672
_cell_length_b   8.28170172
_cell_length_c   8.24987354
_cell_angle_alpha   59.87230346
_cell_angle_beta   59.65406594
_cell_angle_gamma   59.80338446
_symmetry_Int_Tables_number   1
_chemical_formula_structural   Nb14Ni8W2C3N
_chemical_formula_sum   'Nb14 Ni8 W2 C3 N1'
_cell_volume   395.72042433
_cell_formula_units_Z   1
loop_
 _symmetry_equiv_pos_site_id
 _symmetry_equiv_pos_as_xyz
  1  'x, y, z'
loop_
 _atom_site_type_symbol
 _atom_site_label
 _atom_site_symmetry_multiplicity
 _atom_site_fract_x
 _atom_site_fract_y
 _atom_site_fract_z
 _atom_site_occupancy
  Nb  Nb0  1  0.434706  0.066931  0.064387  1
  Nb  Nb1  1  0.061030  0.436462  0.436567  1
  Nb  Nb2  1  0.065451  0.433692  0.067166  1
  Nb  Nb3  1  0.061030  0.065942  0.436567  1
  Nb  Nb4  1  0.436837  0.063533  0.436097  1
  Nb  Nb5  1  0.434706  0.433976  0.064387  1
  Nb  Nb6  1  0.184549  0.816308  0.182834  1
  Nb  Nb7  1  0.813163  0.186467  0.813903  1
  Nb  Nb8  1  0.815294  0.183069  0.185613  1
  Nb  Nb9  1  0.188970  0.184058  0.813433  1
  Nb  Nb10  1  0.188970  0.813538  0.813433  1
  Nb  Nb11  1  0.815294  0.816024  0.185613  1
  Nb  Nb12  1  0.625000  0.625000  0.125000  1
  Nb  Nb13  1  0.125000  0.625000  0.625000  1
  Ni  Ni14  1  0.827246  0.834142  0.828039  1
  Ni  Ni15  1  0.824742  0.830984  0.513289  1
  Ni  Ni16  1  0.515725  0.830029  0.824218  1
  Ni  Ni17  1  0.827246  0.510572  0.828039  1
  Ni  Ni18  1  0.422754  0.415858  0.421961  1
  Ni  Ni19  1  0.425258  0.419016  0.736711  1
  Ni  Ni20  1  0.422754  0.739428  0.421961  1
  Ni  Ni21  1  0.734275  0.419971  0.425782  1
  W  W22  1  0.625000  0.625000  0.625000  1
  W  W23  1  0.625000  0.125000  0.625000  1
  C  C24  1  0.125000  0.625000  0.125000  1
  C  C25  1  0.125000  0.125000  0.625000  1
  C  C26  1  0.125000  0.125000  0.125000  1
  N  N27  1  0.625000  0.125000  0.125000  1
