# generated using pymatgen
data_SrPr3Ir2(RhO7)2
_symmetry_space_group_name_H-M   'P 1'
_cell_length_a   7.45627174
_cell_length_b   7.41179749
_cell_length_c   7.45627252
_cell_angle_alpha   59.88346600
_cell_angle_beta   59.90740551
_cell_angle_gamma   59.88346515
_symmetry_Int_Tables_number   1
_chemical_formula_structural   SrPr3Ir2(RhO7)2
_chemical_formula_sum   'Sr1 Pr3 Ir2 Rh2 O14'
_cell_volume   290.65718490
_cell_formula_units_Z   1
loop_
 _symmetry_equiv_pos_site_id
 _symmetry_equiv_pos_as_xyz
  1  'x, y, z'
loop_
 _atom_site_type_symbol
 _atom_site_label
 _atom_site_symmetry_multiplicity
 _atom_site_fract_x
 _atom_site_fract_y
 _atom_site_fract_z
 _atom_site_occupancy
  Sr  Sr0  1  0.125000  0.625000  0.125000  1
  Pr  Pr1  1  0.125000  0.125000  0.625000  1
  Pr  Pr2  1  0.125000  0.125000  0.125000  1
  Pr  Pr3  1  0.625000  0.125000  0.125000  1
  Ir  Ir4  1  0.125000  0.625000  0.625000  1
  Ir  Ir5  1  0.625000  0.625000  0.125000  1
  Rh  Rh6  1  0.625000  0.625000  0.625000  1
  Rh  Rh7  1  0.625000  0.125000  0.625000  1
  O  O8  1  0.954335  0.546677  0.552748  1
  O  O9  1  0.293861  0.298211  0.707259  1
  O  O10  1  0.947674  0.545885  0.947674  1
  O  O11  1  0.707259  0.298211  0.293861  1
  O  O12  1  0.552748  0.546677  0.954335  1
  O  O13  1  0.542295  0.958443  0.542295  1
  O  O14  1  0.542741  0.951789  0.956139  1
  O  O15  1  0.252394  0.241660  0.252394  1
  O  O16  1  0.295665  0.703323  0.697252  1
  O  O17  1  0.707705  0.291557  0.707705  1
  O  O18  1  0.997606  0.008340  0.997606  1
  O  O19  1  0.956139  0.951789  0.542741  1
  O  O20  1  0.302326  0.704115  0.302326  1
  O  O21  1  0.697252  0.703323  0.295665  1
