# generated using pymatgen
data_PrSc3Cr6O24
_symmetry_space_group_name_H-M   'P 1'
_cell_length_a   9.54501115
_cell_length_b   9.54525902
_cell_length_c   9.54462700
_cell_angle_alpha   58.12218964
_cell_angle_beta   58.11867705
_cell_angle_gamma   58.11237811
_symmetry_Int_Tables_number   1
_chemical_formula_structural   PrSc3Cr6O24
_chemical_formula_sum   'Pr1 Sc3 Cr6 O24'
_cell_volume   588.37247331
_cell_formula_units_Z   1
loop_
 _symmetry_equiv_pos_site_id
 _symmetry_equiv_pos_as_xyz
  1  'x, y, z'
loop_
 _atom_site_type_symbol
 _atom_site_label
 _atom_site_symmetry_multiplicity
 _atom_site_fract_x
 _atom_site_fract_y
 _atom_site_fract_z
 _atom_site_occupancy
  Pr  Pr0  1  0.866806  0.866645  0.866732  1
  Sc  Sc1  1  0.640827  0.640858  0.640873  1
  Sc  Sc2  1  0.362575  0.362545  0.362500  1
  Sc  Sc3  1  0.140428  0.140496  0.140424  1
  Cr  Cr4  1  0.755540  0.036369  0.450468  1
  Cr  Cr5  1  0.959519  0.515333  0.278542  1
  Cr  Cr6  1  0.515202  0.278670  0.959424  1
  Cr  Cr7  1  0.450478  0.755405  0.036633  1
  Cr  Cr8  1  0.036491  0.450343  0.755465  1
  Cr  Cr9  1  0.278545  0.959587  0.515240  1
  O  O10  1  0.948775  0.023078  0.289883  1
  O  O11  1  0.768848  0.022038  0.623616  1
  O  O12  1  0.001288  0.365352  0.209341  1
  O  O13  1  0.710988  0.121035  0.938108  1
  O  O14  1  0.608730  0.231435  0.384252  1
  O  O15  1  0.872707  0.502183  0.699436  1
  O  O16  1  0.465529  0.339306  0.117533  1
  O  O17  1  0.774603  0.526233  0.449184  1
  O  O18  1  0.938307  0.711150  0.120952  1
  O  O19  1  0.525946  0.449396  0.774610  1
  O  O20  1  0.365140  0.209537  0.001261  1
  O  O21  1  0.339299  0.117684  0.465307  1
  O  O22  1  0.699572  0.872598  0.502217  1
  O  O23  1  0.623524  0.768804  0.022397  1
  O  O24  1  0.384168  0.608713  0.231630  1
  O  O25  1  0.023099  0.289711  0.948732  1
  O  O26  1  0.231561  0.384027  0.608762  1
  O  O27  1  0.502432  0.699377  0.872750  1
  O  O28  1  0.117574  0.465546  0.339286  1
  O  O29  1  0.449181  0.774666  0.526216  1
  O  O30  1  0.289889  0.948674  0.023186  1
  O  O31  1  0.022179  0.623365  0.768955  1
  O  O32  1  0.209446  0.001259  0.365143  1
  O  O33  1  0.120805  0.938582  0.710942  1
