# generated using pymatgen
data_Ce3Co(P3Ru4)2
_symmetry_space_group_name_H-M   'P 1'
_cell_length_a   3.92015400
_cell_length_b   11.19176100
_cell_length_c   12.70851000
_cell_angle_alpha   90.00000000
_cell_angle_beta   90.00000000
_cell_angle_gamma   90.00000000
_symmetry_Int_Tables_number   1
_chemical_formula_structural   Ce3Co(P3Ru4)2
_chemical_formula_sum   'Ce6 Co2 P12 Ru16'
_cell_volume   557.56588133
_cell_formula_units_Z   2
loop_
 _symmetry_equiv_pos_site_id
 _symmetry_equiv_pos_as_xyz
  1  'x, y, z'
loop_
 _atom_site_type_symbol
 _atom_site_label
 _atom_site_symmetry_multiplicity
 _atom_site_fract_x
 _atom_site_fract_y
 _atom_site_fract_z
 _atom_site_occupancy
  Ce  Ce0  1  0.000000  0.500000  0.527505  1
  Ce  Ce1  1  0.500000  0.000000  0.472495  1
  Ce  Ce2  1  0.500000  0.818353  0.204274  1
  Ce  Ce3  1  0.500000  0.181647  0.204274  1
  Ce  Ce4  1  0.000000  0.681647  0.795726  1
  Ce  Ce5  1  0.000000  0.318353  0.795726  1
  Co  Co6  1  0.000000  0.500000  0.987139  1
  Co  Co7  1  0.500000  0.000000  0.012861  1
  P  P8  1  0.500000  0.500000  0.884148  1
  P  P9  1  0.000000  0.000000  0.115852  1
  P  P10  1  0.500000  0.500000  0.337309  1
  P  P11  1  0.000000  0.000000  0.662691  1
  P  P12  1  0.500000  0.300453  0.616074  1
  P  P13  1  0.500000  0.699547  0.616074  1
  P  P14  1  0.000000  0.199547  0.383926  1
  P  P15  1  0.000000  0.800453  0.383926  1
  P  P16  1  0.500000  0.849707  0.899577  1
  P  P17  1  0.500000  0.150293  0.899577  1
  P  P18  1  0.000000  0.650293  0.100423  1
  P  P19  1  0.000000  0.349707  0.100423  1
  Ru  Ru20  1  0.500000  0.500000  0.152802  1
  Ru  Ru21  1  0.000000  0.000000  0.847198  1
  Ru  Ru22  1  0.500000  0.500000  0.694120  1
  Ru  Ru23  1  0.000000  0.000000  0.305880  1
  Ru  Ru24  1  0.500000  0.335104  0.989975  1
  Ru  Ru25  1  0.500000  0.664896  0.989975  1
  Ru  Ru26  1  0.000000  0.164896  0.010025  1
  Ru  Ru27  1  0.000000  0.835104  0.010025  1
  Ru  Ru28  1  0.500000  0.302472  0.429672  1
  Ru  Ru29  1  0.500000  0.697528  0.429672  1
  Ru  Ru30  1  0.000000  0.197528  0.570328  1
  Ru  Ru31  1  0.000000  0.802472  0.570328  1
  Ru  Ru32  1  0.500000  0.878870  0.717249  1
  Ru  Ru33  1  0.500000  0.121130  0.717249  1
  Ru  Ru34  1  0.000000  0.621130  0.282751  1
  Ru  Ru35  1  0.000000  0.378870  0.282751  1
