# generated using pymatgen
data_Y2Nb3Si7Ni9
_symmetry_space_group_name_H-M   'P 1'
_cell_length_a   3.79451100
_cell_length_b   9.49651951
_cell_length_c   9.49652000
_cell_angle_alpha   120.00000171
_cell_angle_beta   90.00000000
_cell_angle_gamma   90.00000000
_symmetry_Int_Tables_number   1
_chemical_formula_structural   Y2Nb3Si7Ni9
_chemical_formula_sum   'Y2 Nb3 Si7 Ni9'
_cell_volume   296.35713819
_cell_formula_units_Z   1
loop_
 _symmetry_equiv_pos_site_id
 _symmetry_equiv_pos_as_xyz
  1  'x, y, z'
loop_
 _atom_site_type_symbol
 _atom_site_label
 _atom_site_symmetry_multiplicity
 _atom_site_fract_x
 _atom_site_fract_y
 _atom_site_fract_z
 _atom_site_occupancy
  Y  Y0  1  0.000000  0.666667  0.333333  1
  Y  Y1  1  0.500000  0.333333  0.666667  1
  Nb  Nb2  1  0.500000  0.778596  0.895947  1
  Nb  Nb3  1  0.500000  0.117351  0.221404  1
  Nb  Nb4  1  0.500000  0.104053  0.882649  1
  Si  Si5  1  0.000000  0.000000  0.000000  1
  Si  Si6  1  0.500000  0.708869  0.121710  1
  Si  Si7  1  0.500000  0.412841  0.291131  1
  Si  Si8  1  0.500000  0.878290  0.587159  1
  Si  Si9  1  0.000000  0.584653  0.691661  1
  Si  Si10  1  0.000000  0.107009  0.415347  1
  Si  Si11  1  0.000000  0.308339  0.892991  1
  Ni  Ni12  1  0.000000  0.572291  0.940907  1
  Ni  Ni13  1  0.000000  0.368616  0.427709  1
  Ni  Ni14  1  0.000000  0.059093  0.631384  1
  Ni  Ni15  1  0.000000  0.872927  0.159066  1
  Ni  Ni16  1  0.000000  0.286139  0.127073  1
  Ni  Ni17  1  0.000000  0.840934  0.713861  1
  Ni  Ni18  1  0.500000  0.948116  0.386005  1
  Ni  Ni19  1  0.500000  0.437888  0.051884  1
  Ni  Ni20  1  0.500000  0.613995  0.562112  1
