# generated using pymatgen
data_Tm10Cd2HgRu
_symmetry_space_group_name_H-M   'P 1'
_cell_length_a   9.44893541
_cell_length_b   9.45787387
_cell_length_c   9.67178300
_cell_angle_alpha   90.00000000
_cell_angle_beta   90.00000000
_cell_angle_gamma   120.03129536
_symmetry_Int_Tables_number   1
_chemical_formula_structural   Tm10Cd2HgRu
_chemical_formula_sum   'Tm20 Cd4 Hg2 Ru2'
_cell_volume   748.30135485
_cell_formula_units_Z   2
loop_
 _symmetry_equiv_pos_site_id
 _symmetry_equiv_pos_as_xyz
  1  'x, y, z'
loop_
 _atom_site_type_symbol
 _atom_site_label
 _atom_site_symmetry_multiplicity
 _atom_site_fract_x
 _atom_site_fract_y
 _atom_site_fract_z
 _atom_site_occupancy
  Tm  Tm0  1  0.996837  0.998418  0.494878  1
  Tm  Tm1  1  0.996837  0.998418  0.005122  1
  Tm  Tm2  1  0.210127  0.790597  0.440679  1
  Tm  Tm3  1  0.210127  0.419530  0.440679  1
  Tm  Tm4  1  0.580166  0.790083  0.440822  1
  Tm  Tm5  1  0.790204  0.210108  0.558796  1
  Tm  Tm6  1  0.790204  0.580095  0.558796  1
  Tm  Tm7  1  0.419766  0.209883  0.558083  1
  Tm  Tm8  1  0.790204  0.210108  0.941204  1
  Tm  Tm9  1  0.790204  0.580095  0.941204  1
  Tm  Tm10  1  0.419766  0.209883  0.941917  1
  Tm  Tm11  1  0.210127  0.790597  0.059321  1
  Tm  Tm12  1  0.210127  0.419530  0.059321  1
  Tm  Tm13  1  0.580166  0.790083  0.059178  1
  Tm  Tm14  1  0.542499  0.461645  0.250000  1
  Tm  Tm15  1  0.542499  0.080853  0.250000  1
  Tm  Tm16  1  0.919203  0.459601  0.250000  1
  Tm  Tm17  1  0.460058  0.540689  0.750000  1
  Tm  Tm18  1  0.460058  0.919370  0.750000  1
  Tm  Tm19  1  0.080642  0.540321  0.750000  1
  Cd  Cd20  1  0.233694  0.116848  0.250000  1
  Cd  Cd21  1  0.113291  0.885375  0.750000  1
  Cd  Cd22  1  0.113291  0.227914  0.750000  1
  Cd  Cd23  1  0.771921  0.885960  0.750000  1
  Hg  Hg24  1  0.883604  0.121176  0.250000  1
  Hg  Hg25  1  0.883604  0.762429  0.250000  1
  Ru  Ru26  1  0.334003  0.667002  0.250000  1
  Ru  Ru27  1  0.666774  0.333386  0.750000  1
