# generated using pymatgen
data_Pu2USe5
_symmetry_space_group_name_H-M   'P 1'
_cell_length_a   7.86903400
_cell_length_b   8.43234300
_cell_length_c   12.42581900
_cell_angle_alpha   90.00000000
_cell_angle_beta   90.00000000
_cell_angle_gamma   90.00000000
_symmetry_Int_Tables_number   1
_chemical_formula_structural   Pu2USe5
_chemical_formula_sum   'Pu8 U4 Se20'
_cell_volume   824.50768680
_cell_formula_units_Z   4
loop_
 _symmetry_equiv_pos_site_id
 _symmetry_equiv_pos_as_xyz
  1  'x, y, z'
loop_
 _atom_site_type_symbol
 _atom_site_label
 _atom_site_symmetry_multiplicity
 _atom_site_fract_x
 _atom_site_fract_y
 _atom_site_fract_z
 _atom_site_occupancy
  Pu  Pu0  1  0.523723  0.500685  0.321697  1
  Pu  Pu1  1  0.976277  0.999315  0.821697  1
  Pu  Pu2  1  0.476277  0.000685  0.678303  1
  Pu  Pu3  1  0.023723  0.499315  0.178303  1
  Pu  Pu4  1  0.476277  0.499315  0.678303  1
  Pu  Pu5  1  0.023723  0.000685  0.178303  1
  Pu  Pu6  1  0.523723  0.999315  0.321697  1
  Pu  Pu7  1  0.976277  0.500685  0.821697  1
  U  U8  1  0.073975  0.750000  0.493541  1
  U  U9  1  0.426025  0.750000  0.993541  1
  U  U10  1  0.926025  0.250000  0.506459  1
  U  U11  1  0.573975  0.250000  0.006459  1
  Se  Se12  1  0.833807  0.956707  0.595188  1
  Se  Se13  1  0.666193  0.543293  0.095188  1
  Se  Se14  1  0.166193  0.456707  0.404812  1
  Se  Se15  1  0.333807  0.043293  0.904812  1
  Se  Se16  1  0.166193  0.043293  0.404812  1
  Se  Se17  1  0.333807  0.456707  0.904812  1
  Se  Se18  1  0.833807  0.543293  0.595188  1
  Se  Se19  1  0.666193  0.956707  0.095188  1
  Se  Se20  1  0.837985  0.750000  0.313224  1
  Se  Se21  1  0.662015  0.750000  0.813224  1
  Se  Se22  1  0.162015  0.250000  0.686776  1
  Se  Se23  1  0.337985  0.250000  0.186776  1
  Se  Se24  1  0.455434  0.750000  0.499616  1
  Se  Se25  1  0.044566  0.750000  0.999616  1
  Se  Se26  1  0.544566  0.250000  0.500384  1
  Se  Se27  1  0.955434  0.250000  0.000384  1
  Se  Se28  1  0.193847  0.750000  0.714400  1
  Se  Se29  1  0.306153  0.750000  0.214400  1
  Se  Se30  1  0.806153  0.250000  0.285600  1
  Se  Se31  1  0.693847  0.250000  0.785600  1
