# generated using pymatgen
data_Hf3Ta2NbAl16Ir7
_symmetry_space_group_name_H-M   'P 1'
_cell_length_a   8.62308249
_cell_length_b   8.64900479
_cell_length_c   8.67246504
_cell_angle_alpha   59.71202474
_cell_angle_beta   60.00848742
_cell_angle_gamma   60.27633930
_symmetry_Int_Tables_number   1
_chemical_formula_structural   Hf3Ta2NbAl16Ir7
_chemical_formula_sum   'Hf3 Ta2 Nb1 Al16 Ir7'
_cell_volume   457.32487669
_cell_formula_units_Z   1
loop_
 _symmetry_equiv_pos_site_id
 _symmetry_equiv_pos_as_xyz
  1  'x, y, z'
loop_
 _atom_site_type_symbol
 _atom_site_label
 _atom_site_symmetry_multiplicity
 _atom_site_fract_x
 _atom_site_fract_y
 _atom_site_fract_z
 _atom_site_occupancy
  Hf  Hf0  1  0.683594  0.316401  0.684745  1
  Hf  Hf1  1  0.316337  0.317759  0.683221  1
  Hf  Hf2  1  0.682243  0.683660  0.317320  1
  Ta  Ta3  1  0.322794  0.677195  0.675047  1
  Ta  Ta4  1  0.327680  0.672324  0.329041  1
  Nb  Nb5  1  0.677676  0.322326  0.320302  1
  Al  Al6  1  0.338252  0.339151  0.336498  1
  Al  Al7  1  0.659540  0.663326  0.662296  1
  Al  Al8  1  0.336668  0.340458  0.985187  1
  Al  Al9  1  0.336592  0.986260  0.337923  1
  Al  Al10  1  0.660877  0.661726  0.013864  1
  Al  Al11  1  0.662384  0.014765  0.659312  1
  Al  Al12  1  0.985267  0.337564  0.336482  1
  Al  Al13  1  0.013740  0.663399  0.660810  1
  Al  Al14  1  0.118532  0.118385  0.121026  1
  Al  Al15  1  0.882090  0.878647  0.878883  1
  Al  Al16  1  0.121366  0.117892  0.639599  1
  Al  Al17  1  0.120950  0.642040  0.118608  1
  Al  Al18  1  0.881645  0.881480  0.357954  1
  Al  Al19  1  0.878840  0.360396  0.882179  1
  Al  Al20  1  0.639594  0.121164  0.121392  1
  Al  Al21  1  0.357968  0.879053  0.881627  1
  Ir  Ir22  1  0.499035  0.998870  0.001089  1
  Ir  Ir23  1  0.001130  0.500970  0.499004  1
  Ir  Ir24  1  0.999129  0.501880  0.998317  1
  Ir  Ir25  1  0.498117  0.000877  0.499324  1
  Ir  Ir26  1  0.001753  0.998248  0.499265  1
  Ir  Ir27  1  0.498153  0.501837  0.001227  1
  Ir  Ir28  1  0.998052  0.001953  0.998453  1
