# generated using pymatgen
data_Nb23B50
_symmetry_space_group_name_H-M   'P 1'
_cell_length_a   6.26962432
_cell_length_b   10.40505327
_cell_length_c   10.63620500
_cell_angle_alpha   95.93865924
_cell_angle_beta   95.40237957
_cell_angle_gamma   96.37013102
_symmetry_Int_Tables_number   1
_chemical_formula_structural   Nb23B50
_chemical_formula_sum   'Nb23 B50'
_cell_volume   681.94912365
_cell_formula_units_Z   1
loop_
 _symmetry_equiv_pos_site_id
 _symmetry_equiv_pos_as_xyz
  1  'x, y, z'
loop_
 _atom_site_type_symbol
 _atom_site_label
 _atom_site_symmetry_multiplicity
 _atom_site_fract_x
 _atom_site_fract_y
 _atom_site_fract_z
 _atom_site_occupancy
  Nb  Nb0  1  0.840187  0.521828  0.600841  1
  Nb  Nb1  1  0.762729  0.281040  0.399571  1
  Nb  Nb2  1  0.441658  0.321125  0.598525  1
  Nb  Nb3  1  0.682075  0.040815  0.199466  1
  Nb  Nb4  1  0.359503  0.079919  0.400279  1
  Nb  Nb5  1  0.601652  0.800798  0.998525  1
  Nb  Nb6  1  0.040682  0.120081  0.600919  1
  Nb  Nb7  1  0.284002  0.841230  0.198538  1
  Nb  Nb8  1  0.522997  0.560629  0.800712  1
  Nb  Nb9  1  0.959318  0.879919  0.399081  1
  Nb  Nb10  1  0.199405  0.600462  0.999573  1
  Nb  Nb11  1  0.878259  0.638668  0.200749  1
  Nb  Nb12  1  0.640497  0.920081  0.599721  1
  Nb  Nb13  1  0.121741  0.361332  0.799251  1
  Nb  Nb14  1  0.800595  0.399538  0.000427  1
  Nb  Nb15  1  0.558342  0.678875  0.401475  1
  Nb  Nb16  1  0.715998  0.158770  0.801462  1
  Nb  Nb17  1  0.477003  0.439371  0.199288  1
  Nb  Nb18  1  0.237271  0.718960  0.600429  1
  Nb  Nb19  1  0.398348  0.199202  0.001475  1
  Nb  Nb20  1  0.159813  0.478172  0.399159  1
  Nb  Nb21  1  0.317925  0.959185  0.800534  1
  Nb  Nb22  1  0.000000  0.000000  0.000000  1
  B  B23  1  0.220080  0.494221  0.634484  1
  B  B24  1  0.133830  0.591607  0.766423  1
  B  B25  1  0.373374  0.306035  0.361980  1
  B  B26  1  0.061659  0.346210  0.566160  1
  B  B27  1  0.138437  0.253914  0.428151  1
  B  B28  1  0.293588  0.071406  0.165710  1
  B  B29  1  0.378169  0.973905  0.033129  1
  B  B30  1  0.822025  0.293215  0.634540  1
  B  B31  1  0.740841  0.387406  0.766980  1
  B  B32  1  0.980988  0.109849  0.362246  1
  B  B33  1  0.059558  0.018836  0.231315  1
  B  B34  1  0.213574  0.826602  0.962450  1
  B  B35  1  0.293816  0.735035  0.831531  1
  B  B36  1  0.742240  0.053924  0.432712  1
  B  B37  1  0.660540  0.146728  0.566911  1
  B  B38  1  0.902369  0.867030  0.166106  1
  B  B39  1  0.978951  0.774106  0.028831  1
  B  B40  1  0.419821  0.093463  0.633730  1
  B  B41  1  0.337759  0.186764  0.766786  1
  B  B42  1  0.662241  0.813236  0.233214  1
  B  B43  1  0.580179  0.906537  0.366270  1
  B  B44  1  0.820764  0.629999  0.962923  1
  B  B45  1  0.899741  0.539124  0.831856  1
  B  B46  1  0.339460  0.853272  0.433089  1
  B  B47  1  0.257760  0.946076  0.567288  1
  B  B48  1  0.581299  0.573703  0.032833  1
  B  B49  1  0.499541  0.666550  0.166368  1
  B  B50  1  0.940442  0.981164  0.768685  1
  B  B51  1  0.259159  0.612594  0.233020  1
  B  B52  1  0.177975  0.706785  0.365460  1
  B  B53  1  0.019012  0.890151  0.637754  1
  B  B54  1  0.500459  0.333450  0.833632  1
  B  B55  1  0.418701  0.426297  0.967167  1
  B  B56  1  0.179236  0.370001  0.037077  1
  B  B57  1  0.100259  0.460876  0.168144  1
  B  B58  1  0.861563  0.746086  0.571849  1
  B  B59  1  0.938341  0.653790  0.433840  1
  B  B60  1  0.021049  0.225894  0.971169  1
  B  B61  1  0.626626  0.693965  0.638020  1
  B  B62  1  0.546391  0.785167  0.768721  1
  B  B63  1  0.097631  0.132970  0.833894  1
  B  B64  1  0.779920  0.505779  0.365516  1
  B  B65  1  0.866170  0.408393  0.233577  1
  B  B66  1  0.538727  0.452614  0.432473  1
  B  B67  1  0.461273  0.547386  0.567527  1
  B  B68  1  0.786426  0.173398  0.037550  1
  B  B69  1  0.706184  0.264965  0.168469  1
  B  B70  1  0.621831  0.026095  0.966871  1
  B  B71  1  0.453609  0.214833  0.231279  1
  B  B72  1  0.706412  0.928594  0.834290  1
