# generated using pymatgen
data_Li4ErTm3Pt4
_symmetry_space_group_name_H-M   'P 1'
_cell_length_a   3.98083100
_cell_length_b   6.96280472
_cell_length_c   8.38331951
_cell_angle_alpha   89.94861069
_cell_angle_beta   90.00000000
_cell_angle_gamma   90.00000000
_symmetry_Int_Tables_number   1
_chemical_formula_structural   Li4ErTm3Pt4
_chemical_formula_sum   'Li4 Er1 Tm3 Pt4'
_cell_volume   232.36665131
_cell_formula_units_Z   1
loop_
 _symmetry_equiv_pos_site_id
 _symmetry_equiv_pos_as_xyz
  1  'x, y, z'
loop_
 _atom_site_type_symbol
 _atom_site_label
 _atom_site_symmetry_multiplicity
 _atom_site_fract_x
 _atom_site_fract_y
 _atom_site_fract_z
 _atom_site_occupancy
  Li  Li0  1  0.250000  0.623889  0.557991  1
  Li  Li1  1  0.250000  0.123779  0.941682  1
  Li  Li2  1  0.750000  0.375988  0.441866  1
  Li  Li3  1  0.750000  0.876846  0.058535  1
  Er  Er4  1  0.750000  0.451325  0.822939  1
  Tm  Tm5  1  0.250000  0.048697  0.322854  1
  Tm  Tm6  1  0.250000  0.549013  0.177450  1
  Tm  Tm7  1  0.750000  0.950604  0.676574  1
  Pt  Pt8  1  0.250000  0.242434  0.626205  1
  Pt  Pt9  1  0.250000  0.744379  0.873387  1
  Pt  Pt10  1  0.750000  0.756278  0.372660  1
  Pt  Pt11  1  0.750000  0.256771  0.127858  1
