# generated using pymatgen
data_NdHoTm2(NiP)4
_symmetry_space_group_name_H-M   'P 1'
_cell_length_a   3.89393700
_cell_length_b   3.89393594
_cell_length_c   15.50419600
_cell_angle_alpha   90.00000000
_cell_angle_beta   90.00000000
_cell_angle_gamma   119.99998355
_symmetry_Int_Tables_number   1
_chemical_formula_structural   NdHoTm2(NiP)4
_chemical_formula_sum   'Nd1 Ho1 Tm2 Ni4 P4'
_cell_volume   203.59057856
_cell_formula_units_Z   1
loop_
 _symmetry_equiv_pos_site_id
 _symmetry_equiv_pos_as_xyz
  1  'x, y, z'
loop_
 _atom_site_type_symbol
 _atom_site_label
 _atom_site_symmetry_multiplicity
 _atom_site_fract_x
 _atom_site_fract_y
 _atom_site_fract_z
 _atom_site_occupancy
  Nd  Nd0  1  0.000000  0.000000  0.000000  1
  Ho  Ho1  1  0.000000  0.000000  0.500000  1
  Tm  Tm2  1  0.000000  0.000000  0.254606  1
  Tm  Tm3  1  0.000000  0.000000  0.745394  1
  Ni  Ni4  1  0.333333  0.666667  0.372375  1
  Ni  Ni5  1  0.666667  0.333333  0.627625  1
  Ni  Ni6  1  0.666667  0.333333  0.862312  1
  Ni  Ni7  1  0.333333  0.666667  0.137688  1
  P  P8  1  0.333333  0.666667  0.869028  1
  P  P9  1  0.666667  0.333333  0.130972  1
  P  P10  1  0.666667  0.333333  0.379527  1
  P  P11  1  0.333333  0.666667  0.620473  1
