# generated using pymatgen
data_TbLu2Cu4Si3Ge
_symmetry_space_group_name_H-M   'P 1'
_cell_length_a   4.10642111
_cell_length_b   6.55405940
_cell_length_c   7.78627302
_cell_angle_alpha   114.88970251
_cell_angle_beta   105.28949973
_cell_angle_gamma   90.00000527
_symmetry_Int_Tables_number   1
_chemical_formula_structural   TbLu2Cu4Si3Ge
_chemical_formula_sum   'Tb1 Lu2 Cu4 Si3 Ge1'
_cell_volume   181.88472051
_cell_formula_units_Z   1
loop_
 _symmetry_equiv_pos_site_id
 _symmetry_equiv_pos_as_xyz
  1  'x, y, z'
loop_
 _atom_site_type_symbol
 _atom_site_label
 _atom_site_symmetry_multiplicity
 _atom_site_fract_x
 _atom_site_fract_y
 _atom_site_fract_z
 _atom_site_occupancy
  Tb  Tb0  1  0.000835  0.500835  0.001670  1
  Lu  Lu1  1  0.872433  0.872433  0.744866  1
  Lu  Lu2  1  0.127364  0.127364  0.254728  1
  Cu  Cu3  1  0.667963  0.856143  0.335926  1
  Cu  Cu4  1  0.667963  0.479783  0.335926  1
  Cu  Cu5  1  0.331268  0.527850  0.662537  1
  Cu  Cu6  1  0.331268  0.134687  0.662537  1
  Si  Si7  1  0.218008  0.718008  0.436014  1
  Si  Si8  1  0.500327  0.183321  0.000654  1
  Si  Si9  1  0.500327  0.817333  0.000654  1
  Ge  Ge10  1  0.782243  0.282243  0.564488  1
