# generated using pymatgen
data_K6Rb2Hf6BI20
_symmetry_space_group_name_H-M   'P 1'
_cell_length_a   12.62976955
_cell_length_b   12.59940305
_cell_length_c   12.59940200
_cell_angle_alpha   59.99999751
_cell_angle_beta   60.07950124
_cell_angle_gamma   60.07950039
_symmetry_Int_Tables_number   1
_chemical_formula_structural   K6Rb2Hf6BI20
_chemical_formula_sum   'K6 Rb2 Hf6 B1 I20'
_cell_volume   1419.38806832
_cell_formula_units_Z   1
loop_
 _symmetry_equiv_pos_site_id
 _symmetry_equiv_pos_as_xyz
  1  'x, y, z'
loop_
 _atom_site_type_symbol
 _atom_site_label
 _atom_site_symmetry_multiplicity
 _atom_site_fract_x
 _atom_site_fract_y
 _atom_site_fract_z
 _atom_site_occupancy
  K  K0  1  0.362749  0.361828  0.361828  1
  K  K1  1  0.637251  0.638172  0.638172  1
  K  K2  1  0.362749  0.361828  0.913596  1
  K  K3  1  0.362749  0.913596  0.361828  1
  K  K4  1  0.637251  0.638172  0.086404  1
  K  K5  1  0.637251  0.086404  0.638172  1
  Rb  Rb6  1  0.920212  0.359930  0.359930  1
  Rb  Rb7  1  0.079788  0.640070  0.640070  1
  Hf  Hf8  1  0.870148  0.129987  0.129987  1
  Hf  Hf9  1  0.129852  0.870013  0.870013  1
  Hf  Hf10  1  0.129852  0.870013  0.130123  1
  Hf  Hf11  1  0.870148  0.129987  0.869877  1
  Hf  Hf12  1  0.129852  0.130123  0.870013  1
  Hf  Hf13  1  0.870148  0.869877  0.129987  1
  B  B14  1  0.000000  0.000000  0.000000  1
  I  I15  1  0.319458  0.000622  0.000622  1
  I  I16  1  0.680542  0.999378  0.999378  1
  I  I17  1  0.000000  0.321804  0.678196  1
  I  I18  1  0.000000  0.678196  0.321804  1
  I  I19  1  0.000000  0.321804  0.000000  1
  I  I20  1  0.680542  0.999378  0.320702  1
  I  I21  1  0.000000  0.678196  0.000000  1
  I  I22  1  0.319458  0.000622  0.679298  1
  I  I23  1  0.000000  0.000000  0.321804  1
  I  I24  1  0.000000  0.000000  0.678196  1
  I  I25  1  0.680542  0.320702  0.999378  1
  I  I26  1  0.319458  0.679298  0.000622  1
  I  I27  1  0.684236  0.312164  0.312164  1
  I  I28  1  0.315764  0.687836  0.687836  1
  I  I29  1  0.315764  0.687836  0.308564  1
  I  I30  1  0.684236  0.312164  0.691436  1
  I  I31  1  0.315764  0.308564  0.687836  1
  I  I32  1  0.684236  0.691436  0.312164  1
  I  I33  1  0.263477  0.245508  0.245508  1
  I  I34  1  0.736523  0.754492  0.754492  1
