# generated using pymatgen
data_HoPa3(ZnIr)4
_symmetry_space_group_name_H-M   'P 1'
_cell_length_a   3.96897700
_cell_length_b   7.01114868
_cell_length_c   8.29975640
_cell_angle_alpha   90.03569379
_cell_angle_beta   90.00000000
_cell_angle_gamma   90.00000000
_symmetry_Int_Tables_number   1
_chemical_formula_structural   HoPa3(ZnIr)4
_chemical_formula_sum   'Ho1 Pa3 Zn4 Ir4'
_cell_volume   230.95800564
_cell_formula_units_Z   1
loop_
 _symmetry_equiv_pos_site_id
 _symmetry_equiv_pos_as_xyz
  1  'x, y, z'
loop_
 _atom_site_type_symbol
 _atom_site_label
 _atom_site_symmetry_multiplicity
 _atom_site_fract_x
 _atom_site_fract_y
 _atom_site_fract_z
 _atom_site_occupancy
  Ho  Ho0  1  0.750000  0.945771  0.687684  1
  Pa  Pa1  1  0.250000  0.548543  0.186318  1
  Pa  Pa2  1  0.750000  0.444775  0.810486  1
  Pa  Pa3  1  0.250000  0.050189  0.318436  1
  Zn  Zn4  1  0.250000  0.115225  0.939352  1
  Zn  Zn5  1  0.750000  0.877842  0.053789  1
  Zn  Zn6  1  0.250000  0.637122  0.558684  1
  Zn  Zn7  1  0.750000  0.380015  0.442851  1
  Ir  Ir8  1  0.750000  0.768103  0.359658  1
  Ir  Ir9  1  0.250000  0.249228  0.630971  1
  Ir  Ir10  1  0.750000  0.265827  0.132743  1
  Ir  Ir11  1  0.250000  0.717362  0.879024  1
