# generated using pymatgen
data_YbAl(GaRh2)2
_symmetry_space_group_name_H-M   'P 1'
_cell_length_a   6.20492300
_cell_length_b   6.20493200
_cell_length_c   6.20581900
_cell_angle_alpha   90.00000000
_cell_angle_beta   90.00041553
_cell_angle_gamma   90.00000000
_symmetry_Int_Tables_number   1
_chemical_formula_structural   YbAl(GaRh2)2
_chemical_formula_sum   'Yb2 Al2 Ga4 Rh8'
_cell_volume   238.93101479
_cell_formula_units_Z   2
loop_
 _symmetry_equiv_pos_site_id
 _symmetry_equiv_pos_as_xyz
  1  'x, y, z'
loop_
 _atom_site_type_symbol
 _atom_site_label
 _atom_site_symmetry_multiplicity
 _atom_site_fract_x
 _atom_site_fract_y
 _atom_site_fract_z
 _atom_site_occupancy
  Yb  Yb0  1  0.750262  0.250000  0.499992  1
  Yb  Yb1  1  0.249737  0.750001  0.500008  1
  Al  Al2  1  0.749598  0.250000  0.000000  1
  Al  Al3  1  0.250401  0.750001  0.000000  1
  Ga  Ga4  1  0.250186  0.250000  0.999995  1
  Ga  Ga5  1  0.749815  0.750001  0.000005  1
  Ga  Ga6  1  0.750039  0.750001  0.499997  1
  Ga  Ga7  1  0.249962  0.250000  0.500003  1
  Rh  Rh8  1  0.999996  0.999992  0.231636  1
  Rh  Rh9  1  0.999996  0.500014  0.231636  1
  Rh  Rh10  1  0.499985  0.000007  0.231994  1
  Rh  Rh11  1  0.499985  0.499989  0.231994  1
  Rh  Rh12  1  0.500015  0.999993  0.768006  1
  Rh  Rh13  1  0.500015  0.500011  0.768006  1
  Rh  Rh14  1  0.000004  0.000008  0.768364  1
  Rh  Rh15  1  0.000004  0.499986  0.768364  1
