# generated using pymatgen
data_Ho3Er5Cd2PdPt
_symmetry_space_group_name_H-M   'P 1'
_cell_length_a   9.63112069
_cell_length_b   9.63112203
_cell_length_c   9.62061500
_cell_angle_alpha   60.03608508
_cell_angle_beta   60.03608048
_cell_angle_gamma   60.05684772
_symmetry_Int_Tables_number   1
_chemical_formula_structural   Ho3Er5Cd2PdPt
_chemical_formula_sum   'Ho6 Er10 Cd4 Pd2 Pt2'
_cell_volume   631.63274150
_cell_formula_units_Z   2
loop_
 _symmetry_equiv_pos_site_id
 _symmetry_equiv_pos_as_xyz
  1  'x, y, z'
loop_
 _atom_site_type_symbol
 _atom_site_label
 _atom_site_symmetry_multiplicity
 _atom_site_fract_x
 _atom_site_fract_y
 _atom_site_fract_z
 _atom_site_occupancy
  Ho  Ho0  1  0.184868  0.815700  0.814870  1
  Ho  Ho1  1  0.815700  0.184868  0.184561  1
  Ho  Ho2  1  0.815700  0.184868  0.814870  1
  Ho  Ho3  1  0.184868  0.815700  0.184561  1
  Ho  Ho4  1  0.816030  0.816030  0.183970  1
  Ho  Ho5  1  0.185046  0.185046  0.814954  1
  Er  Er6  1  0.603495  0.603495  0.598951  1
  Er  Er7  1  0.603495  0.603495  0.194060  1
  Er  Er8  1  0.607589  0.186989  0.602711  1
  Er  Er9  1  0.186989  0.607589  0.602711  1
  Er  Er10  1  0.059623  0.439530  0.439563  1
  Er  Er11  1  0.439530  0.059623  0.061284  1
  Er  Er12  1  0.439530  0.059623  0.439563  1
  Er  Er13  1  0.059623  0.439530  0.061284  1
  Er  Er14  1  0.440457  0.440457  0.059543  1
  Er  Er15  1  0.061061  0.061061  0.438939  1
  Cd  Cd16  1  0.831575  0.831575  0.833137  1
  Cd  Cd17  1  0.831575  0.831575  0.503713  1
  Cd  Cd18  1  0.830881  0.503899  0.832610  1
  Cd  Cd19  1  0.503899  0.830881  0.832610  1
  Pd  Pd20  1  0.393497  0.393497  0.396295  1
  Pd  Pd21  1  0.393497  0.393497  0.816710  1
  Pt  Pt22  1  0.391519  0.819955  0.394263  1
  Pt  Pt23  1  0.819955  0.391519  0.394263  1
