# generated using pymatgen
data_Yb3PrGa18CoPt5
_symmetry_space_group_name_H-M   'P 1'
_cell_length_a   7.67434862
_cell_length_b   7.66223146
_cell_length_c   9.48748820
_cell_angle_alpha   90.08093438
_cell_angle_beta   90.16375246
_cell_angle_gamma   120.04540886
_symmetry_Int_Tables_number   1
_chemical_formula_structural   Yb3PrGa18CoPt5
_chemical_formula_sum   'Yb3 Pr1 Ga18 Co1 Pt5'
_cell_volume   482.92051166
_cell_formula_units_Z   1
loop_
 _symmetry_equiv_pos_site_id
 _symmetry_equiv_pos_as_xyz
  1  'x, y, z'
loop_
 _atom_site_type_symbol
 _atom_site_label
 _atom_site_symmetry_multiplicity
 _atom_site_fract_x
 _atom_site_fract_y
 _atom_site_fract_z
 _atom_site_occupancy
  Yb  Yb0  1  0.997146  0.660746  0.750074  1
  Yb  Yb1  1  0.663117  0.999098  0.749774  1
  Yb  Yb2  1  0.001974  0.338176  0.250344  1
  Pr  Pr3  1  0.337295  0.001344  0.250324  1
  Ga  Ga4  1  0.331910  0.996130  0.910614  1
  Ga  Ga5  1  0.997278  0.662709  0.079803  1
  Ga  Ga6  1  0.322141  0.995103  0.583982  1
  Ga  Ga7  1  0.998123  0.671923  0.426576  1
  Ga  Ga8  1  0.673989  0.003042  0.079497  1
  Ga  Ga9  1  0.997026  0.331975  0.915336  1
  Ga  Ga10  1  0.683307  0.004630  0.426103  1
  Ga  Ga11  1  0.995737  0.322808  0.578601  1
  Ga  Ga12  1  0.670691  0.670622  0.926074  1
  Ga  Ga13  1  0.329585  0.334421  0.068534  1
  Ga  Ga14  1  0.685496  0.685813  0.569864  1
  Ga  Ga15  1  0.315313  0.320667  0.436236  1
  Ga  Ga16  1  0.110130  0.112195  0.741521  1
  Ga  Ga17  1  0.883466  0.886020  0.258146  1
  Ga  Ga18  1  0.461427  0.659524  0.251772  1
  Ga  Ga19  1  0.338691  0.539765  0.748147  1
  Ga  Ga20  1  0.540436  0.340830  0.748260  1
  Ga  Ga21  1  0.664361  0.464432  0.251811  1
  Co  Co22  1  0.001887  0.999420  0.500015  1
  Pt  Pt23  1  0.001622  0.999398  0.998965  1
  Pt  Pt24  1  0.330286  0.671134  0.999332  1
  Pt  Pt25  1  0.330199  0.671054  0.500303  1
  Pt  Pt26  1  0.668673  0.328388  0.999058  1
  Pt  Pt27  1  0.668695  0.328629  0.500933  1
