# generated using pymatgen
data_Lu2Sc3(Cd2Pt)2
_symmetry_space_group_name_H-M   'P 1'
_cell_length_a   3.47049600
_cell_length_b   7.81212200
_cell_length_c   17.83371800
_cell_angle_alpha   90.00000000
_cell_angle_beta   90.00000000
_cell_angle_gamma   90.00000000
_symmetry_Int_Tables_number   1
_chemical_formula_structural   Lu2Sc3(Cd2Pt)2
_chemical_formula_sum   'Lu4 Sc6 Cd8 Pt4'
_cell_volume   483.50665945
_cell_formula_units_Z   2
loop_
 _symmetry_equiv_pos_site_id
 _symmetry_equiv_pos_as_xyz
  1  'x, y, z'
loop_
 _atom_site_type_symbol
 _atom_site_label
 _atom_site_symmetry_multiplicity
 _atom_site_fract_x
 _atom_site_fract_y
 _atom_site_fract_z
 _atom_site_occupancy
  Lu  Lu0  1  0.000000  0.244266  0.218912  1
  Lu  Lu1  1  0.000000  0.755734  0.781088  1
  Lu  Lu2  1  0.000000  0.255734  0.718912  1
  Lu  Lu3  1  0.000000  0.744266  0.281088  1
  Sc  Sc4  1  0.000000  0.115625  0.416492  1
  Sc  Sc5  1  0.000000  0.884375  0.583508  1
  Sc  Sc6  1  0.000000  0.384375  0.916492  1
  Sc  Sc7  1  0.000000  0.615625  0.083508  1
  Sc  Sc8  1  0.000000  0.000000  0.000000  1
  Sc  Sc9  1  0.000000  0.500000  0.500000  1
  Cd  Cd10  1  0.500000  0.425309  0.355830  1
  Cd  Cd11  1  0.500000  0.574691  0.644170  1
  Cd  Cd12  1  0.500000  0.074691  0.855830  1
  Cd  Cd13  1  0.500000  0.925309  0.144170  1
  Cd  Cd14  1  0.500000  0.288222  0.062765  1
  Cd  Cd15  1  0.500000  0.711778  0.937235  1
  Cd  Cd16  1  0.500000  0.211778  0.562765  1
  Cd  Cd17  1  0.500000  0.788222  0.437235  1
  Pt  Pt18  1  0.500000  0.031033  0.306566  1
  Pt  Pt19  1  0.500000  0.968967  0.693434  1
  Pt  Pt20  1  0.500000  0.468967  0.806566  1
  Pt  Pt21  1  0.500000  0.531033  0.193434  1
