# generated using pymatgen
data_Y9Tm3(AlCo2)2
_symmetry_space_group_name_H-M   'P 1'
_cell_length_a   8.26281190
_cell_length_b   8.26302837
_cell_length_c   8.26309900
_cell_angle_alpha   112.01333556
_cell_angle_beta   109.34092644
_cell_angle_gamma   107.08145175
_symmetry_Int_Tables_number   1
_chemical_formula_structural   Y9Tm3(AlCo2)2
_chemical_formula_sum   'Y9 Tm3 Al2 Co4'
_cell_volume   433.57449941
_cell_formula_units_Z   1
loop_
 _symmetry_equiv_pos_site_id
 _symmetry_equiv_pos_as_xyz
  1  'x, y, z'
loop_
 _atom_site_type_symbol
 _atom_site_label
 _atom_site_symmetry_multiplicity
 _atom_site_fract_x
 _atom_site_fract_y
 _atom_site_fract_z
 _atom_site_occupancy
  Y  Y0  1  0.673576  0.483851  0.810313  1
  Y  Y1  1  0.562152  0.260592  0.300099  1
  Y  Y2  1  0.960477  0.260601  0.698483  1
  Y  Y3  1  0.436716  0.739533  0.698211  1
  Y  Y4  1  0.041275  0.739475  0.302772  1
  Y  Y5  1  0.181027  0.217897  0.399670  1
  Y  Y6  1  0.818085  0.782123  0.599027  1
  Y  Y7  1  0.818241  0.217936  0.036932  1
  Y  Y8  1  0.183065  0.782146  0.964030  1
  Tm  Tm9  1  0.326542  0.513410  0.186863  1
  Tm  Tm10  1  0.325467  0.138513  0.813037  1
  Tm  Tm11  1  0.673449  0.860914  0.187448  1
  Al  Al12  1  0.499915  0.999197  0.499281  1
  Al  Al13  1  0.999552  0.499854  0.500299  1
  Co  Co14  1  0.660776  0.500637  0.162879  1
  Co  Co15  1  0.337739  0.500628  0.839881  1
  Co  Co16  1  0.115502  0.115006  0.999572  1
  Co  Co17  1  0.886442  0.887686  0.001200  1
