# generated using pymatgen
data_LaDy(ScIr)2
_symmetry_space_group_name_H-M   'P 1'
_cell_length_a   7.23135900
_cell_length_b   4.29567700
_cell_length_c   8.91009100
_cell_angle_alpha   90.00000000
_cell_angle_beta   90.00000000
_cell_angle_gamma   90.00000000
_symmetry_Int_Tables_number   1
_chemical_formula_structural   LaDy(ScIr)2
_chemical_formula_sum   'La2 Dy2 Sc4 Ir4'
_cell_volume   276.77934717
_cell_formula_units_Z   2
loop_
 _symmetry_equiv_pos_site_id
 _symmetry_equiv_pos_as_xyz
  1  'x, y, z'
loop_
 _atom_site_type_symbol
 _atom_site_label
 _atom_site_symmetry_multiplicity
 _atom_site_fract_x
 _atom_site_fract_y
 _atom_site_fract_z
 _atom_site_occupancy
  La  La0  1  0.012653  0.750000  0.826408  1
  La  La1  1  0.512653  0.750000  0.673592  1
  Dy  Dy2  1  0.977905  0.250000  0.179430  1
  Dy  Dy3  1  0.477905  0.250000  0.320570  1
  Sc  Sc4  1  0.864915  0.250000  0.552939  1
  Sc  Sc5  1  0.364915  0.250000  0.947061  1
  Sc  Sc6  1  0.141030  0.750000  0.426579  1
  Sc  Sc7  1  0.641030  0.750000  0.073421  1
  Ir  Ir8  1  0.737185  0.250000  0.907545  1
  Ir  Ir9  1  0.237185  0.250000  0.592455  1
  Ir  Ir10  1  0.266313  0.750000  0.111949  1
  Ir  Ir11  1  0.766313  0.750000  0.388051  1
