# generated using pymatgen
data_YbPr3Ho2(CoSn6)2
_symmetry_space_group_name_H-M   'P 1'
_cell_length_a   8.51715188
_cell_length_b   8.51715112
_cell_length_c   13.35455314
_cell_angle_alpha   90.10323122
_cell_angle_beta   89.89676791
_cell_angle_gamma   148.37004892
_symmetry_Int_Tables_number   1
_chemical_formula_structural   YbPr3Ho2(CoSn6)2
_chemical_formula_sum   'Yb1 Pr3 Ho2 Co2 Sn12'
_cell_volume   508.04918367
_cell_formula_units_Z   1
loop_
 _symmetry_equiv_pos_site_id
 _symmetry_equiv_pos_as_xyz
  1  'x, y, z'
loop_
 _atom_site_type_symbol
 _atom_site_label
 _atom_site_symmetry_multiplicity
 _atom_site_fract_x
 _atom_site_fract_y
 _atom_site_fract_z
 _atom_site_occupancy
  Yb  Yb0  1  0.899419  0.100581  0.404092  1
  Pr  Pr1  1  0.899644  0.100356  0.094341  1
  Pr  Pr2  1  0.099303  0.900697  0.591827  1
  Pr  Pr3  1  0.099347  0.900653  0.907937  1
  Ho  Ho4  1  0.899218  0.100782  0.750636  1
  Ho  Ho5  1  0.101126  0.898874  0.251036  1
  Co  Co6  1  0.297658  0.702342  0.250739  1
  Co  Co7  1  0.702741  0.297259  0.748803  1
  Sn  Sn8  1  0.758211  0.241789  0.571384  1
  Sn  Sn9  1  0.426514  0.573486  0.576838  1
  Sn  Sn10  1  0.572364  0.427636  0.420282  1
  Sn  Sn11  1  0.733426  0.266574  0.250130  1
  Sn  Sn12  1  0.266885  0.733115  0.749501  1
  Sn  Sn13  1  0.244020  0.755980  0.072685  1
  Sn  Sn14  1  0.246581  0.753419  0.428382  1
  Sn  Sn15  1  0.571697  0.428303  0.081205  1
  Sn  Sn16  1  0.454004  0.545996  0.251975  1
  Sn  Sn17  1  0.545717  0.454283  0.749962  1
  Sn  Sn18  1  0.755386  0.244614  0.927254  1
  Sn  Sn19  1  0.426739  0.573261  0.920991  1
