# generated using pymatgen
data_Ho16In2Co3Ag2Ir
_symmetry_space_group_name_H-M   'P 1'
_cell_length_a   9.42863146
_cell_length_b   9.42863175
_cell_length_c   9.46365869
_cell_angle_alpha   60.06334313
_cell_angle_beta   60.06334107
_cell_angle_gamma   60.04244636
_symmetry_Int_Tables_number   1
_chemical_formula_structural   Ho16In2Co3Ag2Ir
_chemical_formula_sum   'Ho16 In2 Co3 Ag2 Ir1'
_cell_volume   595.65656420
_cell_formula_units_Z   1
loop_
 _symmetry_equiv_pos_site_id
 _symmetry_equiv_pos_as_xyz
  1  'x, y, z'
loop_
 _atom_site_type_symbol
 _atom_site_label
 _atom_site_symmetry_multiplicity
 _atom_site_fract_x
 _atom_site_fract_y
 _atom_site_fract_z
 _atom_site_occupancy
  Ho  Ho0  1  0.439764  0.439764  0.059693  1
  Ho  Ho1  1  0.653136  0.653136  0.041323  1
  Ho  Ho2  1  0.194588  0.811824  0.185137  1
  Ho  Ho3  1  0.065793  0.439226  0.058875  1
  Ho  Ho4  1  0.189884  0.811759  0.810042  1
  Ho  Ho5  1  0.063832  0.441760  0.437158  1
  Ho  Ho6  1  0.811824  0.194588  0.185137  1
  Ho  Ho7  1  0.649448  0.649448  0.656445  1
  Ho  Ho8  1  0.811759  0.189884  0.810042  1
  Ho  Ho9  1  0.188041  0.188041  0.813512  1
  Ho  Ho10  1  0.045360  0.648127  0.656197  1
  Ho  Ho11  1  0.439226  0.065793  0.058875  1
  Ho  Ho12  1  0.061857  0.061857  0.436499  1
  Ho  Ho13  1  0.648127  0.045360  0.656197  1
  Ho  Ho14  1  0.808763  0.808763  0.186996  1
  Ho  Ho15  1  0.441760  0.063832  0.437158  1
  In  In16  1  0.416701  0.740969  0.421186  1
  In  In17  1  0.740969  0.416701  0.421186  1
  Co  Co18  1  0.422914  0.857581  0.858115  1
  Co  Co19  1  0.858031  0.858031  0.860737  1
  Co  Co20  1  0.857581  0.422914  0.858115  1
  Ag  Ag21  1  0.416898  0.416898  0.418767  1
  Ag  Ag22  1  0.416010  0.416010  0.749111  1
  Ir  Ir23  1  0.857735  0.857735  0.423498  1
