# generated using pymatgen
data_SrNpI6
_symmetry_space_group_name_H-M   'P 1'
_cell_length_a   8.05552984
_cell_length_b   8.05552917
_cell_length_c   15.29414536
_cell_angle_alpha   84.14459451
_cell_angle_beta   84.14459693
_cell_angle_gamma   119.30104981
_symmetry_Int_Tables_number   1
_chemical_formula_structural   SrNpI6
_chemical_formula_sum   'Sr2 Np2 I12'
_cell_volume   847.66075444
_cell_formula_units_Z   2
loop_
 _symmetry_equiv_pos_site_id
 _symmetry_equiv_pos_as_xyz
  1  'x, y, z'
loop_
 _atom_site_type_symbol
 _atom_site_label
 _atom_site_symmetry_multiplicity
 _atom_site_fract_x
 _atom_site_fract_y
 _atom_site_fract_z
 _atom_site_occupancy
  Sr  Sr0  1  0.084258  0.915742  0.250000  1
  Sr  Sr1  1  0.915742  0.084258  0.750000  1
  Np  Np2  1  0.418739  0.581261  0.250000  1
  Np  Np3  1  0.581261  0.418739  0.750000  1
  I  I4  1  0.318664  0.459902  0.633764  1
  I  I5  1  0.459902  0.318664  0.133764  1
  I  I6  1  0.233039  0.076599  0.868860  1
  I  I7  1  0.076599  0.233039  0.368860  1
  I  I8  1  0.170236  0.639121  0.129448  1
  I  I9  1  0.639121  0.170236  0.629448  1
  I  I10  1  0.360879  0.829764  0.370552  1
  I  I11  1  0.829764  0.360879  0.870552  1
  I  I12  1  0.766961  0.923401  0.131140  1
  I  I13  1  0.923401  0.766961  0.631140  1
  I  I14  1  0.540098  0.681336  0.866236  1
  I  I15  1  0.681336  0.540098  0.366236  1
