# generated using pymatgen
data_Hf3Ga3FeNiPt
_symmetry_space_group_name_H-M   'P 1'
_cell_length_a   7.13731600
_cell_length_b   7.13731516
_cell_length_c   6.56995200
_cell_angle_alpha   90.00000000
_cell_angle_beta   90.00000000
_cell_angle_gamma   120.00000390
_symmetry_Int_Tables_number   1
_chemical_formula_structural   Hf3Ga3FeNiPt
_chemical_formula_sum   'Hf6 Ga6 Fe2 Ni2 Pt2'
_cell_volume   289.84286285
_cell_formula_units_Z   2
loop_
 _symmetry_equiv_pos_site_id
 _symmetry_equiv_pos_as_xyz
  1  'x, y, z'
loop_
 _atom_site_type_symbol
 _atom_site_label
 _atom_site_symmetry_multiplicity
 _atom_site_fract_x
 _atom_site_fract_y
 _atom_site_fract_z
 _atom_site_occupancy
  Hf  Hf0  1  0.721500  0.075595  0.000000  1
  Hf  Hf1  1  0.354095  0.278500  0.000000  1
  Hf  Hf2  1  0.924405  0.645905  0.000000  1
  Hf  Hf3  1  0.355871  0.279946  0.500000  1
  Hf  Hf4  1  0.720054  0.075926  0.500000  1
  Hf  Hf5  1  0.924074  0.644129  0.500000  1
  Ga  Ga6  1  0.594391  0.665484  0.750213  1
  Ga  Ga7  1  0.071093  0.405609  0.750213  1
  Ga  Ga8  1  0.334516  0.928907  0.750213  1
  Ga  Ga9  1  0.594391  0.665484  0.249787  1
  Ga  Ga10  1  0.071093  0.405609  0.249787  1
  Ga  Ga11  1  0.334516  0.928907  0.249787  1
  Fe  Fe12  1  0.666667  0.333333  0.751145  1
  Fe  Fe13  1  0.666667  0.333333  0.248855  1
  Ni  Ni14  1  0.333333  0.666667  0.000000  1
  Ni  Ni15  1  0.333333  0.666667  0.500000  1
  Pt  Pt16  1  0.000000  0.000000  0.252232  1
  Pt  Pt17  1  0.000000  0.000000  0.747768  1
