# generated using pymatgen
data_TcSb14Mo4Os
_symmetry_space_group_name_H-M   'P 1'
_cell_length_a   8.32144782
_cell_length_b   8.31338587
_cell_length_c   8.32144771
_cell_angle_alpha   109.06980408
_cell_angle_beta   109.89267222
_cell_angle_gamma   109.49112633
_symmetry_Int_Tables_number   1
_chemical_formula_structural   TcSb14Mo4Os
_chemical_formula_sum   'Tc1 Sb14 Mo4 Os1'
_cell_volume   442.91743630
_cell_formula_units_Z   1
loop_
 _symmetry_equiv_pos_site_id
 _symmetry_equiv_pos_as_xyz
  1  'x, y, z'
loop_
 _atom_site_type_symbol
 _atom_site_label
 _atom_site_symmetry_multiplicity
 _atom_site_fract_x
 _atom_site_fract_y
 _atom_site_fract_z
 _atom_site_occupancy
  Tc  Tc0  1  0.339664  0.339651  0.999988  1
  Sb  Sb1  1  0.750483  0.252265  0.501782  1
  Sb  Sb2  1  0.500538  0.250400  0.749862  1
  Sb  Sb3  1  0.500911  0.748658  0.247747  1
  Sb  Sb4  1  0.250556  0.502412  0.751724  1
  Sb  Sb5  1  0.750688  0.502412  0.251856  1
  Sb  Sb6  1  0.248128  0.750312  0.502184  1
  Sb  Sb7  1  0.326325  0.326344  0.325553  1
  Sb  Sb8  1  0.000731  0.000467  0.325852  1
  Sb  Sb9  1  0.325708  0.001340  0.000818  1
  Sb  Sb10  1  0.000791  0.326344  0.000019  1
  Sb  Sb11  1  0.674614  0.000467  0.999735  1
  Sb  Sb12  1  0.999887  0.675122  0.000073  1
  Sb  Sb13  1  0.000522  0.001340  0.675632  1
  Sb  Sb14  1  0.675049  0.675122  0.675235  1
  Mo  Mo15  1  0.999502  0.653477  0.653975  1
  Mo  Mo16  1  0.658568  0.999349  0.658544  1
  Mo  Mo17  1  0.340806  0.999349  0.340781  1
  Mo  Mo18  1  0.656646  0.656262  0.999615  1
  Os  Os19  1  0.999882  0.338905  0.339023  1
