# generated using pymatgen
data_La5Sn3O
_symmetry_space_group_name_H-M   'P 1'
_cell_length_a   9.55786820
_cell_length_b   9.55786848
_cell_length_c   9.55786809
_cell_angle_alpha   126.02978775
_cell_angle_beta   126.02979010
_cell_angle_gamma   79.83918530
_symmetry_Int_Tables_number   1
_chemical_formula_structural   La5Sn3O
_chemical_formula_sum   'La10 Sn6 O2'
_cell_volume   551.51585134
_cell_formula_units_Z   2
loop_
 _symmetry_equiv_pos_site_id
 _symmetry_equiv_pos_as_xyz
  1  'x, y, z'
loop_
 _atom_site_type_symbol
 _atom_site_label
 _atom_site_symmetry_multiplicity
 _atom_site_fract_x
 _atom_site_fract_y
 _atom_site_fract_z
 _atom_site_occupancy
  La  La0  1  0.498111  0.304100  0.500000  1
  La  La1  1  0.804100  0.998111  0.500000  1
  La  La2  1  0.998111  0.498111  0.194011  1
  La  La3  1  0.304100  0.804100  0.805989  1
  La  La4  1  0.503278  0.697003  0.500000  1
  La  La5  1  0.197003  0.003278  0.500000  1
  La  La6  1  0.003278  0.503278  0.806274  1
  La  La7  1  0.697003  0.197003  0.193726  1
  La  La8  1  0.506678  0.506678  0.000000  1
  La  La9  1  0.006678  0.006678  0.000000  1
  Sn  Sn10  1  0.141011  0.359113  0.500000  1
  Sn  Sn11  1  0.859113  0.641011  0.500000  1
  Sn  Sn12  1  0.641011  0.141011  0.781897  1
  Sn  Sn13  1  0.359113  0.859113  0.218103  1
  Sn  Sn14  1  0.751861  0.751861  0.000000  1
  Sn  Sn15  1  0.251861  0.251861  0.000000  1
  O  O16  1  0.750266  0.250266  0.500000  1
  O  O17  1  0.250266  0.750266  0.500000  1
