# generated using pymatgen
data_CeHo3Al4IrRu3
_symmetry_space_group_name_H-M   'P 1'
_cell_length_a   6.96977046
_cell_length_b   4.03130000
_cell_length_c   8.15506536
_cell_angle_alpha   90.00000000
_cell_angle_beta   90.89477505
_cell_angle_gamma   90.00000000
_symmetry_Int_Tables_number   1
_chemical_formula_structural   CeHo3Al4IrRu3
_chemical_formula_sum   'Ce1 Ho3 Al4 Ir1 Ru3'
_cell_volume   229.10685273
_cell_formula_units_Z   1
loop_
 _symmetry_equiv_pos_site_id
 _symmetry_equiv_pos_as_xyz
  1  'x, y, z'
loop_
 _atom_site_type_symbol
 _atom_site_label
 _atom_site_symmetry_multiplicity
 _atom_site_fract_x
 _atom_site_fract_y
 _atom_site_fract_z
 _atom_site_occupancy
  Ce  Ce0  1  0.528309  0.750000  0.686151  1
  Ho  Ho1  1  0.963614  0.250000  0.176990  1
  Ho  Ho2  1  0.466056  0.250000  0.317448  1
  Ho  Ho3  1  0.032775  0.750000  0.819519  1
  Al  Al4  1  0.870283  0.250000  0.557578  1
  Al  Al5  1  0.356628  0.250000  0.948008  1
  Al  Al6  1  0.140198  0.750000  0.438849  1
  Al  Al7  1  0.634427  0.750000  0.062927  1
  Ir  Ir8  1  0.773025  0.750000  0.375518  1
  Ru  Ru9  1  0.724670  0.250000  0.867522  1
  Ru  Ru10  1  0.247542  0.250000  0.625441  1
  Ru  Ru11  1  0.262475  0.750000  0.124048  1
