# generated using pymatgen
data_Ho2Tm6Ta2Ti9Si16Mo
_symmetry_space_group_name_H-M   'P 1'
_cell_length_a   6.97388510
_cell_length_b   6.97491874
_cell_length_c   12.81171900
_cell_angle_alpha   90.01407973
_cell_angle_beta   89.99027254
_cell_angle_gamma   89.97771633
_symmetry_Int_Tables_number   1
_chemical_formula_structural   Ho2Tm6Ta2Ti9Si16Mo
_chemical_formula_sum   'Ho2 Tm6 Ta2 Ti9 Si16 Mo1'
_cell_volume   623.19117184
_cell_formula_units_Z   1
loop_
 _symmetry_equiv_pos_site_id
 _symmetry_equiv_pos_as_xyz
  1  'x, y, z'
loop_
 _atom_site_type_symbol
 _atom_site_label
 _atom_site_symmetry_multiplicity
 _atom_site_fract_x
 _atom_site_fract_y
 _atom_site_fract_z
 _atom_site_occupancy
  Ho  Ho0  1  0.001623  0.339621  0.534171  1
  Ho  Ho1  1  0.997863  0.659699  0.032459  1
  Tm  Tm2  1  0.340671  0.001783  0.467088  1
  Tm  Tm3  1  0.499104  0.841130  0.718151  1
  Tm  Tm4  1  0.501797  0.158725  0.217485  1
  Tm  Tm5  1  0.840141  0.497770  0.282221  1
  Tm  Tm6  1  0.158110  0.500478  0.782305  1
  Tm  Tm7  1  0.660303  0.999646  0.966010  1
  Ta  Ta8  1  0.327142  0.326518  0.999509  1
  Ta  Ta9  1  0.173435  0.827010  0.249861  1
  Ti  Ti10  1  0.673325  0.672993  0.500414  1
  Ti  Ti11  1  0.152228  0.008116  0.874698  1
  Ti  Ti12  1  0.492024  0.652105  0.125156  1
  Ti  Ti13  1  0.508111  0.347000  0.626469  1
  Ti  Ti14  1  0.652491  0.491408  0.874324  1
  Ti  Ti15  1  0.347965  0.508113  0.374156  1
  Ti  Ti16  1  0.848343  0.992874  0.375306  1
  Ti  Ti17  1  0.008070  0.152364  0.124275  1
  Ti  Ti18  1  0.992134  0.848280  0.625663  1
  Si  Si19  1  0.203025  0.129565  0.683615  1
  Si  Si20  1  0.369702  0.703695  0.932284  1
  Si  Si21  1  0.630554  0.297051  0.433295  1
  Si  Si22  1  0.703121  0.368039  0.067058  1
  Si  Si23  1  0.297833  0.631839  0.567168  1
  Si  Si24  1  0.795815  0.869467  0.183644  1
  Si  Si25  1  0.131116  0.203475  0.316685  1
  Si  Si26  1  0.869515  0.797834  0.816291  1
  Si  Si27  1  0.293983  0.954399  0.063824  1
  Si  Si28  1  0.547272  0.792651  0.315002  1
  Si  Si29  1  0.454357  0.207167  0.813847  1
  Si  Si30  1  0.791034  0.547023  0.685587  1
  Si  Si31  1  0.206767  0.453111  0.185874  1
  Si  Si32  1  0.706780  0.046607  0.565721  1
  Si  Si33  1  0.952410  0.291882  0.934433  1
  Si  Si34  1  0.045667  0.707161  0.435760  1
  Mo  Mo35  1  0.826169  0.173400  0.750192  1
