# generated using pymatgen
data_Er2GaCo3O10
_symmetry_space_group_name_H-M   'P 1'
_cell_length_a   5.66458400
_cell_length_b   7.21190287
_cell_length_c   8.35450900
_cell_angle_alpha   89.67521452
_cell_angle_beta   90.00000000
_cell_angle_gamma   90.00000000
_symmetry_Int_Tables_number   1
_chemical_formula_structural   Er2GaCo3O10
_chemical_formula_sum   'Er4 Ga2 Co6 O20'
_cell_volume   341.29650730
_cell_formula_units_Z   2
loop_
 _symmetry_equiv_pos_site_id
 _symmetry_equiv_pos_as_xyz
  1  'x, y, z'
loop_
 _atom_site_type_symbol
 _atom_site_label
 _atom_site_symmetry_multiplicity
 _atom_site_fract_x
 _atom_site_fract_y
 _atom_site_fract_z
 _atom_site_occupancy
  Er  Er0  1  0.000000  0.859662  0.831397  1
  Er  Er1  1  0.000000  0.140338  0.168603  1
  Er  Er2  1  0.000000  0.366026  0.672140  1
  Er  Er3  1  0.000000  0.633974  0.327860  1
  Ga  Ga4  1  0.500000  0.607688  0.647061  1
  Ga  Ga5  1  0.500000  0.392312  0.352939  1
  Co  Co6  1  0.748787  0.000000  0.500000  1
  Co  Co7  1  0.500000  0.907187  0.151302  1
  Co  Co8  1  0.500000  0.092813  0.848698  1
  Co  Co9  1  0.253518  0.500000  0.000000  1
  Co  Co10  1  0.746482  0.500000  0.000000  1
  Co  Co11  1  0.251213  0.000000  0.500000  1
  O  O12  1  0.000000  0.336825  0.944193  1
  O  O13  1  0.727134  0.000000  0.000000  1
  O  O14  1  0.272866  0.000000  0.000000  1
  O  O15  1  0.500000  0.147121  0.429319  1
  O  O16  1  0.000000  0.161327  0.444328  1
  O  O17  1  0.732837  0.500000  0.500000  1
  O  O18  1  0.000000  0.838673  0.555672  1
  O  O19  1  0.759622  0.604239  0.794516  1
  O  O20  1  0.240906  0.104172  0.706723  1
  O  O21  1  0.500000  0.652841  0.066944  1
  O  O22  1  0.500000  0.347159  0.933056  1
  O  O23  1  0.000000  0.663175  0.055807  1
  O  O24  1  0.759094  0.895828  0.293277  1
  O  O25  1  0.759622  0.395761  0.205484  1
  O  O26  1  0.759094  0.104172  0.706723  1
  O  O27  1  0.240378  0.604239  0.794516  1
  O  O28  1  0.267163  0.500000  0.500000  1
  O  O29  1  0.240906  0.895828  0.293277  1
  O  O30  1  0.240378  0.395761  0.205484  1
  O  O31  1  0.500000  0.852879  0.570681  1
