# generated using pymatgen
data_DyTh7(Si3Ru)4
_symmetry_space_group_name_H-M   'P 1'
_cell_length_a   8.28659100
_cell_length_b   8.28657891
_cell_length_c   8.22036400
_cell_angle_alpha   90.00009601
_cell_angle_beta   89.99993058
_cell_angle_gamma   119.99974209
_symmetry_Int_Tables_number   1
_chemical_formula_structural   DyTh7(Si3Ru)4
_chemical_formula_sum   'Dy1 Th7 Si12 Ru4'
_cell_volume   488.84815846
_cell_formula_units_Z   1
loop_
 _symmetry_equiv_pos_site_id
 _symmetry_equiv_pos_as_xyz
  1  'x, y, z'
loop_
 _atom_site_type_symbol
 _atom_site_label
 _atom_site_symmetry_multiplicity
 _atom_site_fract_x
 _atom_site_fract_y
 _atom_site_fract_z
 _atom_site_occupancy
  Dy  Dy0  1  0.000000  0.000002  0.750003  1
  Th  Th1  1  0.500009  0.000022  0.250000  1
  Th  Th2  1  0.499908  0.999808  0.749999  1
  Th  Th3  1  0.999970  0.499982  0.250002  1
  Th  Th4  1  0.000190  0.500092  0.749999  1
  Th  Th5  1  0.500014  0.499991  0.250003  1
  Th  Th6  1  0.499904  0.500091  0.749999  1
  Th  Th7  1  0.000000  0.000001  0.250002  1
  Si  Si8  1  0.165340  0.330683  0.999046  1
  Si  Si9  1  0.834644  0.669287  0.999115  1
  Si  Si10  1  0.669316  0.834658  0.999043  1
  Si  Si11  1  0.834645  0.669290  0.500885  1
  Si  Si12  1  0.330717  0.165360  0.999115  1
  Si  Si13  1  0.165341  0.330684  0.500955  1
  Si  Si14  1  0.165341  0.834659  0.999045  1
  Si  Si15  1  0.330712  0.165357  0.500886  1
  Si  Si16  1  0.834644  0.165358  0.999112  1
  Si  Si17  1  0.669317  0.834659  0.500958  1
  Si  Si18  1  0.834645  0.165356  0.500888  1
  Si  Si19  1  0.165341  0.834660  0.500956  1
  Ru  Ru20  1  0.333332  0.666665  0.995007  1
  Ru  Ru21  1  0.666669  0.333337  0.995051  1
  Ru  Ru22  1  0.666665  0.333334  0.504946  1
  Ru  Ru23  1  0.333335  0.666668  0.504988  1
