# generated using pymatgen
data_Sr6Cd23P
_symmetry_space_group_name_H-M   'P 1'
_cell_length_a   10.33786327
_cell_length_b   10.33786342
_cell_length_c   10.33786300
_cell_angle_alpha   59.99999815
_cell_angle_beta   59.99999766
_cell_angle_gamma   59.99999893
_symmetry_Int_Tables_number   1
_chemical_formula_structural   Sr6Cd23P
_chemical_formula_sum   'Sr6 Cd23 P1'
_cell_volume   781.22715604
_cell_formula_units_Z   1
loop_
 _symmetry_equiv_pos_site_id
 _symmetry_equiv_pos_as_xyz
  1  'x, y, z'
loop_
 _atom_site_type_symbol
 _atom_site_label
 _atom_site_symmetry_multiplicity
 _atom_site_fract_x
 _atom_site_fract_y
 _atom_site_fract_z
 _atom_site_occupancy
  Sr  Sr0  1  0.797399  0.797399  0.202601  1
  Sr  Sr1  1  0.202601  0.797399  0.202601  1
  Sr  Sr2  1  0.797399  0.202601  0.202601  1
  Sr  Sr3  1  0.202601  0.202601  0.797399  1
  Sr  Sr4  1  0.797399  0.202601  0.797399  1
  Sr  Sr5  1  0.202601  0.797399  0.797399  1
  Cd  Cd6  1  0.827326  0.827326  0.518022  1
  Cd  Cd7  1  0.827326  0.518022  0.827326  1
  Cd  Cd8  1  0.518022  0.827326  0.827326  1
  Cd  Cd9  1  0.827326  0.827326  0.827326  1
  Cd  Cd10  1  0.172674  0.172674  0.481978  1
  Cd  Cd11  1  0.172674  0.481978  0.172674  1
  Cd  Cd12  1  0.481978  0.172674  0.172674  1
  Cd  Cd13  1  0.172674  0.172674  0.172674  1
  Cd  Cd14  1  0.620407  0.620407  0.138779  1
  Cd  Cd15  1  0.620407  0.138779  0.620407  1
  Cd  Cd16  1  0.138779  0.620407  0.620407  1
  Cd  Cd17  1  0.620407  0.620407  0.620407  1
  Cd  Cd18  1  0.379593  0.379593  0.861221  1
  Cd  Cd19  1  0.379593  0.861221  0.379593  1
  Cd  Cd20  1  0.861221  0.379593  0.379593  1
  Cd  Cd21  1  0.379593  0.379593  0.379593  1
  Cd  Cd22  1  0.000000  0.000000  0.500000  1
  Cd  Cd23  1  0.500000  0.000000  0.500000  1
  Cd  Cd24  1  0.000000  0.500000  0.500000  1
  Cd  Cd25  1  0.500000  0.500000  0.000000  1
  Cd  Cd26  1  0.000000  0.500000  0.000000  1
  Cd  Cd27  1  0.500000  0.000000  0.000000  1
  Cd  Cd28  1  0.500000  0.500000  0.500000  1
  P  P29  1  0.000000  0.000000  0.000000  1
