# generated using pymatgen
data_Al4PbS7
_symmetry_space_group_name_H-M   'P 1'
_cell_length_a   6.10051000
_cell_length_b   6.31698900
_cell_length_c   15.27233300
_cell_angle_alpha   90.00000000
_cell_angle_beta   90.00000000
_cell_angle_gamma   90.00000000
_symmetry_Int_Tables_number   1
_chemical_formula_structural   Al4PbS7
_chemical_formula_sum   'Al8 Pb2 S14'
_cell_volume   588.54767568
_cell_formula_units_Z   2
loop_
 _symmetry_equiv_pos_site_id
 _symmetry_equiv_pos_as_xyz
  1  'x, y, z'
loop_
 _atom_site_type_symbol
 _atom_site_label
 _atom_site_symmetry_multiplicity
 _atom_site_fract_x
 _atom_site_fract_y
 _atom_site_fract_z
 _atom_site_occupancy
  Al  Al0  1  0.393455  0.846829  0.122134  1
  Al  Al1  1  0.410515  0.331718  0.249791  1
  Al  Al2  1  0.910515  0.668282  0.250209  1
  Al  Al3  1  0.893453  0.153171  0.377866  1
  Al  Al4  1  0.893453  0.153171  0.622135  1
  Al  Al5  1  0.910515  0.668282  0.749792  1
  Al  Al6  1  0.410515  0.331718  0.750209  1
  Al  Al7  1  0.393455  0.846829  0.877866  1
  Pb  Pb8  1  0.154296  0.416848  0.000000  1
  Pb  Pb9  1  0.654296  0.583152  0.500000  1
  S  S10  1  0.518476  0.677711  0.000000  1
  S  S11  1  0.496699  0.187076  0.120532  1
  S  S12  1  0.030555  0.782199  0.119823  1
  S  S13  1  0.528991  0.678462  0.244822  1
  S  S14  1  0.028992  0.321539  0.255179  1
  S  S15  1  0.530556  0.217802  0.380178  1
  S  S16  1  0.996698  0.812924  0.379467  1
  S  S17  1  0.018475  0.322288  0.500000  1
  S  S18  1  0.996698  0.812924  0.620533  1
  S  S19  1  0.530556  0.217802  0.619823  1
  S  S20  1  0.028992  0.321539  0.744822  1
  S  S21  1  0.528991  0.678462  0.755179  1
  S  S22  1  0.030555  0.782199  0.880178  1
  S  S23  1  0.496699  0.187076  0.879468  1
