# generated using pymatgen
data_Er4MoOs2Ru5
_symmetry_space_group_name_H-M   'P 1'
_cell_length_a   5.47020066
_cell_length_b   5.19865778
_cell_length_c   8.99520400
_cell_angle_alpha   90.00000000
_cell_angle_beta   90.00000000
_cell_angle_gamma   122.46359792
_symmetry_Int_Tables_number   1
_chemical_formula_structural   Er4MoOs2Ru5
_chemical_formula_sum   'Er4 Mo1 Os2 Ru5'
_cell_volume   215.82927638
_cell_formula_units_Z   1
loop_
 _symmetry_equiv_pos_site_id
 _symmetry_equiv_pos_as_xyz
  1  'x, y, z'
loop_
 _atom_site_type_symbol
 _atom_site_label
 _atom_site_symmetry_multiplicity
 _atom_site_fract_x
 _atom_site_fract_y
 _atom_site_fract_z
 _atom_site_occupancy
  Er  Er0  1  0.334216  0.666605  0.431873  1
  Er  Er1  1  0.670480  0.343143  0.563380  1
  Er  Er2  1  0.670480  0.343143  0.936620  1
  Er  Er3  1  0.334216  0.666605  0.068127  1
  Mo  Mo4  1  0.163173  0.327487  0.750000  1
  Os  Os5  1  0.333432  0.167007  0.250000  1
  Os  Os6  1  0.823934  0.651568  0.250000  1
  Ru  Ru7  1  0.169530  0.821584  0.750000  1
  Ru  Ru8  1  0.652501  0.821092  0.750000  1
  Ru  Ru9  1  0.009856  0.012273  0.001222  1
  Ru  Ru10  1  0.828325  0.167221  0.250000  1
  Ru  Ru11  1  0.009856  0.012273  0.498778  1
