# generated using pymatgen
data_Hf16Fe3Os4Rh
_symmetry_space_group_name_H-M   'P 1'
_cell_length_a   8.59016821
_cell_length_b   8.58970347
_cell_length_c   8.59210400
_cell_angle_alpha   60.08340840
_cell_angle_beta   60.08698497
_cell_angle_gamma   60.08021164
_symmetry_Int_Tables_number   1
_chemical_formula_structural   Hf16Fe3Os4Rh
_chemical_formula_sum   'Hf16 Fe3 Os4 Rh1'
_cell_volume   449.14408385
_cell_formula_units_Z   1
loop_
 _symmetry_equiv_pos_site_id
 _symmetry_equiv_pos_as_xyz
  1  'x, y, z'
loop_
 _atom_site_type_symbol
 _atom_site_label
 _atom_site_symmetry_multiplicity
 _atom_site_fract_x
 _atom_site_fract_y
 _atom_site_fract_z
 _atom_site_occupancy
  Hf  Hf0  1  0.184300  0.608108  0.608262  1
  Hf  Hf1  1  0.608100  0.184262  0.608278  1
  Hf  Hf2  1  0.608297  0.608313  0.183888  1
  Hf  Hf3  1  0.599900  0.599930  0.600110  1
  Hf  Hf4  1  0.814675  0.814703  0.185528  1
  Hf  Hf5  1  0.185440  0.185439  0.817442  1
  Hf  Hf6  1  0.814661  0.185480  0.814770  1
  Hf  Hf7  1  0.185474  0.817418  0.185510  1
  Hf  Hf8  1  0.185519  0.814646  0.814724  1
  Hf  Hf9  1  0.817421  0.185462  0.185502  1
  Hf  Hf10  1  0.457098  0.457070  0.034717  1
  Hf  Hf11  1  0.050545  0.050501  0.451810  1
  Hf  Hf12  1  0.457121  0.034719  0.457217  1
  Hf  Hf13  1  0.050737  0.451602  0.050542  1
  Hf  Hf14  1  0.034738  0.457108  0.457235  1
  Hf  Hf15  1  0.451584  0.050733  0.050579  1
  Fe  Fe16  1  0.827999  0.389078  0.388943  1
  Fe  Fe17  1  0.389057  0.828018  0.388936  1
  Fe  Fe18  1  0.389008  0.389026  0.828086  1
  Os  Os19  1  0.500173  0.832729  0.832614  1
  Os  Os20  1  0.832725  0.500180  0.832588  1
  Os  Os21  1  0.832666  0.832645  0.500111  1
  Os  Os22  1  0.832510  0.832562  0.832534  1
  Rh  Rh23  1  0.390250  0.390264  0.390075  1
