# generated using pymatgen
data_Ho3Er5(Sc3Sn4)4
_symmetry_space_group_name_H-M   'P 1'
_cell_length_a   7.71034975
_cell_length_b   7.91287106
_cell_length_c   14.83985800
_cell_angle_alpha   89.99942797
_cell_angle_beta   89.97469737
_cell_angle_gamma   90.00714645
_symmetry_Int_Tables_number   1
_chemical_formula_structural   Ho3Er5(Sc3Sn4)4
_chemical_formula_sum   'Ho3 Er5 Sc12 Sn16'
_cell_volume   905.39453195
_cell_formula_units_Z   1
loop_
 _symmetry_equiv_pos_site_id
 _symmetry_equiv_pos_as_xyz
  1  'x, y, z'
loop_
 _atom_site_type_symbol
 _atom_site_label
 _atom_site_symmetry_multiplicity
 _atom_site_fract_x
 _atom_site_fract_y
 _atom_site_fract_z
 _atom_site_occupancy
  Ho  Ho0  1  0.990039  0.177249  0.405956  1
  Ho  Ho1  1  0.490389  0.322788  0.406080  1
  Ho  Ho2  1  0.509869  0.677438  0.594143  1
  Er  Er3  1  0.989699  0.177890  0.093838  1
  Er  Er4  1  0.010152  0.822418  0.906383  1
  Er  Er5  1  0.510387  0.677730  0.906105  1
  Er  Er6  1  0.010373  0.822800  0.594212  1
  Er  Er7  1  0.489631  0.322531  0.093795  1
  Sc  Sc8  1  0.172796  0.494806  0.750151  1
  Sc  Sc9  1  0.827287  0.505149  0.249738  1
  Sc  Sc10  1  0.327090  0.994812  0.249857  1
  Sc  Sc11  1  0.672836  0.004539  0.750049  1
  Sc  Sc12  1  0.343588  0.160081  0.627242  1
  Sc  Sc13  1  0.656560  0.839626  0.372883  1
  Sc  Sc14  1  0.156153  0.661210  0.372785  1
  Sc  Sc15  1  0.656083  0.839471  0.126733  1
  Sc  Sc16  1  0.843454  0.339038  0.627469  1
  Sc  Sc17  1  0.343557  0.160324  0.872941  1
  Sc  Sc18  1  0.843570  0.339393  0.872851  1
  Sc  Sc19  1  0.156317  0.660417  0.126806  1
  Sn  Sn20  1  0.035622  0.123606  0.750253  1
  Sn  Sn21  1  0.964017  0.876401  0.249594  1
  Sn  Sn22  1  0.464274  0.623634  0.249824  1
  Sn  Sn23  1  0.535642  0.376143  0.750141  1
  Sn  Sn24  1  0.314253  0.848374  0.750458  1
  Sn  Sn25  1  0.685314  0.151523  0.249608  1
  Sn  Sn26  1  0.185601  0.348498  0.249515  1
  Sn  Sn27  1  0.814963  0.652013  0.750320  1
  Sn  Sn28  1  0.185364  0.457177  0.542539  1
  Sn  Sn29  1  0.815029  0.543426  0.457685  1
  Sn  Sn30  1  0.314016  0.956779  0.457676  1
  Sn  Sn31  1  0.813362  0.542752  0.042384  1
  Sn  Sn32  1  0.686299  0.042489  0.542512  1
  Sn  Sn33  1  0.186491  0.457346  0.957547  1
  Sn  Sn34  1  0.686370  0.042794  0.957542  1
  Sn  Sn35  1  0.313553  0.957336  0.042384  1
