# generated using pymatgen
data_Nd6DyYAu4
_symmetry_space_group_name_H-M   'P 1'
_cell_length_a   5.03970700
_cell_length_b   7.34164542
_cell_length_c   9.23845600
_cell_angle_alpha   89.90823020
_cell_angle_beta   90.00000000
_cell_angle_gamma   90.00000000
_symmetry_Int_Tables_number   1
_chemical_formula_structural   Nd6DyYAu4
_chemical_formula_sum   'Nd6 Dy1 Y1 Au4'
_cell_volume   341.82004818
_cell_formula_units_Z   1
loop_
 _symmetry_equiv_pos_site_id
 _symmetry_equiv_pos_as_xyz
  1  'x, y, z'
loop_
 _atom_site_type_symbol
 _atom_site_label
 _atom_site_symmetry_multiplicity
 _atom_site_fract_x
 _atom_site_fract_y
 _atom_site_fract_z
 _atom_site_occupancy
  Nd  Nd0  1  0.250000  0.489361  0.176016  1
  Nd  Nd1  1  0.750000  0.510798  0.823953  1
  Nd  Nd2  1  0.250000  0.991012  0.323806  1
  Nd  Nd3  1  0.750000  0.008807  0.675830  1
  Nd  Nd4  1  0.750000  0.651094  0.412281  1
  Nd  Nd5  1  0.250000  0.348734  0.587863  1
  Dy  Dy6  1  0.750000  0.149446  0.078756  1
  Y  Y7  1  0.250000  0.850523  0.921420  1
  Au  Au8  1  0.250000  0.246269  0.910345  1
  Au  Au9  1  0.750000  0.754334  0.089931  1
  Au  Au10  1  0.250000  0.756933  0.607581  1
  Au  Au11  1  0.750000  0.242690  0.392218  1
