# generated using pymatgen
data_Li8La7ThRh8
_symmetry_space_group_name_H-M   'P 1'
_cell_length_a   9.56039330
_cell_length_b   9.56039180
_cell_length_c   7.23753600
_cell_angle_alpha   90.21814107
_cell_angle_beta   89.78184698
_cell_angle_gamma   130.80816530
_symmetry_Int_Tables_number   1
_chemical_formula_structural   Li8La7ThRh8
_chemical_formula_sum   'Li8 La7 Th1 Rh8'
_cell_volume   500.70046026
_cell_formula_units_Z   1
loop_
 _symmetry_equiv_pos_site_id
 _symmetry_equiv_pos_as_xyz
  1  'x, y, z'
loop_
 _atom_site_type_symbol
 _atom_site_label
 _atom_site_symmetry_multiplicity
 _atom_site_fract_x
 _atom_site_fract_y
 _atom_site_fract_z
 _atom_site_occupancy
  Li  Li0  1  0.849733  0.150267  0.876994  1
  Li  Li1  1  0.849438  0.650464  0.625172  1
  Li  Li2  1  0.349536  0.150562  0.625172  1
  Li  Li3  1  0.149922  0.850078  0.381265  1
  Li  Li4  1  0.150975  0.348369  0.123515  1
  Li  Li5  1  0.651631  0.849025  0.123515  1
  Li  Li6  1  0.651425  0.348575  0.382455  1
  Li  Li7  1  0.348842  0.651158  0.878803  1
  La  La8  1  0.533203  0.964399  0.547255  1
  La  La9  1  0.035601  0.466797  0.547255  1
  La  La10  1  0.534319  0.465681  0.955769  1
  La  La11  1  0.467938  0.036085  0.049482  1
  La  La12  1  0.963915  0.532062  0.049482  1
  La  La13  1  0.965229  0.034771  0.452057  1
  La  La14  1  0.035175  0.964825  0.955893  1
  Th  Th15  1  0.465732  0.534268  0.454661  1
  Rh  Rh16  1  0.810252  0.189748  0.258571  1
  Rh  Rh17  1  0.799961  0.684655  0.251284  1
  Rh  Rh18  1  0.315345  0.200039  0.251284  1
  Rh  Rh19  1  0.186410  0.813590  0.770356  1
  Rh  Rh20  1  0.198726  0.320560  0.731810  1
  Rh  Rh21  1  0.679440  0.801274  0.731810  1
  Rh  Rh22  1  0.689262  0.310738  0.764887  1
  Rh  Rh23  1  0.317991  0.682009  0.269256  1
