# generated using pymatgen
data_Pa4Ga3Tc5
_symmetry_space_group_name_H-M   'P 1'
_cell_length_a   5.38702516
_cell_length_b   5.38702368
_cell_length_c   8.48402700
_cell_angle_alpha   90.00000000
_cell_angle_beta   90.00000000
_cell_angle_gamma   116.23096387
_symmetry_Int_Tables_number   1
_chemical_formula_structural   Pa4Ga3Tc5
_chemical_formula_sum   'Pa4 Ga3 Tc5'
_cell_volume   220.85227777
_cell_formula_units_Z   1
loop_
 _symmetry_equiv_pos_site_id
 _symmetry_equiv_pos_as_xyz
  1  'x, y, z'
loop_
 _atom_site_type_symbol
 _atom_site_label
 _atom_site_symmetry_multiplicity
 _atom_site_fract_x
 _atom_site_fract_y
 _atom_site_fract_z
 _atom_site_occupancy
  Pa  Pa0  1  0.333305  0.666695  0.418421  1
  Pa  Pa1  1  0.656380  0.343620  0.580034  1
  Pa  Pa2  1  0.656380  0.343620  0.919966  1
  Pa  Pa3  1  0.333305  0.666695  0.081579  1
  Ga  Ga4  1  0.001481  0.998519  0.500940  1
  Ga  Ga5  1  0.001481  0.998519  0.999060  1
  Ga  Ga6  1  0.834741  0.165259  0.250000  1
  Tc  Tc7  1  0.821460  0.648786  0.250000  1
  Tc  Tc8  1  0.351214  0.178540  0.250000  1
  Tc  Tc9  1  0.182267  0.817733  0.750000  1
  Tc  Tc10  1  0.166437  0.338452  0.750000  1
  Tc  Tc11  1  0.661548  0.833563  0.750000  1
