# generated using pymatgen
data_Tm8Zn(Si4Pt)3
_symmetry_space_group_name_H-M   'P 1'
_cell_length_a   8.10775200
_cell_length_b   8.10775183
_cell_length_c   8.03878700
_cell_angle_alpha   90.00000000
_cell_angle_beta   90.00000000
_cell_angle_gamma   120.00000071
_symmetry_Int_Tables_number   1
_chemical_formula_structural   Tm8Zn(Si4Pt)3
_chemical_formula_sum   'Tm8 Zn1 Si12 Pt3'
_cell_volume   457.63797256
_cell_formula_units_Z   1
loop_
 _symmetry_equiv_pos_site_id
 _symmetry_equiv_pos_as_xyz
  1  'x, y, z'
loop_
 _atom_site_type_symbol
 _atom_site_label
 _atom_site_symmetry_multiplicity
 _atom_site_fract_x
 _atom_site_fract_y
 _atom_site_fract_z
 _atom_site_occupancy
  Tm  Tm0  1  0.000000  0.000000  0.249363  1
  Tm  Tm1  1  0.000000  0.000000  0.749005  1
  Tm  Tm2  1  0.500647  0.499353  0.248871  1
  Tm  Tm3  1  0.500647  0.001295  0.248871  1
  Tm  Tm4  1  0.998705  0.499353  0.248871  1
  Tm  Tm5  1  0.501848  0.498152  0.751352  1
  Tm  Tm6  1  0.996303  0.498152  0.751352  1
  Tm  Tm7  1  0.501848  0.003697  0.751352  1
  Zn  Zn8  1  0.333333  0.666667  0.504329  1
  Si  Si9  1  0.833804  0.166196  0.500283  1
  Si  Si10  1  0.833804  0.667609  0.500283  1
  Si  Si11  1  0.332391  0.166196  0.500283  1
  Si  Si12  1  0.834674  0.165326  0.000769  1
  Si  Si13  1  0.834674  0.669349  0.000769  1
  Si  Si14  1  0.330651  0.165326  0.000769  1
  Si  Si15  1  0.165512  0.834488  0.999143  1
  Si  Si16  1  0.668977  0.834488  0.999143  1
  Si  Si17  1  0.165512  0.331023  0.999143  1
  Si  Si18  1  0.165678  0.834322  0.498306  1
  Si  Si19  1  0.668644  0.834322  0.498306  1
  Si  Si20  1  0.165678  0.331356  0.498306  1
  Pt  Pt21  1  0.666667  0.333333  0.500798  1
  Pt  Pt22  1  0.666667  0.333333  0.001430  1
  Pt  Pt23  1  0.333333  0.666667  0.998904  1
