# generated using pymatgen
data_Th4Zn10SnGe
_symmetry_space_group_name_H-M   'P 1'
_cell_length_a   8.49514423
_cell_length_b   8.49514405
_cell_length_c   8.98556000
_cell_angle_alpha   90.00000000
_cell_angle_beta   90.00000000
_cell_angle_gamma   149.46613203
_symmetry_Int_Tables_number   1
_chemical_formula_structural   Th4Zn10SnGe
_chemical_formula_sum   'Th4 Zn10 Sn1 Ge1'
_cell_volume   329.45116506
_cell_formula_units_Z   1
loop_
 _symmetry_equiv_pos_site_id
 _symmetry_equiv_pos_as_xyz
  1  'x, y, z'
loop_
 _atom_site_type_symbol
 _atom_site_label
 _atom_site_symmetry_multiplicity
 _atom_site_fract_x
 _atom_site_fract_y
 _atom_site_fract_z
 _atom_site_occupancy
  Th  Th0  1  0.201673  0.798327  0.250000  1
  Th  Th1  1  0.795972  0.204028  0.750000  1
  Th  Th2  1  0.000828  0.999172  0.486440  1
  Th  Th3  1  0.000828  0.999172  0.013560  1
  Zn  Zn4  1  0.815445  0.184555  0.392677  1
  Zn  Zn5  1  0.183594  0.816406  0.605218  1
  Zn  Zn6  1  0.815445  0.184555  0.107323  1
  Zn  Zn7  1  0.183594  0.816406  0.894782  1
  Zn  Zn8  1  0.653622  0.346378  0.477975  1
  Zn  Zn9  1  0.343247  0.656753  0.515759  1
  Zn  Zn10  1  0.653622  0.346378  0.022025  1
  Zn  Zn11  1  0.343247  0.656753  0.984241  1
  Zn  Zn12  1  0.400760  0.599240  0.250000  1
  Zn  Zn13  1  0.605770  0.394230  0.750000  1
  Sn  Sn14  1  0.446497  0.553503  0.750000  1
  Ge  Ge15  1  0.555855  0.444145  0.250000  1
