# generated using pymatgen
data_YbGa2Ru2C
_symmetry_space_group_name_H-M   'P 1'
_cell_length_a   4.08957500
_cell_length_b   4.08957500
_cell_length_c   5.61621700
_cell_angle_alpha   90.00000000
_cell_angle_beta   90.00000000
_cell_angle_gamma   90.00000000
_symmetry_Int_Tables_number   1
_chemical_formula_structural   YbGa2Ru2C
_chemical_formula_sum   'Yb1 Ga2 Ru2 C1'
_cell_volume   93.92911583
_cell_formula_units_Z   1
loop_
 _symmetry_equiv_pos_site_id
 _symmetry_equiv_pos_as_xyz
  1  'x, y, z'
loop_
 _atom_site_type_symbol
 _atom_site_label
 _atom_site_symmetry_multiplicity
 _atom_site_fract_x
 _atom_site_fract_y
 _atom_site_fract_z
 _atom_site_occupancy
  Yb  Yb0  1  0.000000  0.000000  0.499999  1
  Ga  Ga1  1  0.500000  0.500000  0.280688  1
  Ga  Ga2  1  0.500000  0.500000  0.719312  1
  Ru  Ru3  1  0.500000  0.000000  0.000000  1
  Ru  Ru4  1  0.000000  0.500000  0.000000  1
  C  C5  1  0.000000  0.000000  0.000000  1
