# generated using pymatgen
data_Sc8Al7Ga8Ir7
_symmetry_space_group_name_H-M   'P 1'
_cell_length_a   8.89121258
_cell_length_b   8.88821537
_cell_length_c   8.88821600
_cell_angle_alpha   120.27644570
_cell_angle_beta   119.75657333
_cell_angle_gamma   89.96242636
_symmetry_Int_Tables_number   1
_chemical_formula_structural   Sc8Al7Ga8Ir7
_chemical_formula_sum   'Sc8 Al7 Ga8 Ir7'
_cell_volume   496.58292279
_cell_formula_units_Z   1
loop_
 _symmetry_equiv_pos_site_id
 _symmetry_equiv_pos_as_xyz
  1  'x, y, z'
loop_
 _atom_site_type_symbol
 _atom_site_label
 _atom_site_symmetry_multiplicity
 _atom_site_fract_x
 _atom_site_fract_y
 _atom_site_fract_z
 _atom_site_occupancy
  Sc  Sc0  1  0.792077  0.284478  0.066783  1
  Sc  Sc1  1  0.216588  0.282918  0.490912  1
  Sc  Sc2  1  0.207488  0.709153  0.498335  1
  Sc  Sc3  1  0.216588  0.725677  0.933670  1
  Sc  Sc4  1  0.792077  0.725293  0.507598  1
  Sc  Sc5  1  0.776468  0.275968  0.500500  1
  Sc  Sc6  1  0.376661  0.122906  0.746074  1
  Sc  Sc7  1  0.376661  0.630587  0.253755  1
  Al  Al8  1  0.480950  0.659700  0.821249  1
  Al  Al9  1  0.379521  0.124076  0.255446  1
  Al  Al10  1  0.868923  0.123932  0.744991  1
  Al  Al11  1  0.619648  0.873807  0.253155  1
  Al  Al12  1  0.619648  0.366493  0.745841  1
  Al  Al13  1  0.619392  0.876734  0.742657  1
  Al  Al14  1  0.132686  0.876632  0.256055  1
  Ga  Ga15  1  0.994567  0.494178  0.500389  1
  Ga  Ga16  1  0.156894  0.341907  0.185211  1
  Ga  Ga17  1  0.156894  0.971683  0.814989  1
  Ga  Ga18  1  0.152874  0.347144  0.805730  1
  Ga  Ga19  1  0.541857  0.346999  0.194859  1
  Ga  Ga20  1  0.843289  0.653493  0.809224  1
  Ga  Ga21  1  0.843289  0.034066  0.189795  1
  Ga  Ga22  1  0.840468  0.656415  0.184054  1
  Ir  Ir23  1  0.993536  0.998967  0.497827  1
  Ir  Ir24  1  0.500115  0.995326  0.003213  1
  Ir  Ir25  1  0.501088  0.503279  0.997808  1
  Ir  Ir26  1  0.500115  0.496901  0.504789  1
  Ir  Ir27  1  0.993536  0.495707  0.994568  1
  Ir  Ir28  1  0.000224  0.999949  0.000274  1
  Ir  Ir29  1  0.505876  0.005632  0.500244  1
