# generated using pymatgen
data_Zr10CuSb6As
_symmetry_space_group_name_H-M   'P 1'
_cell_length_a   8.66544100
_cell_length_b   8.66544158
_cell_length_c   5.87609600
_cell_angle_alpha   90.00000000
_cell_angle_beta   90.00000000
_cell_angle_gamma   119.99999397
_symmetry_Int_Tables_number   1
_chemical_formula_structural   Zr10CuSb6As
_chemical_formula_sum   'Zr10 Cu1 Sb6 As1'
_cell_volume   382.12100289
_cell_formula_units_Z   1
loop_
 _symmetry_equiv_pos_site_id
 _symmetry_equiv_pos_as_xyz
  1  'x, y, z'
loop_
 _atom_site_type_symbol
 _atom_site_label
 _atom_site_symmetry_multiplicity
 _atom_site_fract_x
 _atom_site_fract_y
 _atom_site_fract_z
 _atom_site_occupancy
  Zr  Zr0  1  0.666667  0.333333  0.000000  1
  Zr  Zr1  1  0.333333  0.666667  0.000000  1
  Zr  Zr2  1  0.333333  0.666667  0.500000  1
  Zr  Zr3  1  0.666667  0.333333  0.500000  1
  Zr  Zr4  1  0.735960  0.735960  0.750266  1
  Zr  Zr5  1  0.264040  0.000000  0.750266  1
  Zr  Zr6  1  0.000000  0.264040  0.750266  1
  Zr  Zr7  1  0.264040  0.264040  0.249734  1
  Zr  Zr8  1  0.735960  0.000000  0.249734  1
  Zr  Zr9  1  0.000000  0.735960  0.249734  1
  Cu  Cu10  1  0.000000  0.000000  0.000000  1
  Sb  Sb11  1  0.390463  0.390463  0.753295  1
  Sb  Sb12  1  0.609537  0.000000  0.753295  1
  Sb  Sb13  1  0.000000  0.609537  0.753295  1
  Sb  Sb14  1  0.609537  0.609537  0.246705  1
  Sb  Sb15  1  0.390463  0.000000  0.246705  1
  Sb  Sb16  1  0.000000  0.390463  0.246705  1
  As  As17  1  0.000000  0.000000  0.500000  1
