# generated using pymatgen
data_Ho4Ga2B4Ir7Ru3
_symmetry_space_group_name_H-M   'P 1'
_cell_length_a   9.63824349
_cell_length_b   9.62162349
_cell_length_c   3.09554800
_cell_angle_alpha   90.00000000
_cell_angle_beta   90.00000000
_cell_angle_gamma   89.96342677
_symmetry_Int_Tables_number   1
_chemical_formula_structural   Ho4Ga2B4Ir7Ru3
_chemical_formula_sum   'Ho4 Ga2 B4 Ir7 Ru3'
_cell_volume   287.06728777
_cell_formula_units_Z   1
loop_
 _symmetry_equiv_pos_site_id
 _symmetry_equiv_pos_as_xyz
  1  'x, y, z'
loop_
 _atom_site_type_symbol
 _atom_site_label
 _atom_site_symmetry_multiplicity
 _atom_site_fract_x
 _atom_site_fract_y
 _atom_site_fract_z
 _atom_site_occupancy
  Ho  Ho0  1  0.823784  0.328613  0.000000  1
  Ho  Ho1  1  0.174136  0.674978  0.000000  1
  Ho  Ho2  1  0.325581  0.174681  0.000000  1
  Ho  Ho3  1  0.675667  0.821769  0.000000  1
  Ga  Ga4  1  0.503543  0.500848  0.000000  1
  Ga  Ga5  1  0.999692  0.999360  0.000000  1
  B  B6  1  0.621175  0.121670  0.000000  1
  B  B7  1  0.378518  0.878129  0.000000  1
  B  B8  1  0.121000  0.379285  0.000000  1
  B  B9  1  0.875057  0.620495  0.000000  1
  Ir  Ir10  1  0.282675  0.430593  0.500000  1
  Ir  Ir11  1  0.218369  0.931516  0.500000  1
  Ir  Ir12  1  0.781346  0.069317  0.500000  1
  Ir  Ir13  1  0.429405  0.718647  0.500000  1
  Ir  Ir14  1  0.568668  0.280808  0.500000  1
  Ir  Ir15  1  0.069630  0.218189  0.500000  1
  Ir  Ir16  1  0.931496  0.781752  0.500000  1
  Ru  Ru17  1  0.500510  0.998986  0.500000  1
  Ru  Ru18  1  0.001342  0.500652  0.500000  1
  Ru  Ru19  1  0.718405  0.569712  0.500000  1
