# generated using pymatgen
data_Ce2Ho2TmZn2Ru3
_symmetry_space_group_name_H-M   'P 1'
_cell_length_a   8.36713616
_cell_length_b   8.33616549
_cell_length_c   8.37315425
_cell_angle_alpha   109.93848655
_cell_angle_beta   110.44193765
_cell_angle_gamma   110.05248998
_symmetry_Int_Tables_number   1
_chemical_formula_structural   Ce2Ho2TmZn2Ru3
_chemical_formula_sum   'Ce4 Ho4 Tm2 Zn4 Ru6'
_cell_volume   438.01497881
_cell_formula_units_Z   2
loop_
 _symmetry_equiv_pos_site_id
 _symmetry_equiv_pos_as_xyz
  1  'x, y, z'
loop_
 _atom_site_type_symbol
 _atom_site_label
 _atom_site_symmetry_multiplicity
 _atom_site_fract_x
 _atom_site_fract_y
 _atom_site_fract_z
 _atom_site_occupancy
  Ce  Ce0  1  0.501320  0.992382  0.709321  1
  Ce  Ce1  1  0.256370  0.202068  0.945611  1
  Ce  Ce2  1  0.937716  0.245461  0.191469  1
  Ce  Ce3  1  0.196307  0.940476  0.246593  1
  Ho  Ho4  1  0.759101  0.321139  0.569538  1
  Ho  Ho5  1  0.568265  0.749847  0.311160  1
  Ho  Ho6  1  0.731438  0.509064  0.997712  1
  Ho  Ho7  1  0.995299  0.728727  0.508866  1
  Tm  Tm8  1  0.771257  0.772287  0.772459  1
  Tm  Tm9  1  0.316100  0.567439  0.751354  1
  Zn  Zn10  1  0.417274  0.416428  0.420342  1
  Zn  Zn11  1  0.094435  0.497654  0.008385  1
  Zn  Zn12  1  0.001436  0.092617  0.501976  1
  Zn  Zn13  1  0.496603  0.000303  0.087728  1
  Ru  Ru14  1  0.878424  0.109337  0.750043  1
  Ru  Ru15  1  0.752754  0.892330  0.110921  1
  Ru  Ru16  1  0.111391  0.753561  0.896927  1
  Ru  Ru17  1  0.237886  0.617449  0.390835  1
  Ru  Ru18  1  0.376335  0.217501  0.605762  1
  Ru  Ru19  1  0.600290  0.373931  0.222999  1
