# generated using pymatgen
data_Sc8Nb11ReSi16
_symmetry_space_group_name_H-M   'P 1'
_cell_length_a   6.67926501
_cell_length_b   6.89351380
_cell_length_c   13.11499800
_cell_angle_alpha   90.00000000
_cell_angle_beta   90.00000000
_cell_angle_gamma   89.97146888
_symmetry_Int_Tables_number   1
_chemical_formula_structural   Sc8Nb11ReSi16
_chemical_formula_sum   'Sc8 Nb11 Re1 Si16'
_cell_volume   603.86171917
_cell_formula_units_Z   1
loop_
 _symmetry_equiv_pos_site_id
 _symmetry_equiv_pos_as_xyz
  1  'x, y, z'
loop_
 _atom_site_type_symbol
 _atom_site_label
 _atom_site_symmetry_multiplicity
 _atom_site_fract_x
 _atom_site_fract_y
 _atom_site_fract_z
 _atom_site_occupancy
  Sc  Sc0  1  0.497517  0.674924  0.594066  1
  Sc  Sc1  1  0.000715  0.826389  0.905901  1
  Sc  Sc2  1  0.498967  0.325934  0.094842  1
  Sc  Sc3  1  0.998847  0.174511  0.404954  1
  Sc  Sc4  1  0.498967  0.325934  0.405158  1
  Sc  Sc5  1  0.998847  0.174511  0.095046  1
  Sc  Sc6  1  0.497517  0.674924  0.905934  1
  Sc  Sc7  1  0.000715  0.826389  0.594099  1
  Nb  Nb8  1  0.665264  0.170958  0.626199  1
  Nb  Nb9  1  0.164993  0.328768  0.873525  1
  Nb  Nb10  1  0.336432  0.826457  0.124613  1
  Nb  Nb11  1  0.836521  0.672696  0.376470  1
  Nb  Nb12  1  0.336432  0.826457  0.375387  1
  Nb  Nb13  1  0.836521  0.672696  0.123530  1
  Nb  Nb14  1  0.665264  0.170958  0.873801  1
  Nb  Nb15  1  0.164993  0.328768  0.626475  1
  Nb  Nb16  1  0.338467  0.004431  0.750000  1
  Nb  Nb17  1  0.162090  0.505208  0.250000  1
  Nb  Nb18  1  0.662124  0.994911  0.250000  1
  Re  Re19  1  0.838146  0.497209  0.750000  1
  Si  Si20  1  0.669174  0.967312  0.460067  1
  Si  Si21  1  0.169492  0.533256  0.039078  1
  Si  Si22  1  0.331171  0.033984  0.960112  1
  Si  Si23  1  0.831018  0.466782  0.543060  1
  Si  Si24  1  0.331171  0.033984  0.539888  1
  Si  Si25  1  0.831018  0.466782  0.956940  1
  Si  Si26  1  0.669174  0.967312  0.039933  1
  Si  Si27  1  0.169492  0.533256  0.460922  1
  Si  Si28  1  0.468275  0.390457  0.750000  1
  Si  Si29  1  0.961110  0.112286  0.750000  1
  Si  Si30  1  0.539669  0.613654  0.250000  1
  Si  Si31  1  0.038349  0.886818  0.250000  1
  Si  Si32  1  0.705828  0.853161  0.750000  1
  Si  Si33  1  0.197859  0.637909  0.750000  1
  Si  Si34  1  0.293875  0.137667  0.250000  1
  Si  Si35  1  0.793988  0.362350  0.250000  1
