# generated using pymatgen
data_NaHf2PaPd12
_symmetry_space_group_name_H-M   'P 1'
_cell_length_a   5.72747200
_cell_length_b   5.72747178
_cell_length_c   9.28840400
_cell_angle_alpha   90.00000000
_cell_angle_beta   90.00000000
_cell_angle_gamma   120.00000126
_symmetry_Int_Tables_number   1
_chemical_formula_structural   NaHf2PaPd12
_chemical_formula_sum   'Na1 Hf2 Pa1 Pd12'
_cell_volume   263.87464129
_cell_formula_units_Z   1
loop_
 _symmetry_equiv_pos_site_id
 _symmetry_equiv_pos_as_xyz
  1  'x, y, z'
loop_
 _atom_site_type_symbol
 _atom_site_label
 _atom_site_symmetry_multiplicity
 _atom_site_fract_x
 _atom_site_fract_y
 _atom_site_fract_z
 _atom_site_occupancy
  Na  Na0  1  0.333333  0.666667  0.248971  1
  Hf  Hf1  1  0.000000  0.000000  0.002486  1
  Hf  Hf2  1  0.666667  0.333333  0.756588  1
  Pa  Pa3  1  0.000000  0.000000  0.489208  1
  Pd  Pd4  1  0.501850  0.498150  0.503768  1
  Pd  Pd5  1  0.501850  0.003699  0.503768  1
  Pd  Pd6  1  0.996301  0.498150  0.503768  1
  Pd  Pd7  1  0.500860  0.499140  0.997490  1
  Pd  Pd8  1  0.500860  0.001721  0.997490  1
  Pd  Pd9  1  0.998279  0.499140  0.997490  1
  Pd  Pd10  1  0.830390  0.169610  0.248606  1
  Pd  Pd11  1  0.830390  0.660779  0.248606  1
  Pd  Pd12  1  0.339221  0.169610  0.248606  1
  Pd  Pd13  1  0.168111  0.831889  0.751052  1
  Pd  Pd14  1  0.168111  0.336224  0.751052  1
  Pd  Pd15  1  0.663776  0.831889  0.751052  1
