# generated using pymatgen
data_Tm3AuO7
_symmetry_space_group_name_H-M   'P 1'
_cell_length_a   6.41542799
_cell_length_b   6.41542889
_cell_length_c   7.33683000
_cell_angle_alpha   90.00000000
_cell_angle_beta   90.00000000
_cell_angle_gamma   108.69572026
_symmetry_Int_Tables_number   1
_chemical_formula_structural   Tm3AuO7
_chemical_formula_sum   'Tm6 Au2 O14'
_cell_volume   286.03367558
_cell_formula_units_Z   2
loop_
 _symmetry_equiv_pos_site_id
 _symmetry_equiv_pos_as_xyz
  1  'x, y, z'
loop_
 _atom_site_type_symbol
 _atom_site_label
 _atom_site_symmetry_multiplicity
 _atom_site_fract_x
 _atom_site_fract_y
 _atom_site_fract_z
 _atom_site_occupancy
  Tm  Tm0  1  0.002139  0.471131  0.748086  1
  Tm  Tm1  1  0.997861  0.528869  0.248086  1
  Tm  Tm2  1  0.528869  0.997861  0.751914  1
  Tm  Tm3  1  0.471131  0.002139  0.251914  1
  Tm  Tm4  1  0.507020  0.507020  0.500000  1
  Tm  Tm5  1  0.492980  0.492980  0.000000  1
  Au  Au6  1  0.998996  0.998996  0.500000  1
  Au  Au7  1  0.001004  0.001004  0.000000  1
  O  O8  1  0.639281  0.360719  0.750000  1
  O  O9  1  0.360719  0.639281  0.250000  1
  O  O10  1  0.916754  0.083246  0.750000  1
  O  O11  1  0.083246  0.916754  0.250000  1
  O  O12  1  0.913768  0.664923  0.523443  1
  O  O13  1  0.086232  0.335077  0.023443  1
  O  O14  1  0.335077  0.086232  0.976557  1
  O  O15  1  0.664923  0.913768  0.476557  1
  O  O16  1  0.367393  0.632607  0.750000  1
  O  O17  1  0.632607  0.367393  0.250000  1
  O  O18  1  0.918916  0.668239  0.973461  1
  O  O19  1  0.081084  0.331761  0.473461  1
  O  O20  1  0.331761  0.081084  0.526539  1
  O  O21  1  0.668239  0.918916  0.026539  1
