# generated using pymatgen
data_La2SbPd14
_symmetry_space_group_name_H-M   'P 1'
_cell_length_a   9.08016900
_cell_length_b   9.08016900
_cell_length_c   7.37570800
_cell_angle_alpha   90.00000000
_cell_angle_beta   90.00000000
_cell_angle_gamma   90.00000000
_symmetry_Int_Tables_number   1
_chemical_formula_structural   La2SbPd14
_chemical_formula_sum   'La4 Sb2 Pd28'
_cell_volume   608.12320860
_cell_formula_units_Z   2
loop_
 _symmetry_equiv_pos_site_id
 _symmetry_equiv_pos_as_xyz
  1  'x, y, z'
loop_
 _atom_site_type_symbol
 _atom_site_label
 _atom_site_symmetry_multiplicity
 _atom_site_fract_x
 _atom_site_fract_y
 _atom_site_fract_z
 _atom_site_occupancy
  La  La0  1  0.500000  0.000000  0.937075  1
  La  La1  1  0.000000  0.500000  0.062925  1
  La  La2  1  0.000000  0.000000  0.500000  1
  La  La3  1  0.500000  0.500000  0.500000  1
  Sb  Sb4  1  0.500000  0.000000  0.452649  1
  Sb  Sb5  1  0.000000  0.500000  0.547351  1
  Pd  Pd6  1  0.323708  0.823708  0.631852  1
  Pd  Pd7  1  0.323708  0.176292  0.631852  1
  Pd  Pd8  1  0.676292  0.823708  0.631852  1
  Pd  Pd9  1  0.676292  0.176292  0.631852  1
  Pd  Pd10  1  0.176292  0.676292  0.368148  1
  Pd  Pd11  1  0.176292  0.323708  0.368148  1
  Pd  Pd12  1  0.823708  0.676292  0.368148  1
  Pd  Pd13  1  0.823708  0.323708  0.368148  1
  Pd  Pd14  1  0.500000  0.760218  0.244387  1
  Pd  Pd15  1  0.500000  0.239782  0.244387  1
  Pd  Pd16  1  0.260218  0.000000  0.244387  1
  Pd  Pd17  1  0.739782  0.000000  0.244387  1
  Pd  Pd18  1  0.000000  0.739782  0.755613  1
  Pd  Pd19  1  0.000000  0.260218  0.755613  1
  Pd  Pd20  1  0.239782  0.500000  0.755613  1
  Pd  Pd21  1  0.760218  0.500000  0.755613  1
  Pd  Pd22  1  0.500000  0.348976  0.858480  1
  Pd  Pd23  1  0.500000  0.651024  0.858480  1
  Pd  Pd24  1  0.848976  0.000000  0.858480  1
  Pd  Pd25  1  0.151024  0.000000  0.858480  1
  Pd  Pd26  1  0.000000  0.151024  0.141520  1
  Pd  Pd27  1  0.000000  0.848976  0.141520  1
  Pd  Pd28  1  0.651024  0.500000  0.141520  1
  Pd  Pd29  1  0.348976  0.500000  0.141520  1
  Pd  Pd30  1  0.250000  0.750000  0.000000  1
  Pd  Pd31  1  0.250000  0.250000  0.000000  1
  Pd  Pd32  1  0.750000  0.750000  0.000000  1
  Pd  Pd33  1  0.750000  0.250000  0.000000  1
