# generated using pymatgen
data_SrSm6NiBr12
_symmetry_space_group_name_H-M   'P 1'
_cell_length_a   9.40973168
_cell_length_b   9.41044838
_cell_length_c   9.41252206
_cell_angle_alpha   106.13801967
_cell_angle_beta   106.18754768
_cell_angle_gamma   106.11639963
_symmetry_Int_Tables_number   1
_chemical_formula_structural   SrSm6NiBr12
_chemical_formula_sum   'Sr1 Sm6 Ni1 Br12'
_cell_volume   709.65413557
_cell_formula_units_Z   1
loop_
 _symmetry_equiv_pos_site_id
 _symmetry_equiv_pos_as_xyz
  1  'x, y, z'
loop_
 _atom_site_type_symbol
 _atom_site_label
 _atom_site_symmetry_multiplicity
 _atom_site_fract_x
 _atom_site_fract_y
 _atom_site_fract_z
 _atom_site_occupancy
  Sr  Sr0  1  0.500000  0.500000  0.500000  1
  Sm  Sm1  1  0.100078  0.306099  0.019752  1
  Sm  Sm2  1  0.306698  0.019802  0.100581  1
  Sm  Sm3  1  0.019599  0.100353  0.306261  1
  Sm  Sm4  1  0.980400  0.899647  0.693739  1
  Sm  Sm5  1  0.693302  0.980196  0.899419  1
  Sm  Sm6  1  0.899923  0.693901  0.980249  1
  Ni  Ni7  1  0.000000  0.000000  0.999999  1
  Br  Br8  1  0.219104  0.678824  0.072016  1
  Br  Br9  1  0.447171  0.365955  0.146304  1
  Br  Br10  1  0.678622  0.071949  0.218733  1
  Br  Br11  1  0.928025  0.781112  0.321072  1
  Br  Br12  1  0.146304  0.447347  0.365788  1
  Br  Br13  1  0.365683  0.146157  0.447249  1
  Br  Br14  1  0.634318  0.853843  0.552751  1
  Br  Br15  1  0.853696  0.552653  0.634212  1
  Br  Br16  1  0.071975  0.218889  0.678928  1
  Br  Br17  1  0.321378  0.928052  0.781267  1
  Br  Br18  1  0.552829  0.634045  0.853696  1
  Br  Br19  1  0.780896  0.321178  0.927984  1
