# generated using pymatgen
data_La2Tb2YSi4
_symmetry_space_group_name_H-M   'P 1'
_cell_length_a   7.81481800
_cell_length_b   7.81481800
_cell_length_c   14.59907800
_cell_angle_alpha   90.00000000
_cell_angle_beta   90.00000000
_cell_angle_gamma   90.00000000
_symmetry_Int_Tables_number   1
_chemical_formula_structural   La2Tb2YSi4
_chemical_formula_sum   'La8 Tb8 Y4 Si16'
_cell_volume   891.58584563
_cell_formula_units_Z   4
loop_
 _symmetry_equiv_pos_site_id
 _symmetry_equiv_pos_as_xyz
  1  'x, y, z'
loop_
 _atom_site_type_symbol
 _atom_site_label
 _atom_site_symmetry_multiplicity
 _atom_site_fract_x
 _atom_site_fract_y
 _atom_site_fract_z
 _atom_site_occupancy
  La  La0  1  0.988257  0.636029  0.044024  1
  La  La1  1  0.011743  0.363971  0.544024  1
  La  La2  1  0.636029  0.988257  0.955976  1
  La  La3  1  0.136029  0.511743  0.794024  1
  La  La4  1  0.863971  0.488257  0.294024  1
  La  La5  1  0.511743  0.136029  0.205976  1
  La  La6  1  0.488257  0.863971  0.705976  1
  La  La7  1  0.363971  0.011743  0.455976  1
  Tb  Tb8  1  0.364607  0.488931  0.374350  1
  Tb  Tb9  1  0.864607  0.011069  0.375650  1
  Tb  Tb10  1  0.988931  0.135393  0.124350  1
  Tb  Tb11  1  0.011069  0.864607  0.624350  1
  Tb  Tb12  1  0.635393  0.511069  0.874350  1
  Tb  Tb13  1  0.488931  0.364607  0.625650  1
  Tb  Tb14  1  0.511069  0.635393  0.125650  1
  Tb  Tb15  1  0.135393  0.988931  0.875650  1
  Y  Y16  1  0.685363  0.685363  0.500000  1
  Y  Y17  1  0.814637  0.185363  0.750000  1
  Y  Y18  1  0.185363  0.814637  0.250000  1
  Y  Y19  1  0.314637  0.314637  0.000000  1
  Si  Si20  1  0.069820  0.713885  0.437579  1
  Si  Si21  1  0.930180  0.286115  0.937579  1
  Si  Si22  1  0.713885  0.069820  0.562421  1
  Si  Si23  1  0.213886  0.430180  0.187579  1
  Si  Si24  1  0.786115  0.569820  0.687579  1
  Si  Si25  1  0.430180  0.213886  0.812421  1
  Si  Si26  1  0.569820  0.786115  0.312421  1
  Si  Si27  1  0.286115  0.930180  0.062421  1
  Si  Si28  1  0.841323  0.800346  0.805099  1
  Si  Si29  1  0.158677  0.199654  0.305099  1
  Si  Si30  1  0.800346  0.841323  0.194901  1
  Si  Si31  1  0.300346  0.658677  0.555099  1
  Si  Si32  1  0.699654  0.341323  0.055099  1
  Si  Si33  1  0.658677  0.300346  0.444901  1
  Si  Si34  1  0.341323  0.699654  0.944901  1
  Si  Si35  1  0.199654  0.158677  0.694901  1
