# generated using pymatgen
data_SeS27
_symmetry_space_group_name_H-M   'P 1'
_cell_length_a   15.03677036
_cell_length_b   15.03677087
_cell_length_c   15.03676923
_cell_angle_alpha   118.69544041
_cell_angle_beta   118.69544493
_cell_angle_gamma   118.69543928
_symmetry_Int_Tables_number   1
_chemical_formula_structural   SeS27
_chemical_formula_sum   'Se1 S27'
_cell_volume   1002.59414782
_cell_formula_units_Z   1
loop_
 _symmetry_equiv_pos_site_id
 _symmetry_equiv_pos_as_xyz
  1  'x, y, z'
loop_
 _atom_site_type_symbol
 _atom_site_label
 _atom_site_symmetry_multiplicity
 _atom_site_fract_x
 _atom_site_fract_y
 _atom_site_fract_z
 _atom_site_occupancy
  Se  Se0  1  0.938280  0.938280  0.938280  1
  S  S1  1  0.802248  0.520739  0.520739  1
  S  S2  1  0.520739  0.520739  0.802248  1
  S  S3  1  0.520739  0.802248  0.520739  1
  S  S4  1  0.245733  0.375513  0.634830  1
  S  S5  1  0.350724  0.951139  0.350724  1
  S  S6  1  0.350724  0.350724  0.951139  1
  S  S7  1  0.951139  0.350724  0.350724  1
  S  S8  1  0.126456  0.739745  0.256204  1
  S  S9  1  0.256204  0.126456  0.739745  1
  S  S10  1  0.739745  0.256204  0.126456  1
  S  S11  1  0.739745  0.126456  0.256204  1
  S  S12  1  0.256204  0.739745  0.126456  1
  S  S13  1  0.126456  0.256204  0.739745  1
  S  S14  1  0.346803  0.879308  0.529884  1
  S  S15  1  0.529884  0.346803  0.879308  1
  S  S16  1  0.879308  0.529884  0.346803  1
  S  S17  1  0.879308  0.346803  0.529884  1
  S  S18  1  0.529884  0.879308  0.346803  1
  S  S19  1  0.346803  0.529884  0.879308  1
  S  S20  1  0.245733  0.634830  0.375513  1
  S  S21  1  0.375513  0.245733  0.634830  1
  S  S22  1  0.634830  0.375513  0.245733  1
  S  S23  1  0.634830  0.245733  0.375513  1
  S  S24  1  0.375513  0.634830  0.245733  1
  S  S25  1  0.848198  0.986777  0.986777  1
  S  S26  1  0.986777  0.986777  0.848198  1
  S  S27  1  0.986777  0.848198  0.986777  1
