# generated using pymatgen
data_Rb6DyTe4Br
_symmetry_space_group_name_H-M   'P 1'
_cell_length_a   12.01818500
_cell_length_b   12.01818430
_cell_length_c   8.78145600
_cell_angle_alpha   90.00000000
_cell_angle_beta   90.00000000
_cell_angle_gamma   119.99999917
_symmetry_Int_Tables_number   1
_chemical_formula_structural   Rb6DyTe4Br
_chemical_formula_sum   'Rb12 Dy2 Te8 Br2'
_cell_volume   1098.43638366
_cell_formula_units_Z   2
loop_
 _symmetry_equiv_pos_site_id
 _symmetry_equiv_pos_as_xyz
  1  'x, y, z'
loop_
 _atom_site_type_symbol
 _atom_site_label
 _atom_site_symmetry_multiplicity
 _atom_site_fract_x
 _atom_site_fract_y
 _atom_site_fract_z
 _atom_site_occupancy
  Rb  Rb0  1  0.125827  0.874173  0.510646  1
  Rb  Rb1  1  0.748344  0.874173  0.510646  1
  Rb  Rb2  1  0.941335  0.470667  0.319679  1
  Rb  Rb3  1  0.529333  0.470667  0.319679  1
  Rb  Rb4  1  0.874173  0.748344  0.010646  1
  Rb  Rb5  1  0.251656  0.125827  0.010646  1
  Rb  Rb6  1  0.529333  0.058665  0.319679  1
  Rb  Rb7  1  0.125827  0.251656  0.510646  1
  Rb  Rb8  1  0.874173  0.125827  0.010646  1
  Rb  Rb9  1  0.058665  0.529333  0.819679  1
  Rb  Rb10  1  0.470667  0.941335  0.819679  1
  Rb  Rb11  1  0.470667  0.529333  0.819679  1
  Dy  Dy12  1  0.666667  0.333333  0.715245  1
  Dy  Dy13  1  0.333333  0.666667  0.215245  1
  Te  Te14  1  0.400501  0.200250  0.604821  1
  Te  Te15  1  0.599499  0.799750  0.104821  1
  Te  Te16  1  0.666667  0.333333  0.050882  1
  Te  Te17  1  0.799750  0.599499  0.604821  1
  Te  Te18  1  0.200250  0.400501  0.104821  1
  Te  Te19  1  0.333333  0.666667  0.550882  1
  Te  Te20  1  0.200250  0.799750  0.104821  1
  Te  Te21  1  0.799750  0.200250  0.604821  1
  Br  Br22  1  0.000000  0.000000  0.269036  1
  Br  Br23  1  0.000000  0.000000  0.769036  1
