# generated using pymatgen
data_DyHo2Tm17(CoSb2)4
_symmetry_space_group_name_H-M   'P 1'
_cell_length_a   7.77253482
_cell_length_b   8.70985400
_cell_length_c   12.04461101
_cell_angle_alpha   90.00000000
_cell_angle_beta   90.02466845
_cell_angle_gamma   90.00000000
_symmetry_Int_Tables_number   1
_chemical_formula_structural   DyHo2Tm17(CoSb2)4
_chemical_formula_sum   'Dy1 Ho2 Tm17 Co4 Sb8'
_cell_volume   815.39170628
_cell_formula_units_Z   1
loop_
 _symmetry_equiv_pos_site_id
 _symmetry_equiv_pos_as_xyz
  1  'x, y, z'
loop_
 _atom_site_type_symbol
 _atom_site_label
 _atom_site_symmetry_multiplicity
 _atom_site_fract_x
 _atom_site_fract_y
 _atom_site_fract_z
 _atom_site_occupancy
  Dy  Dy0  1  0.121751  0.250000  0.192862  1
  Ho  Ho1  1  0.878759  0.750000  0.807413  1
  Ho  Ho2  1  0.378798  0.250000  0.692384  1
  Tm  Tm3  1  0.155609  0.750000  0.203481  1
  Tm  Tm4  1  0.344587  0.750000  0.703347  1
  Tm  Tm5  1  0.844638  0.250000  0.796712  1
  Tm  Tm6  1  0.655294  0.250000  0.296643  1
  Tm  Tm7  1  0.450521  0.750000  0.998075  1
  Tm  Tm8  1  0.049216  0.750000  0.498216  1
  Tm  Tm9  1  0.549338  0.250000  0.001988  1
  Tm  Tm10  1  0.949963  0.250000  0.501780  1
  Tm  Tm11  1  0.620344  0.750000  0.308451  1
  Tm  Tm12  1  0.823048  0.536697  0.065137  1
  Tm  Tm13  1  0.677003  0.962982  0.564839  1
  Tm  Tm14  1  0.176895  0.036646  0.934701  1
  Tm  Tm15  1  0.323564  0.464376  0.434574  1
  Tm  Tm16  1  0.176895  0.463354  0.934701  1
  Tm  Tm17  1  0.323564  0.035624  0.434574  1
  Tm  Tm18  1  0.823048  0.963303  0.065137  1
  Tm  Tm19  1  0.677003  0.537018  0.564839  1
  Co  Co20  1  0.433531  0.750000  0.491086  1
  Co  Co21  1  0.066784  0.750000  0.991162  1
  Co  Co22  1  0.566586  0.250000  0.508608  1
  Co  Co23  1  0.932945  0.250000  0.008761  1
  Sb  Sb24  1  0.928791  0.509404  0.327976  1
  Sb  Sb25  1  0.570154  0.991382  0.827915  1
  Sb  Sb26  1  0.070155  0.008769  0.672045  1
  Sb  Sb27  1  0.431056  0.492098  0.172328  1
  Sb  Sb28  1  0.070155  0.491231  0.672045  1
  Sb  Sb29  1  0.431056  0.007902  0.172328  1
  Sb  Sb30  1  0.928791  0.990596  0.327976  1
  Sb  Sb31  1  0.570154  0.508618  0.827915  1
