# generated using pymatgen
data_Te2Pb3(IO3)2
_symmetry_space_group_name_H-M   'P 1'
_cell_length_a   9.50228543
_cell_length_b   9.50228546
_cell_length_c   11.67627020
_cell_angle_alpha   72.75297632
_cell_angle_beta   72.75297543
_cell_angle_gamma   35.76609418
_symmetry_Int_Tables_number   1
_chemical_formula_structural   Te2Pb3(IO3)2
_chemical_formula_sum   'Te4 Pb6 I4 O12'
_cell_volume   585.54148247
_cell_formula_units_Z   2
loop_
 _symmetry_equiv_pos_site_id
 _symmetry_equiv_pos_as_xyz
  1  'x, y, z'
loop_
 _atom_site_type_symbol
 _atom_site_label
 _atom_site_symmetry_multiplicity
 _atom_site_fract_x
 _atom_site_fract_y
 _atom_site_fract_z
 _atom_site_occupancy
  Te  Te0  1  0.597505  0.597505  0.943808  1
  Te  Te1  1  0.402495  0.402495  0.056192  1
  Te  Te2  1  0.866452  0.866452  0.574381  1
  Te  Te3  1  0.133548  0.133548  0.425619  1
  Pb  Pb4  1  0.254841  0.254841  0.782788  1
  Pb  Pb5  1  0.745159  0.745159  0.217212  1
  Pb  Pb6  1  0.029258  0.029258  0.802370  1
  Pb  Pb7  1  0.970742  0.970742  0.197630  1
  Pb  Pb8  1  0.668584  0.668584  0.614248  1
  Pb  Pb9  1  0.331416  0.331416  0.385752  1
  I  I10  1  0.818078  0.818078  0.897410  1
  I  I11  1  0.181922  0.181922  0.102590  1
  I  I12  1  0.461148  0.461148  0.688931  1
  I  I13  1  0.538852  0.538852  0.311069  1
  O  O14  1  0.859513  0.401214  0.813397  1
  O  O15  1  0.401214  0.859513  0.813397  1
  O  O16  1  0.140487  0.598786  0.186603  1
  O  O17  1  0.598786  0.140487  0.186603  1
  O  O18  1  0.711992  0.288008  0.000000  1
  O  O19  1  0.288008  0.711992  0.000000  1
  O  O20  1  0.883731  0.883731  0.406312  1
  O  O21  1  0.116269  0.116269  0.593688  1
  O  O22  1  0.025528  0.552663  0.608461  1
  O  O23  1  0.552663  0.025528  0.608461  1
  O  O24  1  0.974472  0.447337  0.391539  1
  O  O25  1  0.447337  0.974472  0.391539  1
