# generated using pymatgen
data_Sc3AlTc3B8Ru7
_symmetry_space_group_name_H-M   'P 1'
_cell_length_a   3.01669700
_cell_length_b   8.49485761
_cell_length_c   10.01459719
_cell_angle_alpha   89.01543826
_cell_angle_beta   90.00000000
_cell_angle_gamma   90.00000000
_symmetry_Int_Tables_number   1
_chemical_formula_structural   Sc3AlTc3B8Ru7
_chemical_formula_sum   'Sc3 Al1 Tc3 B8 Ru7'
_cell_volume   256.60029850
_cell_formula_units_Z   1
loop_
 _symmetry_equiv_pos_site_id
 _symmetry_equiv_pos_as_xyz
  1  'x, y, z'
loop_
 _atom_site_type_symbol
 _atom_site_label
 _atom_site_symmetry_multiplicity
 _atom_site_fract_x
 _atom_site_fract_y
 _atom_site_fract_z
 _atom_site_occupancy
  Sc  Sc0  1  0.500000  0.153563  0.828835  1
  Sc  Sc1  1  0.500000  0.658155  0.677937  1
  Sc  Sc2  1  0.500000  0.350852  0.309524  1
  Al  Al3  1  0.500000  0.857443  0.199970  1
  Tc  Tc4  1  0.000000  0.651771  0.945713  1
  Tc  Tc5  1  0.000000  0.334098  0.046395  1
  Tc  Tc6  1  0.000000  0.844173  0.455803  1
  B  B7  1  0.500000  0.962662  0.590251  1
  B  B8  1  0.500000  0.039135  0.414977  1
  B  B9  1  0.500000  0.843431  0.900195  1
  B  B10  1  0.500000  0.144862  0.099301  1
  B  B11  1  0.500000  0.654797  0.394645  1
  B  B12  1  0.500000  0.351380  0.598280  1
  B  B13  1  0.500000  0.460117  0.908651  1
  B  B14  1  0.500000  0.532221  0.083636  1
  Ru  Ru15  1  0.000000  0.161908  0.547280  1
  Ru  Ru16  1  0.000000  0.978182  0.013027  1
  Ru  Ru17  1  0.000000  0.400093  0.756805  1
  Ru  Ru18  1  0.000000  0.619658  0.229765  1
  Ru  Ru19  1  0.000000  0.501370  0.493867  1
  Ru  Ru20  1  0.000000  0.905507  0.741832  1
  Ru  Ru21  1  0.000000  0.094622  0.263311  1
