# generated using pymatgen
data_ErTmNb4C5
_symmetry_space_group_name_H-M   'P 1'
_cell_length_a   5.71038344
_cell_length_b   5.71038291
_cell_length_c   5.60545112
_cell_angle_alpha   81.70576982
_cell_angle_beta   81.70576264
_cell_angle_gamma   121.26970651
_symmetry_Int_Tables_number   1
_chemical_formula_structural   ErTmNb4C5
_chemical_formula_sum   'Er1 Tm1 Nb4 C5'
_cell_volume   149.31949038
_cell_formula_units_Z   1
loop_
 _symmetry_equiv_pos_site_id
 _symmetry_equiv_pos_as_xyz
  1  'x, y, z'
loop_
 _atom_site_type_symbol
 _atom_site_label
 _atom_site_symmetry_multiplicity
 _atom_site_fract_x
 _atom_site_fract_y
 _atom_site_fract_z
 _atom_site_occupancy
  Er  Er0  1  0.759348  0.759348  0.756213  1
  Tm  Tm1  1  0.241183  0.241183  0.244234  1
  Nb  Nb2  1  0.100555  0.452670  0.741078  1
  Nb  Nb3  1  0.547377  0.899511  0.258860  1
  Nb  Nb4  1  0.899511  0.547377  0.258860  1
  Nb  Nb5  1  0.452670  0.100555  0.741078  1
  C  C6  1  0.499559  0.499559  0.499668  1
  C  C7  1  0.677552  0.321228  0.000479  1
  C  C8  1  0.321228  0.677552  0.000479  1
  C  C9  1  0.822405  0.178612  0.499526  1
  C  C10  1  0.178612  0.822405  0.499526  1
