# generated using pymatgen
data_Li3Cd20Pd3
_symmetry_space_group_name_H-M   'P 1'
_cell_length_a   8.81354627
_cell_length_b   8.81354626
_cell_length_c   8.75238078
_cell_angle_alpha   70.71735134
_cell_angle_beta   70.71734755
_cell_angle_gamma   109.66070328
_symmetry_Int_Tables_number   1
_chemical_formula_structural   Li3Cd20Pd3
_chemical_formula_sum   'Li3 Cd20 Pd3'
_cell_volume   524.56908888
_cell_formula_units_Z   1
loop_
 _symmetry_equiv_pos_site_id
 _symmetry_equiv_pos_as_xyz
  1  'x, y, z'
loop_
 _atom_site_type_symbol
 _atom_site_label
 _atom_site_symmetry_multiplicity
 _atom_site_fract_x
 _atom_site_fract_y
 _atom_site_fract_z
 _atom_site_occupancy
  Li  Li0  1  0.998117  0.347409  0.644762  1
  Li  Li1  1  0.347409  0.998117  0.644762  1
  Li  Li2  1  0.000795  0.000795  0.346675  1
  Cd  Cd3  1  0.005963  0.005963  0.782272  1
  Cd  Cd4  1  0.785140  0.785140  0.213207  1
  Cd  Cd5  1  0.214137  0.999877  0.990834  1
  Cd  Cd6  1  0.999877  0.214137  0.990834  1
  Cd  Cd7  1  0.268632  0.268632  0.388804  1
  Cd  Cd8  1  0.007425  0.735354  0.650180  1
  Cd  Cd9  1  0.735354  0.007425  0.650180  1
  Cd  Cd10  1  0.650658  0.650658  0.619583  1
  Cd  Cd11  1  0.374024  0.644174  0.355845  1
  Cd  Cd12  1  0.644174  0.374024  0.355845  1
  Cd  Cd13  1  0.351384  0.740091  0.992162  1
  Cd  Cd14  1  0.618857  0.264370  0.732813  1
  Cd  Cd15  1  0.351978  0.003250  0.266117  1
  Cd  Cd16  1  0.740091  0.351384  0.992162  1
  Cd  Cd17  1  0.003250  0.351978  0.266117  1
  Cd  Cd18  1  0.264370  0.618857  0.732813  1
  Cd  Cd19  1  0.647265  0.647265  0.993430  1
  Cd  Cd20  1  0.000316  0.641729  0.360736  1
  Cd  Cd21  1  0.641729  0.000316  0.360736  1
  Cd  Cd22  1  0.351887  0.351887  0.005240  1
  Pd  Pd23  1  0.347139  0.347139  0.657243  1
  Pd  Pd24  1  0.653890  0.996141  0.003323  1
  Pd  Pd25  1  0.996141  0.653890  0.003323  1
