# generated using pymatgen
data_LaAl3CuPd
_symmetry_space_group_name_H-M   'P 1'
_cell_length_a   5.48483100
_cell_length_b   5.48483163
_cell_length_c   4.20175400
_cell_angle_alpha   90.00000000
_cell_angle_beta   90.00000000
_cell_angle_gamma   119.99999016
_symmetry_Int_Tables_number   1
_chemical_formula_structural   LaAl3CuPd
_chemical_formula_sum   'La1 Al3 Cu1 Pd1'
_cell_volume   109.46816750
_cell_formula_units_Z   1
loop_
 _symmetry_equiv_pos_site_id
 _symmetry_equiv_pos_as_xyz
  1  'x, y, z'
loop_
 _atom_site_type_symbol
 _atom_site_label
 _atom_site_symmetry_multiplicity
 _atom_site_fract_x
 _atom_site_fract_y
 _atom_site_fract_z
 _atom_site_occupancy
  La  La0  1  0.000000  0.000000  0.000000  1
  Al  Al1  1  0.501820  0.003641  0.500000  1
  Al  Al2  1  0.501820  0.498180  0.500000  1
  Al  Al3  1  0.996359  0.498180  0.500000  1
  Cu  Cu4  1  0.666667  0.333333  0.000000  1
  Pd  Pd5  1  0.333333  0.666667  0.000000  1
