# generated using pymatgen
data_Lu5(GaSb)2
_symmetry_space_group_name_H-M   'P 1'
_cell_length_a   8.52313900
_cell_length_b   8.52313891
_cell_length_c   7.82400200
_cell_angle_alpha   90.00000000
_cell_angle_beta   90.00000000
_cell_angle_gamma   125.43305342
_symmetry_Int_Tables_number   1
_chemical_formula_structural   Lu5(GaSb)2
_chemical_formula_sum   'Lu10 Ga4 Sb4'
_cell_volume   463.10091057
_cell_formula_units_Z   2
loop_
 _symmetry_equiv_pos_site_id
 _symmetry_equiv_pos_as_xyz
  1  'x, y, z'
loop_
 _atom_site_type_symbol
 _atom_site_label
 _atom_site_symmetry_multiplicity
 _atom_site_fract_x
 _atom_site_fract_y
 _atom_site_fract_z
 _atom_site_occupancy
  Lu  Lu0  1  0.538652  0.795558  0.166271  1
  Lu  Lu1  1  0.295558  0.038652  0.333729  1
  Lu  Lu2  1  0.204442  0.461348  0.833729  1
  Lu  Lu3  1  0.961348  0.704442  0.666271  1
  Lu  Lu4  1  0.704442  0.961348  0.666271  1
  Lu  Lu5  1  0.461348  0.204442  0.833729  1
  Lu  Lu6  1  0.795558  0.538652  0.166271  1
  Lu  Lu7  1  0.038652  0.295558  0.333729  1
  Lu  Lu8  1  0.500000  0.500000  0.500000  1
  Lu  Lu9  1  0.000000  0.000000  0.000000  1
  Ga  Ga10  1  0.628691  0.628691  0.871529  1
  Ga  Ga11  1  0.128691  0.128691  0.628471  1
  Ga  Ga12  1  0.871309  0.871309  0.371529  1
  Ga  Ga13  1  0.371309  0.371309  0.128471  1
  Sb  Sb14  1  0.294480  0.705520  0.500000  1
  Sb  Sb15  1  0.205520  0.794480  0.000000  1
  Sb  Sb16  1  0.705520  0.294480  0.500000  1
  Sb  Sb17  1  0.794480  0.205520  0.000000  1
