# generated using pymatgen
data_CeTm4Ru6W
_symmetry_space_group_name_H-M   'P 1'
_cell_length_a   5.66161577
_cell_length_b   5.21205801
_cell_length_c   9.17542000
_cell_angle_alpha   90.00000000
_cell_angle_beta   90.00000000
_cell_angle_gamma   122.89158766
_symmetry_Int_Tables_number   1
_chemical_formula_structural   CeTm4Ru6W
_chemical_formula_sum   'Ce1 Tm4 Ru6 W1'
_cell_volume   227.35239626
_cell_formula_units_Z   1
loop_
 _symmetry_equiv_pos_site_id
 _symmetry_equiv_pos_as_xyz
  1  'x, y, z'
loop_
 _atom_site_type_symbol
 _atom_site_label
 _atom_site_symmetry_multiplicity
 _atom_site_fract_x
 _atom_site_fract_y
 _atom_site_fract_z
 _atom_site_occupancy
  Ce  Ce0  1  0.840994  0.681762  0.250000  1
  Tm  Tm1  1  0.667375  0.334931  0.574689  1
  Tm  Tm2  1  0.331792  0.663082  0.442520  1
  Tm  Tm3  1  0.331792  0.663082  0.057480  1
  Tm  Tm4  1  0.667375  0.334931  0.925311  1
  Ru  Ru5  1  0.008696  0.017206  0.507079  1
  Ru  Ru6  1  0.008696  0.017206  0.992921  1
  Ru  Ru7  1  0.166106  0.805180  0.750000  1
  Ru  Ru8  1  0.638511  0.805067  0.750000  1
  Ru  Ru9  1  0.836791  0.189917  0.250000  1
  Ru  Ru10  1  0.353023  0.190065  0.250000  1
  W  W11  1  0.148852  0.297574  0.750000  1
