# generated using pymatgen
data_Hf18MnRe2SiMo6
_symmetry_space_group_name_H-M   'P 1'
_cell_length_a   8.62867321
_cell_length_b   8.62867432
_cell_length_c   8.61433800
_cell_angle_alpha   90.00000000
_cell_angle_beta   90.00000000
_cell_angle_gamma   120.00358389
_symmetry_Int_Tables_number   1
_chemical_formula_structural   Hf18MnRe2SiMo6
_chemical_formula_sum   'Hf18 Mn1 Re2 Si1 Mo6'
_cell_volume   555.42439821
_cell_formula_units_Z   1
loop_
 _symmetry_equiv_pos_site_id
 _symmetry_equiv_pos_as_xyz
  1  'x, y, z'
loop_
 _atom_site_type_symbol
 _atom_site_label
 _atom_site_symmetry_multiplicity
 _atom_site_fract_x
 _atom_site_fract_y
 _atom_site_fract_z
 _atom_site_occupancy
  Hf  Hf0  1  0.202554  0.797446  0.440955  1
  Hf  Hf1  1  0.203044  0.405576  0.442403  1
  Hf  Hf2  1  0.594424  0.796956  0.442403  1
  Hf  Hf3  1  0.803847  0.196153  0.545571  1
  Hf  Hf4  1  0.804190  0.608744  0.545035  1
  Hf  Hf5  1  0.391256  0.195810  0.545035  1
  Hf  Hf6  1  0.803847  0.196153  0.954429  1
  Hf  Hf7  1  0.804190  0.608744  0.954965  1
  Hf  Hf8  1  0.391256  0.195810  0.954965  1
  Hf  Hf9  1  0.202554  0.797446  0.059045  1
  Hf  Hf10  1  0.203044  0.405576  0.057597  1
  Hf  Hf11  1  0.594424  0.796956  0.057597  1
  Hf  Hf12  1  0.539483  0.460517  0.250000  1
  Hf  Hf13  1  0.538597  0.079438  0.250000  1
  Hf  Hf14  1  0.920562  0.461403  0.250000  1
  Hf  Hf15  1  0.463415  0.536585  0.750000  1
  Hf  Hf16  1  0.463140  0.927003  0.750000  1
  Hf  Hf17  1  0.072997  0.536860  0.750000  1
  Mn  Mn18  1  0.333783  0.666217  0.250000  1
  Re  Re19  1  0.888824  0.775805  0.250000  1
  Re  Re20  1  0.224195  0.111176  0.250000  1
  Si  Si21  1  0.666250  0.333750  0.750000  1
  Mo  Mo22  1  0.890310  0.109690  0.250000  1
  Mo  Mo23  1  0.110523  0.889477  0.750000  1
  Mo  Mo24  1  0.111474  0.222947  0.750000  1
  Mo  Mo25  1  0.777053  0.888526  0.750000  1
  Mo  Mo26  1  0.000384  0.999616  0.499137  1
  Mo  Mo27  1  0.000384  0.999616  0.000863  1
