# generated using pymatgen
data_Dy7Er3(In2Rh)4
_symmetry_space_group_name_H-M   'P 1'
_cell_length_a   3.63006200
_cell_length_b   8.00735909
_cell_length_c   18.30827720
_cell_angle_alpha   89.98303678
_cell_angle_beta   90.00000000
_cell_angle_gamma   90.00000000
_symmetry_Int_Tables_number   1
_chemical_formula_structural   Dy7Er3(In2Rh)4
_chemical_formula_sum   'Dy7 Er3 In8 Rh4'
_cell_volume   532.17051379
_cell_formula_units_Z   1
loop_
 _symmetry_equiv_pos_site_id
 _symmetry_equiv_pos_as_xyz
  1  'x, y, z'
loop_
 _atom_site_type_symbol
 _atom_site_label
 _atom_site_symmetry_multiplicity
 _atom_site_fract_x
 _atom_site_fract_y
 _atom_site_fract_z
 _atom_site_occupancy
  Dy  Dy0  1  0.500000  0.753682  0.721350  1
  Dy  Dy1  1  0.500000  0.253681  0.778622  1
  Dy  Dy2  1  0.500000  0.499986  0.999998  1
  Dy  Dy3  1  0.500000  0.746478  0.221266  1
  Dy  Dy4  1  0.500000  0.246214  0.278586  1
  Dy  Dy5  1  0.500000  0.000123  0.500011  1
  Dy  Dy6  1  0.500000  0.617285  0.411954  1
  Er  Er7  1  0.500000  0.383037  0.588539  1
  Er  Er8  1  0.500000  0.883011  0.911655  1
  Er  Er9  1  0.500000  0.116889  0.088375  1
  In  In10  1  0.000000  0.793009  0.068604  1
  In  In11  1  0.000000  0.927714  0.349165  1
  In  In12  1  0.000000  0.072760  0.650733  1
  In  In13  1  0.000000  0.572839  0.849273  1
  In  In14  1  0.000000  0.707125  0.568770  1
  In  In15  1  0.000000  0.207006  0.931392  1
  In  In16  1  0.000000  0.292378  0.431358  1
  In  In17  1  0.000000  0.427183  0.150662  1
  Rh  Rh18  1  0.000000  0.975527  0.805644  1
  Rh  Rh19  1  0.000000  0.524094  0.305255  1
  Rh  Rh20  1  0.000000  0.475503  0.694412  1
  Rh  Rh21  1  0.000000  0.024477  0.194375  1
