# generated using pymatgen
data_Y4Nb(ReN4)3
_symmetry_space_group_name_H-M   'P 1'
_cell_length_a   7.40492350
_cell_length_b   7.46909582
_cell_length_c   6.33505424
_cell_angle_alpha   72.41143573
_cell_angle_beta   73.19472178
_cell_angle_gamma   81.61608499
_symmetry_Int_Tables_number   1
_chemical_formula_structural   Y4Nb(ReN4)3
_chemical_formula_sum   'Y4 Nb1 Re3 N12'
_cell_volume   319.07931951
_cell_formula_units_Z   1
loop_
 _symmetry_equiv_pos_site_id
 _symmetry_equiv_pos_as_xyz
  1  'x, y, z'
loop_
 _atom_site_type_symbol
 _atom_site_label
 _atom_site_symmetry_multiplicity
 _atom_site_fract_x
 _atom_site_fract_y
 _atom_site_fract_z
 _atom_site_occupancy
  Y  Y0  1  0.908840  0.091515  0.751056  1
  Y  Y1  1  0.096127  0.908277  0.247339  1
  Y  Y2  1  0.705137  0.277176  0.253090  1
  Y  Y3  1  0.286845  0.710262  0.752139  1
  Nb  Nb4  1  0.624246  0.796248  0.281000  1
  Re  Re5  1  0.201104  0.378338  0.217768  1
  Re  Re6  1  0.377141  0.206125  0.719181  1
  Re  Re7  1  0.795873  0.618784  0.785776  1
  N  N8  1  0.664151  0.616397  0.080878  1
  N  N9  1  0.371205  0.877849  0.351007  1
  N  N10  1  0.357684  0.331596  0.419587  1
  N  N11  1  0.128538  0.627238  0.157268  1
  N  N12  1  0.004187  0.224108  0.334229  1
  N  N13  1  0.792342  0.001990  0.147331  1
  N  N14  1  0.226389  0.005981  0.836733  1
  N  N15  1  0.628861  0.138036  0.656475  1
  N  N16  1  0.330767  0.361242  0.919158  1
  N  N17  1  0.886758  0.381797  0.823447  1
  N  N18  1  0.627008  0.663179  0.604359  1
  N  N19  1  0.986797  0.783862  0.662181  1
