# generated using pymatgen
data_Ce4DySe5
_symmetry_space_group_name_H-M   'P 1'
_cell_length_a   7.25847177
_cell_length_b   7.25847179
_cell_length_c   10.25983197
_cell_angle_alpha   61.81622124
_cell_angle_beta   61.81622250
_cell_angle_gamma   33.37749382
_symmetry_Int_Tables_number   1
_chemical_formula_structural   Ce4DySe5
_chemical_formula_sum   'Ce4 Dy1 Se5'
_cell_volume   258.71883808
_cell_formula_units_Z   1
loop_
 _symmetry_equiv_pos_site_id
 _symmetry_equiv_pos_as_xyz
  1  'x, y, z'
loop_
 _atom_site_type_symbol
 _atom_site_label
 _atom_site_symmetry_multiplicity
 _atom_site_fract_x
 _atom_site_fract_y
 _atom_site_fract_z
 _atom_site_occupancy
  Ce  Ce0  1  0.602110  0.602110  0.597210  1
  Ce  Ce1  1  0.198285  0.198285  0.198492  1
  Ce  Ce2  1  0.801715  0.801715  0.801508  1
  Ce  Ce3  1  0.397890  0.397890  0.402790  1
  Dy  Dy4  1  0.000000  0.000000  0.000000  1
  Se  Se5  1  0.196995  0.196995  0.707387  1
  Se  Se6  1  0.803005  0.803005  0.292613  1
  Se  Se7  1  0.404627  0.404627  0.902664  1
  Se  Se8  1  0.000000  0.000000  0.500000  1
  Se  Se9  1  0.595373  0.595373  0.097336  1
