# generated using pymatgen
data_LiLa16Cd3(CoIr)2
_symmetry_space_group_name_H-M   'P 1'
_cell_length_a   10.09503326
_cell_length_b   10.09503322
_cell_length_c   10.04780699
_cell_angle_alpha   59.75893979
_cell_angle_beta   59.75893666
_cell_angle_gamma   59.99051212
_symmetry_Int_Tables_number   1
_chemical_formula_structural   LiLa16Cd3(CoIr)2
_chemical_formula_sum   'Li1 La16 Cd3 Co2 Ir2'
_cell_volume   721.35460355
_cell_formula_units_Z   1
loop_
 _symmetry_equiv_pos_site_id
 _symmetry_equiv_pos_as_xyz
  1  'x, y, z'
loop_
 _atom_site_type_symbol
 _atom_site_label
 _atom_site_symmetry_multiplicity
 _atom_site_fract_x
 _atom_site_fract_y
 _atom_site_fract_z
 _atom_site_occupancy
  Li  Li0  1  0.819061  0.819061  0.819664  1
  La  La1  1  0.592176  0.592176  0.603247  1
  La  La2  1  0.592350  0.592350  0.213981  1
  La  La3  1  0.589682  0.213309  0.598846  1
  La  La4  1  0.213309  0.589682  0.598846  1
  La  La5  1  0.066705  0.442898  0.438867  1
  La  La6  1  0.438616  0.070277  0.055483  1
  La  La7  1  0.442898  0.066705  0.438867  1
  La  La8  1  0.070277  0.438616  0.055483  1
  La  La9  1  0.442196  0.442196  0.058826  1
  La  La10  1  0.062176  0.062176  0.437164  1
  La  La11  1  0.187792  0.814268  0.808519  1
  La  La12  1  0.812647  0.190511  0.189488  1
  La  La13  1  0.814268  0.187792  0.808519  1
  La  La14  1  0.190511  0.812647  0.189488  1
  La  La15  1  0.809357  0.809357  0.190558  1
  La  La16  1  0.188593  0.188593  0.809981  1
  Cd  Cd17  1  0.830157  0.830157  0.510739  1
  Cd  Cd18  1  0.831471  0.509939  0.830686  1
  Cd  Cd19  1  0.509939  0.831471  0.830686  1
  Co  Co20  1  0.387537  0.387537  0.397289  1
  Co  Co21  1  0.389794  0.389794  0.831404  1
  Ir  Ir22  1  0.390008  0.828481  0.391685  1
  Ir  Ir23  1  0.828481  0.390008  0.391685  1
