# generated using pymatgen
data_Li3FeTcO5
_symmetry_space_group_name_H-M   'P 1'
_cell_length_a   5.19510622
_cell_length_b   5.98837942
_cell_length_c   6.61536547
_cell_angle_alpha   105.71826630
_cell_angle_beta   97.16349484
_cell_angle_gamma   107.34647469
_symmetry_Int_Tables_number   1
_chemical_formula_structural   Li3FeTcO5
_chemical_formula_sum   'Li6 Fe2 Tc2 O10'
_cell_volume   184.31071375
_cell_formula_units_Z   2
loop_
 _symmetry_equiv_pos_site_id
 _symmetry_equiv_pos_as_xyz
  1  'x, y, z'
loop_
 _atom_site_type_symbol
 _atom_site_label
 _atom_site_symmetry_multiplicity
 _atom_site_fract_x
 _atom_site_fract_y
 _atom_site_fract_z
 _atom_site_occupancy
  Li  Li0  1  0.378307  0.310467  0.303004  1
  Li  Li1  1  0.199334  0.902132  0.906870  1
  Li  Li2  1  0.000000  0.500000  0.500000  1
  Li  Li3  1  0.800666  0.097868  0.093130  1
  Li  Li4  1  0.621693  0.689533  0.696996  1
  Li  Li5  1  0.000000  0.000000  0.500000  1
  Fe  Fe6  1  0.197380  0.393433  0.891492  1
  Fe  Fe7  1  0.802620  0.606567  0.108508  1
  Tc  Tc8  1  0.583766  0.166836  0.668104  1
  Tc  Tc9  1  0.416234  0.833164  0.331896  1
  O  O10  1  0.109729  0.937636  0.204735  1
  O  O11  1  0.889738  0.524118  0.801639  1
  O  O12  1  0.705477  0.160588  0.394156  1
  O  O13  1  0.499754  0.743481  0.022147  1
  O  O14  1  0.312675  0.339204  0.609641  1
  O  O15  1  0.500246  0.256519  0.977853  1
  O  O16  1  0.294523  0.839412  0.605844  1
  O  O17  1  0.110262  0.475882  0.198361  1
  O  O18  1  0.890271  0.062364  0.795265  1
  O  O19  1  0.687325  0.660796  0.390359  1
