# generated using pymatgen
data_Nd3Dy2Tc3(P3Ir4)4
_symmetry_space_group_name_H-M   'P 1'
_cell_length_a   12.73164100
_cell_length_b   12.73164115
_cell_length_c   4.00416900
_cell_angle_alpha   90.00000000
_cell_angle_beta   90.00000000
_cell_angle_gamma   119.99999701
_symmetry_Int_Tables_number   1
_chemical_formula_structural   Nd3Dy2Tc3(P3Ir4)4
_chemical_formula_sum   'Nd3 Dy2 Tc3 P12 Ir16'
_cell_volume   562.09771155
_cell_formula_units_Z   1
loop_
 _symmetry_equiv_pos_site_id
 _symmetry_equiv_pos_as_xyz
  1  'x, y, z'
loop_
 _atom_site_type_symbol
 _atom_site_label
 _atom_site_symmetry_multiplicity
 _atom_site_fract_x
 _atom_site_fract_y
 _atom_site_fract_z
 _atom_site_occupancy
  Nd  Nd0  1  0.000000  0.813762  0.000000  1
  Nd  Nd1  1  0.186238  0.186238  0.000000  1
  Nd  Nd2  1  0.813762  0.000000  0.000000  1
  Dy  Dy3  1  0.333333  0.666667  0.500000  1
  Dy  Dy4  1  0.666667  0.333333  0.500000  1
  Tc  Tc5  1  0.000000  0.454999  0.500000  1
  Tc  Tc6  1  0.545001  0.545001  0.500000  1
  Tc  Tc7  1  0.454999  0.000000  0.500000  1
  P  P8  1  0.000000  0.636396  0.500000  1
  P  P9  1  0.363604  0.363604  0.500000  1
  P  P10  1  0.636396  0.000000  0.500000  1
  P  P11  1  0.515097  0.685988  0.000000  1
  P  P12  1  0.314012  0.829109  0.000000  1
  P  P13  1  0.170891  0.484903  0.000000  1
  P  P14  1  0.484903  0.170891  0.000000  1
  P  P15  1  0.685988  0.515097  0.000000  1
  P  P16  1  0.829109  0.314012  0.000000  1
  P  P17  1  0.000000  0.179047  0.500000  1
  P  P18  1  0.820953  0.820953  0.500000  1
  P  P19  1  0.179047  0.000000  0.500000  1
  Ir  Ir20  1  0.508898  0.868691  0.000000  1
  Ir  Ir21  1  0.131309  0.640208  0.000000  1
  Ir  Ir22  1  0.359792  0.491102  0.000000  1
  Ir  Ir23  1  0.491102  0.359792  0.000000  1
  Ir  Ir24  1  0.868691  0.508898  0.000000  1
  Ir  Ir25  1  0.640208  0.131309  0.000000  1
  Ir  Ir26  1  0.000000  0.291540  0.000000  1
  Ir  Ir27  1  0.708460  0.708460  0.000000  1
  Ir  Ir28  1  0.291540  0.000000  0.000000  1
  Ir  Ir29  1  0.621713  0.800965  0.500000  1
  Ir  Ir30  1  0.199035  0.820747  0.500000  1
  Ir  Ir31  1  0.179253  0.378287  0.500000  1
  Ir  Ir32  1  0.378287  0.179253  0.500000  1
  Ir  Ir33  1  0.800965  0.621713  0.500000  1
  Ir  Ir34  1  0.820747  0.199035  0.500000  1
  Ir  Ir35  1  0.000000  0.000000  0.500000  1
