# generated using pymatgen
data_Th6Sn7BiAu6
_symmetry_space_group_name_H-M   'P 1'
_cell_length_a   8.74370698
_cell_length_b   8.78241352
_cell_length_c   8.78241366
_cell_angle_alpha   109.56032743
_cell_angle_beta   109.38196686
_cell_angle_gamma   109.38196932
_symmetry_Int_Tables_number   1
_chemical_formula_structural   Th6Sn7BiAu6
_chemical_formula_sum   'Th6 Sn7 Bi1 Au6'
_cell_volume   519.73103850
_cell_formula_units_Z   1
loop_
 _symmetry_equiv_pos_site_id
 _symmetry_equiv_pos_as_xyz
  1  'x, y, z'
loop_
 _atom_site_type_symbol
 _atom_site_label
 _atom_site_symmetry_multiplicity
 _atom_site_fract_x
 _atom_site_fract_y
 _atom_site_fract_z
 _atom_site_occupancy
  Th  Th0  1  0.877508  0.247814  0.125931  1
  Th  Th1  1  0.625070  0.751568  0.376459  1
  Th  Th2  1  0.248611  0.123541  0.875108  1
  Th  Th3  1  0.751577  0.374069  0.621884  1
  Th  Th4  1  0.129694  0.878116  0.252186  1
  Th  Th5  1  0.373503  0.624892  0.748432  1
  Sn  Sn6  1  0.499534  0.999027  0.680604  1
  Sn  Sn7  1  0.000506  0.681576  0.500973  1
  Sn  Sn8  1  0.818930  0.819396  0.818424  1
  Sn  Sn9  1  0.497956  0.998414  0.179953  1
  Sn  Sn10  1  0.181761  0.500000  0.000000  1
  Sn  Sn11  1  0.999543  0.181540  0.501586  1
  Sn  Sn12  1  0.318003  0.320047  0.318460  1
  Bi  Bi13  1  0.682353  0.500000  0.000000  1
  Au  Au14  1  0.369475  0.243292  0.617135  1
  Au  Au15  1  0.124051  0.749441  0.875258  1
  Au  Au16  1  0.248793  0.624742  0.374183  1
  Au  Au17  1  0.752340  0.882865  0.126157  1
  Au  Au18  1  0.626183  0.373843  0.256708  1
  Au  Au19  1  0.874609  0.125817  0.750559  1
