# generated using pymatgen
data_Y5ScTcTe2
_symmetry_space_group_name_H-M   'P 1'
_cell_length_a   8.21703000
_cell_length_b   8.37540939
_cell_length_c   4.05717400
_cell_angle_alpha   90.00000000
_cell_angle_beta   90.00000000
_cell_angle_gamma   120.63967329
_symmetry_Int_Tables_number   1
_chemical_formula_structural   Y5ScTcTe2
_chemical_formula_sum   'Y5 Sc1 Tc1 Te2'
_cell_volume   240.23682212
_cell_formula_units_Z   1
loop_
 _symmetry_equiv_pos_site_id
 _symmetry_equiv_pos_as_xyz
  1  'x, y, z'
loop_
 _atom_site_type_symbol
 _atom_site_label
 _atom_site_symmetry_multiplicity
 _atom_site_fract_x
 _atom_site_fract_y
 _atom_site_fract_z
 _atom_site_occupancy
  Y  Y0  1  0.000000  0.411102  0.500000  1
  Y  Y1  1  0.612786  0.611092  0.500000  1
  Y  Y2  1  0.387214  0.998306  0.500000  1
  Y  Y3  1  0.233043  0.237214  0.000000  1
  Y  Y4  1  0.766957  0.004171  0.000000  1
  Sc  Sc5  1  0.000000  0.763355  0.000000  1
  Tc  Tc6  1  0.000000  0.967683  0.500000  1
  Te  Te7  1  0.329258  0.668169  0.000000  1
  Te  Te8  1  0.670742  0.338910  0.000000  1
