# generated using pymatgen
data_Tm12FeCo3BiOs
_symmetry_space_group_name_H-M   'P 1'
_cell_length_a   8.21724249
_cell_length_b   8.21722750
_cell_length_c   8.21724127
_cell_angle_alpha   110.65260783
_cell_angle_beta   112.03277605
_cell_angle_gamma   105.79303590
_symmetry_Int_Tables_number   1
_chemical_formula_structural   Tm12FeCo3BiOs
_chemical_formula_sum   'Tm12 Fe1 Co3 Bi1 Os1'
_cell_volume   425.74968552
_cell_formula_units_Z   1
loop_
 _symmetry_equiv_pos_site_id
 _symmetry_equiv_pos_as_xyz
  1  'x, y, z'
loop_
 _atom_site_type_symbol
 _atom_site_label
 _atom_site_symmetry_multiplicity
 _atom_site_fract_x
 _atom_site_fract_y
 _atom_site_fract_z
 _atom_site_occupancy
  Tm  Tm0  1  0.276275  0.182108  0.458383  1
  Tm  Tm1  1  0.721598  0.818764  0.540363  1
  Tm  Tm2  1  0.278402  0.818764  0.097165  1
  Tm  Tm3  1  0.723724  0.182108  0.905833  1
  Tm  Tm4  1  0.619865  0.309114  0.307321  1
  Tm  Tm5  1  0.380150  0.687491  0.689230  1
  Tm  Tm6  1  0.001793  0.309114  0.689249  1
  Tm  Tm7  1  0.998262  0.687491  0.307342  1
  Tm  Tm8  1  0.216381  0.414694  0.198315  1
  Tm  Tm9  1  0.784169  0.585896  0.801724  1
  Tm  Tm10  1  0.215833  0.017562  0.801729  1
  Tm  Tm11  1  0.783624  0.981941  0.198317  1
  Fe  Fe12  1  0.000000  0.383054  0.383054  1
  Co  Co13  1  0.000001  0.623657  0.623657  1
  Co  Co14  1  0.389314  0.888771  0.499457  1
  Co  Co15  1  0.610603  0.110059  0.499456  1
  Bi  Bi16  1  0.500008  0.499475  0.999467  1
  Os  Os17  1  0.999999  0.999938  0.999939  1
