# generated using pymatgen
data_Mg3Ga7Ir2
_symmetry_space_group_name_H-M   'P 1'
_cell_length_a   6.67350943
_cell_length_b   6.67350672
_cell_length_c   9.79392738
_cell_angle_alpha   88.12967988
_cell_angle_beta   88.12966161
_cell_angle_gamma   91.88737188
_symmetry_Int_Tables_number   1
_chemical_formula_structural   Mg3Ga7Ir2
_chemical_formula_sum   'Mg6 Ga14 Ir4'
_cell_volume   435.46243006
_cell_formula_units_Z   2
loop_
 _symmetry_equiv_pos_site_id
 _symmetry_equiv_pos_as_xyz
  1  'x, y, z'
loop_
 _atom_site_type_symbol
 _atom_site_label
 _atom_site_symmetry_multiplicity
 _atom_site_fract_x
 _atom_site_fract_y
 _atom_site_fract_z
 _atom_site_occupancy
  Mg  Mg0  1  0.639516  0.742842  0.696850  1
  Mg  Mg1  1  0.147236  0.852763  0.750000  1
  Mg  Mg2  1  0.257159  0.360486  0.803149  1
  Mg  Mg3  1  0.852764  0.147237  0.250000  1
  Mg  Mg4  1  0.742841  0.639514  0.196851  1
  Mg  Mg5  1  0.360484  0.257158  0.303150  1
  Ga  Ga6  1  0.773988  0.226011  0.750000  1
  Ga  Ga7  1  0.685078  0.434596  0.480786  1
  Ga  Ga8  1  0.889324  0.562249  0.903991  1
  Ga  Ga9  1  0.562249  0.889324  0.403991  1
  Ga  Ga10  1  0.434596  0.685077  0.980786  1
  Ga  Ga11  1  0.817148  0.938467  0.975496  1
  Ga  Ga12  1  0.061533  0.182852  0.524503  1
  Ga  Ga13  1  0.437751  0.110676  0.596009  1
  Ga  Ga14  1  0.110676  0.437751  0.096009  1
  Ga  Ga15  1  0.938467  0.817148  0.475497  1
  Ga  Ga16  1  0.182852  0.061533  0.024504  1
  Ga  Ga17  1  0.314922  0.565404  0.519214  1
  Ga  Ga18  1  0.565404  0.314923  0.019214  1
  Ga  Ga19  1  0.226012  0.773989  0.250000  1
  Ir  Ir20  1  0.030692  0.481054  0.349767  1
  Ir  Ir21  1  0.518946  0.969309  0.150233  1
  Ir  Ir22  1  0.969308  0.518946  0.650233  1
  Ir  Ir23  1  0.481054  0.030691  0.849767  1
