# generated using pymatgen
data_Th10AgSn2Pb5
_symmetry_space_group_name_H-M   'P 1'
_cell_length_a   9.71325996
_cell_length_b   9.71326131
_cell_length_c   6.68730711
_cell_angle_alpha   89.98955845
_cell_angle_beta   89.98956324
_cell_angle_gamma   119.95012220
_symmetry_Int_Tables_number   1
_chemical_formula_structural   Th10AgSn2Pb5
_chemical_formula_sum   'Th10 Ag1 Sn2 Pb5'
_cell_volume   546.67600727
_cell_formula_units_Z   1
loop_
 _symmetry_equiv_pos_site_id
 _symmetry_equiv_pos_as_xyz
  1  'x, y, z'
loop_
 _atom_site_type_symbol
 _atom_site_label
 _atom_site_symmetry_multiplicity
 _atom_site_fract_x
 _atom_site_fract_y
 _atom_site_fract_z
 _atom_site_occupancy
  Th  Th0  1  0.664303  0.334002  0.498748  1
  Th  Th1  1  0.334002  0.664303  0.498748  1
  Th  Th2  1  0.334042  0.664489  0.001021  1
  Th  Th3  1  0.664489  0.334042  0.001021  1
  Th  Th4  1  0.724227  0.724227  0.247875  1
  Th  Th5  1  0.274799  0.003683  0.248072  1
  Th  Th6  1  0.003683  0.274799  0.248072  1
  Th  Th7  1  0.274668  0.274668  0.751934  1
  Th  Th8  1  0.726167  0.000134  0.752279  1
  Th  Th9  1  0.000134  0.726167  0.752279  1
  Ag  Ag10  1  0.999478  0.999478  0.500199  1
  Sn  Sn11  1  0.999065  0.999065  0.999718  1
  Sn  Sn12  1  0.379846  0.379846  0.251294  1
  Pb  Pb13  1  0.621062  0.000491  0.251572  1
  Pb  Pb14  1  0.000491  0.621062  0.251572  1
  Pb  Pb15  1  0.621162  0.621162  0.748544  1
  Pb  Pb16  1  0.379258  0.999125  0.748527  1
  Pb  Pb17  1  0.999125  0.379258  0.748527  1
