# generated using pymatgen
data_La2Pr14MgHg3Rh4
_symmetry_space_group_name_H-M   'P 1'
_cell_length_a   10.00723831
_cell_length_b   10.05708732
_cell_length_c   10.07319710
_cell_angle_alpha   59.86592272
_cell_angle_beta   59.82846120
_cell_angle_gamma   59.78764121
_symmetry_Int_Tables_number   1
_chemical_formula_structural   La2Pr14MgHg3Rh4
_chemical_formula_sum   'La2 Pr14 Mg1 Hg3 Rh4'
_cell_volume   714.05739493
_cell_formula_units_Z   1
loop_
 _symmetry_equiv_pos_site_id
 _symmetry_equiv_pos_as_xyz
  1  'x, y, z'
loop_
 _atom_site_type_symbol
 _atom_site_label
 _atom_site_symmetry_multiplicity
 _atom_site_fract_x
 _atom_site_fract_y
 _atom_site_fract_z
 _atom_site_occupancy
  La  La0  1  0.346922  0.346252  0.347166  1
  La  La1  1  0.348212  0.347317  0.957444  1
  Pr  Pr2  1  0.350003  0.951597  0.349680  1
  Pr  Pr3  1  0.943851  0.351906  0.352608  1
  Pr  Pr4  1  0.808505  0.191643  0.191518  1
  Pr  Pr5  1  0.186403  0.811062  0.810332  1
  Pr  Pr6  1  0.187794  0.812085  0.188600  1
  Pr  Pr7  1  0.806800  0.191549  0.807570  1
  Pr  Pr8  1  0.187542  0.188644  0.811839  1
  Pr  Pr9  1  0.806563  0.808024  0.191445  1
  Pr  Pr10  1  0.938179  0.562873  0.563094  1
  Pr  Pr11  1  0.560378  0.938266  0.938292  1
  Pr  Pr12  1  0.560937  0.938468  0.563249  1
  Pr  Pr13  1  0.938178  0.561561  0.936538  1
  Pr  Pr14  1  0.561607  0.563367  0.937798  1
  Pr  Pr15  1  0.938451  0.936832  0.561678  1
  Mg  Mg16  1  0.286899  0.571280  0.569638  1
  Hg  Hg17  1  0.580881  0.586968  0.586013  1
  Hg  Hg18  1  0.581283  0.587400  0.245795  1
  Hg  Hg19  1  0.581584  0.245716  0.586937  1
  Rh  Rh20  1  0.141605  0.144074  0.141780  1
  Rh  Rh21  1  0.142588  0.144892  0.573633  1
  Rh  Rh22  1  0.143138  0.572982  0.144266  1
  Rh  Rh23  1  0.571696  0.145244  0.143085  1
