# generated using pymatgen
data_Tb4MnNiC8
_symmetry_space_group_name_H-M   'P 1'
_cell_length_a   6.64254032
_cell_length_b   6.64254076
_cell_length_c   6.64253982
_cell_angle_alpha   134.87429890
_cell_angle_beta   111.04789841
_cell_angle_gamma   86.29026170
_symmetry_Int_Tables_number   1
_chemical_formula_structural   Tb4MnNiC8
_chemical_formula_sum   'Tb4 Mn1 Ni1 C8'
_cell_volume   185.78617411
_cell_formula_units_Z   1
loop_
 _symmetry_equiv_pos_site_id
 _symmetry_equiv_pos_as_xyz
  1  'x, y, z'
loop_
 _atom_site_type_symbol
 _atom_site_label
 _atom_site_symmetry_multiplicity
 _atom_site_fract_x
 _atom_site_fract_y
 _atom_site_fract_z
 _atom_site_occupancy
  Tb  Tb0  1  0.514974  0.356332  0.160079  1
  Tb  Tb1  1  0.485026  0.645105  0.841358  1
  Tb  Tb2  1  0.196253  0.854895  0.339921  1
  Tb  Tb3  1  0.803747  0.143668  0.658642  1
  Mn  Mn4  1  0.000000  0.750000  0.750000  1
  Ni  Ni5  1  0.000000  0.250000  0.250000  1
  C  C6  1  0.251090  0.050354  0.140682  1
  C  C7  1  0.748910  0.889591  0.799263  1
  C  C8  1  0.909672  0.610409  0.359318  1
  C  C9  1  0.090328  0.449646  0.700737  1
  C  C10  1  0.466849  0.132804  0.344375  1
  C  C11  1  0.533151  0.877527  0.665956  1
  C  C12  1  0.788429  0.622473  0.155625  1
  C  C13  1  0.211571  0.367196  0.834044  1
