# generated using pymatgen
data_Tm2Lu6Mn(B8Os)3
_symmetry_space_group_name_H-M   'P 1'
_cell_length_a   3.57895200
_cell_length_b   9.02330578
_cell_length_c   11.39627705
_cell_angle_alpha   90.05012331
_cell_angle_beta   90.00000000
_cell_angle_gamma   90.00000000
_symmetry_Int_Tables_number   1
_chemical_formula_structural   Tm2Lu6Mn(B8Os)3
_chemical_formula_sum   'Tm2 Lu6 Mn1 B24 Os3'
_cell_volume   368.03098232
_cell_formula_units_Z   1
loop_
 _symmetry_equiv_pos_site_id
 _symmetry_equiv_pos_as_xyz
  1  'x, y, z'
loop_
 _atom_site_type_symbol
 _atom_site_label
 _atom_site_symmetry_multiplicity
 _atom_site_fract_x
 _atom_site_fract_y
 _atom_site_fract_z
 _atom_site_occupancy
  Tm  Tm0  1  0.000000  0.324835  0.412276  1
  Tm  Tm1  1  0.000000  0.677647  0.581929  1
  Lu  Lu2  1  0.000000  0.818460  0.088997  1
  Lu  Lu3  1  0.000000  0.179660  0.915243  1
  Lu  Lu4  1  0.000000  0.939711  0.371688  1
  Lu  Lu5  1  0.000000  0.056357  0.626888  1
  Lu  Lu6  1  0.000000  0.446641  0.130018  1
  Lu  Lu7  1  0.000000  0.556443  0.873100  1
  Mn  Mn8  1  0.000000  0.637675  0.320617  1
  B  B9  1  0.500000  0.553816  0.431871  1
  B  B10  1  0.500000  0.447163  0.565703  1
  B  B11  1  0.500000  0.053206  0.066495  1
  B  B12  1  0.500000  0.947231  0.934036  1
  B  B13  1  0.500000  0.746656  0.418005  1
  B  B14  1  0.500000  0.251160  0.579217  1
  B  B15  1  0.500000  0.249936  0.080241  1
  B  B16  1  0.500000  0.751204  0.920854  1
  B  B17  1  0.500000  0.789741  0.266211  1
  B  B18  1  0.500000  0.208256  0.734196  1
  B  B19  1  0.500000  0.292392  0.234736  1
  B  B20  1  0.500000  0.708458  0.765633  1
  B  B21  1  0.500000  0.630734  0.186374  1
  B  B22  1  0.500000  0.369519  0.815875  1
  B  B23  1  0.500000  0.130020  0.315269  1
  B  B24  1  0.500000  0.869250  0.684080  1
  B  B25  1  0.500000  0.980145  0.212898  1
  B  B26  1  0.500000  0.019155  0.787178  1
  B  B27  1  0.500000  0.483925  0.288019  1
  B  B28  1  0.500000  0.518853  0.712650  1
  B  B29  1  0.500000  0.605916  0.029840  1
  B  B30  1  0.500000  0.394946  0.971390  1
  B  B31  1  0.500000  0.104292  0.470481  1
  B  B32  1  0.500000  0.894427  0.528536  1
  Os  Os33  1  0.000000  0.361890  0.679729  1
  Os  Os34  1  0.000000  0.137400  0.178832  1
  Os  Os35  1  0.000000  0.862882  0.820894  1
