# generated using pymatgen
data_Ho3Al3SiPt2
_symmetry_space_group_name_H-M   'P 1'
_cell_length_a   7.01079200
_cell_length_b   7.01079116
_cell_length_c   4.13707300
_cell_angle_alpha   90.00000000
_cell_angle_beta   90.00000000
_cell_angle_gamma   120.00000397
_symmetry_Int_Tables_number   1
_chemical_formula_structural   Ho3Al3SiPt2
_chemical_formula_sum   'Ho3 Al3 Si1 Pt2'
_cell_volume   176.09941416
_cell_formula_units_Z   1
loop_
 _symmetry_equiv_pos_site_id
 _symmetry_equiv_pos_as_xyz
  1  'x, y, z'
loop_
 _atom_site_type_symbol
 _atom_site_label
 _atom_site_symmetry_multiplicity
 _atom_site_fract_x
 _atom_site_fract_y
 _atom_site_fract_z
 _atom_site_occupancy
  Ho  Ho0  1  0.996699  0.581502  0.500000  1
  Ho  Ho1  1  0.584802  0.003301  0.500000  1
  Ho  Ho2  1  0.418498  0.415198  0.500000  1
  Al  Al3  1  0.244003  0.008965  0.000000  1
  Al  Al4  1  0.764964  0.755997  0.000000  1
  Al  Al5  1  0.991035  0.235036  0.000000  1
  Si  Si6  1  0.333333  0.666667  0.000000  1
  Pt  Pt7  1  0.666667  0.333333  0.000000  1
  Pt  Pt8  1  0.000000  0.000000  0.500000  1
