# generated using pymatgen
data_ZrScTiRe3
_symmetry_space_group_name_H-M   'P 1'
_cell_length_a   5.29505900
_cell_length_b   5.29505786
_cell_length_c   8.78803600
_cell_angle_alpha   90.00000000
_cell_angle_beta   90.00000000
_cell_angle_gamma   120.00001339
_symmetry_Int_Tables_number   1
_chemical_formula_structural   ZrScTiRe3
_chemical_formula_sum   'Zr2 Sc2 Ti2 Re6'
_cell_volume   213.38501308
_cell_formula_units_Z   2
loop_
 _symmetry_equiv_pos_site_id
 _symmetry_equiv_pos_as_xyz
  1  'x, y, z'
loop_
 _atom_site_type_symbol
 _atom_site_label
 _atom_site_symmetry_multiplicity
 _atom_site_fract_x
 _atom_site_fract_y
 _atom_site_fract_z
 _atom_site_occupancy
  Zr  Zr0  1  0.666667  0.333333  0.934003  1
  Zr  Zr1  1  0.333333  0.666667  0.065997  1
  Sc  Sc2  1  0.333333  0.666667  0.438183  1
  Sc  Sc3  1  0.666667  0.333333  0.561817  1
  Ti  Ti4  1  0.000000  0.000000  0.500000  1
  Ti  Ti5  1  0.000000  0.000000  0.000000  1
  Re  Re6  1  0.830699  0.169301  0.249434  1
  Re  Re7  1  0.830699  0.661396  0.249434  1
  Re  Re8  1  0.338604  0.169301  0.249434  1
  Re  Re9  1  0.169301  0.830699  0.750566  1
  Re  Re10  1  0.169301  0.338604  0.750566  1
  Re  Re11  1  0.661396  0.830699  0.750566  1
