# generated using pymatgen
data_Dy4Mg4IrPt3
_symmetry_space_group_name_H-M   'P 1'
_cell_length_a   4.17048100
_cell_length_b   7.06809341
_cell_length_c   8.64013512
_cell_angle_alpha   89.40958062
_cell_angle_beta   90.00000000
_cell_angle_gamma   90.00000000
_symmetry_Int_Tables_number   1
_chemical_formula_structural   Dy4Mg4IrPt3
_chemical_formula_sum   'Dy4 Mg4 Ir1 Pt3'
_cell_volume   254.67475819
_cell_formula_units_Z   1
loop_
 _symmetry_equiv_pos_site_id
 _symmetry_equiv_pos_as_xyz
  1  'x, y, z'
loop_
 _atom_site_type_symbol
 _atom_site_label
 _atom_site_symmetry_multiplicity
 _atom_site_fract_x
 _atom_site_fract_y
 _atom_site_fract_z
 _atom_site_occupancy
  Dy  Dy0  1  0.250000  0.461898  0.174653  1
  Dy  Dy1  1  0.750000  0.544489  0.820888  1
  Dy  Dy2  1  0.750000  0.031071  0.673248  1
  Dy  Dy3  1  0.250000  0.957239  0.329166  1
  Mg  Mg4  1  0.250000  0.865804  0.937513  1
  Mg  Mg5  1  0.750000  0.135363  0.061455  1
  Mg  Mg6  1  0.750000  0.635233  0.440666  1
  Mg  Mg7  1  0.250000  0.365129  0.561644  1
  Ir  Ir8  1  0.250000  0.752656  0.625702  1
  Pt  Pt9  1  0.750000  0.248947  0.372723  1
  Pt  Pt10  1  0.750000  0.748580  0.125027  1
  Pt  Pt11  1  0.250000  0.253591  0.877315  1
