# generated using pymatgen
data_Ca3NdV4O12
_symmetry_space_group_name_H-M   'P 1'
_cell_length_a   5.41365793
_cell_length_b   7.69203752
_cell_length_c   5.53982791
_cell_angle_alpha   89.97281773
_cell_angle_beta   90.73390971
_cell_angle_gamma   89.93184357
_symmetry_Int_Tables_number   1
_chemical_formula_structural   Ca3NdV4O12
_chemical_formula_sum   'Ca3 Nd1 V4 O12'
_cell_volume   230.67073011
_cell_formula_units_Z   1
loop_
 _symmetry_equiv_pos_site_id
 _symmetry_equiv_pos_as_xyz
  1  'x, y, z'
loop_
 _atom_site_type_symbol
 _atom_site_label
 _atom_site_symmetry_multiplicity
 _atom_site_fract_x
 _atom_site_fract_y
 _atom_site_fract_z
 _atom_site_occupancy
  Ca  Ca0  1  0.483932  0.748671  0.453181  1
  Ca  Ca1  1  0.513984  0.252161  0.545466  1
  Ca  Ca2  1  0.995478  0.251050  0.046490  1
  Nd  Nd3  1  0.004843  0.749284  0.951293  1
  V  V4  1  0.500747  0.497055  0.999925  1
  V  V5  1  0.998130  0.496348  0.497431  1
  V  V6  1  0.997489  0.003507  0.497316  1
  V  V7  1  0.499257  0.004607  0.999139  1
  O  O8  1  0.910571  0.751574  0.519626  1
  O  O9  1  0.571200  0.758800  0.020715  1
  O  O10  1  0.091755  0.248333  0.476713  1
  O  O11  1  0.427057  0.240051  0.978747  1
  O  O12  1  0.795483  0.461969  0.795458  1
  O  O13  1  0.719768  0.043256  0.294097  1
  O  O14  1  0.277186  0.545682  0.703074  1
  O  O15  1  0.209526  0.957286  0.209450  1
  O  O16  1  0.208093  0.539728  0.207528  1
  O  O17  1  0.279237  0.953543  0.708961  1
  O  O18  1  0.720408  0.457456  0.300068  1
  O  O19  1  0.795856  0.039645  0.795327  1
