# generated using pymatgen
data_TbEr2Th(Al3Rh)6
_symmetry_space_group_name_H-M   'P 1'
_cell_length_a   7.57690441
_cell_length_b   7.59120610
_cell_length_c   9.48009300
_cell_angle_alpha   90.00000000
_cell_angle_beta   90.00000000
_cell_angle_gamma   119.35651858
_symmetry_Int_Tables_number   1
_chemical_formula_structural   TbEr2Th(Al3Rh)6
_chemical_formula_sum   'Tb1 Er2 Th1 Al18 Rh6'
_cell_volume   475.25367812
_cell_formula_units_Z   1
loop_
 _symmetry_equiv_pos_site_id
 _symmetry_equiv_pos_as_xyz
  1  'x, y, z'
loop_
 _atom_site_type_symbol
 _atom_site_label
 _atom_site_symmetry_multiplicity
 _atom_site_fract_x
 _atom_site_fract_y
 _atom_site_fract_z
 _atom_site_occupancy
  Tb  Tb0  1  0.672019  0.994430  0.750000  1
  Er  Er1  1  0.004287  0.327679  0.250000  1
  Er  Er2  1  0.327537  0.005148  0.250000  1
  Th  Th3  1  0.994562  0.671328  0.750000  1
  Al  Al4  1  0.131388  0.132797  0.750000  1
  Al  Al5  1  0.872360  0.874685  0.250000  1
  Al  Al6  1  0.001570  0.331304  0.571890  1
  Al  Al7  1  0.999489  0.663967  0.417160  1
  Al  Al8  1  0.999489  0.663967  0.082840  1
  Al  Al9  1  0.340051  0.005358  0.927970  1
  Al  Al10  1  0.001570  0.331304  0.928110  1
  Al  Al11  1  0.664319  0.000912  0.077409  1
  Al  Al12  1  0.664319  0.000912  0.422591  1
  Al  Al13  1  0.340051  0.005358  0.572030  1
  Al  Al14  1  0.331910  0.332048  0.055142  1
  Al  Al15  1  0.663246  0.666475  0.956913  1
  Al  Al16  1  0.663246  0.666475  0.543087  1
  Al  Al17  1  0.331910  0.332048  0.444858  1
  Al  Al18  1  0.343950  0.548688  0.750000  1
  Al  Al19  1  0.657926  0.447364  0.250000  1
  Al  Al20  1  0.545273  0.336783  0.750000  1
  Al  Al21  1  0.448132  0.660648  0.250000  1
  Rh  Rh22  1  0.673020  0.329343  0.499526  1
  Rh  Rh23  1  0.326487  0.671547  0.499748  1
  Rh  Rh24  1  0.326487  0.671547  0.000252  1
  Rh  Rh25  1  0.673020  0.329343  0.000474  1
  Rh  Rh26  1  0.001190  0.999269  0.499612  1
  Rh  Rh27  1  0.001190  0.999269  0.000388  1
