# generated using pymatgen
data_Hf2Zr2P4Os3Ru
_symmetry_space_group_name_H-M   'P 1'
_cell_length_a   3.90544000
_cell_length_b   6.43733325
_cell_length_c   7.34498300
_cell_angle_alpha   89.98347067
_cell_angle_beta   90.00000000
_cell_angle_gamma   90.00000000
_symmetry_Int_Tables_number   1
_chemical_formula_structural   Hf2Zr2P4Os3Ru
_chemical_formula_sum   'Hf2 Zr2 P4 Os3 Ru1'
_cell_volume   184.65740973
_cell_formula_units_Z   1
loop_
 _symmetry_equiv_pos_site_id
 _symmetry_equiv_pos_as_xyz
  1  'x, y, z'
loop_
 _atom_site_type_symbol
 _atom_site_label
 _atom_site_symmetry_multiplicity
 _atom_site_fract_x
 _atom_site_fract_y
 _atom_site_fract_z
 _atom_site_occupancy
  Hf  Hf0  1  0.750000  0.522627  0.319972  1
  Hf  Hf1  1  0.750000  0.022011  0.179189  1
  Zr  Zr2  1  0.250000  0.979169  0.822595  1
  Zr  Zr3  1  0.250000  0.478080  0.678695  1
  P  P4  1  0.250000  0.724372  0.123442  1
  P  P5  1  0.250000  0.223160  0.375377  1
  P  P6  1  0.750000  0.275292  0.878006  1
  P  P7  1  0.750000  0.775862  0.623148  1
  Os  Os8  1  0.250000  0.346101  0.064165  1
  Os  Os9  1  0.250000  0.846088  0.437526  1
  Os  Os10  1  0.750000  0.155151  0.556417  1
  Ru  Ru11  1  0.750000  0.652088  0.941467  1
