# generated using pymatgen
data_Er2GaNiI2
_symmetry_space_group_name_H-M   'P 1'
_cell_length_a   4.12637200
_cell_length_b   4.12637202
_cell_length_c   11.51069400
_cell_angle_alpha   90.00000000
_cell_angle_beta   90.00000000
_cell_angle_gamma   119.99999984
_symmetry_Int_Tables_number   1
_chemical_formula_structural   Er2GaNiI2
_chemical_formula_sum   'Er2 Ga1 Ni1 I2'
_cell_volume   169.73402066
_cell_formula_units_Z   1
loop_
 _symmetry_equiv_pos_site_id
 _symmetry_equiv_pos_as_xyz
  1  'x, y, z'
loop_
 _atom_site_type_symbol
 _atom_site_label
 _atom_site_symmetry_multiplicity
 _atom_site_fract_x
 _atom_site_fract_y
 _atom_site_fract_z
 _atom_site_occupancy
  Er  Er0  1  0.000000  0.000000  0.156586  1
  Er  Er1  1  0.000000  0.000000  0.842010  1
  Ga  Ga2  1  0.666667  0.333333  0.996346  1
  Ni  Ni3  1  0.333333  0.666667  0.004885  1
  I  I4  1  0.333333  0.666667  0.662413  1
  I  I5  1  0.666667  0.333333  0.337760  1
