# generated using pymatgen
data_AlCr7Mo4(SeO5)8
_symmetry_space_group_name_H-M   'P 1'
_cell_length_a   6.16065717
_cell_length_b   8.82172661
_cell_length_c   14.94756900
_cell_angle_alpha   89.87149931
_cell_angle_beta   90.08740398
_cell_angle_gamma   89.69834040
_symmetry_Int_Tables_number   1
_chemical_formula_structural   AlCr7Mo4(SeO5)8
_chemical_formula_sum   'Al1 Cr7 Mo4 Se8 O40'
_cell_volume   812.35073649
_cell_formula_units_Z   1
loop_
 _symmetry_equiv_pos_site_id
 _symmetry_equiv_pos_as_xyz
  1  'x, y, z'
loop_
 _atom_site_type_symbol
 _atom_site_label
 _atom_site_symmetry_multiplicity
 _atom_site_fract_x
 _atom_site_fract_y
 _atom_site_fract_z
 _atom_site_occupancy
  Al  Al0  1  0.505655  0.993470  0.350925  1
  Cr  Cr1  1  0.005010  0.005262  0.647373  1
  Cr  Cr2  1  0.994779  0.995071  0.351256  1
  Cr  Cr3  1  0.506065  0.495599  0.148818  1
  Cr  Cr4  1  0.495225  0.504664  0.851755  1
  Cr  Cr5  1  0.996806  0.494809  0.149970  1
  Cr  Cr6  1  0.004841  0.504623  0.851795  1
  Cr  Cr7  1  0.494917  0.005075  0.648231  1
  Mo  Mo8  1  0.249423  0.837870  0.839885  1
  Mo  Mo9  1  0.747749  0.161324  0.160974  1
  Mo  Mo10  1  0.746237  0.665614  0.340143  1
  Mo  Mo11  1  0.248463  0.338332  0.659766  1
  Se  Se12  1  0.253791  0.767291  0.505675  1
  Se  Se13  1  0.249999  0.811176  0.191754  1
  Se  Se14  1  0.744270  0.230782  0.489539  1
  Se  Se15  1  0.750516  0.190109  0.809204  1
  Se  Se16  1  0.749762  0.690470  0.690305  1
  Se  Se17  1  0.750081  0.734550  0.007568  1
  Se  Se18  1  0.255413  0.305561  0.310330  1
  Se  Se19  1  0.251254  0.265033  0.993547  1
  O  O20  1  0.972364  0.168225  0.435348  1
  O  O21  1  0.030081  0.332427  0.242850  1
  O  O22  1  0.025624  0.423093  0.609276  1
  O  O23  1  0.469120  0.840567  0.262282  1
  O  O24  1  0.027205  0.923045  0.890155  1
  O  O25  1  0.260376  0.905919  0.417430  1
  O  O26  1  0.473305  0.830988  0.564816  1
  O  O27  1  0.749819  0.596320  0.919618  1
  O  O28  1  0.748081  0.097706  0.579940  1
  O  O29  1  0.739064  0.870123  0.391275  1
  O  O30  1  0.750190  0.391881  0.798360  1
  O  O31  1  0.526038  0.578575  0.390171  1
  O  O32  1  0.249559  0.135602  0.606590  1
  O  O33  1  0.528032  0.669113  0.064242  1
  O  O34  1  0.740812  0.081566  0.279834  1
  O  O35  1  0.525973  0.165636  0.741105  1
  O  O36  1  0.030489  0.834677  0.561362  1
  O  O37  1  0.752486  0.365270  0.108454  1
  O  O38  1  0.469583  0.422784  0.609018  1
  O  O39  1  0.530622  0.155282  0.431624  1
  O  O40  1  0.252424  0.609331  0.202980  1
  O  O41  1  0.973937  0.665311  0.758727  1
  O  O42  1  0.749756  0.585611  0.221296  1
  O  O43  1  0.249524  0.634785  0.892871  1
  O  O44  1  0.969741  0.583518  0.391488  1
  O  O45  1  0.472323  0.331199  0.936525  1
  O  O46  1  0.471057  0.921908  0.890558  1
  O  O47  1  0.973713  0.165359  0.740523  1
  O  O48  1  0.249636  0.915784  0.720301  1
  O  O49  1  0.250053  0.415502  0.779308  1
  O  O50  1  0.526102  0.665751  0.758682  1
  O  O51  1  0.971477  0.075925  0.111776  1
  O  O52  1  0.251093  0.403520  0.081513  1
  O  O53  1  0.260024  0.103397  0.299586  1
  O  O54  1  0.023405  0.835014  0.258788  1
  O  O55  1  0.971660  0.667556  0.064823  1
  O  O56  1  0.750937  0.892230  0.701148  1
  O  O57  1  0.527484  0.078010  0.108850  1
  O  O58  1  0.477306  0.333695  0.241402  1
  O  O59  1  0.029273  0.331105  0.936294  1
