# generated using pymatgen
data_Ta5Nb2Co8Si14Mo
_symmetry_space_group_name_H-M   'P 1'
_cell_length_a   9.20607933
_cell_length_b   9.20612603
_cell_length_c   9.20375671
_cell_angle_alpha   94.27101490
_cell_angle_beta   94.15954595
_cell_angle_gamma   148.54159768
_symmetry_Int_Tables_number   1
_chemical_formula_structural   Ta5Nb2Co8Si14Mo
_chemical_formula_sum   'Ta5 Nb2 Co8 Si14 Mo1'
_cell_volume   391.83676701
_cell_formula_units_Z   1
loop_
 _symmetry_equiv_pos_site_id
 _symmetry_equiv_pos_as_xyz
  1  'x, y, z'
loop_
 _atom_site_type_symbol
 _atom_site_label
 _atom_site_symmetry_multiplicity
 _atom_site_fract_x
 _atom_site_fract_y
 _atom_site_fract_z
 _atom_site_occupancy
  Ta  Ta0  1  0.133476  0.133914  0.267462  1
  Ta  Ta1  1  0.866207  0.867083  0.733257  1
  Ta  Ta2  1  0.866858  0.133142  0.999971  1
  Ta  Ta3  1  0.134161  0.866161  0.000403  1
  Ta  Ta4  1  0.499524  0.691202  0.190722  1
  Nb  Nb5  1  0.499851  0.309044  0.808777  1
  Nb  Nb6  1  0.310651  0.500426  0.811044  1
  Co  Co7  1  0.399623  0.900127  0.799326  1
  Co  Co8  1  0.100535  0.600864  0.201726  1
  Co  Co9  1  0.100003  0.898344  0.498936  1
  Co  Co10  1  0.399304  0.599959  0.498644  1
  Co  Co11  1  0.600602  0.398895  0.498918  1
  Co  Co12  1  0.898718  0.099341  0.498649  1
  Co  Co13  1  0.899216  0.399664  0.799303  1
  Co  Co14  1  0.600891  0.101164  0.201699  1
  Si  Si15  1  0.292806  0.292516  0.585151  1
  Si  Si16  1  0.707330  0.705164  0.412671  1
  Si  Si17  1  0.707320  0.294698  0.001978  1
  Si  Si18  1  0.292317  0.707670  0.000038  1
  Si  Si19  1  0.999806  0.297446  0.297225  1
  Si  Si20  1  0.999796  0.702571  0.702428  1
  Si  Si21  1  0.702364  0.999977  0.702358  1
  Si  Si22  1  0.297486  0.000030  0.297494  1
  Si  Si23  1  0.500050  0.906360  0.406438  1
  Si  Si24  1  0.499979  0.094328  0.594301  1
  Si  Si25  1  0.093779  0.499962  0.593712  1
  Si  Si26  1  0.904416  0.500053  0.404433  1
  Si  Si27  1  0.752902  0.751199  0.001337  1
  Si  Si28  1  0.250150  0.248434  0.001324  1
  Mo  Mo29  1  0.689880  0.500257  0.190276  1
