# generated using pymatgen
data_Y5(Si3Tc2)4
_symmetry_space_group_name_H-M   'P 1'
_cell_length_a   10.49066200
_cell_length_b   10.49066146
_cell_length_c   14.86892000
_cell_angle_alpha   90.00000000
_cell_angle_beta   90.00000000
_cell_angle_gamma   150.17311264
_symmetry_Int_Tables_number   1
_chemical_formula_structural   Y5(Si3Tc2)4
_chemical_formula_sum   'Y10 Si24 Tc16'
_cell_volume   813.90645375
_cell_formula_units_Z   2
loop_
 _symmetry_equiv_pos_site_id
 _symmetry_equiv_pos_as_xyz
  1  'x, y, z'
loop_
 _atom_site_type_symbol
 _atom_site_label
 _atom_site_symmetry_multiplicity
 _atom_site_fract_x
 _atom_site_fract_y
 _atom_site_fract_z
 _atom_site_occupancy
  Y  Y0  1  0.589029  0.859158  0.330263  1
  Y  Y1  1  0.969535  0.969535  0.000000  1
  Y  Y2  1  0.589029  0.859158  0.669737  1
  Y  Y3  1  0.359396  0.091651  0.171802  1
  Y  Y4  1  0.091651  0.359396  0.828198  1
  Y  Y5  1  0.359396  0.091651  0.828198  1
  Y  Y6  1  0.091651  0.359396  0.171802  1
  Y  Y7  1  0.447855  0.447855  0.500000  1
  Y  Y8  1  0.859158  0.589029  0.330263  1
  Y  Y9  1  0.859158  0.589029  0.669737  1
  Si  Si10  1  0.801057  0.646257  0.149886  1
  Si  Si11  1  0.646257  0.801057  0.850114  1
  Si  Si12  1  0.801057  0.646257  0.850114  1
  Si  Si13  1  0.646257  0.801057  0.149886  1
  Si  Si14  1  0.679688  0.119201  0.500000  1
  Si  Si15  1  0.878093  0.878093  0.608446  1
  Si  Si16  1  0.878093  0.878093  0.391554  1
  Si  Si17  1  0.366540  0.366540  0.878212  1
  Si  Si18  1  0.119201  0.679688  0.500000  1
  Si  Si19  1  0.089678  0.814874  0.000000  1
  Si  Si20  1  0.814874  0.089678  0.000000  1
  Si  Si21  1  0.161818  0.580830  0.000000  1
  Si  Si22  1  0.222277  0.722005  0.242799  1
  Si  Si23  1  0.722005  0.222277  0.757201  1
  Si  Si24  1  0.222277  0.722005  0.757201  1
  Si  Si25  1  0.722005  0.222277  0.242799  1
  Si  Si26  1  0.289662  0.581412  0.500000  1
  Si  Si27  1  0.580830  0.161818  0.000000  1
  Si  Si28  1  0.581412  0.289662  0.500000  1
  Si  Si29  1  0.366540  0.366540  0.121788  1
  Si  Si30  1  0.139252  0.300274  0.353076  1
  Si  Si31  1  0.300274  0.139252  0.646924  1
  Si  Si32  1  0.139252  0.300274  0.646924  1
  Si  Si33  1  0.300274  0.139252  0.353076  1
  Tc  Tc34  1  0.892446  0.093664  0.500000  1
  Tc  Tc35  1  0.093664  0.892446  0.500000  1
  Tc  Tc36  1  0.433239  0.018215  0.374623  1
  Tc  Tc37  1  0.018215  0.433239  0.625377  1
  Tc  Tc38  1  0.408453  0.579659  0.000000  1
  Tc  Tc39  1  0.579659  0.408453  0.000000  1
  Tc  Tc40  1  0.018215  0.433239  0.374623  1
  Tc  Tc41  1  0.516854  0.924270  0.107666  1
  Tc  Tc42  1  0.005096  0.005096  0.227948  1
  Tc  Tc43  1  0.005096  0.005096  0.772052  1
  Tc  Tc44  1  0.507639  0.507639  0.278640  1
  Tc  Tc45  1  0.507639  0.507639  0.721360  1
  Tc  Tc46  1  0.924270  0.516854  0.892334  1
  Tc  Tc47  1  0.516854  0.924270  0.892334  1
  Tc  Tc48  1  0.924270  0.516854  0.107666  1
  Tc  Tc49  1  0.433239  0.018215  0.625377  1
