# generated using pymatgen
data_CdIn2SnAs4
_symmetry_space_group_name_H-M   'P 1'
_cell_length_a   7.55868587
_cell_length_b   7.55868689
_cell_length_c   7.55868735
_cell_angle_alpha   131.59273083
_cell_angle_beta   131.59274033
_cell_angle_gamma   70.87302377
_symmetry_Int_Tables_number   1
_chemical_formula_structural   CdIn2SnAs4
_chemical_formula_sum   'Cd1 In2 Sn1 As4'
_cell_volume   236.56749553
_cell_formula_units_Z   1
loop_
 _symmetry_equiv_pos_site_id
 _symmetry_equiv_pos_as_xyz
  1  'x, y, z'
loop_
 _atom_site_type_symbol
 _atom_site_label
 _atom_site_symmetry_multiplicity
 _atom_site_fract_x
 _atom_site_fract_y
 _atom_site_fract_z
 _atom_site_occupancy
  Cd  Cd0  1  0.000000  0.000000  0.000000  1
  In  In1  1  0.750000  0.250000  0.500000  1
  In  In2  1  0.250000  0.750000  0.500000  1
  Sn  Sn3  1  0.500000  0.500000  0.000000  1
  As  As4  1  0.126935  0.126935  0.502754  1
  As  As5  1  0.873065  0.375819  0.000000  1
  As  As6  1  0.624181  0.624181  0.497246  1
  As  As7  1  0.375819  0.873065  0.000000  1
