# generated using pymatgen
data_Y4B4SbIr9
_symmetry_space_group_name_H-M   'P 1'
_cell_length_a   10.87582270
_cell_length_b   10.87582251
_cell_length_c   10.87582351
_cell_angle_alpha   29.69174806
_cell_angle_beta   29.69175122
_cell_angle_gamma   29.69174900
_symmetry_Int_Tables_number   1
_chemical_formula_structural   Y4B4SbIr9
_chemical_formula_sum   'Y4 B4 Sb1 Ir9'
_cell_volume   279.45459834
_cell_formula_units_Z   1
loop_
 _symmetry_equiv_pos_site_id
 _symmetry_equiv_pos_as_xyz
  1  'x, y, z'
loop_
 _atom_site_type_symbol
 _atom_site_label
 _atom_site_symmetry_multiplicity
 _atom_site_fract_x
 _atom_site_fract_y
 _atom_site_fract_z
 _atom_site_occupancy
  Y  Y0  1  0.149011  0.149011  0.149011  1
  Y  Y1  1  0.950775  0.950775  0.950775  1
  Y  Y2  1  0.850989  0.850989  0.850989  1
  Y  Y3  1  0.049225  0.049225  0.049225  1
  B  B4  1  0.616819  0.616819  0.616819  1
  B  B5  1  0.716682  0.716682  0.716682  1
  B  B6  1  0.383181  0.383181  0.383181  1
  B  B7  1  0.283318  0.283318  0.283318  1
  Sb  Sb8  1  0.500000  0.500000  0.500000  1
  Ir  Ir9  1  0.403672  0.905918  0.403672  1
  Ir  Ir10  1  0.905918  0.403672  0.403672  1
  Ir  Ir11  1  0.500000  0.500000  0.000000  1
  Ir  Ir12  1  0.500000  0.000000  0.500000  1
  Ir  Ir13  1  0.000000  0.500000  0.500000  1
  Ir  Ir14  1  0.596328  0.094082  0.596328  1
  Ir  Ir15  1  0.596328  0.596328  0.094082  1
  Ir  Ir16  1  0.094082  0.596328  0.596328  1
  Ir  Ir17  1  0.403672  0.403672  0.905918  1
