# generated using pymatgen
data_Ac8Tm12Si15Ge
_symmetry_space_group_name_H-M   'P 1'
_cell_length_a   7.90721953
_cell_length_b   7.91159841
_cell_length_c   14.55169700
_cell_angle_alpha   89.91145206
_cell_angle_beta   90.02107139
_cell_angle_gamma   90.02826911
_symmetry_Int_Tables_number   1
_chemical_formula_structural   Ac8Tm12Si15Ge
_chemical_formula_sum   'Ac8 Tm12 Si15 Ge1'
_cell_volume   910.33464982
_cell_formula_units_Z   1
loop_
 _symmetry_equiv_pos_site_id
 _symmetry_equiv_pos_as_xyz
  1  'x, y, z'
loop_
 _atom_site_type_symbol
 _atom_site_label
 _atom_site_symmetry_multiplicity
 _atom_site_fract_x
 _atom_site_fract_y
 _atom_site_fract_z
 _atom_site_occupancy
  Ac  Ac0  1  0.647328  0.990158  0.460524  1
  Ac  Ac1  1  0.353094  0.009225  0.961649  1
  Ac  Ac2  1  0.990351  0.646156  0.538637  1
  Ac  Ac3  1  0.490742  0.852639  0.210970  1
  Ac  Ac4  1  0.510903  0.149540  0.712885  1
  Ac  Ac5  1  0.853220  0.491073  0.789336  1
  Ac  Ac6  1  0.147176  0.508465  0.287836  1
  Ac  Ac7  1  0.009057  0.352858  0.038689  1
  Tm  Tm8  1  0.496182  0.357459  0.125207  1
  Tm  Tm9  1  0.993606  0.144339  0.625694  1
  Tm  Tm10  1  0.857913  0.003907  0.875559  1
  Tm  Tm11  1  0.142720  0.995490  0.374781  1
  Tm  Tm12  1  0.503922  0.641396  0.625357  1
  Tm  Tm13  1  0.357764  0.496129  0.874841  1
  Tm  Tm14  1  0.643199  0.503039  0.374200  1
  Tm  Tm15  1  0.003700  0.857898  0.124330  1
  Tm  Tm16  1  0.319278  0.322205  0.499363  1
  Tm  Tm17  1  0.180604  0.819017  0.751538  1
  Tm  Tm18  1  0.819319  0.180446  0.249791  1
  Tm  Tm19  1  0.680948  0.680852  0.999940  1
  Si  Si20  1  0.714848  0.062388  0.063533  1
  Si  Si21  1  0.938384  0.284735  0.436292  1
  Si  Si22  1  0.437958  0.213533  0.313567  1
  Si  Si23  1  0.561837  0.785296  0.813349  1
  Si  Si24  1  0.214527  0.438076  0.686405  1
  Si  Si25  1  0.784765  0.562193  0.186187  1
  Si  Si26  1  0.062111  0.714748  0.936690  1
  Si  Si27  1  0.795556  0.853871  0.691415  1
  Si  Si28  1  0.204037  0.145730  0.191101  1
  Si  Si29  1  0.854371  0.795903  0.308412  1
  Si  Si30  1  0.355023  0.699215  0.438878  1
  Si  Si31  1  0.645917  0.295895  0.941308  1
  Si  Si32  1  0.702996  0.353512  0.558552  1
  Si  Si33  1  0.295918  0.645928  0.058579  1
  Si  Si34  1  0.146214  0.203890  0.808856  1
  Ge  Ge35  1  0.284512  0.942796  0.565746  1
