# generated using pymatgen
data_Cd2GaPt3
_symmetry_space_group_name_H-M   'P 1'
_cell_length_a   5.56873243
_cell_length_b   5.56873086
_cell_length_c   5.10091250
_cell_angle_alpha   56.91678884
_cell_angle_beta   56.91679014
_cell_angle_gamma   59.99997586
_symmetry_Int_Tables_number   1
_chemical_formula_structural   Cd2GaPt3
_chemical_formula_sum   'Cd2 Ga1 Pt3'
_cell_volume   106.35285803
_cell_formula_units_Z   1
loop_
 _symmetry_equiv_pos_site_id
 _symmetry_equiv_pos_as_xyz
  1  'x, y, z'
loop_
 _atom_site_type_symbol
 _atom_site_label
 _atom_site_symmetry_multiplicity
 _atom_site_fract_x
 _atom_site_fract_y
 _atom_site_fract_z
 _atom_site_occupancy
  Cd  Cd0  1  0.501755  0.501755  0.494736  1
  Cd  Cd1  1  0.748245  0.748245  0.755264  1
  Ga  Ga2  1  0.125000  0.125000  0.625000  1
  Pt  Pt3  1  0.125000  0.125000  0.125000  1
  Pt  Pt4  1  0.625000  0.125000  0.125000  1
  Pt  Pt5  1  0.125000  0.625000  0.125000  1
