# generated using pymatgen
data_TbTm5Lu10(CdIr)4
_symmetry_space_group_name_H-M   'P 1'
_cell_length_a   9.51500113
_cell_length_b   9.51430446
_cell_length_c   9.51815530
_cell_angle_alpha   59.48399607
_cell_angle_beta   59.48669735
_cell_angle_gamma   59.39943319
_symmetry_Int_Tables_number   1
_chemical_formula_structural   TbTm5Lu10(CdIr)4
_chemical_formula_sum   'Tb1 Tm5 Lu10 Cd4 Ir4'
_cell_volume   601.75826750
_cell_formula_units_Z   1
loop_
 _symmetry_equiv_pos_site_id
 _symmetry_equiv_pos_as_xyz
  1  'x, y, z'
loop_
 _atom_site_type_symbol
 _atom_site_label
 _atom_site_symmetry_multiplicity
 _atom_site_fract_x
 _atom_site_fract_y
 _atom_site_fract_z
 _atom_site_occupancy
  Tb  Tb0  1  0.187353  0.187473  0.811723  1
  Tm  Tm1  1  0.189577  0.809606  0.811555  1
  Tm  Tm2  1  0.809403  0.188694  0.189650  1
  Tm  Tm3  1  0.809623  0.189560  0.811615  1
  Tm  Tm4  1  0.188733  0.809508  0.189564  1
  Tm  Tm5  1  0.812109  0.812031  0.189740  1
  Lu  Lu6  1  0.600165  0.599843  0.599049  1
  Lu  Lu7  1  0.601360  0.601321  0.202532  1
  Lu  Lu8  1  0.600523  0.203151  0.600306  1
  Lu  Lu9  1  0.202921  0.600507  0.600246  1
  Lu  Lu10  1  0.059895  0.439165  0.438045  1
  Lu  Lu11  1  0.437451  0.061368  0.061579  1
  Lu  Lu12  1  0.439192  0.059748  0.438052  1
  Lu  Lu13  1  0.061323  0.437536  0.061550  1
  Lu  Lu14  1  0.438851  0.438842  0.060283  1
  Lu  Lu15  1  0.061088  0.060999  0.436667  1
  Cd  Cd16  1  0.828986  0.829627  0.828734  1
  Cd  Cd17  1  0.830883  0.830459  0.504594  1
  Cd  Cd18  1  0.828902  0.505943  0.830874  1
  Cd  Cd19  1  0.505712  0.829071  0.831010  1
  Ir  Ir20  1  0.393807  0.393438  0.391008  1
  Ir  Ir21  1  0.393881  0.394134  0.824732  1
  Ir  Ir22  1  0.393222  0.824707  0.393421  1
  Ir  Ir23  1  0.825045  0.393277  0.393477  1
