# generated using pymatgen
data_Li(TbAs)2
_symmetry_space_group_name_H-M   'P 1'
_cell_length_a   4.19163400
_cell_length_b   4.19164950
_cell_length_c   14.27701400
_cell_angle_alpha   90.00000000
_cell_angle_beta   90.00000000
_cell_angle_gamma   119.99986191
_symmetry_Int_Tables_number   1
_chemical_formula_structural   Li(TbAs)2
_chemical_formula_sum   'Li2 Tb4 As4'
_cell_volume   217.23857032
_cell_formula_units_Z   2
loop_
 _symmetry_equiv_pos_site_id
 _symmetry_equiv_pos_as_xyz
  1  'x, y, z'
loop_
 _atom_site_type_symbol
 _atom_site_label
 _atom_site_symmetry_multiplicity
 _atom_site_fract_x
 _atom_site_fract_y
 _atom_site_fract_z
 _atom_site_occupancy
  Li  Li0  1  0.000001  0.000001  0.250000  1
  Li  Li1  1  0.999999  0.999999  0.750000  1
  Tb  Tb2  1  0.333329  0.666658  0.110759  1
  Tb  Tb3  1  0.333329  0.666658  0.389241  1
  Tb  Tb4  1  0.666671  0.333343  0.610759  1
  Tb  Tb5  1  0.666671  0.333343  0.889241  1
  As  As6  1  0.000000  0.000000  0.000000  1
  As  As7  1  0.666670  0.333339  0.250000  1
  As  As8  1  0.000000  0.000000  0.500000  1
  As  As9  1  0.333330  0.666661  0.750000  1
