# generated using pymatgen
data_Er3In4PdRh
_symmetry_space_group_name_H-M   'P 1'
_cell_length_a   7.98976700
_cell_length_b   7.98976708
_cell_length_c   3.69215500
_cell_angle_alpha   90.00000000
_cell_angle_beta   90.00000000
_cell_angle_gamma   120.00000379
_symmetry_Int_Tables_number   1
_chemical_formula_structural   Er3In4PdRh
_chemical_formula_sum   'Er3 In4 Pd1 Rh1'
_cell_volume   204.11681045
_cell_formula_units_Z   1
loop_
 _symmetry_equiv_pos_site_id
 _symmetry_equiv_pos_as_xyz
  1  'x, y, z'
loop_
 _atom_site_type_symbol
 _atom_site_label
 _atom_site_symmetry_multiplicity
 _atom_site_fract_x
 _atom_site_fract_y
 _atom_site_fract_z
 _atom_site_occupancy
  Er  Er0  1  0.705301  0.953526  0.500000  1
  Er  Er1  1  0.248226  0.294699  0.500000  1
  Er  Er2  1  0.046474  0.751774  0.500000  1
  In  In3  1  0.929486  0.336324  0.000000  1
  In  In4  1  0.406838  0.070514  0.000000  1
  In  In5  1  0.663676  0.593162  0.000000  1
  In  In6  1  0.333333  0.666667  0.000000  1
  Pd  Pd7  1  0.666667  0.333333  0.500000  1
  Rh  Rh8  1  0.000000  0.000000  0.000000  1
