# generated using pymatgen
data_Pa4MnSi4IrPt2
_symmetry_space_group_name_H-M   'P 1'
_cell_length_a   4.20545800
_cell_length_b   7.18675101
_cell_length_c   7.33991223
_cell_angle_alpha   90.75236164
_cell_angle_beta   90.00000000
_cell_angle_gamma   90.00000000
_symmetry_Int_Tables_number   1
_chemical_formula_structural   Pa4MnSi4IrPt2
_chemical_formula_sum   'Pa4 Mn1 Si4 Ir1 Pt2'
_cell_volume   221.81929556
_cell_formula_units_Z   1
loop_
 _symmetry_equiv_pos_site_id
 _symmetry_equiv_pos_as_xyz
  1  'x, y, z'
loop_
 _atom_site_type_symbol
 _atom_site_label
 _atom_site_symmetry_multiplicity
 _atom_site_fract_x
 _atom_site_fract_y
 _atom_site_fract_z
 _atom_site_occupancy
  Pa  Pa0  1  0.250000  0.007699  0.301410  1
  Pa  Pa1  1  0.250000  0.505732  0.200947  1
  Pa  Pa2  1  0.750000  0.004740  0.694276  1
  Pa  Pa3  1  0.750000  0.489283  0.808451  1
  Mn  Mn4  1  0.750000  0.134280  0.059375  1
  Si  Si5  1  0.250000  0.697697  0.614094  1
  Si  Si6  1  0.250000  0.219984  0.924590  1
  Si  Si7  1  0.750000  0.291013  0.373551  1
  Si  Si8  1  0.750000  0.784983  0.088392  1
  Ir  Ir9  1  0.250000  0.856082  0.928628  1
  Pt  Pt10  1  0.250000  0.297603  0.581134  1
  Pt  Pt11  1  0.750000  0.710902  0.425152  1
