# generated using pymatgen
data_Hf4V3Si4Tc
_symmetry_space_group_name_H-M   'P 1'
_cell_length_a   3.48556900
_cell_length_b   6.82103880
_cell_length_c   8.06141092
_cell_angle_alpha   90.39294995
_cell_angle_beta   90.00000000
_cell_angle_gamma   90.00000000
_symmetry_Int_Tables_number   1
_chemical_formula_structural   Hf4V3Si4Tc
_chemical_formula_sum   'Hf4 V3 Si4 Tc1'
_cell_volume   191.65716083
_cell_formula_units_Z   1
loop_
 _symmetry_equiv_pos_site_id
 _symmetry_equiv_pos_as_xyz
  1  'x, y, z'
loop_
 _atom_site_type_symbol
 _atom_site_label
 _atom_site_symmetry_multiplicity
 _atom_site_fract_x
 _atom_site_fract_y
 _atom_site_fract_z
 _atom_site_occupancy
  Hf  Hf0  1  0.750000  0.458388  0.168561  1
  Hf  Hf1  1  0.750000  0.955278  0.331369  1
  Hf  Hf2  1  0.250000  0.544109  0.833367  1
  Hf  Hf3  1  0.250000  0.043781  0.668852  1
  V  V4  1  0.750000  0.875351  0.939677  1
  V  V5  1  0.250000  0.628817  0.438528  1
  V  V6  1  0.250000  0.125240  0.059936  1
  Si  Si7  1  0.750000  0.242112  0.867262  1
  Si  Si8  1  0.750000  0.741308  0.636292  1
  Si  Si9  1  0.250000  0.757950  0.134563  1
  Si  Si10  1  0.250000  0.257713  0.361248  1
  Tc  Tc11  1  0.750000  0.369950  0.560344  1
