# generated using pymatgen
data_NiP2Pd2Ru
_symmetry_space_group_name_H-M   'P 1'
_cell_length_a   3.67291400
_cell_length_b   6.32286000
_cell_length_c   6.94496500
_cell_angle_alpha   90.00000000
_cell_angle_beta   90.00000000
_cell_angle_gamma   90.00000000
_symmetry_Int_Tables_number   1
_chemical_formula_structural   NiP2Pd2Ru
_chemical_formula_sum   'Ni2 P4 Pd4 Ru2'
_cell_volume   161.28515163
_cell_formula_units_Z   2
loop_
 _symmetry_equiv_pos_site_id
 _symmetry_equiv_pos_as_xyz
  1  'x, y, z'
loop_
 _atom_site_type_symbol
 _atom_site_label
 _atom_site_symmetry_multiplicity
 _atom_site_fract_x
 _atom_site_fract_y
 _atom_site_fract_z
 _atom_site_occupancy
  Ni  Ni0  1  0.750000  0.858683  0.421054  1
  Ni  Ni1  1  0.750000  0.358683  0.078946  1
  P  P2  1  0.250000  0.771303  0.623171  1
  P  P3  1  0.250000  0.271303  0.876829  1
  P  P4  1  0.750000  0.220079  0.376319  1
  P  P5  1  0.750000  0.720079  0.123681  1
  Pd  Pd6  1  0.250000  0.040967  0.160811  1
  Pd  Pd7  1  0.250000  0.540967  0.339189  1
  Pd  Pd8  1  0.750000  0.974179  0.853209  1
  Pd  Pd9  1  0.750000  0.474179  0.646791  1
  Ru  Ru10  1  0.250000  0.134790  0.568178  1
  Ru  Ru11  1  0.250000  0.634790  0.931822  1
