# generated using pymatgen
data_Ho2Al9CuOs2
_symmetry_space_group_name_H-M   'P 1'
_cell_length_a   7.52727813
_cell_length_b   7.52727900
_cell_length_c   9.52955595
_cell_angle_alpha   90.19071524
_cell_angle_beta   90.19072197
_cell_angle_gamma   119.14336110
_symmetry_Int_Tables_number   1
_chemical_formula_structural   Ho2Al9CuOs2
_chemical_formula_sum   'Ho4 Al18 Cu2 Os4'
_cell_volume   471.57893367
_cell_formula_units_Z   2
loop_
 _symmetry_equiv_pos_site_id
 _symmetry_equiv_pos_as_xyz
  1  'x, y, z'
loop_
 _atom_site_type_symbol
 _atom_site_label
 _atom_site_symmetry_multiplicity
 _atom_site_fract_x
 _atom_site_fract_y
 _atom_site_fract_z
 _atom_site_occupancy
  Ho  Ho0  1  0.994801  0.673993  0.247127  1
  Ho  Ho1  1  0.005199  0.326007  0.752873  1
  Ho  Ho2  1  0.673993  0.994801  0.247127  1
  Ho  Ho3  1  0.326007  0.005199  0.752873  1
  Al  Al4  1  0.130077  0.130077  0.251006  1
  Al  Al5  1  0.869923  0.869923  0.748994  1
  Al  Al6  1  0.002202  0.336844  0.072945  1
  Al  Al7  1  0.997798  0.663156  0.927055  1
  Al  Al8  1  0.998083  0.665745  0.575459  1
  Al  Al9  1  0.334255  0.001917  0.424541  1
  Al  Al10  1  0.001917  0.334255  0.424541  1
  Al  Al11  1  0.665745  0.998083  0.575459  1
  Al  Al12  1  0.663156  0.997798  0.927055  1
  Al  Al13  1  0.336844  0.002202  0.072945  1
  Al  Al14  1  0.332250  0.332250  0.556473  1
  Al  Al15  1  0.667750  0.667750  0.443527  1
  Al  Al16  1  0.667363  0.667363  0.042969  1
  Al  Al17  1  0.332637  0.332637  0.957031  1
  Al  Al18  1  0.341510  0.550391  0.247608  1
  Al  Al19  1  0.658490  0.449609  0.752392  1
  Al  Al20  1  0.550391  0.341510  0.247608  1
  Al  Al21  1  0.449609  0.658490  0.752392  1
  Cu  Cu22  1  0.328720  0.671280  0.500000  1
  Cu  Cu23  1  0.671280  0.328720  0.500000  1
  Os  Os24  1  0.671972  0.328028  0.000000  1
  Os  Os25  1  0.328028  0.671972  0.000000  1
  Os  Os26  1  0.000000  0.000000  0.000000  1
  Os  Os27  1  0.000000  0.000000  0.500000  1
