# generated using pymatgen
data_La11In9RhAu3
_symmetry_space_group_name_H-M   'P 1'
_cell_length_a   13.84591659
_cell_length_b   13.87578080
_cell_length_c   3.88947500
_cell_angle_alpha   90.00000000
_cell_angle_beta   90.00000000
_cell_angle_gamma   68.18644826
_symmetry_Int_Tables_number   1
_chemical_formula_structural   La11In9RhAu3
_chemical_formula_sum   'La11 In9 Rh1 Au3'
_cell_volume   693.75209103
_cell_formula_units_Z   1
loop_
 _symmetry_equiv_pos_site_id
 _symmetry_equiv_pos_as_xyz
  1  'x, y, z'
loop_
 _atom_site_type_symbol
 _atom_site_label
 _atom_site_symmetry_multiplicity
 _atom_site_fract_x
 _atom_site_fract_y
 _atom_site_fract_z
 _atom_site_occupancy
  La  La0  1  0.315640  0.698167  0.000000  1
  La  La1  1  0.696188  0.304002  0.000000  1
  La  La2  1  0.999570  0.000748  0.000000  1
  La  La3  1  0.419182  0.926653  0.000000  1
  La  La4  1  0.585749  0.060384  0.000000  1
  La  La5  1  0.064727  0.583701  0.000000  1
  La  La6  1  0.936470  0.416386  0.000000  1
  La  La7  1  0.160786  0.160980  0.000000  1
  La  La8  1  0.840741  0.835572  0.000000  1
  La  La9  1  0.368852  0.371108  0.000000  1
  La  La10  1  0.616518  0.636941  0.000000  1
  In  In11  1  0.367389  0.158618  0.500002  1
  In  In12  1  0.634190  0.835503  0.500002  1
  In  In13  1  0.835315  0.633274  0.500002  1
  In  In14  1  0.160300  0.365161  0.500002  1
  In  In15  1  0.219033  0.923554  0.500002  1
  In  In16  1  0.782748  0.071220  0.500002  1
  In  In17  1  0.076199  0.782661  0.500002  1
  In  In18  1  0.927806  0.217814  0.500002  1
  In  In19  1  0.501223  0.500476  0.500002  1
  Rh  Rh20  1  0.442648  0.762912  0.500002  1
  Au  Au21  1  0.549647  0.247503  0.500002  1
  Au  Au22  1  0.248666  0.554319  0.500002  1
  Au  Au23  1  0.750413  0.452344  0.500002  1
