# generated using pymatgen
data_Tb2Nd2ErSn4
_symmetry_space_group_name_H-M   'P 1'
_cell_length_a   8.10962500
_cell_length_b   8.26814600
_cell_length_c   15.62281600
_cell_angle_alpha   90.00000000
_cell_angle_beta   90.00000000
_cell_angle_gamma   90.00000000
_symmetry_Int_Tables_number   1
_chemical_formula_structural   Tb2Nd2ErSn4
_chemical_formula_sum   'Tb8 Nd8 Er4 Sn16'
_cell_volume   1047.53423915
_cell_formula_units_Z   4
loop_
 _symmetry_equiv_pos_site_id
 _symmetry_equiv_pos_as_xyz
  1  'x, y, z'
loop_
 _atom_site_type_symbol
 _atom_site_label
 _atom_site_symmetry_multiplicity
 _atom_site_fract_x
 _atom_site_fract_y
 _atom_site_fract_z
 _atom_site_occupancy
  Tb  Tb0  1  0.365509  0.835647  0.877990  1
  Tb  Tb1  1  0.865509  0.664353  0.622010  1
  Tb  Tb2  1  0.634491  0.164353  0.377990  1
  Tb  Tb3  1  0.134491  0.335647  0.122010  1
  Tb  Tb4  1  0.634491  0.164353  0.122010  1
  Tb  Tb5  1  0.134491  0.335647  0.377990  1
  Tb  Tb6  1  0.365509  0.835647  0.622010  1
  Tb  Tb7  1  0.865509  0.664353  0.877990  1
  Nd  Nd8  1  0.518132  0.320582  0.902166  1
  Nd  Nd9  1  0.018132  0.179418  0.597834  1
  Nd  Nd10  1  0.481868  0.679418  0.402166  1
  Nd  Nd11  1  0.981868  0.820582  0.097834  1
  Nd  Nd12  1  0.481868  0.679418  0.097834  1
  Nd  Nd13  1  0.981868  0.820582  0.402166  1
  Nd  Nd14  1  0.518132  0.320582  0.597834  1
  Nd  Nd15  1  0.018132  0.179418  0.902166  1
  Er  Er16  1  0.198001  0.502848  0.750000  1
  Er  Er17  1  0.698001  0.997152  0.750000  1
  Er  Er18  1  0.801999  0.497152  0.250000  1
  Er  Er19  1  0.301999  0.002848  0.250000  1
  Sn  Sn20  1  0.297587  0.037946  0.042447  1
  Sn  Sn21  1  0.797587  0.462054  0.457553  1
  Sn  Sn22  1  0.702413  0.962054  0.542447  1
  Sn  Sn23  1  0.202413  0.537946  0.957553  1
  Sn  Sn24  1  0.702413  0.962054  0.957553  1
  Sn  Sn25  1  0.202413  0.537946  0.542447  1
  Sn  Sn26  1  0.297587  0.037946  0.457553  1
  Sn  Sn27  1  0.797587  0.462054  0.042447  1
  Sn  Sn28  1  0.563643  0.621206  0.750000  1
  Sn  Sn29  1  0.063643  0.878794  0.750000  1
  Sn  Sn30  1  0.436357  0.378794  0.250000  1
  Sn  Sn31  1  0.936357  0.121206  0.250000  1
  Sn  Sn32  1  0.325885  0.143361  0.750000  1
  Sn  Sn33  1  0.825885  0.356639  0.750000  1
  Sn  Sn34  1  0.674115  0.856639  0.250000  1
  Sn  Sn35  1  0.174115  0.643361  0.250000  1
