# generated using pymatgen
data_Sm3YGa18(PdRu)3
_symmetry_space_group_name_H-M   'P 1'
_cell_length_a   7.64499377
_cell_length_b   7.64523484
_cell_length_c   9.66235396
_cell_angle_alpha   89.95836456
_cell_angle_beta   89.95095748
_cell_angle_gamma   119.72583841
_symmetry_Int_Tables_number   1
_chemical_formula_structural   Sm3YGa18(PdRu)3
_chemical_formula_sum   'Sm3 Y1 Ga18 Pd3 Ru3'
_cell_volume   490.42678316
_cell_formula_units_Z   1
loop_
 _symmetry_equiv_pos_site_id
 _symmetry_equiv_pos_as_xyz
  1  'x, y, z'
loop_
 _atom_site_type_symbol
 _atom_site_label
 _atom_site_symmetry_multiplicity
 _atom_site_fract_x
 _atom_site_fract_y
 _atom_site_fract_z
 _atom_site_occupancy
  Sm  Sm0  1  0.995841  0.670326  0.250618  1
  Sm  Sm1  1  0.001874  0.328168  0.749053  1
  Sm  Sm2  1  0.671767  0.998029  0.250920  1
  Y  Y3  1  0.329666  0.003665  0.749225  1
  Ga  Ga4  1  0.134534  0.131880  0.249907  1
  Ga  Ga5  1  0.869027  0.866071  0.750063  1
  Ga  Ga6  1  0.008017  0.339774  0.080002  1
  Ga  Ga7  1  0.003054  0.665641  0.919648  1
  Ga  Ga8  1  0.999106  0.660840  0.577658  1
  Ga  Ga9  1  0.340232  0.001504  0.423868  1
  Ga  Ga10  1  0.003108  0.340496  0.421732  1
  Ga  Ga11  1  0.658335  0.997063  0.578997  1
  Ga  Ga12  1  0.659333  0.992124  0.919339  1
  Ga  Ga13  1  0.335474  0.997880  0.078803  1
  Ga  Ga14  1  0.340869  0.339743  0.562654  1
  Ga  Ga15  1  0.659365  0.659136  0.438336  1
  Ga  Ga16  1  0.658735  0.664296  0.065645  1
  Ga  Ga17  1  0.335781  0.340436  0.933419  1
  Ga  Ga18  1  0.337500  0.551050  0.250570  1
  Ga  Ga19  1  0.663753  0.453736  0.746064  1
  Ga  Ga20  1  0.545162  0.335493  0.254031  1
  Ga  Ga21  1  0.448682  0.663067  0.749399  1
  Pd  Pd22  1  0.671649  0.328192  0.999690  1
  Pd  Pd23  1  0.000828  0.999624  0.999644  1
  Pd  Pd24  1  0.999938  0.000516  0.500333  1
  Ru  Ru25  1  0.328072  0.671987  0.999530  1
  Ru  Ru26  1  0.327721  0.672110  0.500473  1
  Ru  Ru27  1  0.672579  0.327154  0.500376  1
