# generated using pymatgen
data_Ba6YEr(Tc2O9)2
_symmetry_space_group_name_H-M   'P 1'
_cell_length_a   5.98368300
_cell_length_b   5.98368146
_cell_length_c   14.53695900
_cell_angle_alpha   90.00000000
_cell_angle_beta   90.00000000
_cell_angle_gamma   120.00000297
_symmetry_Int_Tables_number   1
_chemical_formula_structural   Ba6YEr(Tc2O9)2
_chemical_formula_sum   'Ba6 Y1 Er1 Tc4 O18'
_cell_volume   450.75570080
_cell_formula_units_Z   1
loop_
 _symmetry_equiv_pos_site_id
 _symmetry_equiv_pos_as_xyz
  1  'x, y, z'
loop_
 _atom_site_type_symbol
 _atom_site_label
 _atom_site_symmetry_multiplicity
 _atom_site_fract_x
 _atom_site_fract_y
 _atom_site_fract_z
 _atom_site_occupancy
  Ba  Ba0  1  0.333333  0.666667  0.596622  1
  Ba  Ba1  1  0.666667  0.333333  0.096170  1
  Ba  Ba2  1  0.666667  0.333333  0.403378  1
  Ba  Ba3  1  0.333333  0.666667  0.903830  1
  Ba  Ba4  1  0.000000  0.000000  0.750428  1
  Ba  Ba5  1  0.000000  0.000000  0.249572  1
  Y  Y6  1  0.000000  0.000000  0.500000  1
  Er  Er7  1  0.000000  0.000000  0.000000  1
  Tc  Tc8  1  0.666667  0.333333  0.664494  1
  Tc  Tc9  1  0.333333  0.666667  0.163509  1
  Tc  Tc10  1  0.666667  0.333333  0.836491  1
  Tc  Tc11  1  0.333333  0.666667  0.335506  1
  O  O12  1  0.174699  0.825301  0.088347  1
  O  O13  1  0.174699  0.349400  0.088347  1
  O  O14  1  0.650600  0.825301  0.088347  1
  O  O15  1  0.351867  0.175933  0.589067  1
  O  O16  1  0.825301  0.650600  0.911653  1
  O  O17  1  0.824067  0.175933  0.589067  1
  O  O18  1  0.824067  0.648133  0.589067  1
  O  O19  1  0.175933  0.824067  0.410933  1
  O  O20  1  0.648133  0.824067  0.410933  1
  O  O21  1  0.349400  0.174699  0.911653  1
  O  O22  1  0.825301  0.174699  0.911653  1
  O  O23  1  0.175933  0.351867  0.410933  1
  O  O24  1  0.491642  0.983284  0.249840  1
  O  O25  1  0.508358  0.491642  0.750160  1
  O  O26  1  0.983284  0.491642  0.750160  1
  O  O27  1  0.016716  0.508358  0.249840  1
  O  O28  1  0.491642  0.508358  0.249840  1
  O  O29  1  0.508358  0.016716  0.750160  1
