# generated using pymatgen
data_Nd6Ho2Sc12Si15Hg
_symmetry_space_group_name_H-M   'P 1'
_cell_length_a   7.21811869
_cell_length_b   7.47721108
_cell_length_c   14.23952830
_cell_angle_alpha   89.82667848
_cell_angle_beta   89.65053034
_cell_angle_gamma   90.25588963
_symmetry_Int_Tables_number   1
_chemical_formula_structural   Nd6Ho2Sc12Si15Hg
_chemical_formula_sum   'Nd6 Ho2 Sc12 Si15 Hg1'
_cell_volume   768.50169555
_cell_formula_units_Z   1
loop_
 _symmetry_equiv_pos_site_id
 _symmetry_equiv_pos_as_xyz
  1  'x, y, z'
loop_
 _atom_site_type_symbol
 _atom_site_label
 _atom_site_symmetry_multiplicity
 _atom_site_fract_x
 _atom_site_fract_y
 _atom_site_fract_z
 _atom_site_occupancy
  Nd  Nd0  1  0.011604  0.173605  0.098784  1
  Nd  Nd1  1  0.988088  0.827555  0.902630  1
  Nd  Nd2  1  0.488584  0.673764  0.903865  1
  Nd  Nd3  1  0.988487  0.831770  0.597735  1
  Nd  Nd4  1  0.511134  0.326566  0.096296  1
  Nd  Nd5  1  0.007686  0.170003  0.399160  1
  Ho  Ho6  1  0.510781  0.322564  0.398635  1
  Ho  Ho7  1  0.497936  0.682392  0.600706  1
  Sc  Sc8  1  0.162923  0.500637  0.753797  1
  Sc  Sc9  1  0.836842  0.499658  0.250948  1
  Sc  Sc10  1  0.337611  0.998419  0.249608  1
  Sc  Sc11  1  0.665133  0.999782  0.751036  1
  Sc  Sc12  1  0.343101  0.169336  0.628782  1
  Sc  Sc13  1  0.663032  0.822680  0.373247  1
  Sc  Sc14  1  0.168017  0.676421  0.371516  1
  Sc  Sc15  1  0.668397  0.824480  0.125545  1
  Sc  Sc16  1  0.823976  0.326624  0.625000  1
  Sc  Sc17  1  0.329810  0.174131  0.874881  1
  Sc  Sc18  1  0.829201  0.324114  0.875236  1
  Sc  Sc19  1  0.169674  0.675493  0.125882  1
  Si  Si20  1  0.036325  0.127817  0.750182  1
  Si  Si21  1  0.962704  0.875704  0.249434  1
  Si  Si22  1  0.465270  0.619264  0.249575  1
  Si  Si23  1  0.534470  0.382371  0.750515  1
  Si  Si24  1  0.289584  0.877100  0.749612  1
  Si  Si25  1  0.707637  0.121999  0.249823  1
  Si  Si26  1  0.213731  0.377749  0.250611  1
  Si  Si27  1  0.788091  0.622154  0.749913  1
  Si  Si28  1  0.830325  0.537736  0.458667  1
  Si  Si29  1  0.346058  0.961520  0.460262  1
  Si  Si30  1  0.848703  0.537214  0.039238  1
  Si  Si31  1  0.652513  0.038393  0.536748  1
  Si  Si32  1  0.150954  0.462361  0.961821  1
  Si  Si33  1  0.652201  0.036894  0.960666  1
  Si  Si34  1  0.346772  0.962869  0.039832  1
  Hg  Hg35  1  0.172647  0.458858  0.539818  1
