# generated using pymatgen
data_MnBe8ZnRh2
_symmetry_space_group_name_H-M   'P 1'
_cell_length_a   4.33020800
_cell_length_b   4.33020789
_cell_length_c   7.06113100
_cell_angle_alpha   90.00000000
_cell_angle_beta   90.00000000
_cell_angle_gamma   120.00000087
_symmetry_Int_Tables_number   1
_chemical_formula_structural   MnBe8ZnRh2
_chemical_formula_sum   'Mn1 Be8 Zn1 Rh2'
_cell_volume   114.66276263
_cell_formula_units_Z   1
loop_
 _symmetry_equiv_pos_site_id
 _symmetry_equiv_pos_as_xyz
  1  'x, y, z'
loop_
 _atom_site_type_symbol
 _atom_site_label
 _atom_site_symmetry_multiplicity
 _atom_site_fract_x
 _atom_site_fract_y
 _atom_site_fract_z
 _atom_site_occupancy
  Mn  Mn0  1  0.333333  0.666667  0.437172  1
  Be  Be1  1  0.000000  0.000000  0.002246  1
  Be  Be2  1  0.000000  0.000000  0.504188  1
  Be  Be3  1  0.832580  0.665160  0.252156  1
  Be  Be4  1  0.169661  0.830339  0.748284  1
  Be  Be5  1  0.660678  0.830339  0.748284  1
  Be  Be6  1  0.334840  0.167420  0.252156  1
  Be  Be7  1  0.832580  0.167420  0.252156  1
  Be  Be8  1  0.169661  0.339322  0.748284  1
  Zn  Zn9  1  0.666667  0.333333  0.935668  1
  Rh  Rh10  1  0.333333  0.666667  0.064152  1
  Rh  Rh11  1  0.666667  0.333333  0.555255  1
