# generated using pymatgen
data_Ce3Dy2(In2Pt)2
_symmetry_space_group_name_H-M   'P 1'
_cell_length_a   8.05478400
_cell_length_b   18.69267800
_cell_length_c   3.65032000
_cell_angle_alpha   90.00000000
_cell_angle_beta   90.00000000
_cell_angle_gamma   90.00000000
_symmetry_Int_Tables_number   1
_chemical_formula_structural   Ce3Dy2(In2Pt)2
_chemical_formula_sum   'Ce6 Dy4 In8 Pt4'
_cell_volume   549.61219636
_cell_formula_units_Z   2
loop_
 _symmetry_equiv_pos_site_id
 _symmetry_equiv_pos_as_xyz
  1  'x, y, z'
loop_
 _atom_site_type_symbol
 _atom_site_label
 _atom_site_symmetry_multiplicity
 _atom_site_fract_x
 _atom_site_fract_y
 _atom_site_fract_z
 _atom_site_occupancy
  Ce  Ce0  1  0.000000  0.000000  0.000000  1
  Ce  Ce1  1  0.500001  0.500000  0.000000  1
  Ce  Ce2  1  0.139456  0.421607  0.000000  1
  Ce  Ce3  1  0.860544  0.578394  0.000000  1
  Ce  Ce4  1  0.639457  0.078393  0.000000  1
  Ce  Ce5  1  0.360543  0.921607  0.000000  1
  Dy  Dy6  1  0.256741  0.222968  0.000000  1
  Dy  Dy7  1  0.743259  0.777031  0.000000  1
  Dy  Dy8  1  0.756742  0.277031  0.000000  1
  Dy  Dy9  1  0.243258  0.722969  0.000000  1
  In  In10  1  0.295235  0.074427  0.500002  1
  In  In11  1  0.704766  0.925572  0.500002  1
  In  In12  1  0.795235  0.425572  0.500002  1
  In  In13  1  0.204766  0.574428  0.500002  1
  In  In14  1  0.441617  0.347956  0.500002  1
  In  In15  1  0.558381  0.652044  0.500002  1
  In  In16  1  0.941618  0.152044  0.500002  1
  In  In17  1  0.058382  0.847956  0.500002  1
  Pt  Pt18  1  0.039939  0.306604  0.500002  1
  Pt  Pt19  1  0.960061  0.693396  0.500002  1
  Pt  Pt20  1  0.539938  0.193396  0.500002  1
  Pt  Pt21  1  0.460061  0.806604  0.500002  1
