# generated using pymatgen
data_Ti4Co10SiGeB4
_symmetry_space_group_name_H-M   'P 1'
_cell_length_a   8.37546100
_cell_length_b   8.37546100
_cell_length_c   3.00195100
_cell_angle_alpha   90.00000000
_cell_angle_beta   90.00000000
_cell_angle_gamma   90.00000000
_symmetry_Int_Tables_number   1
_chemical_formula_structural   Ti4Co10SiGeB4
_chemical_formula_sum   'Ti4 Co10 Si1 Ge1 B4'
_cell_volume   210.58190031
_cell_formula_units_Z   1
loop_
 _symmetry_equiv_pos_site_id
 _symmetry_equiv_pos_as_xyz
  1  'x, y, z'
loop_
 _atom_site_type_symbol
 _atom_site_label
 _atom_site_symmetry_multiplicity
 _atom_site_fract_x
 _atom_site_fract_y
 _atom_site_fract_z
 _atom_site_occupancy
  Ti  Ti0  1  0.823659  0.325996  0.000000  1
  Ti  Ti1  1  0.325996  0.176341  0.000000  1
  Ti  Ti2  1  0.674004  0.823659  0.000000  1
  Ti  Ti3  1  0.176341  0.674004  0.000000  1
  Co  Co4  1  0.500000  0.000000  0.500000  1
  Co  Co5  1  0.000000  0.500000  0.500000  1
  Co  Co6  1  0.070981  0.219136  0.500000  1
  Co  Co7  1  0.219136  0.929019  0.500000  1
  Co  Co8  1  0.780864  0.070981  0.500000  1
  Co  Co9  1  0.929019  0.780864  0.500000  1
  Co  Co10  1  0.431193  0.715082  0.500000  1
  Co  Co11  1  0.568807  0.284918  0.500000  1
  Co  Co12  1  0.715082  0.568807  0.500000  1
  Co  Co13  1  0.284918  0.431193  0.500000  1
  Si  Si14  1  0.500000  0.500000  0.000000  1
  Ge  Ge15  1  0.000000  0.000000  0.000000  1
  B  B16  1  0.620663  0.121349  0.000000  1
  B  B17  1  0.121349  0.379337  0.000000  1
  B  B18  1  0.878651  0.620663  0.000000  1
  B  B19  1  0.379337  0.878651  0.000000  1
