# generated using pymatgen
data_TbEr11Si11Ag
_symmetry_space_group_name_H-M   'P 1'
_cell_length_a   3.82926800
_cell_length_b   5.65657752
_cell_length_c   23.53655000
_cell_angle_alpha   82.72372970
_cell_angle_beta   90.00000000
_cell_angle_gamma   90.00000000
_symmetry_Int_Tables_number   1
_chemical_formula_structural   TbEr11Si11Ag
_chemical_formula_sum   'Tb1 Er11 Si11 Ag1'
_cell_volume   505.70910190
_cell_formula_units_Z   1
loop_
 _symmetry_equiv_pos_site_id
 _symmetry_equiv_pos_as_xyz
  1  'x, y, z'
loop_
 _atom_site_type_symbol
 _atom_site_label
 _atom_site_symmetry_multiplicity
 _atom_site_fract_x
 _atom_site_fract_y
 _atom_site_fract_z
 _atom_site_occupancy
  Tb  Tb0  1  0.750000  0.171209  0.892907  1
  Er  Er1  1  0.750000  0.362055  0.058486  1
  Er  Er2  1  0.250000  0.662455  0.939579  1
  Er  Er3  1  0.750000  0.531292  0.227945  1
  Er  Er4  1  0.250000  0.468354  0.772506  1
  Er  Er5  1  0.750000  0.167693  0.393410  1
  Er  Er6  1  0.250000  0.824468  0.606150  1
  Er  Er7  1  0.750000  0.349817  0.559039  1
  Er  Er8  1  0.250000  0.642256  0.440160  1
  Er  Er9  1  0.750000  0.992738  0.725532  1
  Er  Er10  1  0.250000  0.994926  0.275637  1
  Er  Er11  1  0.250000  0.844072  0.106893  1
  Si  Si12  1  0.750000  0.873559  0.012742  1
  Si  Si13  1  0.250000  0.150311  0.987751  1
  Si  Si14  1  0.750000  0.027982  0.183142  1
  Si  Si15  1  0.250000  0.956643  0.819618  1
  Si  Si16  1  0.750000  0.706661  0.346925  1
  Si  Si17  1  0.250000  0.285309  0.652953  1
  Si  Si18  1  0.750000  0.859539  0.512282  1
  Si  Si19  1  0.250000  0.132257  0.486881  1
  Si  Si20  1  0.750000  0.531640  0.678497  1
  Si  Si21  1  0.250000  0.458653  0.321446  1
  Si  Si22  1  0.750000  0.682732  0.845071  1
  Ag  Ag23  1  0.250000  0.323382  0.154447  1
