# generated using pymatgen
data_Tm12AlCo3NiBi
_symmetry_space_group_name_H-M   'P 1'
_cell_length_a   8.26250265
_cell_length_b   8.25895331
_cell_length_c   8.26250259
_cell_angle_alpha   109.69602972
_cell_angle_beta   111.48004866
_cell_angle_gamma   107.28142188
_symmetry_Int_Tables_number   1
_chemical_formula_structural   Tm12AlCo3NiBi
_chemical_formula_sum   'Tm12 Al1 Co3 Ni1 Bi1'
_cell_volume   433.36272614
_cell_formula_units_Z   1
loop_
 _symmetry_equiv_pos_site_id
 _symmetry_equiv_pos_as_xyz
  1  'x, y, z'
loop_
 _atom_site_type_symbol
 _atom_site_label
 _atom_site_symmetry_multiplicity
 _atom_site_fract_x
 _atom_site_fract_y
 _atom_site_fract_z
 _atom_site_occupancy
  Tm  Tm0  1  0.282055  0.177405  0.459316  1
  Tm  Tm1  1  0.721618  0.818628  0.540066  1
  Tm  Tm2  1  0.278563  0.818628  0.097009  1
  Tm  Tm3  1  0.718088  0.177405  0.895351  1
  Tm  Tm4  1  0.631945  0.320743  0.314458  1
  Tm  Tm5  1  0.368091  0.682435  0.688817  1
  Tm  Tm6  1  0.006286  0.320743  0.688799  1
  Tm  Tm7  1  0.993618  0.682435  0.314344  1
  Tm  Tm8  1  0.231474  0.437098  0.205625  1
  Tm  Tm9  1  0.767592  0.561713  0.794118  1
  Tm  Tm10  1  0.232603  0.026736  0.794133  1
  Tm  Tm11  1  0.768394  0.973844  0.205450  1
  Al  Al12  1  0.000076  0.996645  0.996570  1
  Co  Co13  1  0.999988  0.661435  0.661446  1
  Co  Co14  1  0.385623  0.883732  0.498108  1
  Co  Co15  1  0.614674  0.112606  0.497932  1
  Ni  Ni16  1  0.999337  0.348065  0.348728  1
  Bi  Bi17  1  0.499976  0.499708  0.999732  1
