# generated using pymatgen
data_Ca2SmNi6B2Rh
_symmetry_space_group_name_H-M   'P 1'
_cell_length_a   7.92148019
_cell_length_b   7.92148050
_cell_length_c   7.92147884
_cell_angle_alpha   37.82768443
_cell_angle_beta   37.82769177
_cell_angle_gamma   37.82768313
_symmetry_Int_Tables_number   1
_chemical_formula_structural   Ca2SmNi6B2Rh
_chemical_formula_sum   'Ca2 Sm1 Ni6 B2 Rh1'
_cell_volume   167.77078910
_cell_formula_units_Z   1
loop_
 _symmetry_equiv_pos_site_id
 _symmetry_equiv_pos_as_xyz
  1  'x, y, z'
loop_
 _atom_site_type_symbol
 _atom_site_label
 _atom_site_symmetry_multiplicity
 _atom_site_fract_x
 _atom_site_fract_y
 _atom_site_fract_z
 _atom_site_occupancy
  Ca  Ca0  1  0.647094  0.647094  0.647094  1
  Ca  Ca1  1  0.352906  0.352906  0.352906  1
  Sm  Sm2  1  0.500000  0.500000  0.500000  1
  Ni  Ni3  1  0.570231  0.060213  0.060213  1
  Ni  Ni4  1  0.060213  0.060213  0.570231  1
  Ni  Ni5  1  0.060213  0.570231  0.060213  1
  Ni  Ni6  1  0.939787  0.429769  0.939787  1
  Ni  Ni7  1  0.939787  0.939787  0.429769  1
  Ni  Ni8  1  0.429769  0.939787  0.939787  1
  B  B9  1  0.831455  0.831455  0.831455  1
  B  B10  1  0.168545  0.168545  0.168545  1
  Rh  Rh11  1  0.000000  0.000000  0.000000  1
