# generated using pymatgen
data_Sm3In3CuAgAu
_symmetry_space_group_name_H-M   'P 1'
_cell_length_a   7.86007400
_cell_length_b   7.86007421
_cell_length_c   3.99345500
_cell_angle_alpha   90.00000000
_cell_angle_beta   90.00000000
_cell_angle_gamma   119.99999912
_symmetry_Int_Tables_number   1
_chemical_formula_structural   Sm3In3CuAgAu
_chemical_formula_sum   'Sm3 In3 Cu1 Ag1 Au1'
_cell_volume   213.66466764
_cell_formula_units_Z   1
loop_
 _symmetry_equiv_pos_site_id
 _symmetry_equiv_pos_as_xyz
  1  'x, y, z'
loop_
 _atom_site_type_symbol
 _atom_site_label
 _atom_site_symmetry_multiplicity
 _atom_site_fract_x
 _atom_site_fract_y
 _atom_site_fract_z
 _atom_site_occupancy
  Sm  Sm0  1  0.006027  0.597594  0.500000  1
  Sm  Sm1  1  0.591568  0.993973  0.500000  1
  Sm  Sm2  1  0.402406  0.408432  0.500000  1
  In  In3  1  0.994560  0.241013  0.000000  1
  In  In4  1  0.246453  0.005440  0.000000  1
  In  In5  1  0.758987  0.753547  0.000000  1
  Cu  Cu6  1  0.000000  0.000000  0.500000  1
  Ag  Ag7  1  0.666667  0.333333  0.000000  1
  Au  Au8  1  0.333333  0.666667  0.000000  1
