# generated using pymatgen
data_Lu3Zn9(NiRh2)2
_symmetry_space_group_name_H-M   'P 1'
_cell_length_a   9.03443885
_cell_length_b   9.20146164
_cell_length_c   4.14581800
_cell_angle_alpha   90.00000000
_cell_angle_beta   90.00000000
_cell_angle_gamma   120.61346074
_symmetry_Int_Tables_number   1
_chemical_formula_structural   Lu3Zn9(NiRh2)2
_chemical_formula_sum   'Lu3 Zn9 Ni2 Rh4'
_cell_volume   296.60665205
_cell_formula_units_Z   1
loop_
 _symmetry_equiv_pos_site_id
 _symmetry_equiv_pos_as_xyz
  1  'x, y, z'
loop_
 _atom_site_type_symbol
 _atom_site_label
 _atom_site_symmetry_multiplicity
 _atom_site_fract_x
 _atom_site_fract_y
 _atom_site_fract_z
 _atom_site_occupancy
  Lu  Lu0  1  0.000000  0.006348  0.500000  1
  Lu  Lu1  1  0.335707  0.660205  0.000000  1
  Lu  Lu2  1  0.664293  0.324497  0.000000  1
  Zn  Zn3  1  0.487737  0.985652  0.500000  1
  Zn  Zn4  1  0.512263  0.497915  0.500000  1
  Zn  Zn5  1  0.000000  0.511291  0.500000  1
  Zn  Zn6  1  0.284810  0.991294  0.000000  1
  Zn  Zn7  1  0.294035  0.292119  0.000000  1
  Zn  Zn8  1  0.000000  0.708330  0.000000  1
  Zn  Zn9  1  0.000000  0.298883  0.000000  1
  Zn  Zn10  1  0.715190  0.706484  0.000000  1
  Zn  Zn11  1  0.705965  0.998085  0.000000  1
  Ni  Ni12  1  0.178440  0.815807  0.500000  1
  Ni  Ni13  1  0.821560  0.637368  0.500000  1
  Rh  Rh14  1  0.192415  0.383975  0.500000  1
  Rh  Rh15  1  0.807585  0.191561  0.500000  1
  Rh  Rh16  1  0.374922  0.182554  0.500000  1
  Rh  Rh17  1  0.625078  0.807631  0.500000  1
