# generated using pymatgen
data_Ta3InS6
_symmetry_space_group_name_H-M   'P 1'
_cell_length_a   5.79737000
_cell_length_b   5.79736853
_cell_length_c   15.01090400
_cell_angle_alpha   90.00000000
_cell_angle_beta   90.00000000
_cell_angle_gamma   120.00000838
_symmetry_Int_Tables_number   1
_chemical_formula_structural   Ta3InS6
_chemical_formula_sum   'Ta6 In2 S12'
_cell_volume   436.91742978
_cell_formula_units_Z   2
loop_
 _symmetry_equiv_pos_site_id
 _symmetry_equiv_pos_as_xyz
  1  'x, y, z'
loop_
 _atom_site_type_symbol
 _atom_site_label
 _atom_site_symmetry_multiplicity
 _atom_site_fract_x
 _atom_site_fract_y
 _atom_site_fract_z
 _atom_site_occupancy
  Ta  Ta0  1  0.333333  0.666667  0.250000  1
  Ta  Ta1  1  0.666667  0.333333  0.750000  1
  Ta  Ta2  1  0.666667  0.333333  0.250000  1
  Ta  Ta3  1  0.333333  0.666667  0.750000  1
  Ta  Ta4  1  0.000000  0.000000  0.250000  1
  Ta  Ta5  1  0.000000  0.000000  0.750000  1
  In  In6  1  0.000000  0.000000  0.500000  1
  In  In7  1  0.000000  0.000000  0.000000  1
  S  S8  1  0.333872  0.000000  0.145967  1
  S  S9  1  0.000000  0.333872  0.145967  1
  S  S10  1  0.666128  0.666128  0.145967  1
  S  S11  1  0.333872  0.333872  0.645967  1
  S  S12  1  0.666128  0.666128  0.354033  1
  S  S13  1  0.666128  0.000000  0.645967  1
  S  S14  1  0.000000  0.666128  0.645967  1
  S  S15  1  0.000000  0.666128  0.854033  1
  S  S16  1  0.333872  0.333872  0.854033  1
  S  S17  1  0.000000  0.333872  0.354033  1
  S  S18  1  0.333872  0.000000  0.354033  1
  S  S19  1  0.666128  0.000000  0.854033  1
