# generated using pymatgen
data_Ho9LuTh6(MgRu)4
_symmetry_space_group_name_H-M   'P 1'
_cell_length_a   9.71693464
_cell_length_b   9.78334578
_cell_length_c   9.79135760
_cell_angle_alpha   59.52454903
_cell_angle_beta   60.26807756
_cell_angle_gamma   60.27873230
_symmetry_Int_Tables_number   1
_chemical_formula_structural   Ho9LuTh6(MgRu)4
_chemical_formula_sum   'Ho9 Lu1 Th6 Mg4 Ru4'
_cell_volume   658.46019590
_cell_formula_units_Z   1
loop_
 _symmetry_equiv_pos_site_id
 _symmetry_equiv_pos_as_xyz
  1  'x, y, z'
loop_
 _atom_site_type_symbol
 _atom_site_label
 _atom_site_symmetry_multiplicity
 _atom_site_fract_x
 _atom_site_fract_y
 _atom_site_fract_z
 _atom_site_occupancy
  Ho  Ho0  1  0.810780  0.189220  0.810780  1
  Ho  Ho1  1  0.189234  0.188788  0.811197  1
  Ho  Ho2  1  0.811197  0.810781  0.189234  1
  Ho  Ho3  1  0.933429  0.567366  0.566420  1
  Ho  Ho4  1  0.566420  0.932785  0.933429  1
  Ho  Ho5  1  0.563900  0.936100  0.563900  1
  Ho  Ho6  1  0.936078  0.563922  0.936078  1
  Ho  Ho7  1  0.563418  0.564237  0.936573  1
  Ho  Ho8  1  0.936573  0.935772  0.563418  1
  Lu  Lu9  1  0.189432  0.810568  0.189432  1
  Th  Th10  1  0.342069  0.349635  0.348686  1
  Th  Th11  1  0.349039  0.342375  0.959784  1
  Th  Th12  1  0.348686  0.959610  0.342069  1
  Th  Th13  1  0.959784  0.348802  0.349039  1
  Th  Th14  1  0.816897  0.183041  0.183473  1
  Th  Th15  1  0.183473  0.816590  0.816897  1
  Mg  Mg16  1  0.582183  0.579379  0.579278  1
  Mg  Mg17  1  0.578851  0.582438  0.259143  1
  Mg  Mg18  1  0.579278  0.259160  0.582183  1
  Mg  Mg19  1  0.259143  0.579568  0.578851  1
  Ru  Ru20  1  0.129520  0.146829  0.147972  1
  Ru  Ru21  1  0.147901  0.129060  0.574740  1
  Ru  Ru22  1  0.147972  0.575677  0.129520  1
  Ru  Ru23  1  0.574740  0.148297  0.147901  1
