# generated using pymatgen
data_Sr5TcN5
_symmetry_space_group_name_H-M   'P 1'
_cell_length_a   7.70452568
_cell_length_b   7.70502099
_cell_length_c   9.01798898
_cell_angle_alpha   76.57360962
_cell_angle_beta   76.59885011
_cell_angle_gamma   97.72886651
_symmetry_Int_Tables_number   1
_chemical_formula_structural   Sr5TcN5
_chemical_formula_sum   'Sr10 Tc2 N10'
_cell_volume   496.39810968
_cell_formula_units_Z   2
loop_
 _symmetry_equiv_pos_site_id
 _symmetry_equiv_pos_as_xyz
  1  'x, y, z'
loop_
 _atom_site_type_symbol
 _atom_site_label
 _atom_site_symmetry_multiplicity
 _atom_site_fract_x
 _atom_site_fract_y
 _atom_site_fract_z
 _atom_site_occupancy
  Sr  Sr0  1  0.386734  0.386658  0.392247  1
  Sr  Sr1  1  0.613266  0.613342  0.607753  1
  Sr  Sr2  1  0.667311  0.667302  0.013625  1
  Sr  Sr3  1  0.332689  0.332698  0.986375  1
  Sr  Sr4  1  0.924050  0.923932  0.205064  1
  Sr  Sr5  1  0.075950  0.076068  0.794936  1
  Sr  Sr6  1  0.561060  0.100400  0.746720  1
  Sr  Sr7  1  0.899616  0.438819  0.253361  1
  Sr  Sr8  1  0.438940  0.899600  0.253280  1
  Sr  Sr9  1  0.100384  0.561181  0.746639  1
  Tc  Tc10  1  0.754812  0.245072  0.000061  1
  Tc  Tc11  1  0.245188  0.754928  0.999939  1
  N  N12  1  0.658547  0.658400  0.311238  1
  N  N13  1  0.341453  0.341600  0.688762  1
  N  N14  1  0.714840  0.008695  0.983797  1
  N  N15  1  0.991347  0.285140  0.016256  1
  N  N16  1  0.285160  0.991305  0.016203  1
  N  N17  1  0.008653  0.714860  0.983744  1
  N  N18  1  0.404167  0.731501  0.822255  1
  N  N19  1  0.268474  0.595721  0.177806  1
  N  N20  1  0.595833  0.268499  0.177744  1
  N  N21  1  0.731526  0.404279  0.822193  1
