# generated using pymatgen
data_Ti8Al15Ir(Os2Rh)2
_symmetry_space_group_name_H-M   'P 1'
_cell_length_a   8.65317168
_cell_length_b   8.65227080
_cell_length_c   8.66841437
_cell_angle_alpha   119.88667531
_cell_angle_beta   119.75571343
_cell_angle_gamma   90.19225807
_symmetry_Int_Tables_number   1
_chemical_formula_structural   Ti8Al15Ir(Os2Rh)2
_chemical_formula_sum   'Ti8 Al15 Ir1 Os4 Rh2'
_cell_volume   460.61820793
_cell_formula_units_Z   1
loop_
 _symmetry_equiv_pos_site_id
 _symmetry_equiv_pos_as_xyz
  1  'x, y, z'
loop_
 _atom_site_type_symbol
 _atom_site_label
 _atom_site_symmetry_multiplicity
 _atom_site_fract_x
 _atom_site_fract_y
 _atom_site_fract_z
 _atom_site_occupancy
  Ti  Ti0  1  0.781639  0.287365  0.068392  1
  Ti  Ti1  1  0.225008  0.293092  0.507053  1
  Ti  Ti2  1  0.214819  0.715205  0.506362  1
  Ti  Ti3  1  0.225422  0.720143  0.931095  1
  Ti  Ti4  1  0.787780  0.719002  0.495849  1
  Ti  Ti5  1  0.775801  0.275629  0.492748  1
  Ti  Ti6  1  0.376193  0.121661  0.744802  1
  Ti  Ti7  1  0.380195  0.632747  0.257269  1
  Al  Al8  1  0.996732  0.496202  0.499852  1
  Al  Al9  1  0.151313  0.343323  0.190518  1
  Al  Al10  1  0.153377  0.965741  0.811825  1
  Al  Al11  1  0.150251  0.345852  0.805091  1
  Al  Al12  1  0.537213  0.345731  0.193027  1
  Al  Al13  1  0.848170  0.652121  0.803686  1
  Al  Al14  1  0.849140  0.040844  0.194199  1
  Al  Al15  1  0.843382  0.655132  0.186490  1
  Al  Al16  1  0.472231  0.657356  0.814543  1
  Al  Al17  1  0.378510  0.120846  0.257712  1
  Al  Al18  1  0.861773  0.121768  0.741807  1
  Al  Al19  1  0.620714  0.875646  0.254687  1
  Al  Al20  1  0.621542  0.364965  0.744584  1
  Al  Al21  1  0.619626  0.877313  0.741627  1
  Al  Al22  1  0.136569  0.878985  0.258945  1
  Ir  Ir23  1  0.001018  0.499875  0.001337  1
  Os  Os24  1  0.999839  0.998618  0.501104  1
  Os  Os25  1  0.498879  0.000202  0.999731  1
  Os  Os26  1  0.497473  0.497639  0.999127  1
  Os  Os27  1  0.497224  0.498725  0.497914  1
  Rh  Rh28  1  0.998936  0.999109  0.999105  1
  Rh  Rh29  1  0.499225  0.999161  0.499516  1
