# generated using pymatgen
data_Dy4TmIr2Rh
_symmetry_space_group_name_H-M   'P 1'
_cell_length_a   10.85587200
_cell_length_b   10.85587200
_cell_length_c   6.36513100
_cell_angle_alpha   90.00000000
_cell_angle_beta   90.00000000
_cell_angle_gamma   90.00000000
_symmetry_Int_Tables_number   1
_chemical_formula_structural   Dy4TmIr2Rh
_chemical_formula_sum   'Dy16 Tm4 Ir8 Rh4'
_cell_volume   750.13041389
_cell_formula_units_Z   4
loop_
 _symmetry_equiv_pos_site_id
 _symmetry_equiv_pos_as_xyz
  1  'x, y, z'
loop_
 _atom_site_type_symbol
 _atom_site_label
 _atom_site_symmetry_multiplicity
 _atom_site_fract_x
 _atom_site_fract_y
 _atom_site_fract_z
 _atom_site_occupancy
  Dy  Dy0  1  0.289777  0.088181  0.377984  1
  Dy  Dy1  1  0.289777  0.911819  0.877984  1
  Dy  Dy2  1  0.710223  0.088181  0.877984  1
  Dy  Dy3  1  0.710223  0.911819  0.377984  1
  Dy  Dy4  1  0.588181  0.789777  0.877984  1
  Dy  Dy5  1  0.588181  0.210223  0.377984  1
  Dy  Dy6  1  0.411819  0.789777  0.377984  1
  Dy  Dy7  1  0.411819  0.210223  0.877984  1
  Dy  Dy8  1  0.210223  0.411819  0.622016  1
  Dy  Dy9  1  0.210223  0.588181  0.122016  1
  Dy  Dy10  1  0.789777  0.411819  0.122016  1
  Dy  Dy11  1  0.789777  0.588181  0.622016  1
  Dy  Dy12  1  0.911819  0.710223  0.122016  1
  Dy  Dy13  1  0.911819  0.289777  0.622016  1
  Dy  Dy14  1  0.088181  0.710223  0.622016  1
  Dy  Dy15  1  0.088181  0.289777  0.122016  1
  Tm  Tm16  1  0.000000  0.000000  0.500000  1
  Tm  Tm17  1  0.000000  0.000000  0.000000  1
  Tm  Tm18  1  0.500000  0.500000  0.000000  1
  Tm  Tm19  1  0.500000  0.500000  0.500000  1
  Ir  Ir20  1  0.847301  0.152699  0.250000  1
  Ir  Ir21  1  0.847301  0.847301  0.750000  1
  Ir  Ir22  1  0.152699  0.152699  0.750000  1
  Ir  Ir23  1  0.152699  0.847301  0.250000  1
  Ir  Ir24  1  0.652699  0.347301  0.750000  1
  Ir  Ir25  1  0.652699  0.652699  0.250000  1
  Ir  Ir26  1  0.347301  0.347301  0.250000  1
  Ir  Ir27  1  0.347301  0.652699  0.750000  1
  Rh  Rh28  1  0.500000  0.000000  0.121973  1
  Rh  Rh29  1  0.500000  0.000000  0.621973  1
  Rh  Rh30  1  0.000000  0.500000  0.878027  1
  Rh  Rh31  1  0.000000  0.500000  0.378027  1
