# generated using pymatgen
data_Zr3Si4Ir4Ru
_symmetry_space_group_name_H-M   'P 1'
_cell_length_a   3.93083700
_cell_length_b   6.48971578
_cell_length_c   7.35906811
_cell_angle_alpha   88.88548737
_cell_angle_beta   90.00000000
_cell_angle_gamma   90.00000000
_symmetry_Int_Tables_number   1
_chemical_formula_structural   Zr3Si4Ir4Ru
_chemical_formula_sum   'Zr3 Si4 Ir4 Ru1'
_cell_volume   187.69442201
_cell_formula_units_Z   1
loop_
 _symmetry_equiv_pos_site_id
 _symmetry_equiv_pos_as_xyz
  1  'x, y, z'
loop_
 _atom_site_type_symbol
 _atom_site_label
 _atom_site_symmetry_multiplicity
 _atom_site_fract_x
 _atom_site_fract_y
 _atom_site_fract_z
 _atom_site_occupancy
  Zr  Zr0  1  0.250000  0.515010  0.183256  1
  Zr  Zr1  1  0.750000  0.980299  0.670071  1
  Zr  Zr2  1  0.750000  0.471615  0.826063  1
  Si  Si3  1  0.250000  0.275393  0.608965  1
  Si  Si4  1  0.250000  0.772286  0.880422  1
  Si  Si5  1  0.750000  0.737655  0.373025  1
  Si  Si6  1  0.750000  0.202882  0.139826  1
  Ir  Ir7  1  0.250000  0.148321  0.932893  1
  Ir  Ir8  1  0.250000  0.655185  0.561849  1
  Ir  Ir9  1  0.750000  0.846670  0.062509  1
  Ir  Ir10  1  0.750000  0.355256  0.438476  1
  Ru  Ru11  1  0.250000  0.039428  0.322644  1
