# generated using pymatgen
data_Ti24AsSe7
_symmetry_space_group_name_H-M   'P 1'
_cell_length_a   10.10947672
_cell_length_b   10.11891774
_cell_length_c   5.12837566
_cell_angle_alpha   89.89030554
_cell_angle_beta   89.95947240
_cell_angle_gamma   90.01435231
_symmetry_Int_Tables_number   1
_chemical_formula_structural   Ti24AsSe7
_chemical_formula_sum   'Ti24 As1 Se7'
_cell_volume   524.61614689
_cell_formula_units_Z   1
loop_
 _symmetry_equiv_pos_site_id
 _symmetry_equiv_pos_as_xyz
  1  'x, y, z'
loop_
 _atom_site_type_symbol
 _atom_site_label
 _atom_site_symmetry_multiplicity
 _atom_site_fract_x
 _atom_site_fract_y
 _atom_site_fract_z
 _atom_site_occupancy
  Ti  Ti0  1  0.897316  0.584078  0.038599  1
  Ti  Ti1  1  0.102963  0.416453  0.041018  1
  Ti  Ti2  1  0.916225  0.396711  0.542375  1
  Ti  Ti3  1  0.083148  0.602983  0.543728  1
  Ti  Ti4  1  0.602838  0.916305  0.459369  1
  Ti  Ti5  1  0.397279  0.083317  0.458097  1
  Ti  Ti6  1  0.583570  0.102829  0.958618  1
  Ti  Ti7  1  0.416378  0.897388  0.958452  1
  Ti  Ti8  1  0.856672  0.028451  0.713973  1
  Ti  Ti9  1  0.143908  0.974327  0.714156  1
  Ti  Ti10  1  0.472910  0.356560  0.214579  1
  Ti  Ti11  1  0.527026  0.642767  0.214637  1
  Ti  Ti12  1  0.643272  0.472751  0.784875  1
  Ti  Ti13  1  0.356916  0.526189  0.785440  1
  Ti  Ti14  1  0.027143  0.143116  0.287476  1
  Ti  Ti15  1  0.972551  0.856239  0.285269  1
  Ti  Ti16  1  0.284387  0.183328  0.989847  1
  Ti  Ti17  1  0.715389  0.817235  0.988444  1
  Ti  Ti18  1  0.316896  0.784339  0.489993  1
  Ti  Ti19  1  0.682661  0.215271  0.488920  1
  Ti  Ti20  1  0.215487  0.316765  0.511006  1
  Ti  Ti21  1  0.784682  0.682509  0.510128  1
  Ti  Ti22  1  0.183581  0.715522  0.009731  1
  Ti  Ti23  1  0.816896  0.284232  0.011260  1
  As  As24  1  0.961223  0.795173  0.787173  1
  Se  Se25  1  0.793363  0.038234  0.212275  1
  Se  Se26  1  0.206408  0.960787  0.211905  1
  Se  Se27  1  0.461325  0.293317  0.712218  1
  Se  Se28  1  0.538628  0.706225  0.712542  1
  Se  Se29  1  0.706679  0.461383  0.287157  1
  Se  Se30  1  0.293494  0.538634  0.287717  1
  Se  Se31  1  0.038787  0.206583  0.789022  1
