# generated using pymatgen
data_Zr2B(Ir2Ru)2
_symmetry_space_group_name_H-M   'P 1'
_cell_length_a   5.74383746
_cell_length_b   5.73277881
_cell_length_c   5.73277702
_cell_angle_alpha   60.19137130
_cell_angle_beta   59.93616026
_cell_angle_gamma   59.93615653
_symmetry_Int_Tables_number   1
_chemical_formula_structural   Zr2B(Ir2Ru)2
_chemical_formula_sum   'Zr2 B1 Ir4 Ru2'
_cell_volume   133.54283334
_cell_formula_units_Z   1
loop_
 _symmetry_equiv_pos_site_id
 _symmetry_equiv_pos_as_xyz
  1  'x, y, z'
loop_
 _atom_site_type_symbol
 _atom_site_label
 _atom_site_symmetry_multiplicity
 _atom_site_fract_x
 _atom_site_fract_y
 _atom_site_fract_z
 _atom_site_occupancy
  Zr  Zr0  1  0.749993  0.750008  0.750007  1
  Zr  Zr1  1  0.250007  0.249993  0.249992  1
  B  B2  1  0.000000  0.997527  0.002473  1
  Ir  Ir3  1  0.741392  0.258781  0.258435  1
  Ir  Ir4  1  0.258518  0.258790  0.741210  1
  Ir  Ir5  1  0.741482  0.258790  0.741210  1
  Ir  Ir6  1  0.258608  0.741565  0.741219  1
  Ru  Ru7  1  0.742093  0.742272  0.257728  1
  Ru  Ru8  1  0.257907  0.742272  0.257728  1
