# generated using pymatgen
data_Rb2InP2Se7
_symmetry_space_group_name_H-M   'P 1'
_cell_length_a   9.74293300
_cell_length_b   9.74293324
_cell_length_c   9.34464180
_cell_angle_alpha   74.81078185
_cell_angle_beta   74.81077978
_cell_angle_gamma   71.58952754
_symmetry_Int_Tables_number   1
_chemical_formula_structural   Rb2InP2Se7
_chemical_formula_sum   'Rb4 In2 P4 Se14'
_cell_volume   796.51907931
_cell_formula_units_Z   2
loop_
 _symmetry_equiv_pos_site_id
 _symmetry_equiv_pos_as_xyz
  1  'x, y, z'
loop_
 _atom_site_type_symbol
 _atom_site_label
 _atom_site_symmetry_multiplicity
 _atom_site_fract_x
 _atom_site_fract_y
 _atom_site_fract_z
 _atom_site_occupancy
  Rb  Rb0  1  0.610725  0.046591  0.161229  1
  Rb  Rb1  1  0.953409  0.389275  0.838771  1
  Rb  Rb2  1  0.389275  0.953409  0.838771  1
  Rb  Rb3  1  0.046591  0.610725  0.161229  1
  In  In4  1  0.687521  0.312479  0.500000  1
  In  In5  1  0.312479  0.687521  0.500000  1
  P  P6  1  0.944736  0.944736  0.441664  1
  P  P7  1  0.055264  0.055264  0.558336  1
  P  P8  1  0.391191  0.391191  0.810901  1
  P  P9  1  0.608809  0.608809  0.189099  1
  Se  Se10  1  0.698415  0.365028  0.197296  1
  Se  Se11  1  0.634972  0.301585  0.802704  1
  Se  Se12  1  0.301585  0.634972  0.802704  1
  Se  Se13  1  0.365028  0.698415  0.197296  1
  Se  Se14  1  0.003409  0.003409  0.197897  1
  Se  Se15  1  0.996591  0.996591  0.802103  1
  Se  Se16  1  0.703813  0.019315  0.533906  1
  Se  Se17  1  0.980685  0.296187  0.466094  1
  Se  Se18  1  0.296187  0.980685  0.466094  1
  Se  Se19  1  0.019315  0.703813  0.533906  1
  Se  Se20  1  0.271353  0.271353  0.009736  1
  Se  Se21  1  0.728647  0.728647  0.990264  1
  Se  Se22  1  0.364181  0.364181  0.584843  1
  Se  Se23  1  0.635819  0.635819  0.415157  1
