# generated using pymatgen
data_Nb3CrTc2Ge3
_symmetry_space_group_name_H-M   'P 1'
_cell_length_a   6.92334515
_cell_length_b   6.89586675
_cell_length_c   3.36921600
_cell_angle_alpha   90.00000000
_cell_angle_beta   90.00000000
_cell_angle_gamma   119.86878450
_symmetry_Int_Tables_number   1
_chemical_formula_structural   Nb3CrTc2Ge3
_chemical_formula_sum   'Nb3 Cr1 Tc2 Ge3'
_cell_volume   139.48806301
_cell_formula_units_Z   1
loop_
 _symmetry_equiv_pos_site_id
 _symmetry_equiv_pos_as_xyz
  1  'x, y, z'
loop_
 _atom_site_type_symbol
 _atom_site_label
 _atom_site_symmetry_multiplicity
 _atom_site_fract_x
 _atom_site_fract_y
 _atom_site_fract_z
 _atom_site_occupancy
  Nb  Nb0  1  0.000000  0.589647  0.500000  1
  Nb  Nb1  1  0.603717  0.004119  0.500000  1
  Nb  Nb2  1  0.396283  0.400402  0.500000  1
  Cr  Cr3  1  0.000000  0.258984  0.000000  1
  Tc  Tc4  1  0.255878  0.998164  0.000000  1
  Tc  Tc5  1  0.744122  0.742285  0.000000  1
  Ge  Ge6  1  0.667677  0.331967  0.000000  1
  Ge  Ge7  1  0.000000  0.010141  0.500000  1
  Ge  Ge8  1  0.332323  0.664291  0.000000  1
