# generated using pymatgen
data_Tb2ThScAl2Ir3
_symmetry_space_group_name_H-M   'P 1'
_cell_length_a   7.15397306
_cell_length_b   7.20719149
_cell_length_c   4.13231700
_cell_angle_alpha   90.00000000
_cell_angle_beta   90.00000000
_cell_angle_gamma   118.79462342
_symmetry_Int_Tables_number   1
_chemical_formula_structural   Tb2ThScAl2Ir3
_chemical_formula_sum   'Tb2 Th1 Sc1 Al2 Ir3'
_cell_volume   186.71771137
_cell_formula_units_Z   1
loop_
 _symmetry_equiv_pos_site_id
 _symmetry_equiv_pos_as_xyz
  1  'x, y, z'
loop_
 _atom_site_type_symbol
 _atom_site_label
 _atom_site_symmetry_multiplicity
 _atom_site_fract_x
 _atom_site_fract_y
 _atom_site_fract_z
 _atom_site_occupancy
  Tb  Tb0  1  0.397242  0.998585  0.500000  1
  Tb  Tb1  1  0.012728  0.430889  0.500000  1
  Th  Th2  1  0.574684  0.566523  0.500000  1
  Sc  Sc3  1  0.766508  0.010392  0.000000  1
  Al  Al4  1  0.007339  0.759136  0.000000  1
  Al  Al5  1  0.233282  0.231410  0.000000  1
  Ir  Ir6  1  0.341193  0.664879  0.000000  1
  Ir  Ir7  1  0.664828  0.343817  0.000000  1
  Ir  Ir8  1  0.002197  0.994369  0.500000  1
