# generated using pymatgen
data_Tb2Dy5Y(ReC2)4
_symmetry_space_group_name_H-M   'P 1'
_cell_length_a   5.12603000
_cell_length_b   6.59335600
_cell_length_c   9.89795300
_cell_angle_alpha   89.99667888
_cell_angle_beta   90.00000000
_cell_angle_gamma   90.00000000
_symmetry_Int_Tables_number   1
_chemical_formula_structural   Tb2Dy5Y(ReC2)4
_chemical_formula_sum   'Tb2 Dy5 Y1 Re4 C8'
_cell_volume   334.52844825
_cell_formula_units_Z   1
loop_
 _symmetry_equiv_pos_site_id
 _symmetry_equiv_pos_as_xyz
  1  'x, y, z'
loop_
 _atom_site_type_symbol
 _atom_site_label
 _atom_site_symmetry_multiplicity
 _atom_site_fract_x
 _atom_site_fract_y
 _atom_site_fract_z
 _atom_site_occupancy
  Tb  Tb0  1  0.750000  0.532340  0.783938  1
  Tb  Tb1  1  0.250000  0.967659  0.283916  1
  Dy  Dy2  1  0.750000  0.679427  0.443744  1
  Dy  Dy3  1  0.250000  0.820432  0.943732  1
  Dy  Dy4  1  0.750000  0.179999  0.056326  1
  Dy  Dy5  1  0.250000  0.320023  0.556278  1
  Dy  Dy6  1  0.250000  0.467539  0.216183  1
  Y  Y7  1  0.750000  0.032543  0.716227  1
  Re  Re8  1  0.250000  0.278531  0.865196  1
  Re  Re9  1  0.250000  0.778345  0.634718  1
  Re  Re10  1  0.750000  0.221527  0.365068  1
  Re  Re11  1  0.750000  0.721545  0.134815  1
  C  C12  1  0.250000  0.677278  0.451984  1
  C  C13  1  0.250000  0.545041  0.758949  1
  C  C14  1  0.750000  0.454986  0.240871  1
  C  C15  1  0.750000  0.822535  0.952126  1
  C  C16  1  0.250000  0.045023  0.740875  1
  C  C17  1  0.250000  0.178387  0.048169  1
  C  C18  1  0.750000  0.321928  0.547925  1
  C  C19  1  0.750000  0.954913  0.258960  1
