# generated using pymatgen
data_Y3Mg3CuAgIr
_symmetry_space_group_name_H-M   'P 1'
_cell_length_a   7.74307300
_cell_length_b   7.74307195
_cell_length_c   3.85592200
_cell_angle_alpha   90.00000000
_cell_angle_beta   90.00000000
_cell_angle_gamma   120.00000020
_symmetry_Int_Tables_number   1
_chemical_formula_structural   Y3Mg3CuAgIr
_chemical_formula_sum   'Y3 Mg3 Cu1 Ag1 Ir1'
_cell_volume   200.20988658
_cell_formula_units_Z   1
loop_
 _symmetry_equiv_pos_site_id
 _symmetry_equiv_pos_as_xyz
  1  'x, y, z'
loop_
 _atom_site_type_symbol
 _atom_site_label
 _atom_site_symmetry_multiplicity
 _atom_site_fract_x
 _atom_site_fract_y
 _atom_site_fract_z
 _atom_site_occupancy
  Y  Y0  1  0.425020  0.396512  0.500000  1
  Y  Y1  1  0.971492  0.574980  0.500000  1
  Y  Y2  1  0.603488  0.028508  0.500000  1
  Mg  Mg3  1  0.753550  0.753183  0.000000  1
  Mg  Mg4  1  0.246817  0.000367  0.000000  1
  Mg  Mg5  1  0.999633  0.246450  0.000000  1
  Cu  Cu6  1  0.000000  0.000000  0.500000  1
  Ag  Ag7  1  0.333333  0.666667  0.000000  1
  Ir  Ir8  1  0.666667  0.333333  0.000000  1
