# generated using pymatgen
data_Nd2U2P7Ir8
_symmetry_space_group_name_H-M   'P 1'
_cell_length_a   3.95222100
_cell_length_b   12.77865832
_cell_length_c   13.16841100
_cell_angle_alpha   80.83534546
_cell_angle_beta   90.00000000
_cell_angle_gamma   90.00000000
_symmetry_Int_Tables_number   1
_chemical_formula_structural   Nd2U2P7Ir8
_chemical_formula_sum   'Nd4 U4 P14 Ir16'
_cell_volume   656.56883903
_cell_formula_units_Z   2
loop_
 _symmetry_equiv_pos_site_id
 _symmetry_equiv_pos_as_xyz
  1  'x, y, z'
loop_
 _atom_site_type_symbol
 _atom_site_label
 _atom_site_symmetry_multiplicity
 _atom_site_fract_x
 _atom_site_fract_y
 _atom_site_fract_z
 _atom_site_occupancy
  Nd  Nd0  1  0.750000  0.719652  0.899289  1
  Nd  Nd1  1  0.250000  0.107434  0.786686  1
  Nd  Nd2  1  0.750000  0.892566  0.213314  1
  Nd  Nd3  1  0.250000  0.280348  0.100711  1
  U  U4  1  0.750000  0.789318  0.562006  1
  U  U5  1  0.250000  0.210682  0.437994  1
  U  U6  1  0.750000  0.484493  0.708667  1
  U  U7  1  0.250000  0.515507  0.291333  1
  P  P8  1  0.250000  0.907153  0.408810  1
  P  P9  1  0.750000  0.469565  0.126856  1
  P  P10  1  0.250000  0.530435  0.873144  1
  P  P11  1  0.750000  0.092847  0.591190  1
  P  P12  1  0.250000  0.744986  0.081723  1
  P  P13  1  0.750000  0.255014  0.918277  1
  P  P14  1  0.750000  0.160821  0.284431  1
  P  P15  1  0.250000  0.839179  0.715569  1
  P  P16  1  0.250000  0.050640  0.102000  1
  P  P17  1  0.750000  0.949360  0.898000  1
  P  P18  1  0.250000  0.320160  0.689476  1
  P  P19  1  0.750000  0.679840  0.310524  1
  P  P20  1  0.250000  0.606704  0.563209  1
  P  P21  1  0.750000  0.393296  0.436791  1
  Ir  Ir22  1  0.250000  0.993344  0.574991  1
  Ir  Ir23  1  0.750000  0.006656  0.425009  1
  Ir  Ir24  1  0.250000  0.656067  0.724376  1
  Ir  Ir25  1  0.750000  0.343933  0.275624  1
  Ir  Ir26  1  0.250000  0.549835  0.050515  1
  Ir  Ir27  1  0.750000  0.450165  0.949485  1
  Ir  Ir28  1  0.250000  0.065006  0.275536  1
  Ir  Ir29  1  0.750000  0.934994  0.724464  1
  Ir  Ir30  1  0.250000  0.423767  0.525465  1
  Ir  Ir31  1  0.750000  0.576233  0.474535  1
  Ir  Ir32  1  0.250000  0.916943  0.994910  1
  Ir  Ir33  1  0.750000  0.083057  0.005090  1
  Ir  Ir34  1  0.250000  0.727673  0.396531  1
  Ir  Ir35  1  0.750000  0.272327  0.603469  1
  Ir  Ir36  1  0.250000  0.342802  0.859244  1
  Ir  Ir37  1  0.750000  0.657198  0.140756  1
