# generated using pymatgen
data_Eu4Zn4SiGe3
_symmetry_space_group_name_H-M   'P 1'
_cell_length_a   4.29654700
_cell_length_b   4.29654688
_cell_length_c   17.19775100
_cell_angle_alpha   90.00000000
_cell_angle_beta   90.00000000
_cell_angle_gamma   119.99999323
_symmetry_Int_Tables_number   1
_chemical_formula_structural   Eu4Zn4SiGe3
_chemical_formula_sum   'Eu4 Zn4 Si1 Ge3'
_cell_volume   274.94222291
_cell_formula_units_Z   1
loop_
 _symmetry_equiv_pos_site_id
 _symmetry_equiv_pos_as_xyz
  1  'x, y, z'
loop_
 _atom_site_type_symbol
 _atom_site_label
 _atom_site_symmetry_multiplicity
 _atom_site_fract_x
 _atom_site_fract_y
 _atom_site_fract_z
 _atom_site_occupancy
  Eu  Eu0  1  0.000000  0.000000  0.499904  1
  Eu  Eu1  1  0.000000  0.000000  0.000002  1
  Eu  Eu2  1  0.000000  0.000000  0.250092  1
  Eu  Eu3  1  0.000000  0.000000  0.749999  1
  Zn  Zn4  1  0.333333  0.666667  0.374658  1
  Zn  Zn5  1  0.666667  0.333333  0.625347  1
  Zn  Zn6  1  0.666667  0.333333  0.874654  1
  Zn  Zn7  1  0.333333  0.666667  0.125346  1
  Si  Si8  1  0.666667  0.333333  0.376066  1
  Ge  Ge9  1  0.333333  0.666667  0.623929  1
  Ge  Ge10  1  0.333333  0.666667  0.876076  1
  Ge  Ge11  1  0.666667  0.333333  0.123926  1
