# generated using pymatgen
data_LiCaDyNi11As7
_symmetry_space_group_name_H-M   'P 1'
_cell_length_a   3.86277600
_cell_length_b   9.39799471
_cell_length_c   9.45276600
_cell_angle_alpha   120.40233292
_cell_angle_beta   90.00000000
_cell_angle_gamma   90.00000000
_symmetry_Int_Tables_number   1
_chemical_formula_structural   LiCaDyNi11As7
_chemical_formula_sum   'Li1 Ca1 Dy1 Ni11 As7'
_cell_volume   295.97105419
_cell_formula_units_Z   1
loop_
 _symmetry_equiv_pos_site_id
 _symmetry_equiv_pos_as_xyz
  1  'x, y, z'
loop_
 _atom_site_type_symbol
 _atom_site_label
 _atom_site_symmetry_multiplicity
 _atom_site_fract_x
 _atom_site_fract_y
 _atom_site_fract_z
 _atom_site_occupancy
  Li  Li0  1  0.500000  0.107656  0.894363  1
  Ca  Ca1  1  0.500000  0.331702  0.663891  1
  Dy  Dy2  1  0.000000  0.671166  0.339202  1
  Ni  Ni3  1  0.000000  0.876617  0.723874  1
  Ni  Ni4  1  0.000000  0.283552  0.155959  1
  Ni  Ni5  1  0.000000  0.840323  0.126717  1
  Ni  Ni6  1  0.500000  0.949700  0.569361  1
  Ni  Ni7  1  0.500000  0.428727  0.379637  1
  Ni  Ni8  1  0.500000  0.619282  0.045882  1
  Ni  Ni9  1  0.000000  0.380982  0.948186  1
  Ni  Ni10  1  0.000000  0.053411  0.430232  1
  Ni  Ni11  1  0.000000  0.565544  0.618669  1
  Ni  Ni12  1  0.500000  0.094683  0.207125  1
  Ni  Ni13  1  0.500000  0.793423  0.892658  1
  As  As14  1  0.500000  0.708026  0.600465  1
  As  As15  1  0.500000  0.412881  0.115763  1
  As  As16  1  0.500000  0.889264  0.294209  1
  As  As17  1  0.000000  0.997405  0.005479  1
  As  As18  1  0.000000  0.114952  0.703596  1
  As  As19  1  0.000000  0.289064  0.404232  1
  As  As20  1  0.000000  0.591642  0.880503  1
