# generated using pymatgen
data_CeNd3(B2Ir5)2
_symmetry_space_group_name_H-M   'P 1'
_cell_length_a   11.13762254
_cell_length_b   11.13762262
_cell_length_c   11.13762213
_cell_angle_alpha   28.74101739
_cell_angle_beta   28.74101882
_cell_angle_gamma   28.74102132
_symmetry_Int_Tables_number   1
_chemical_formula_structural   CeNd3(B2Ir5)2
_chemical_formula_sum   'Ce1 Nd3 B4 Ir10'
_cell_volume   282.44338592
_cell_formula_units_Z   1
loop_
 _symmetry_equiv_pos_site_id
 _symmetry_equiv_pos_as_xyz
  1  'x, y, z'
loop_
 _atom_site_type_symbol
 _atom_site_label
 _atom_site_symmetry_multiplicity
 _atom_site_fract_x
 _atom_site_fract_y
 _atom_site_fract_z
 _atom_site_occupancy
  Ce  Ce0  1  0.050590  0.050590  0.050590  1
  Nd  Nd1  1  0.152012  0.152012  0.152012  1
  Nd  Nd2  1  0.950287  0.950287  0.950287  1
  Nd  Nd3  1  0.848622  0.848622  0.848622  1
  B  B4  1  0.617888  0.617888  0.617888  1
  B  B5  1  0.716323  0.716323  0.716323  1
  B  B6  1  0.381713  0.381713  0.381713  1
  B  B7  1  0.283390  0.283390  0.283390  1
  Ir  Ir8  1  0.408103  0.898208  0.408103  1
  Ir  Ir9  1  0.898208  0.408103  0.408103  1
  Ir  Ir10  1  0.500083  0.500083  0.000352  1
  Ir  Ir11  1  0.500083  0.000352  0.500083  1
  Ir  Ir12  1  0.000352  0.500083  0.500083  1
  Ir  Ir13  1  0.499795  0.499795  0.499795  1
  Ir  Ir14  1  0.591409  0.101631  0.591409  1
  Ir  Ir15  1  0.591409  0.591409  0.101631  1
  Ir  Ir16  1  0.101631  0.591409  0.591409  1
  Ir  Ir17  1  0.408103  0.408103  0.898208  1
