# generated using pymatgen
data_Tb17(MgIr4)3
_symmetry_space_group_name_H-M   'P 1'
_cell_length_a   10.79243500
_cell_length_b   10.79243500
_cell_length_c   6.31809500
_cell_angle_alpha   90.00000000
_cell_angle_beta   90.00000000
_cell_angle_gamma   90.00000000
_symmetry_Int_Tables_number   1
_chemical_formula_structural   Tb17(MgIr4)3
_chemical_formula_sum   'Tb17 Mg3 Ir12'
_cell_volume   735.91056038
_cell_formula_units_Z   1
loop_
 _symmetry_equiv_pos_site_id
 _symmetry_equiv_pos_as_xyz
  1  'x, y, z'
loop_
 _atom_site_type_symbol
 _atom_site_label
 _atom_site_symmetry_multiplicity
 _atom_site_fract_x
 _atom_site_fract_y
 _atom_site_fract_z
 _atom_site_occupancy
  Tb  Tb0  1  0.284175  0.086883  0.381684  1
  Tb  Tb1  1  0.284488  0.914475  0.879836  1
  Tb  Tb2  1  0.715512  0.085525  0.879836  1
  Tb  Tb3  1  0.715825  0.913117  0.381684  1
  Tb  Tb4  1  0.586744  0.786247  0.878310  1
  Tb  Tb5  1  0.590116  0.206652  0.379218  1
  Tb  Tb6  1  0.409884  0.793348  0.379218  1
  Tb  Tb7  1  0.413256  0.213753  0.878310  1
  Tb  Tb8  1  0.206652  0.409884  0.620782  1
  Tb  Tb9  1  0.213753  0.586744  0.121690  1
  Tb  Tb10  1  0.786247  0.413256  0.121690  1
  Tb  Tb11  1  0.793348  0.590116  0.620782  1
  Tb  Tb12  1  0.914475  0.715512  0.120164  1
  Tb  Tb13  1  0.913117  0.284175  0.618316  1
  Tb  Tb14  1  0.086883  0.715825  0.618316  1
  Tb  Tb15  1  0.085525  0.284488  0.120164  1
  Tb  Tb16  1  0.500000  0.500000  0.500000  1
  Mg  Mg17  1  0.000000  0.000000  0.500000  1
  Mg  Mg18  1  0.000000  0.000000  0.000000  1
  Mg  Mg19  1  0.500000  0.500000  0.000000  1
  Ir  Ir20  1  0.848309  0.152022  0.247678  1
  Ir  Ir21  1  0.847978  0.848309  0.752322  1
  Ir  Ir22  1  0.152022  0.151691  0.752322  1
  Ir  Ir23  1  0.151691  0.847978  0.247678  1
  Ir  Ir24  1  0.655381  0.346019  0.747080  1
  Ir  Ir25  1  0.653981  0.655381  0.252920  1
  Ir  Ir26  1  0.346019  0.344619  0.252920  1
  Ir  Ir27  1  0.344619  0.653981  0.747080  1
  Ir  Ir28  1  0.500000  0.000000  0.119877  1
  Ir  Ir29  1  0.500000  0.000000  0.625074  1
  Ir  Ir30  1  0.000000  0.500000  0.880123  1
  Ir  Ir31  1  0.000000  0.500000  0.374926  1
