# generated using pymatgen
data_Pr7HoSe12
_symmetry_space_group_name_H-M   'P 1'
_cell_length_a   11.19422907
_cell_length_b   4.20851300
_cell_length_c   11.55732906
_cell_angle_alpha   90.00000000
_cell_angle_beta   90.01245939
_cell_angle_gamma   90.00000000
_symmetry_Int_Tables_number   1
_chemical_formula_structural   Pr7HoSe12
_chemical_formula_sum   'Pr7 Ho1 Se12'
_cell_volume   544.47799356
_cell_formula_units_Z   1
loop_
 _symmetry_equiv_pos_site_id
 _symmetry_equiv_pos_as_xyz
  1  'x, y, z'
loop_
 _atom_site_type_symbol
 _atom_site_label
 _atom_site_symmetry_multiplicity
 _atom_site_fract_x
 _atom_site_fract_y
 _atom_site_fract_z
 _atom_site_occupancy
  Pr  Pr0  1  0.686157  0.500001  0.010993  1
  Pr  Pr1  1  0.004984  0.500001  0.192121  1
  Pr  Pr2  1  0.499438  0.000000  0.302909  1
  Pr  Pr3  1  0.187123  0.000000  0.488814  1
  Pr  Pr4  1  0.812842  0.500001  0.511487  1
  Pr  Pr5  1  0.495806  0.500001  0.695903  1
  Pr  Pr6  1  0.001649  0.000000  0.808027  1
  Ho  Ho7  1  0.313108  0.000000  0.989877  1
  Se  Se8  1  0.876347  0.000000  0.044555  1
  Se  Se9  1  0.438744  0.500001  0.114646  1
  Se  Se10  1  0.202713  0.000000  0.224591  1
  Se  Se11  1  0.697373  0.500001  0.270423  1
  Se  Se12  1  0.944733  0.000000  0.378038  1
  Se  Se13  1  0.374683  0.500001  0.454978  1
  Se  Se14  1  0.623905  0.000000  0.545072  1
  Se  Se15  1  0.056455  0.500001  0.621216  1
  Se  Se16  1  0.297844  0.000000  0.734367  1
  Se  Se17  1  0.800862  0.500001  0.772169  1
  Se  Se18  1  0.550019  0.000000  0.883182  1
  Se  Se19  1  0.135226  0.500001  0.956624  1
