# generated using pymatgen
data_Ba5Eu3Mn3CuTe12
_symmetry_space_group_name_H-M   'P 1'
_cell_length_a   4.57358400
_cell_length_b   9.55206529
_cell_length_c   18.92870577
_cell_angle_alpha   90.14941498
_cell_angle_beta   90.00000000
_cell_angle_gamma   90.00000000
_symmetry_Int_Tables_number   1
_chemical_formula_structural   Ba5Eu3Mn3CuTe12
_chemical_formula_sum   'Ba5 Eu3 Mn3 Cu1 Te12'
_cell_volume   826.93883082
_cell_formula_units_Z   1
loop_
 _symmetry_equiv_pos_site_id
 _symmetry_equiv_pos_as_xyz
  1  'x, y, z'
loop_
 _atom_site_type_symbol
 _atom_site_label
 _atom_site_symmetry_multiplicity
 _atom_site_fract_x
 _atom_site_fract_y
 _atom_site_fract_z
 _atom_site_occupancy
  Ba  Ba0  1  0.250000  0.082989  0.287143  1
  Ba  Ba1  1  0.250000  0.250795  0.543528  1
  Ba  Ba2  1  0.750000  0.748786  0.458417  1
  Ba  Ba3  1  0.250000  0.755169  0.956377  1
  Ba  Ba4  1  0.750000  0.248170  0.038552  1
  Eu  Eu5  1  0.750000  0.410702  0.788172  1
  Eu  Eu6  1  0.250000  0.583359  0.213050  1
  Eu  Eu7  1  0.750000  0.921766  0.716762  1
  Mn  Mn8  1  0.750000  0.868435  0.134775  1
  Mn  Mn9  1  0.750000  0.369964  0.364396  1
  Mn  Mn10  1  0.250000  0.631038  0.636287  1
  Cu  Cu11  1  0.250000  0.130946  0.864876  1
  Te  Te12  1  0.250000  0.999805  0.101933  1
  Te  Te13  1  0.250000  0.682987  0.774371  1
  Te  Te14  1  0.750000  0.806134  0.275932  1
  Te  Te15  1  0.750000  0.326380  0.222389  1
  Te  Te16  1  0.750000  0.115638  0.428220  1
  Te  Te17  1  0.250000  0.885264  0.574859  1
  Te  Te18  1  0.750000  0.614256  0.077113  1
  Te  Te19  1  0.250000  0.383612  0.923352  1
  Te  Te20  1  0.750000  0.498939  0.602746  1
  Te  Te21  1  0.250000  0.501676  0.396597  1
  Te  Te22  1  0.250000  0.182158  0.725096  1
  Te  Te23  1  0.750000  0.001033  0.895055  1
