# generated using pymatgen
data_LaInPd3Pb
_symmetry_space_group_name_H-M   'P 1'
_cell_length_a   4.79598500
_cell_length_b   10.40683200
_cell_length_c   10.17784300
_cell_angle_alpha   90.00000000
_cell_angle_beta   90.00000000
_cell_angle_gamma   90.00000000
_symmetry_Int_Tables_number   1
_chemical_formula_structural   LaInPd3Pb
_chemical_formula_sum   'La4 In4 Pd12 Pb4'
_cell_volume   507.98642548
_cell_formula_units_Z   4
loop_
 _symmetry_equiv_pos_site_id
 _symmetry_equiv_pos_as_xyz
  1  'x, y, z'
loop_
 _atom_site_type_symbol
 _atom_site_label
 _atom_site_symmetry_multiplicity
 _atom_site_fract_x
 _atom_site_fract_y
 _atom_site_fract_z
 _atom_site_occupancy
  La  La0  1  0.250000  0.437521  0.730179  1
  La  La1  1  0.250000  0.062479  0.230179  1
  La  La2  1  0.750000  0.562479  0.269821  1
  La  La3  1  0.750000  0.937521  0.769821  1
  In  In4  1  0.250000  0.152868  0.891902  1
  In  In5  1  0.250000  0.347132  0.391902  1
  In  In6  1  0.750000  0.847132  0.108098  1
  In  In7  1  0.750000  0.652868  0.608098  1
  Pd  Pd8  1  0.250000  0.154057  0.617043  1
  Pd  Pd9  1  0.250000  0.345943  0.117043  1
  Pd  Pd10  1  0.750000  0.845943  0.382957  1
  Pd  Pd11  1  0.750000  0.654057  0.882957  1
  Pd  Pd12  1  0.250000  0.731128  0.746706  1
  Pd  Pd13  1  0.250000  0.768872  0.246706  1
  Pd  Pd14  1  0.750000  0.268872  0.253294  1
  Pd  Pd15  1  0.750000  0.231128  0.753294  1
  Pd  Pd16  1  0.250000  0.901254  0.977683  1
  Pd  Pd17  1  0.250000  0.598746  0.477683  1
  Pd  Pd18  1  0.750000  0.098746  0.022317  1
  Pd  Pd19  1  0.750000  0.401254  0.522317  1
  Pb  Pb20  1  0.250000  0.879346  0.518781  1
  Pb  Pb21  1  0.250000  0.620654  0.018781  1
  Pb  Pb22  1  0.750000  0.120654  0.481219  1
  Pb  Pb23  1  0.750000  0.379346  0.981219  1
