# generated using pymatgen
data_BTe16
_symmetry_space_group_name_H-M   'P 1'
_cell_length_a   7.67669545
_cell_length_b   7.67669446
_cell_length_c   12.91931918
_cell_angle_alpha   57.72657267
_cell_angle_beta   57.72657807
_cell_angle_gamma   66.52135085
_symmetry_Int_Tables_number   1
_chemical_formula_structural   BTe16
_chemical_formula_sum   'B1 Te16'
_cell_volume   537.40524798
_cell_formula_units_Z   1
loop_
 _symmetry_equiv_pos_site_id
 _symmetry_equiv_pos_as_xyz
  1  'x, y, z'
loop_
 _atom_site_type_symbol
 _atom_site_label
 _atom_site_symmetry_multiplicity
 _atom_site_fract_x
 _atom_site_fract_y
 _atom_site_fract_z
 _atom_site_occupancy
  B  B0  1  0.814801  0.814801  0.501327  1
  Te  Te1  1  0.833272  0.833272  0.879230  1
  Te  Te2  1  0.330018  0.330018  0.884063  1
  Te  Te3  1  0.669975  0.160580  0.128735  1
  Te  Te4  1  0.160580  0.669975  0.128735  1
  Te  Te5  1  0.037307  0.037307  0.332769  1
  Te  Te6  1  0.469881  0.469881  0.379438  1
  Te  Te7  1  0.530893  0.978233  0.631321  1
  Te  Te8  1  0.978233  0.530893  0.631321  1
  Te  Te9  1  0.265290  0.265290  0.355067  1
  Te  Te10  1  0.711913  0.711913  0.406692  1
  Te  Te11  1  0.254316  0.758022  0.636241  1
  Te  Te12  1  0.758022  0.254316  0.636241  1
  Te  Te13  1  0.067778  0.067778  0.901519  1
  Te  Te14  1  0.581497  0.581497  0.879208  1
  Te  Te15  1  0.433533  0.913986  0.111247  1
  Te  Te16  1  0.913986  0.433533  0.111247  1
