# generated using pymatgen
data_TbYb6Co4Sn13
_symmetry_space_group_name_H-M   'P 1'
_cell_length_a   11.14854400
_cell_length_b   11.14854400
_cell_length_c   4.61420900
_cell_angle_alpha   90.00000000
_cell_angle_beta   90.00000000
_cell_angle_gamma   90.00000000
_symmetry_Int_Tables_number   1
_chemical_formula_structural   TbYb6Co4Sn13
_chemical_formula_sum   'Tb1 Yb6 Co4 Sn13'
_cell_volume   573.50019036
_cell_formula_units_Z   1
loop_
 _symmetry_equiv_pos_site_id
 _symmetry_equiv_pos_as_xyz
  1  'x, y, z'
loop_
 _atom_site_type_symbol
 _atom_site_label
 _atom_site_symmetry_multiplicity
 _atom_site_fract_x
 _atom_site_fract_y
 _atom_site_fract_z
 _atom_site_occupancy
  Tb  Tb0  1  0.000000  0.000000  0.000000  1
  Yb  Yb1  1  0.340940  0.669807  0.500000  1
  Yb  Yb2  1  0.659060  0.330193  0.500000  1
  Yb  Yb3  1  0.330193  0.340940  0.500000  1
  Yb  Yb4  1  0.669807  0.659060  0.500000  1
  Yb  Yb5  1  0.500000  0.000000  0.500000  1
  Yb  Yb6  1  0.000000  0.500000  0.500000  1
  Co  Co7  1  0.117852  0.726967  0.000000  1
  Co  Co8  1  0.882148  0.273033  0.000000  1
  Co  Co9  1  0.273033  0.117852  0.000000  1
  Co  Co10  1  0.726967  0.882148  0.000000  1
  Sn  Sn11  1  0.284566  0.887687  0.000000  1
  Sn  Sn12  1  0.715434  0.112313  0.000000  1
  Sn  Sn13  1  0.112313  0.284566  0.000000  1
  Sn  Sn14  1  0.887687  0.715434  0.000000  1
  Sn  Sn15  1  0.077982  0.803547  0.500000  1
  Sn  Sn16  1  0.922018  0.196453  0.500000  1
  Sn  Sn17  1  0.196453  0.077982  0.500000  1
  Sn  Sn18  1  0.803547  0.922018  0.500000  1
  Sn  Sn19  1  0.523423  0.786645  0.000000  1
  Sn  Sn20  1  0.476577  0.213355  0.000000  1
  Sn  Sn21  1  0.213355  0.523423  0.000000  1
  Sn  Sn22  1  0.786645  0.476577  0.000000  1
  Sn  Sn23  1  0.500000  0.500000  0.000000  1
