# generated using pymatgen
data_Er2Mg(Ga3Ni2)3
_symmetry_space_group_name_H-M   'P 1'
_cell_length_a   8.91917000
_cell_length_b   8.91917017
_cell_length_c   4.06406500
_cell_angle_alpha   90.00000000
_cell_angle_beta   90.00000000
_cell_angle_gamma   119.99999936
_symmetry_Int_Tables_number   1
_chemical_formula_structural   Er2Mg(Ga3Ni2)3
_chemical_formula_sum   'Er2 Mg1 Ga9 Ni6'
_cell_volume   279.98848566
_cell_formula_units_Z   1
loop_
 _symmetry_equiv_pos_site_id
 _symmetry_equiv_pos_as_xyz
  1  'x, y, z'
loop_
 _atom_site_type_symbol
 _atom_site_label
 _atom_site_symmetry_multiplicity
 _atom_site_fract_x
 _atom_site_fract_y
 _atom_site_fract_z
 _atom_site_occupancy
  Er  Er0  1  0.333333  0.666667  0.500000  1
  Er  Er1  1  0.666667  0.333333  0.500000  1
  Mg  Mg2  1  0.000000  0.000000  0.000000  1
  Ga  Ga3  1  0.500000  0.000000  0.000000  1
  Ga  Ga4  1  0.000000  0.500000  0.000000  1
  Ga  Ga5  1  0.500000  0.500000  0.000000  1
  Ga  Ga6  1  0.297055  0.000000  0.500000  1
  Ga  Ga7  1  0.702945  0.000000  0.500000  1
  Ga  Ga8  1  0.000000  0.297055  0.500000  1
  Ga  Ga9  1  0.000000  0.702945  0.500000  1
  Ga  Ga10  1  0.702945  0.702945  0.500000  1
  Ga  Ga11  1  0.297055  0.297055  0.500000  1
  Ni  Ni12  1  0.176824  0.353649  0.000000  1
  Ni  Ni13  1  0.823176  0.646351  0.000000  1
  Ni  Ni14  1  0.646351  0.823176  0.000000  1
  Ni  Ni15  1  0.353649  0.176824  0.000000  1
  Ni  Ni16  1  0.176824  0.823176  0.000000  1
  Ni  Ni17  1  0.823176  0.176824  0.000000  1
