# generated using pymatgen
data_Tm2LuPaPt4
_symmetry_space_group_name_H-M   'P 1'
_cell_length_a   4.52014800
_cell_length_b   5.54197637
_cell_length_c   6.89789031
_cell_angle_alpha   89.49164113
_cell_angle_beta   90.00000000
_cell_angle_gamma   90.00000000
_symmetry_Int_Tables_number   1
_chemical_formula_structural   Tm2LuPaPt4
_chemical_formula_sum   'Tm2 Lu1 Pa1 Pt4'
_cell_volume   172.78916838
_cell_formula_units_Z   1
loop_
 _symmetry_equiv_pos_site_id
 _symmetry_equiv_pos_as_xyz
  1  'x, y, z'
loop_
 _atom_site_type_symbol
 _atom_site_label
 _atom_site_symmetry_multiplicity
 _atom_site_fract_x
 _atom_site_fract_y
 _atom_site_fract_z
 _atom_site_occupancy
  Tm  Tm0  1  0.750000  0.354309  0.814989  1
  Tm  Tm1  1  0.250000  0.857437  0.683073  1
  Lu  Lu2  1  0.750000  0.144882  0.321013  1
  Pa  Pa3  1  0.250000  0.644614  0.182268  1
  Pt  Pt4  1  0.250000  0.161389  0.050401  1
  Pt  Pt5  1  0.750000  0.834865  0.959447  1
  Pt  Pt6  1  0.750000  0.658911  0.449577  1
  Pt  Pt7  1  0.250000  0.343591  0.539232  1
