# generated using pymatgen
data_Sr10PtRh3Pb2
_symmetry_space_group_name_H-M   'P 1'
_cell_length_a   9.81656162
_cell_length_b   9.81656145
_cell_length_c   9.78735800
_cell_angle_alpha   129.90404970
_cell_angle_beta   129.90404885
_cell_angle_gamma   73.78808022
_symmetry_Int_Tables_number   1
_chemical_formula_structural   Sr10PtRh3Pb2
_chemical_formula_sum   'Sr10 Pt1 Rh3 Pb2'
_cell_volume   540.80638821
_cell_formula_units_Z   1
loop_
 _symmetry_equiv_pos_site_id
 _symmetry_equiv_pos_as_xyz
  1  'x, y, z'
loop_
 _atom_site_type_symbol
 _atom_site_label
 _atom_site_symmetry_multiplicity
 _atom_site_fract_x
 _atom_site_fract_y
 _atom_site_fract_z
 _atom_site_occupancy
  Sr  Sr0  1  0.000637  0.999113  0.999749  1
  Sr  Sr1  1  0.500887  0.499363  0.000251  1
  Sr  Sr2  1  0.805488  0.301052  0.846098  1
  Sr  Sr3  1  0.198948  0.694512  0.153902  1
  Sr  Sr4  1  0.459389  0.954953  0.153902  1
  Sr  Sr5  1  0.298834  0.460933  0.500000  1
  Sr  Sr6  1  0.039067  0.201166  0.500000  1
  Sr  Sr7  1  0.545047  0.040611  0.846098  1
  Sr  Sr8  1  0.697485  0.542727  0.500000  1
  Sr  Sr9  1  0.957273  0.802515  0.500000  1
  Pt  Pt10  1  0.379804  0.120196  0.500000  1
  Rh  Rh11  1  0.116912  0.618138  0.735049  1
  Rh  Rh12  1  0.881862  0.383088  0.264951  1
  Rh  Rh13  1  0.616297  0.883703  0.500000  1
  Pb  Pb14  1  0.251035  0.248965  0.000000  1
  Pb  Pb15  1  0.751035  0.748965  0.000000  1
