# generated using pymatgen
data_ErNi3HgPt
_symmetry_space_group_name_H-M   'P 1'
_cell_length_a   5.01068482
_cell_length_b   5.01068590
_cell_length_c   5.12545283
_cell_angle_alpha   60.73799289
_cell_angle_beta   60.73798271
_cell_angle_gamma   60.00000830
_symmetry_Int_Tables_number   1
_chemical_formula_structural   ErNi3HgPt
_chemical_formula_sum   'Er1 Ni3 Hg1 Pt1'
_cell_volume   91.99557552
_cell_formula_units_Z   1
loop_
 _symmetry_equiv_pos_site_id
 _symmetry_equiv_pos_as_xyz
  1  'x, y, z'
loop_
 _atom_site_type_symbol
 _atom_site_label
 _atom_site_symmetry_multiplicity
 _atom_site_fract_x
 _atom_site_fract_y
 _atom_site_fract_z
 _atom_site_occupancy
  Er  Er0  1  0.249307  0.249307  0.252079  1
  Ni  Ni1  1  0.624734  0.122107  0.628424  1
  Ni  Ni2  1  0.122107  0.624734  0.628424  1
  Ni  Ni3  1  0.624734  0.624734  0.628424  1
  Hg  Hg4  1  0.005317  0.005317  0.984049  1
  Pt  Pt5  1  0.623801  0.623801  0.128598  1
