# generated using pymatgen
data_Th10GaSn3Sb4
_symmetry_space_group_name_H-M   'P 1'
_cell_length_a   9.61582500
_cell_length_b   9.61582362
_cell_length_c   6.54109000
_cell_angle_alpha   90.00000000
_cell_angle_beta   90.00000000
_cell_angle_gamma   119.99999443
_symmetry_Int_Tables_number   1
_chemical_formula_structural   Th10GaSn3Sb4
_chemical_formula_sum   'Th10 Ga1 Sn3 Sb4'
_cell_volume   523.78592048
_cell_formula_units_Z   1
loop_
 _symmetry_equiv_pos_site_id
 _symmetry_equiv_pos_as_xyz
  1  'x, y, z'
loop_
 _atom_site_type_symbol
 _atom_site_label
 _atom_site_symmetry_multiplicity
 _atom_site_fract_x
 _atom_site_fract_y
 _atom_site_fract_z
 _atom_site_occupancy
  Th  Th0  1  0.000000  0.726085  0.759472  1
  Th  Th1  1  0.273915  0.273915  0.759472  1
  Th  Th2  1  0.333333  0.666667  0.497990  1
  Th  Th3  1  0.666667  0.333333  0.497990  1
  Th  Th4  1  0.724118  0.724118  0.240141  1
  Th  Th5  1  0.726085  0.000000  0.759472  1
  Th  Th6  1  0.000000  0.275882  0.240141  1
  Th  Th7  1  0.275882  0.000000  0.240141  1
  Th  Th8  1  0.333333  0.666667  0.001812  1
  Th  Th9  1  0.666667  0.333333  0.001812  1
  Ga  Ga10  1  0.000000  0.000000  0.001152  1
  Sn  Sn11  1  0.619216  0.000000  0.252749  1
  Sn  Sn12  1  0.380784  0.380784  0.252749  1
  Sn  Sn13  1  0.000000  0.619216  0.252749  1
  Sb  Sb14  1  0.616358  0.616358  0.747592  1
  Sb  Sb15  1  0.000000  0.383642  0.747592  1
  Sb  Sb16  1  0.383642  0.000000  0.747592  1
  Sb  Sb17  1  0.000000  0.000000  0.499382  1
