# generated using pymatgen
data_Sr3Si2Pd7
_symmetry_space_group_name_H-M   'P 1'
_cell_length_a   8.78801357
_cell_length_b   8.78801402
_cell_length_c   8.78801281
_cell_angle_alpha   38.89314523
_cell_angle_beta   38.89314352
_cell_angle_gamma   38.89314341
_symmetry_Int_Tables_number   1
_chemical_formula_structural   Sr3Si2Pd7
_chemical_formula_sum   'Sr3 Si2 Pd7'
_cell_volume   240.56725565
_cell_formula_units_Z   1
loop_
 _symmetry_equiv_pos_site_id
 _symmetry_equiv_pos_as_xyz
  1  'x, y, z'
loop_
 _atom_site_type_symbol
 _atom_site_label
 _atom_site_symmetry_multiplicity
 _atom_site_fract_x
 _atom_site_fract_y
 _atom_site_fract_z
 _atom_site_occupancy
  Sr  Sr0  1  0.357401  0.357401  0.357401  1
  Sr  Sr1  1  0.500000  0.500000  0.500000  1
  Sr  Sr2  1  0.642598  0.642598  0.642598  1
  Si  Si3  1  0.167964  0.167964  0.167964  1
  Si  Si4  1  0.832036  0.832036  0.832036  1
  Pd  Pd5  1  0.000000  0.000000  0.000000  1
  Pd  Pd6  1  0.573978  0.069347  0.069348  1
  Pd  Pd7  1  0.069347  0.573978  0.069348  1
  Pd  Pd8  1  0.930653  0.930653  0.426021  1
  Pd  Pd9  1  0.069347  0.069347  0.573979  1
  Pd  Pd10  1  0.930653  0.426022  0.930652  1
  Pd  Pd11  1  0.426022  0.930653  0.930652  1
