# generated using pymatgen
data_Lu3GaSiRh2
_symmetry_space_group_name_H-M   'P 1'
_cell_length_a   5.42291800
_cell_length_b   7.82589300
_cell_length_c   13.01205800
_cell_angle_alpha   90.00000000
_cell_angle_beta   90.00000000
_cell_angle_gamma   90.00000000
_symmetry_Int_Tables_number   1
_chemical_formula_structural   Lu3GaSiRh2
_chemical_formula_sum   'Lu12 Ga4 Si4 Rh8'
_cell_volume   552.22101979
_cell_formula_units_Z   4
loop_
 _symmetry_equiv_pos_site_id
 _symmetry_equiv_pos_as_xyz
  1  'x, y, z'
loop_
 _atom_site_type_symbol
 _atom_site_label
 _atom_site_symmetry_multiplicity
 _atom_site_fract_x
 _atom_site_fract_y
 _atom_site_fract_z
 _atom_site_occupancy
  Lu  Lu0  1  0.633362  0.261065  0.250000  1
  Lu  Lu1  1  0.366638  0.738935  0.750000  1
  Lu  Lu2  1  0.366638  0.761065  0.250000  1
  Lu  Lu3  1  0.633362  0.238935  0.750000  1
  Lu  Lu4  1  0.150842  0.400017  0.101920  1
  Lu  Lu5  1  0.849158  0.599983  0.898080  1
  Lu  Lu6  1  0.849158  0.599983  0.601920  1
  Lu  Lu7  1  0.849158  0.900017  0.398080  1
  Lu  Lu8  1  0.150842  0.400017  0.398080  1
  Lu  Lu9  1  0.150842  0.099983  0.601920  1
  Lu  Lu10  1  0.150842  0.099983  0.898080  1
  Lu  Lu11  1  0.849158  0.900017  0.101920  1
  Ga  Ga12  1  0.644689  0.250000  0.000000  1
  Ga  Ga13  1  0.355311  0.750000  0.000000  1
  Ga  Ga14  1  0.355311  0.750000  0.500000  1
  Ga  Ga15  1  0.644689  0.250000  0.500000  1
  Si  Si16  1  0.130435  0.115988  0.250000  1
  Si  Si17  1  0.869565  0.884012  0.750000  1
  Si  Si18  1  0.869565  0.615988  0.250000  1
  Si  Si19  1  0.130435  0.384012  0.750000  1
  Rh  Rh20  1  0.356252  0.033362  0.096103  1
  Rh  Rh21  1  0.643748  0.966638  0.903897  1
  Rh  Rh22  1  0.643748  0.966638  0.596103  1
  Rh  Rh23  1  0.643748  0.533362  0.403897  1
  Rh  Rh24  1  0.356252  0.033362  0.403897  1
  Rh  Rh25  1  0.356252  0.466638  0.596103  1
  Rh  Rh26  1  0.356252  0.466638  0.903897  1
  Rh  Rh27  1  0.643748  0.533362  0.096103  1
