# generated using pymatgen
data_Er2ScGa5Ir
_symmetry_space_group_name_H-M   'P 1'
_cell_length_a   6.89505200
_cell_length_b   6.89505260
_cell_length_c   4.24463200
_cell_angle_alpha   90.00000000
_cell_angle_beta   90.00000000
_cell_angle_gamma   119.82417648
_symmetry_Int_Tables_number   1
_chemical_formula_structural   Er2ScGa5Ir
_chemical_formula_sum   'Er2 Sc1 Ga5 Ir1'
_cell_volume   175.07032074
_cell_formula_units_Z   1
loop_
 _symmetry_equiv_pos_site_id
 _symmetry_equiv_pos_as_xyz
  1  'x, y, z'
loop_
 _atom_site_type_symbol
 _atom_site_label
 _atom_site_symmetry_multiplicity
 _atom_site_fract_x
 _atom_site_fract_y
 _atom_site_fract_z
 _atom_site_occupancy
  Er  Er0  1  0.585500  0.998433  0.000000  1
  Er  Er1  1  0.998433  0.585500  0.000000  1
  Sc  Sc2  1  0.408142  0.408142  0.000000  1
  Ga  Ga3  1  0.237813  0.000761  0.500000  1
  Ga  Ga4  1  0.000761  0.237813  0.500000  1
  Ga  Ga5  1  0.762012  0.762012  0.500000  1
  Ga  Ga6  1  0.335722  0.661532  0.500000  1
  Ga  Ga7  1  0.661532  0.335722  0.500000  1
  Ir  Ir8  1  0.010086  0.010086  0.000000  1
