# generated using pymatgen
data_Pd17(AuSe)4
_symmetry_space_group_name_H-M   'P 1'
_cell_length_a   10.46784662
_cell_length_b   10.46784658
_cell_length_c   10.46784666
_cell_angle_alpha   92.10744534
_cell_angle_beta   92.10744899
_cell_angle_gamma   157.88844902
_symmetry_Int_Tables_number   1
_chemical_formula_structural   Pd17(AuSe)4
_chemical_formula_sum   'Pd17 Au4 Se4'
_cell_volume   423.73916309
_cell_formula_units_Z   1
loop_
 _symmetry_equiv_pos_site_id
 _symmetry_equiv_pos_as_xyz
  1  'x, y, z'
loop_
 _atom_site_type_symbol
 _atom_site_label
 _atom_site_symmetry_multiplicity
 _atom_site_fract_x
 _atom_site_fract_y
 _atom_site_fract_z
 _atom_site_occupancy
  Pd  Pd0  1  0.186543  0.251149  0.437692  1
  Pd  Pd1  1  0.813457  0.748851  0.562308  1
  Pd  Pd2  1  0.748851  0.186543  0.935395  1
  Pd  Pd3  1  0.251149  0.813457  0.064605  1
  Pd  Pd4  1  0.227602  0.544849  0.772452  1
  Pd  Pd5  1  0.772398  0.455151  0.227548  1
  Pd  Pd6  1  0.455151  0.227602  0.682754  1
  Pd  Pd7  1  0.544849  0.772398  0.317246  1
  Pd  Pd8  1  0.694054  0.904804  0.598858  1
  Pd  Pd9  1  0.305946  0.095196  0.401142  1
  Pd  Pd10  1  0.095196  0.694054  0.789250  1
  Pd  Pd11  1  0.904804  0.305946  0.210750  1
  Pd  Pd12  1  0.023269  0.136827  0.160095  1
  Pd  Pd13  1  0.976731  0.863173  0.839905  1
  Pd  Pd14  1  0.863173  0.023269  0.886442  1
  Pd  Pd15  1  0.136827  0.976731  0.113558  1
  Pd  Pd16  1  0.500000  0.500000  0.000000  1
  Au  Au17  1  0.338679  0.386354  0.725032  1
  Au  Au18  1  0.661321  0.613646  0.274968  1
  Au  Au19  1  0.613646  0.338679  0.952324  1
  Au  Au20  1  0.386354  0.661321  0.047676  1
  Se  Se21  1  0.075966  0.374638  0.450605  1
  Se  Se22  1  0.924034  0.625362  0.549395  1
  Se  Se23  1  0.625362  0.075966  0.701328  1
  Se  Se24  1  0.374638  0.924034  0.298672  1
