# generated using pymatgen
data_Sm5Nb3(P3Rh4)4
_symmetry_space_group_name_H-M   'P 1'
_cell_length_a   12.84830900
_cell_length_b   12.84830876
_cell_length_c   3.95171000
_cell_angle_alpha   90.00000000
_cell_angle_beta   90.00000000
_cell_angle_gamma   119.99999805
_symmetry_Int_Tables_number   1
_chemical_formula_structural   Sm5Nb3(P3Rh4)4
_chemical_formula_sum   'Sm5 Nb3 P12 Rh16'
_cell_volume   564.94691785
_cell_formula_units_Z   1
loop_
 _symmetry_equiv_pos_site_id
 _symmetry_equiv_pos_as_xyz
  1  'x, y, z'
loop_
 _atom_site_type_symbol
 _atom_site_label
 _atom_site_symmetry_multiplicity
 _atom_site_fract_x
 _atom_site_fract_y
 _atom_site_fract_z
 _atom_site_occupancy
  Sm  Sm0  1  0.812702  0.000000  0.500000  1
  Sm  Sm1  1  0.000000  0.812702  0.500000  1
  Sm  Sm2  1  0.187298  0.187298  0.500000  1
  Sm  Sm3  1  0.333333  0.666667  0.000000  1
  Sm  Sm4  1  0.666667  0.333333  0.000000  1
  Nb  Nb5  1  0.448852  0.000000  0.000000  1
  Nb  Nb6  1  0.000000  0.448852  0.000000  1
  Nb  Nb7  1  0.551148  0.551148  0.000000  1
  P  P8  1  0.177203  0.000000  0.000000  1
  P  P9  1  0.000000  0.177203  0.000000  1
  P  P10  1  0.822797  0.822797  0.000000  1
  P  P11  1  0.518659  0.683575  0.500000  1
  P  P12  1  0.316425  0.835084  0.500000  1
  P  P13  1  0.164916  0.481341  0.500000  1
  P  P14  1  0.481341  0.164916  0.500000  1
  P  P15  1  0.683575  0.518659  0.500000  1
  P  P16  1  0.835084  0.316425  0.500000  1
  P  P17  1  0.638881  0.000000  0.000000  1
  P  P18  1  0.000000  0.638881  0.000000  1
  P  P19  1  0.361119  0.361119  0.000000  1
  Rh  Rh20  1  0.280407  0.000000  0.500000  1
  Rh  Rh21  1  0.000000  0.280407  0.500000  1
  Rh  Rh22  1  0.719593  0.719593  0.500000  1
  Rh  Rh23  1  0.624992  0.802224  0.000000  1
  Rh  Rh24  1  0.197776  0.822768  0.000000  1
  Rh  Rh25  1  0.177232  0.375008  0.000000  1
  Rh  Rh26  1  0.375008  0.177232  0.000000  1
  Rh  Rh27  1  0.802224  0.624992  0.000000  1
  Rh  Rh28  1  0.822768  0.197776  0.000000  1
  Rh  Rh29  1  0.513544  0.868421  0.500000  1
  Rh  Rh30  1  0.131579  0.645123  0.500000  1
  Rh  Rh31  1  0.354877  0.486456  0.500000  1
  Rh  Rh32  1  0.486456  0.354877  0.500000  1
  Rh  Rh33  1  0.868421  0.513544  0.500000  1
  Rh  Rh34  1  0.645123  0.131579  0.500000  1
  Rh  Rh35  1  0.000000  0.000000  0.000000  1
