# generated using pymatgen
data_Lu8Sc2Bi5Sb
_symmetry_space_group_name_H-M   'P 1'
_cell_length_a   7.98095114
_cell_length_b   9.29034800
_cell_length_c   11.69941966
_cell_angle_alpha   90.00000000
_cell_angle_beta   89.93879591
_cell_angle_gamma   90.00000000
_symmetry_Int_Tables_number   1
_chemical_formula_structural   Lu8Sc2Bi5Sb
_chemical_formula_sum   'Lu16 Sc4 Bi10 Sb2'
_cell_volume   867.46249327
_cell_formula_units_Z   2
loop_
 _symmetry_equiv_pos_site_id
 _symmetry_equiv_pos_as_xyz
  1  'x, y, z'
loop_
 _atom_site_type_symbol
 _atom_site_label
 _atom_site_symmetry_multiplicity
 _atom_site_fract_x
 _atom_site_fract_y
 _atom_site_fract_z
 _atom_site_occupancy
  Lu  Lu0  1  0.355670  0.250000  0.285803  1
  Lu  Lu1  1  0.644330  0.750000  0.714197  1
  Lu  Lu2  1  0.145017  0.750000  0.782304  1
  Lu  Lu3  1  0.854983  0.250000  0.217696  1
  Lu  Lu4  1  0.188098  0.250000  0.779623  1
  Lu  Lu5  1  0.811902  0.750000  0.220377  1
  Lu  Lu6  1  0.317708  0.750000  0.283903  1
  Lu  Lu7  1  0.682292  0.250000  0.716097  1
  Lu  Lu8  1  0.195618  0.067334  0.058985  1
  Lu  Lu9  1  0.804382  0.932666  0.941015  1
  Lu  Lu10  1  0.308170  0.934435  0.557561  1
  Lu  Lu11  1  0.804382  0.567334  0.941015  1
  Lu  Lu12  1  0.691830  0.065565  0.442439  1
  Lu  Lu13  1  0.195618  0.432666  0.058985  1
  Lu  Lu14  1  0.691830  0.434435  0.442439  1
  Lu  Lu15  1  0.308170  0.565565  0.557561  1
  Sc  Sc16  1  0.026553  0.250000  0.511894  1
  Sc  Sc17  1  0.973447  0.750000  0.488106  1
  Sc  Sc18  1  0.476570  0.750000  0.011867  1
  Sc  Sc19  1  0.523430  0.250000  0.988133  1
  Bi  Bi20  1  0.099169  0.750000  0.043733  1
  Bi  Bi21  1  0.900831  0.250000  0.956267  1
  Bi  Bi22  1  0.066139  0.003496  0.329049  1
  Bi  Bi23  1  0.933861  0.996504  0.670951  1
  Bi  Bi24  1  0.433945  0.995970  0.828820  1
  Bi  Bi25  1  0.933861  0.503496  0.670951  1
  Bi  Bi26  1  0.566055  0.004030  0.171180  1
  Bi  Bi27  1  0.066139  0.496504  0.329049  1
  Bi  Bi28  1  0.566055  0.495970  0.171180  1
  Bi  Bi29  1  0.433945  0.504030  0.828820  1
  Sb  Sb30  1  0.400919  0.250000  0.542216  1
  Sb  Sb31  1  0.599081  0.750000  0.457784  1
