# generated using pymatgen
data_Tb2SmMg3Sn2Au
_symmetry_space_group_name_H-M   'P 1'
_cell_length_a   7.56779295
_cell_length_b   7.56779098
_cell_length_c   4.51908500
_cell_angle_alpha   90.00000000
_cell_angle_beta   90.00000000
_cell_angle_gamma   120.29931558
_symmetry_Int_Tables_number   1
_chemical_formula_structural   Tb2SmMg3Sn2Au
_chemical_formula_sum   'Tb2 Sm1 Mg3 Sn2 Au1'
_cell_volume   223.46098976
_cell_formula_units_Z   1
loop_
 _symmetry_equiv_pos_site_id
 _symmetry_equiv_pos_as_xyz
  1  'x, y, z'
loop_
 _atom_site_type_symbol
 _atom_site_label
 _atom_site_symmetry_multiplicity
 _atom_site_fract_x
 _atom_site_fract_y
 _atom_site_fract_z
 _atom_site_occupancy
  Tb  Tb0  1  0.593335  0.001272  0.000000  1
  Tb  Tb1  1  0.001272  0.593335  0.000000  1
  Sm  Sm2  1  0.409791  0.409791  0.000000  1
  Mg  Mg3  1  0.235301  0.000473  0.500000  1
  Mg  Mg4  1  0.000473  0.235301  0.500000  1
  Mg  Mg5  1  0.763442  0.763442  0.500000  1
  Sn  Sn6  1  0.332230  0.669330  0.500000  1
  Sn  Sn7  1  0.669330  0.332230  0.500000  1
  Au  Au8  1  0.994826  0.994826  0.000000  1
