# generated using pymatgen
data_Ca3Yb(SbPd3)6
_symmetry_space_group_name_H-M   'P 1'
_cell_length_a   8.06922499
_cell_length_b   8.06083718
_cell_length_c   9.35252500
_cell_angle_alpha   90.00000000
_cell_angle_beta   90.00000000
_cell_angle_gamma   120.14572768
_symmetry_Int_Tables_number   1
_chemical_formula_structural   Ca3Yb(SbPd3)6
_chemical_formula_sum   'Ca3 Yb1 Sb6 Pd18'
_cell_volume   526.05586815
_cell_formula_units_Z   1
loop_
 _symmetry_equiv_pos_site_id
 _symmetry_equiv_pos_as_xyz
  1  'x, y, z'
loop_
 _atom_site_type_symbol
 _atom_site_label
 _atom_site_symmetry_multiplicity
 _atom_site_fract_x
 _atom_site_fract_y
 _atom_site_fract_z
 _atom_site_occupancy
  Ca  Ca0  1  0.327198  0.015739  0.750000  1
  Ca  Ca1  1  0.672493  0.983750  0.250000  1
  Ca  Ca2  1  0.016476  0.328591  0.750000  1
  Yb  Yb3  1  0.983366  0.670822  0.250000  1
  Sb  Sb4  1  0.999929  0.000522  0.499941  1
  Sb  Sb5  1  0.676394  0.321677  0.999743  1
  Sb  Sb6  1  0.323078  0.677003  0.500040  1
  Sb  Sb7  1  0.323078  0.677003  0.999960  1
  Sb  Sb8  1  0.999929  0.000522  0.000059  1
  Sb  Sb9  1  0.676394  0.321677  0.500257  1
  Pd  Pd10  1  0.331928  0.332047  0.966536  1
  Pd  Pd11  1  0.448062  0.645208  0.750000  1
  Pd  Pd12  1  0.554303  0.355525  0.250000  1
  Pd  Pd13  1  0.647013  0.448438  0.750000  1
  Pd  Pd14  1  0.998739  0.340584  0.083829  1
  Pd  Pd15  1  0.000721  0.662023  0.578383  1
  Pd  Pd16  1  0.337141  0.997481  0.416646  1
  Pd  Pd17  1  0.661147  0.000297  0.918155  1
  Pd  Pd18  1  0.000721  0.662023  0.921617  1
  Pd  Pd19  1  0.998739  0.340584  0.416171  1
  Pd  Pd20  1  0.661147  0.000297  0.581845  1
  Pd  Pd21  1  0.860701  0.859936  0.750000  1
  Pd  Pd22  1  0.331928  0.332047  0.533464  1
  Pd  Pd23  1  0.669142  0.668267  0.036514  1
  Pd  Pd24  1  0.337141  0.997481  0.083354  1
  Pd  Pd25  1  0.669142  0.668267  0.463486  1
  Pd  Pd26  1  0.139564  0.140014  0.250000  1
  Pd  Pd27  1  0.354386  0.552172  0.250000  1
