# generated using pymatgen
data_YbHoIr2O7
_symmetry_space_group_name_H-M   'P 1'
_cell_length_a   7.23109022
_cell_length_b   7.21809477
_cell_length_c   7.21809383
_cell_angle_alpha   59.86538679
_cell_angle_beta   59.94041451
_cell_angle_gamma   59.94041546
_symmetry_Int_Tables_number   1
_chemical_formula_structural   YbHoIr2O7
_chemical_formula_sum   'Yb2 Ho2 Ir4 O14'
_cell_volume   265.88827278
_cell_formula_units_Z   2
loop_
 _symmetry_equiv_pos_site_id
 _symmetry_equiv_pos_as_xyz
  1  'x, y, z'
loop_
 _atom_site_type_symbol
 _atom_site_label
 _atom_site_symmetry_multiplicity
 _atom_site_fract_x
 _atom_site_fract_y
 _atom_site_fract_z
 _atom_site_occupancy
  Yb  Yb0  1  0.625000  0.125000  0.125000  1
  Yb  Yb1  1  0.125000  0.125000  0.125000  1
  Ho  Ho2  1  0.125000  0.625000  0.125000  1
  Ho  Ho3  1  0.125000  0.125000  0.625000  1
  Ir  Ir4  1  0.125000  0.625000  0.625000  1
  Ir  Ir5  1  0.625000  0.125000  0.625000  1
  Ir  Ir6  1  0.625000  0.625000  0.125000  1
  Ir  Ir7  1  0.625000  0.625000  0.625000  1
  O  O8  1  0.712874  0.700761  0.293664  1
  O  O9  1  0.292700  0.293664  0.700761  1
  O  O10  1  0.712874  0.293664  0.700761  1
  O  O11  1  0.292700  0.700761  0.293664  1
  O  O12  1  0.292193  0.707807  0.707807  1
  O  O13  1  0.704766  0.295234  0.295234  1
  O  O14  1  0.537126  0.549239  0.956336  1
  O  O15  1  0.957300  0.956336  0.549239  1
  O  O16  1  0.537126  0.956336  0.549239  1
  O  O17  1  0.957300  0.549239  0.956336  1
  O  O18  1  0.957807  0.542193  0.542193  1
  O  O19  1  0.545234  0.954766  0.954766  1
  O  O20  1  0.244676  0.255324  0.255324  1
  O  O21  1  0.005324  0.994676  0.994676  1
