# generated using pymatgen
data_YLu3Ru4F28
_symmetry_space_group_name_H-M   'P 1'
_cell_length_a   5.50209497
_cell_length_b   8.79378814
_cell_length_c   11.82298900
_cell_angle_alpha   63.70094315
_cell_angle_beta   90.06374568
_cell_angle_gamma   90.09415599
_symmetry_Int_Tables_number   1
_chemical_formula_structural   YLu3Ru4F28
_chemical_formula_sum   'Y1 Lu3 Ru4 F28'
_cell_volume   512.83539732
_cell_formula_units_Z   1
loop_
 _symmetry_equiv_pos_site_id
 _symmetry_equiv_pos_as_xyz
  1  'x, y, z'
loop_
 _atom_site_type_symbol
 _atom_site_label
 _atom_site_symmetry_multiplicity
 _atom_site_fract_x
 _atom_site_fract_y
 _atom_site_fract_z
 _atom_site_occupancy
  Y  Y0  1  0.242032  0.813244  0.769731  1
  Lu  Lu1  1  0.257508  0.812856  0.269828  1
  Lu  Lu2  1  0.741432  0.194044  0.727969  1
  Lu  Lu3  1  0.757865  0.188646  0.229481  1
  Ru  Ru4  1  0.754885  0.726534  0.048893  1
  Ru  Ru5  1  0.244872  0.270058  0.955338  1
  Ru  Ru6  1  0.255799  0.273843  0.453003  1
  Ru  Ru7  1  0.746216  0.727239  0.542788  1
  F  F8  1  0.953923  0.703666  0.416587  1
  F  F9  1  0.045817  0.296738  0.579318  1
  F  F10  1  0.454819  0.294965  0.080725  1
  F  F11  1  0.550107  0.702954  0.921678  1
  F  F12  1  0.467420  0.731540  0.146748  1
  F  F13  1  0.532013  0.269080  0.855854  1
  F  F14  1  0.971072  0.267616  0.354187  1
  F  F15  1  0.034135  0.729551  0.639575  1
  F  F16  1  0.960099  0.750908  0.176909  1
  F  F17  1  0.037825  0.246684  0.826775  1
  F  F18  1  0.462853  0.248839  0.325413  1
  F  F19  1  0.546191  0.749003  0.673276  1
  F  F20  1  0.766485  0.484212  0.143918  1
  F  F21  1  0.229807  0.511002  0.859033  1
  F  F22  1  0.267635  0.514996  0.356952  1
  F  F23  1  0.732929  0.484899  0.640069  1
  F  F24  1  0.950490  0.279889  0.048920  1
  F  F25  1  0.048665  0.716264  0.956957  1
  F  F26  1  0.449268  0.719206  0.450537  1
  F  F27  1  0.549560  0.283098  0.546883  1
  F  F28  1  0.747010  0.967118  0.450796  1
  F  F29  1  0.254614  0.033539  0.546508  1
  F  F30  1  0.246806  0.030007  0.048559  1
  F  F31  1  0.753620  0.965698  0.956075  1
  F  F32  1  0.567091  0.976863  0.235024  1
  F  F33  1  0.431651  0.032289  0.766462  1
  F  F34  1  0.066850  0.023979  0.265067  1
  F  F35  1  0.920638  0.978936  0.734164  1
