# generated using pymatgen
data_TaZn2B4Ru10W3
_symmetry_space_group_name_H-M   'P 1'
_cell_length_a   9.33605081
_cell_length_b   9.33605081
_cell_length_c   2.93095100
_cell_angle_alpha   90.00000000
_cell_angle_beta   90.00000000
_cell_angle_gamma   89.92872434
_symmetry_Int_Tables_number   1
_chemical_formula_structural   TaZn2B4Ru10W3
_chemical_formula_sum   'Ta1 Zn2 B4 Ru10 W3'
_cell_volume   255.46689807
_cell_formula_units_Z   1
loop_
 _symmetry_equiv_pos_site_id
 _symmetry_equiv_pos_as_xyz
  1  'x, y, z'
loop_
 _atom_site_type_symbol
 _atom_site_label
 _atom_site_symmetry_multiplicity
 _atom_site_fract_x
 _atom_site_fract_y
 _atom_site_fract_z
 _atom_site_occupancy
  Ta  Ta0  1  0.678333  0.178333  0.000000  1
  Zn  Zn1  1  0.500836  0.498452  0.000000  1
  Zn  Zn2  1  0.998452  0.000836  0.000000  1
  B  B3  1  0.625749  0.875039  0.000000  1
  B  B4  1  0.375039  0.125749  0.000000  1
  B  B5  1  0.126245  0.626245  0.000000  1
  B  B6  1  0.874106  0.374106  0.000000  1
  Ru  Ru7  1  0.567031  0.716286  0.500000  1
  Ru  Ru8  1  0.425814  0.284627  0.500000  1
  Ru  Ru9  1  0.068240  0.784138  0.500000  1
  Ru  Ru10  1  0.937927  0.218719  0.500000  1
  Ru  Ru11  1  0.284138  0.568240  0.500000  1
  Ru  Ru12  1  0.718719  0.437927  0.500000  1
  Ru  Ru13  1  0.216286  0.067031  0.500000  1
  Ru  Ru14  1  0.784627  0.925814  0.500000  1
  Ru  Ru15  1  0.497034  0.997034  0.500000  1
  Ru  Ru16  1  0.000921  0.500921  0.500000  1
  W  W17  1  0.821528  0.677930  0.000000  1
  W  W18  1  0.177930  0.321528  0.000000  1
  W  W19  1  0.321047  0.821047  0.000000  1
