# generated using pymatgen
data_DyY5Tm2(Si3Rh)4
_symmetry_space_group_name_H-M   'P 1'
_cell_length_a   8.17880336
_cell_length_b   8.17459207
_cell_length_c   7.90215500
_cell_angle_alpha   90.00000000
_cell_angle_beta   90.00000000
_cell_angle_gamma   119.98295448
_symmetry_Int_Tables_number   1
_chemical_formula_structural   DyY5Tm2(Si3Rh)4
_chemical_formula_sum   'Dy1 Y5 Tm2 Si12 Rh4'
_cell_volume   457.62169152
_cell_formula_units_Z   1
loop_
 _symmetry_equiv_pos_site_id
 _symmetry_equiv_pos_as_xyz
  1  'x, y, z'
loop_
 _atom_site_type_symbol
 _atom_site_label
 _atom_site_symmetry_multiplicity
 _atom_site_fract_x
 _atom_site_fract_y
 _atom_site_fract_z
 _atom_site_occupancy
  Dy  Dy0  1  0.019161  0.509580  0.750000  1
  Y  Y1  1  0.000291  0.000145  0.250000  1
  Y  Y2  1  0.999641  0.999821  0.750000  1
  Y  Y3  1  0.508685  0.491182  0.250000  1
  Y  Y4  1  0.508685  0.017505  0.250000  1
  Y  Y5  1  0.982411  0.491206  0.250000  1
  Tm  Tm6  1  0.491519  0.509067  0.750000  1
  Tm  Tm7  1  0.491519  0.982450  0.750000  1
  Si  Si8  1  0.167226  0.833368  0.501549  1
  Si  Si9  1  0.167226  0.333859  0.501549  1
  Si  Si10  1  0.665915  0.832958  0.502773  1
  Si  Si11  1  0.832477  0.167193  0.501555  1
  Si  Si12  1  0.832477  0.665282  0.501555  1
  Si  Si13  1  0.334419  0.167209  0.501845  1
  Si  Si14  1  0.832477  0.167193  0.998445  1
  Si  Si15  1  0.832477  0.665282  0.998445  1
  Si  Si16  1  0.334419  0.167209  0.998155  1
  Si  Si17  1  0.167226  0.833368  0.998451  1
  Si  Si18  1  0.167226  0.333859  0.998451  1
  Si  Si19  1  0.665915  0.832958  0.997227  1
  Rh  Rh20  1  0.334001  0.667001  0.471380  1
  Rh  Rh21  1  0.665304  0.332652  0.539535  1
  Rh  Rh22  1  0.665304  0.332652  0.960465  1
  Rh  Rh23  1  0.334001  0.667001  0.028620  1
