# generated using pymatgen
data_CsSm(GaO2)4
_symmetry_space_group_name_H-M   'P 1'
_cell_length_a   6.87342396
_cell_length_b   6.87342431
_cell_length_c   6.87342500
_cell_angle_alpha   134.98079616
_cell_angle_beta   102.82289554
_cell_angle_gamma   94.08246505
_symmetry_Int_Tables_number   1
_chemical_formula_structural   CsSm(GaO2)4
_chemical_formula_sum   'Cs1 Sm1 Ga4 O8'
_cell_volume   211.36584057
_cell_formula_units_Z   1
loop_
 _symmetry_equiv_pos_site_id
 _symmetry_equiv_pos_as_xyz
  1  'x, y, z'
loop_
 _atom_site_type_symbol
 _atom_site_label
 _atom_site_symmetry_multiplicity
 _atom_site_fract_x
 _atom_site_fract_y
 _atom_site_fract_z
 _atom_site_occupancy
  Cs  Cs0  1  0.000000  0.016372  0.016372  1
  Sm  Sm1  1  0.500000  0.915902  0.415902  1
  Ga  Ga2  1  0.874350  0.626820  0.158764  1
  Ga  Ga3  1  0.531944  0.284414  0.158764  1
  Ga  Ga4  1  0.125650  0.284414  0.752469  1
  Ga  Ga5  1  0.468056  0.626820  0.752469  1
  O  O6  1  0.485180  0.275052  0.412080  1
  O  O7  1  0.514820  0.926900  0.789873  1
  O  O8  1  0.773133  0.586958  0.360091  1
  O  O9  1  0.226867  0.586958  0.813824  1
  O  O10  1  0.137028  0.926900  0.412080  1
  O  O11  1  0.862972  0.275052  0.789873  1
  O  O12  1  0.328428  0.421897  0.093468  1
  O  O13  1  0.671572  0.765040  0.093468  1
