# generated using pymatgen
data_Ca5La3(MgIr)2
_symmetry_space_group_name_H-M   'P 1'
_cell_length_a   10.12841053
_cell_length_b   10.26328128
_cell_length_c   10.26328138
_cell_angle_alpha   59.13247527
_cell_angle_beta   60.43375297
_cell_angle_gamma   60.43375914
_symmetry_Int_Tables_number   1
_chemical_formula_structural   Ca5La3(MgIr)2
_chemical_formula_sum   'Ca10 La6 Mg4 Ir4'
_cell_volume   754.13768393
_cell_formula_units_Z   2
loop_
 _symmetry_equiv_pos_site_id
 _symmetry_equiv_pos_as_xyz
  1  'x, y, z'
loop_
 _atom_site_type_symbol
 _atom_site_label
 _atom_site_symmetry_multiplicity
 _atom_site_fract_x
 _atom_site_fract_y
 _atom_site_fract_z
 _atom_site_occupancy
  Ca  Ca0  1  0.191228  0.808772  0.191228  1
  Ca  Ca1  1  0.808772  0.191228  0.808772  1
  Ca  Ca2  1  0.191228  0.191228  0.808772  1
  Ca  Ca3  1  0.808772  0.808772  0.191228  1
  Ca  Ca4  1  0.938918  0.561082  0.561082  1
  Ca  Ca5  1  0.561082  0.938918  0.938918  1
  Ca  Ca6  1  0.555891  0.944109  0.555891  1
  Ca  Ca7  1  0.944109  0.555891  0.944109  1
  Ca  Ca8  1  0.555891  0.555891  0.944109  1
  Ca  Ca9  1  0.944109  0.944109  0.555891  1
  La  La10  1  0.339938  0.344368  0.344368  1
  La  La11  1  0.344368  0.339938  0.971325  1
  La  La12  1  0.344368  0.971325  0.339938  1
  La  La13  1  0.971325  0.344368  0.344368  1
  La  La14  1  0.812419  0.187581  0.187581  1
  La  La15  1  0.187581  0.812419  0.812419  1
  Mg  Mg16  1  0.576365  0.578346  0.578346  1
  Mg  Mg17  1  0.578346  0.576365  0.266943  1
  Mg  Mg18  1  0.578346  0.266943  0.576365  1
  Mg  Mg19  1  0.266943  0.578346  0.578346  1
  Ir  Ir20  1  0.125720  0.149082  0.149082  1
  Ir  Ir21  1  0.149082  0.125720  0.576116  1
  Ir  Ir22  1  0.149082  0.576116  0.125720  1
  Ir  Ir23  1  0.576116  0.149082  0.149082  1
