# generated using pymatgen
data_Tb19Tm(Bi2Ir)4
_symmetry_space_group_name_H-M   'P 1'
_cell_length_a   8.05651044
_cell_length_b   9.03167083
_cell_length_c   12.55383456
_cell_angle_alpha   89.96897153
_cell_angle_beta   90.08066178
_cell_angle_gamma   89.96196179
_symmetry_Int_Tables_number   1
_chemical_formula_structural   Tb19Tm(Bi2Ir)4
_chemical_formula_sum   'Tb19 Tm1 Bi8 Ir4'
_cell_volume   913.46284348
_cell_formula_units_Z   1
loop_
 _symmetry_equiv_pos_site_id
 _symmetry_equiv_pos_as_xyz
  1  'x, y, z'
loop_
 _atom_site_type_symbol
 _atom_site_label
 _atom_site_symmetry_multiplicity
 _atom_site_fract_x
 _atom_site_fract_y
 _atom_site_fract_z
 _atom_site_occupancy
  Tb  Tb0  1  0.841321  0.750173  0.794080  1
  Tb  Tb1  1  0.158525  0.249948  0.205785  1
  Tb  Tb2  1  0.342023  0.249741  0.705615  1
  Tb  Tb3  1  0.658405  0.750092  0.294532  1
  Tb  Tb4  1  0.376862  0.750212  0.694111  1
  Tb  Tb5  1  0.624037  0.249589  0.305910  1
  Tb  Tb6  1  0.876148  0.249945  0.805409  1
  Tb  Tb7  1  0.123731  0.750049  0.194445  1
  Tb  Tb8  1  0.947489  0.750515  0.501649  1
  Tb  Tb9  1  0.051200  0.249594  0.498455  1
  Tb  Tb10  1  0.448439  0.249952  0.998445  1
  Tb  Tb11  1  0.551587  0.749979  0.001554  1
  Tb  Tb12  1  0.323095  0.959660  0.434814  1
  Tb  Tb13  1  0.177716  0.959347  0.934460  1
  Tb  Tb14  1  0.322394  0.540328  0.434612  1
  Tb  Tb15  1  0.822286  0.040575  0.065549  1
  Tb  Tb16  1  0.677603  0.459171  0.565553  1
  Tb  Tb17  1  0.822333  0.459372  0.065484  1
  Tb  Tb18  1  0.177737  0.540626  0.934475  1
  Tm  Tm19  1  0.674564  0.040605  0.564995  1
  Bi  Bi20  1  0.569645  0.491115  0.826846  1
  Bi  Bi21  1  0.430394  0.508842  0.173253  1
  Bi  Bi22  1  0.069715  0.508848  0.673146  1
  Bi  Bi23  1  0.430347  0.991188  0.173152  1
  Bi  Bi24  1  0.930397  0.491126  0.326832  1
  Bi  Bi25  1  0.569871  0.008934  0.826547  1
  Bi  Bi26  1  0.930653  0.008891  0.326792  1
  Bi  Bi27  1  0.068772  0.991325  0.672914  1
  Ir  Ir28  1  0.569322  0.751238  0.509662  1
  Ir  Ir29  1  0.433402  0.249024  0.490976  1
  Ir  Ir30  1  0.068265  0.250009  0.990469  1
  Ir  Ir31  1  0.931721  0.749989  0.009479  1
