# generated using pymatgen
data_Li2Cr2Ni10P7
_symmetry_space_group_name_H-M   'P 1'
_cell_length_a   9.00003749
_cell_length_b   9.00469608
_cell_length_c   3.52901300
_cell_angle_alpha   90.00000000
_cell_angle_beta   90.00000000
_cell_angle_gamma   120.05797073
_symmetry_Int_Tables_number   1
_chemical_formula_structural   Li2Cr2Ni10P7
_chemical_formula_sum   'Li2 Cr2 Ni10 P7'
_cell_volume   247.53879795
_cell_formula_units_Z   1
loop_
 _symmetry_equiv_pos_site_id
 _symmetry_equiv_pos_as_xyz
  1  'x, y, z'
loop_
 _atom_site_type_symbol
 _atom_site_label
 _atom_site_symmetry_multiplicity
 _atom_site_fract_x
 _atom_site_fract_y
 _atom_site_fract_z
 _atom_site_occupancy
  Li  Li0  1  0.663427  0.328383  0.500000  1
  Li  Li1  1  0.334901  0.669018  0.000000  1
  Cr  Cr2  1  0.219590  0.095817  0.500000  1
  Cr  Cr3  1  0.907757  0.126862  0.500000  1
  Ni  Ni4  1  0.723999  0.878779  0.000000  1
  Ni  Ni5  1  0.938530  0.376626  0.000000  1
  Ni  Ni6  1  0.163863  0.289047  0.000000  1
  Ni  Ni7  1  0.386251  0.441322  0.500000  1
  Ni  Ni8  1  0.117625  0.837738  0.000000  1
  Ni  Ni9  1  0.436119  0.060467  0.000000  1
  Ni  Ni10  1  0.050526  0.615260  0.500000  1
  Ni  Ni11  1  0.561138  0.944962  0.500000  1
  Ni  Ni12  1  0.623714  0.561160  0.000000  1
  Ni  Ni13  1  0.867529  0.767945  0.500000  1
  P  P14  1  0.414254  0.291221  0.000000  1
  P  P15  1  0.291373  0.879151  0.500000  1
  P  P16  1  0.709021  0.121002  0.000000  1
  P  P17  1  0.588385  0.709832  0.500000  1
  P  P18  1  0.875049  0.583473  0.000000  1
  P  P19  1  0.122559  0.415849  0.500000  1
  P  P20  1  0.004391  0.006082  0.000000  1
