# generated using pymatgen
data_Ho3SnPd3Pb2
_symmetry_space_group_name_H-M   'P 1'
_cell_length_a   7.80836678
_cell_length_b   7.77562614
_cell_length_c   3.86201500
_cell_angle_alpha   90.00000000
_cell_angle_beta   90.00000000
_cell_angle_gamma   119.86139169
_symmetry_Int_Tables_number   1
_chemical_formula_structural   Ho3SnPd3Pb2
_chemical_formula_sum   'Ho3 Sn1 Pd3 Pb2'
_cell_volume   203.35041103
_cell_formula_units_Z   1
loop_
 _symmetry_equiv_pos_site_id
 _symmetry_equiv_pos_as_xyz
  1  'x, y, z'
loop_
 _atom_site_type_symbol
 _atom_site_label
 _atom_site_symmetry_multiplicity
 _atom_site_fract_x
 _atom_site_fract_y
 _atom_site_fract_z
 _atom_site_occupancy
  Ho  Ho0  1  0.397111  0.401121  0.500000  1
  Ho  Ho1  1  0.602889  0.004011  0.500000  1
  Ho  Ho2  1  0.000000  0.596467  0.500000  1
  Sn  Sn3  1  0.000000  0.264972  0.000000  1
  Pd  Pd4  1  0.673134  0.330826  0.000000  1
  Pd  Pd5  1  0.326866  0.657694  0.000000  1
  Pd  Pd6  1  0.000000  0.010685  0.500000  1
  Pb  Pb7  1  0.734952  0.734589  0.000000  1
  Pb  Pb8  1  0.265048  0.999636  0.000000  1
