# generated using pymatgen
data_Ac3La(Zn5Pb)2
_symmetry_space_group_name_H-M   'P 1'
_cell_length_a   4.69840500
_cell_length_b   8.91106903
_cell_length_c   9.39752200
_cell_angle_alpha   90.00000000
_cell_angle_beta   90.00000000
_cell_angle_gamma   105.28541556
_symmetry_Int_Tables_number   1
_chemical_formula_structural   Ac3La(Zn5Pb)2
_chemical_formula_sum   'Ac3 La1 Zn10 Pb2'
_cell_volume   379.53507882
_cell_formula_units_Z   1
loop_
 _symmetry_equiv_pos_site_id
 _symmetry_equiv_pos_as_xyz
  1  'x, y, z'
loop_
 _atom_site_type_symbol
 _atom_site_label
 _atom_site_symmetry_multiplicity
 _atom_site_fract_x
 _atom_site_fract_y
 _atom_site_fract_z
 _atom_site_occupancy
  Ac  Ac0  1  0.792711  0.585422  0.250000  1
  Ac  Ac1  1  0.000264  0.000529  0.500391  1
  Ac  Ac2  1  0.000264  0.000529  0.999609  1
  La  La3  1  0.208615  0.417230  0.750000  1
  Zn  Zn4  1  0.185792  0.371586  0.392331  1
  Zn  Zn5  1  0.812794  0.625586  0.611427  1
  Zn  Zn6  1  0.185792  0.371586  0.107669  1
  Zn  Zn7  1  0.812794  0.625586  0.888573  1
  Zn  Zn8  1  0.341139  0.682279  0.490782  1
  Zn  Zn9  1  0.658752  0.317504  0.513116  1
  Zn  Zn10  1  0.341139  0.682279  0.009218  1
  Zn  Zn11  1  0.658752  0.317504  0.986884  1
  Zn  Zn12  1  0.605152  0.210303  0.250000  1
  Zn  Zn13  1  0.394107  0.788214  0.750000  1
  Pb  Pb14  1  0.443206  0.886412  0.250000  1
  Pb  Pb15  1  0.558726  0.117452  0.750000  1
