# generated using pymatgen
data_Sr6NpMoO12
_symmetry_space_group_name_H-M   'P 1'
_cell_length_a   7.00068679
_cell_length_b   7.00068644
_cell_length_c   7.00068685
_cell_angle_alpha   92.21776063
_cell_angle_beta   92.21777529
_cell_angle_gamma   92.21776644
_symmetry_Int_Tables_number   1
_chemical_formula_structural   Sr6NpMoO12
_chemical_formula_sum   'Sr6 Np1 Mo1 O12'
_cell_volume   342.30946194
_cell_formula_units_Z   1
loop_
 _symmetry_equiv_pos_site_id
 _symmetry_equiv_pos_as_xyz
  1  'x, y, z'
loop_
 _atom_site_type_symbol
 _atom_site_label
 _atom_site_symmetry_multiplicity
 _atom_site_fract_x
 _atom_site_fract_y
 _atom_site_fract_z
 _atom_site_occupancy
  Sr  Sr0  1  0.068126  0.259119  0.561514  1
  Sr  Sr1  1  0.438486  0.931874  0.740881  1
  Sr  Sr2  1  0.740881  0.438486  0.931874  1
  Sr  Sr3  1  0.259119  0.561514  0.068126  1
  Sr  Sr4  1  0.561514  0.068126  0.259119  1
  Sr  Sr5  1  0.931874  0.740881  0.438486  1
  Np  Np6  1  0.000000  0.000000  0.000000  1
  Mo  Mo7  1  0.500000  0.500000  0.500000  1
  O  O8  1  0.063536  0.283978  0.934107  1
  O  O9  1  0.065893  0.936464  0.716022  1
  O  O10  1  0.454282  0.574343  0.768313  1
  O  O11  1  0.716022  0.065893  0.936464  1
  O  O12  1  0.231687  0.545718  0.425657  1
  O  O13  1  0.425657  0.231687  0.545718  1
  O  O14  1  0.574343  0.768313  0.454282  1
  O  O15  1  0.768313  0.454282  0.574343  1
  O  O16  1  0.283978  0.934107  0.063536  1
  O  O17  1  0.545718  0.425657  0.231687  1
  O  O18  1  0.934107  0.063536  0.283978  1
  O  O19  1  0.936464  0.716022  0.065893  1
