# generated using pymatgen
data_Tc5Rh3
_symmetry_space_group_name_H-M   'P 1'
_cell_length_a   5.51931433
_cell_length_b   5.51931340
_cell_length_c   4.36150700
_cell_angle_alpha   90.00000000
_cell_angle_beta   90.00000000
_cell_angle_gamma   120.29208474
_symmetry_Int_Tables_number   1
_chemical_formula_structural   Tc5Rh3
_chemical_formula_sum   'Tc5 Rh3'
_cell_volume   114.72329614
_cell_formula_units_Z   1
loop_
 _symmetry_equiv_pos_site_id
 _symmetry_equiv_pos_as_xyz
  1  'x, y, z'
loop_
 _atom_site_type_symbol
 _atom_site_label
 _atom_site_symmetry_multiplicity
 _atom_site_fract_x
 _atom_site_fract_y
 _atom_site_fract_z
 _atom_site_occupancy
  Tc  Tc0  1  0.162886  0.324197  0.250000  1
  Tc  Tc1  1  0.675803  0.837114  0.250000  1
  Tc  Tc2  1  0.161071  0.838929  0.250000  1
  Tc  Tc3  1  0.836887  0.675614  0.750000  1
  Tc  Tc4  1  0.324386  0.163113  0.750000  1
  Rh  Rh5  1  0.834975  0.165025  0.750000  1
  Rh  Rh6  1  0.335785  0.664215  0.750000  1
  Rh  Rh7  1  0.668207  0.331793  0.250000  1
