# generated using pymatgen
data_Pm2GaRh3
_symmetry_space_group_name_H-M   'P 1'
_cell_length_a   5.70699867
_cell_length_b   5.70723534
_cell_length_c   5.19168356
_cell_angle_alpha   56.63232730
_cell_angle_beta   56.65266807
_cell_angle_gamma   59.99594911
_symmetry_Int_Tables_number   1
_chemical_formula_structural   Pm2GaRh3
_chemical_formula_sum   'Pm2 Ga1 Rh3'
_cell_volume   113.13591552
_cell_formula_units_Z   1
loop_
 _symmetry_equiv_pos_site_id
 _symmetry_equiv_pos_as_xyz
  1  'x, y, z'
loop_
 _atom_site_type_symbol
 _atom_site_label
 _atom_site_symmetry_multiplicity
 _atom_site_fract_x
 _atom_site_fract_y
 _atom_site_fract_z
 _atom_site_occupancy
  Pm  Pm0  1  0.745350  0.745418  0.763878  1
  Pm  Pm1  1  0.004650  0.004582  0.986122  1
  Ga  Ga2  1  0.375000  0.375000  0.875000  1
  Rh  Rh3  1  0.875000  0.375000  0.375000  1
  Rh  Rh4  1  0.375000  0.875000  0.375000  1
  Rh  Rh5  1  0.375000  0.375000  0.375000  1
