# generated using pymatgen
data_La12TbDyRh6
_symmetry_space_group_name_H-M   'P 1'
_cell_length_a   10.25370100
_cell_length_b   10.25370214
_cell_length_c   6.44572800
_cell_angle_alpha   90.00000000
_cell_angle_beta   90.00000000
_cell_angle_gamma   120.00000600
_symmetry_Int_Tables_number   1
_chemical_formula_structural   La12TbDyRh6
_chemical_formula_sum   'La12 Tb1 Dy1 Rh6'
_cell_volume   586.89975349
_cell_formula_units_Z   1
loop_
 _symmetry_equiv_pos_site_id
 _symmetry_equiv_pos_as_xyz
  1  'x, y, z'
loop_
 _atom_site_type_symbol
 _atom_site_label
 _atom_site_symmetry_multiplicity
 _atom_site_fract_x
 _atom_site_fract_y
 _atom_site_fract_z
 _atom_site_occupancy
  La  La0  1  0.873301  0.746602  0.764499  1
  La  La1  1  0.253398  0.126699  0.764499  1
  La  La2  1  0.873301  0.126699  0.764499  1
  La  La3  1  0.126656  0.253313  0.264555  1
  La  La4  1  0.746687  0.873344  0.264555  1
  La  La5  1  0.126656  0.873344  0.264555  1
  La  La6  1  0.457488  0.914977  0.595153  1
  La  La7  1  0.085023  0.542512  0.595153  1
  La  La8  1  0.457488  0.542512  0.595153  1
  La  La9  1  0.542556  0.085110  0.095173  1
  La  La10  1  0.914890  0.457444  0.095173  1
  La  La11  1  0.542556  0.457444  0.095173  1
  Tb  Tb12  1  0.333333  0.666667  0.067890  1
  Dy  Dy13  1  0.666667  0.333333  0.567679  1
  Rh  Rh14  1  0.190422  0.380842  0.853494  1
  Rh  Rh15  1  0.619158  0.809578  0.853494  1
  Rh  Rh16  1  0.190422  0.809578  0.853494  1
  Rh  Rh17  1  0.809509  0.619020  0.353618  1
  Rh  Rh18  1  0.380980  0.190491  0.353618  1
  Rh  Rh19  1  0.809509  0.190491  0.353618  1
