# generated using pymatgen
data_Hf2Ta2Al2Zn
_symmetry_space_group_name_H-M   'P 1'
_cell_length_a   5.17776801
_cell_length_b   5.22158301
_cell_length_c   5.31212400
_cell_angle_alpha   90.00000000
_cell_angle_beta   90.00000000
_cell_angle_gamma   120.28032572
_symmetry_Int_Tables_number   1
_chemical_formula_structural   Hf2Ta2Al2Zn
_chemical_formula_sum   'Hf2 Ta2 Al2 Zn1'
_cell_volume   124.02518796
_cell_formula_units_Z   1
loop_
 _symmetry_equiv_pos_site_id
 _symmetry_equiv_pos_as_xyz
  1  'x, y, z'
loop_
 _atom_site_type_symbol
 _atom_site_label
 _atom_site_symmetry_multiplicity
 _atom_site_fract_x
 _atom_site_fract_y
 _atom_site_fract_z
 _atom_site_occupancy
  Hf  Hf0  1  0.335157  0.667579  0.500000  1
  Hf  Hf1  1  0.664843  0.332421  0.500000  1
  Ta  Ta2  1  0.000000  0.000000  0.262150  1
  Ta  Ta3  1  0.000000  0.000000  0.737850  1
  Al  Al4  1  0.500000  0.000000  0.000000  1
  Al  Al5  1  0.500000  0.500000  0.000000  1
  Zn  Zn6  1  0.000000  0.500000  0.000000  1
