# generated using pymatgen
data_Sr4Mg2ReSbO12
_symmetry_space_group_name_H-M   'P 1'
_cell_length_a   5.69008585
_cell_length_b   5.67791779
_cell_length_c   8.01743726
_cell_angle_alpha   89.97495786
_cell_angle_beta   90.13939109
_cell_angle_gamma   89.97376928
_symmetry_Int_Tables_number   1
_chemical_formula_structural   Sr4Mg2ReSbO12
_chemical_formula_sum   'Sr4 Mg2 Re1 Sb1 O12'
_cell_volume   259.02525916
_cell_formula_units_Z   1
loop_
 _symmetry_equiv_pos_site_id
 _symmetry_equiv_pos_as_xyz
  1  'x, y, z'
loop_
 _atom_site_type_symbol
 _atom_site_label
 _atom_site_symmetry_multiplicity
 _atom_site_fract_x
 _atom_site_fract_y
 _atom_site_fract_z
 _atom_site_occupancy
  Sr  Sr0  1  0.498688  0.519151  0.238250  1
  Sr  Sr1  1  0.002491  0.019931  0.238115  1
  Sr  Sr2  1  0.997508  0.980068  0.761885  1
  Sr  Sr3  1  0.501313  0.480848  0.761750  1
  Mg  Mg4  1  0.499999  0.000000  0.000000  1
  Mg  Mg5  1  0.000000  0.500000  0.500001  1
  Re  Re6  1  0.500001  0.000000  0.500001  1
  Sb  Sb7  1  0.000000  0.500000  0.000000  1
  O  O8  1  0.270476  0.277437  0.026599  1
  O  O9  1  0.220856  0.771708  0.027757  1
  O  O10  1  0.945039  0.490533  0.248767  1
  O  O11  1  0.549133  0.993053  0.265745  1
  O  O12  1  0.295954  0.264000  0.473902  1
  O  O13  1  0.238266  0.793716  0.474497  1
  O  O14  1  0.761733  0.206283  0.525503  1
  O  O15  1  0.704047  0.736000  0.526098  1
  O  O16  1  0.450867  0.006948  0.734255  1
  O  O17  1  0.054961  0.509466  0.751233  1
  O  O18  1  0.779144  0.228291  0.972244  1
  O  O19  1  0.729524  0.722562  0.973401  1
