# generated using pymatgen
data_La4Pr2UO11F
_symmetry_space_group_name_H-M   'P 1'
_cell_length_a   6.93618207
_cell_length_b   6.89630793
_cell_length_c   6.93854273
_cell_angle_alpha   99.02160579
_cell_angle_beta   98.95709381
_cell_angle_gamma   98.87596625
_symmetry_Int_Tables_number   1
_chemical_formula_structural   La4Pr2UO11F
_chemical_formula_sum   'La4 Pr2 U1 O11 F1'
_cell_volume   318.31643941
_cell_formula_units_Z   1
loop_
 _symmetry_equiv_pos_site_id
 _symmetry_equiv_pos_as_xyz
  1  'x, y, z'
loop_
 _atom_site_type_symbol
 _atom_site_label
 _atom_site_symmetry_multiplicity
 _atom_site_fract_x
 _atom_site_fract_y
 _atom_site_fract_z
 _atom_site_occupancy
  La  La0  1  0.393200  0.844673  0.696759  1
  La  La1  1  0.702520  0.403725  0.869295  1
  La  La2  1  0.856202  0.695573  0.396852  1
  La  La3  1  0.126619  0.308871  0.607667  1
  Pr  Pr4  1  0.307638  0.608754  0.146628  1
  Pr  Pr5  1  0.616574  0.135332  0.285204  1
  U  U6  1  0.004715  0.001915  0.000021  1
  O  O7  1  0.931923  0.697840  0.049011  1
  O  O8  1  0.173462  0.587816  0.439051  1
  O  O9  1  0.815224  0.401525  0.563097  1
  O  O10  1  0.562145  0.828416  0.414317  1
  O  O11  1  0.588972  0.438823  0.177916  1
  O  O12  1  0.407992  0.556655  0.819047  1
  O  O13  1  0.951904  0.069585  0.302117  1
  O  O14  1  0.055402  0.935085  0.698747  1
  O  O15  1  0.696411  0.054634  0.934897  1
  O  O16  1  0.069422  0.305775  0.954784  1
  O  O17  1  0.307177  0.947401  0.070358  1
  F  F18  1  0.432498  0.177602  0.574232  1
