# generated using pymatgen
data_TmFeH5
_symmetry_space_group_name_H-M   'P 1'
_cell_length_a   4.16731300
_cell_length_b   4.51191600
_cell_length_c   11.05182000
_cell_angle_alpha   90.00000000
_cell_angle_beta   90.00000000
_cell_angle_gamma   90.00000000
_symmetry_Int_Tables_number   1
_chemical_formula_structural   TmFeH5
_chemical_formula_sum   'Tm4 Fe4 H20'
_cell_volume   207.80257720
_cell_formula_units_Z   4
loop_
 _symmetry_equiv_pos_site_id
 _symmetry_equiv_pos_as_xyz
  1  'x, y, z'
loop_
 _atom_site_type_symbol
 _atom_site_label
 _atom_site_symmetry_multiplicity
 _atom_site_fract_x
 _atom_site_fract_y
 _atom_site_fract_z
 _atom_site_occupancy
  Tm  Tm0  1  0.719186  0.656654  0.849889  1
  Tm  Tm1  1  0.219186  0.843346  0.150111  1
  Tm  Tm2  1  0.780814  0.343346  0.349889  1
  Tm  Tm3  1  0.280814  0.156654  0.650111  1
  Fe  Fe4  1  0.315700  0.158074  0.911889  1
  Fe  Fe5  1  0.815700  0.341926  0.088111  1
  Fe  Fe6  1  0.184300  0.841926  0.411889  1
  Fe  Fe7  1  0.684300  0.658074  0.588111  1
  H  H8  1  0.466439  0.899271  0.984365  1
  H  H9  1  0.966439  0.600729  0.015635  1
  H  H10  1  0.033561  0.100729  0.484365  1
  H  H11  1  0.533561  0.399271  0.515635  1
  H  H12  1  0.160761  0.924587  0.823534  1
  H  H13  1  0.660761  0.575413  0.176466  1
  H  H14  1  0.339239  0.075413  0.323534  1
  H  H15  1  0.839239  0.424587  0.676466  1
  H  H16  1  0.698922  0.071321  0.170319  1
  H  H17  1  0.198922  0.428679  0.829681  1
  H  H18  1  0.801078  0.928679  0.670319  1
  H  H19  1  0.301078  0.571321  0.329681  1
  H  H20  1  0.613635  0.150229  0.826937  1
  H  H21  1  0.113635  0.349771  0.173063  1
  H  H22  1  0.886365  0.849771  0.326937  1
  H  H23  1  0.386365  0.650229  0.673063  1
  H  H24  1  0.988465  0.094237  0.997318  1
  H  H25  1  0.488465  0.405763  0.002682  1
  H  H26  1  0.511535  0.905763  0.497318  1
  H  H27  1  0.011535  0.594237  0.502682  1
