# generated using pymatgen
data_Pm2Os3
_symmetry_space_group_name_H-M   'P 1'
_cell_length_a   5.01941300
_cell_length_b   4.62087995
_cell_length_c   5.77210601
_cell_angle_alpha   66.49726433
_cell_angle_beta   64.28812601
_cell_angle_gamma   90.00437286
_symmetry_Int_Tables_number   1
_chemical_formula_structural   Pm2Os3
_chemical_formula_sum   'Pm2 Os3'
_cell_volume   108.16180579
_cell_formula_units_Z   1
loop_
 _symmetry_equiv_pos_site_id
 _symmetry_equiv_pos_as_xyz
  1  'x, y, z'
loop_
 _atom_site_type_symbol
 _atom_site_label
 _atom_site_symmetry_multiplicity
 _atom_site_fract_x
 _atom_site_fract_y
 _atom_site_fract_z
 _atom_site_occupancy
  Pm  Pm0  1  0.668774  0.497925  0.813475  1
  Pm  Pm1  1  0.288357  0.116984  0.574943  1
  Os  Os2  1  0.721370  0.808857  0.193175  1
  Os  Os3  1  0.233672  0.808391  0.193425  1
  Os  Os4  1  0.977584  0.307628  0.195505  1
