# generated using pymatgen
data_Ir7RhW
_symmetry_space_group_name_H-M   'P 1'
_cell_length_a   6.14826706
_cell_length_b   6.14826636
_cell_length_c   6.14092163
_cell_angle_alpha   95.69884105
_cell_angle_beta   95.69883799
_cell_angle_gamma   143.28680313
_symmetry_Int_Tables_number   1
_chemical_formula_structural   Ir7RhW
_chemical_formula_sum   'Ir7 Rh1 W1'
_cell_volume   131.69325726
_cell_formula_units_Z   1
loop_
 _symmetry_equiv_pos_site_id
 _symmetry_equiv_pos_as_xyz
  1  'x, y, z'
loop_
 _atom_site_type_symbol
 _atom_site_label
 _atom_site_symmetry_multiplicity
 _atom_site_fract_x
 _atom_site_fract_y
 _atom_site_fract_z
 _atom_site_occupancy
  Ir  Ir0  1  0.663414  0.336893  0.000308  1
  Ir  Ir1  1  0.336893  0.663414  0.000308  1
  Ir  Ir2  1  0.662802  0.662802  0.325605  1
  Ir  Ir3  1  0.331640  0.999725  0.331365  1
  Ir  Ir4  1  0.999725  0.331640  0.331365  1
  Ir  Ir5  1  0.666429  0.001499  0.667928  1
  Ir  Ir6  1  0.001499  0.666429  0.667928  1
  Rh  Rh7  1  0.336588  0.336588  0.673175  1
  W  W8  1  0.001009  0.001009  0.002018  1
