# generated using pymatgen
data_Y4Ni(GeIr)6
_symmetry_space_group_name_H-M   'P 1'
_cell_length_a   7.26331792
_cell_length_b   7.26331536
_cell_length_c   7.26331902
_cell_angle_alpha   109.40968543
_cell_angle_beta   109.40893772
_cell_angle_gamma   109.59510915
_symmetry_Int_Tables_number   1
_chemical_formula_structural   Y4Ni(GeIr)6
_chemical_formula_sum   'Y4 Ni1 Ge6 Ir6'
_cell_volume   294.97259179
_cell_formula_units_Z   1
loop_
 _symmetry_equiv_pos_site_id
 _symmetry_equiv_pos_as_xyz
  1  'x, y, z'
loop_
 _atom_site_type_symbol
 _atom_site_label
 _atom_site_symmetry_multiplicity
 _atom_site_fract_x
 _atom_site_fract_y
 _atom_site_fract_z
 _atom_site_occupancy
  Y  Y0  1  0.000937  0.999062  0.499998  1
  Y  Y1  1  0.000938  0.500939  0.001874  1
  Y  Y2  1  0.499063  0.999062  0.998125  1
  Y  Y3  1  0.499064  0.500939  0.500001  1
  Ni  Ni4  1  0.750008  0.250013  0.500006  1
  Ge  Ge5  1  0.682260  0.682255  0.999996  1
  Ge  Ge6  1  0.322928  0.002628  0.320300  1
  Ge  Ge7  1  0.997373  0.317669  0.320296  1
  Ge  Ge8  1  0.317740  0.317745  0.000006  1
  Ge  Ge9  1  0.682328  0.002628  0.679700  1
  Ge  Ge10  1  0.997364  0.677067  0.679703  1
  Ir  Ir11  1  0.748160  0.496636  0.251522  1
  Ir  Ir12  1  0.503364  0.251840  0.748476  1
  Ir  Ir13  1  0.245115  0.496636  0.748476  1
  Ir  Ir14  1  0.249996  0.749995  0.499999  1
  Ir  Ir15  1  0.503362  0.754886  0.251523  1
  Ir  Ir16  1  0.999999  0.999998  0.999999  1
