# generated using pymatgen
data_Tb4Co12CuNi7P12
_symmetry_space_group_name_H-M   'P 1'
_cell_length_a   3.68815400
_cell_length_b   10.26263020
_cell_length_c   11.83597238
_cell_angle_alpha   89.94459413
_cell_angle_beta   90.00000000
_cell_angle_gamma   90.00000000
_symmetry_Int_Tables_number   1
_chemical_formula_structural   Tb4Co12CuNi7P12
_chemical_formula_sum   'Tb4 Co12 Cu1 Ni7 P12'
_cell_volume   447.99324636
_cell_formula_units_Z   1
loop_
 _symmetry_equiv_pos_site_id
 _symmetry_equiv_pos_as_xyz
  1  'x, y, z'
loop_
 _atom_site_type_symbol
 _atom_site_label
 _atom_site_symmetry_multiplicity
 _atom_site_fract_x
 _atom_site_fract_y
 _atom_site_fract_z
 _atom_site_occupancy
  Tb  Tb0  1  0.250000  0.581319  0.702182  1
  Tb  Tb1  1  0.250000  0.919286  0.204075  1
  Tb  Tb2  1  0.750000  0.418626  0.296767  1
  Tb  Tb3  1  0.750000  0.082384  0.795710  1
  Co  Co4  1  0.250000  0.221757  0.175619  1
  Co  Co5  1  0.250000  0.278001  0.675684  1
  Co  Co6  1  0.750000  0.778390  0.824255  1
  Co  Co7  1  0.750000  0.721536  0.326469  1
  Co  Co8  1  0.250000  0.881111  0.696431  1
  Co  Co9  1  0.250000  0.619347  0.197803  1
  Co  Co10  1  0.750000  0.119047  0.302025  1
  Co  Co11  1  0.750000  0.379798  0.802341  1
  Co  Co12  1  0.250000  0.466977  0.933022  1
  Co  Co13  1  0.250000  0.032739  0.432576  1
  Co  Co14  1  0.750000  0.533322  0.066423  1
  Co  Co15  1  0.750000  0.967630  0.566920  1
  Cu  Cu16  1  0.250000  0.710715  0.990087  1
  Ni  Ni17  1  0.250000  0.787264  0.490107  1
  Ni  Ni18  1  0.750000  0.288418  0.011008  1
  Ni  Ni19  1  0.750000  0.212648  0.510069  1
  Ni  Ni20  1  0.250000  0.408234  0.485580  1
  Ni  Ni21  1  0.250000  0.092266  0.985269  1
  Ni  Ni22  1  0.750000  0.591657  0.514745  1
  Ni  Ni23  1  0.750000  0.907702  0.014553  1
  P  P24  1  0.250000  0.420064  0.113097  1
  P  P25  1  0.250000  0.079970  0.612139  1
  P  P26  1  0.750000  0.577130  0.884228  1
  P  P27  1  0.750000  0.920439  0.387694  1
  P  P28  1  0.250000  0.272065  0.864972  1
  P  P29  1  0.250000  0.227727  0.365368  1
  P  P30  1  0.750000  0.727044  0.140112  1
  P  P31  1  0.750000  0.772858  0.634655  1
  P  P32  1  0.250000  0.605688  0.388730  1
  P  P33  1  0.250000  0.897092  0.885667  1
  P  P34  1  0.750000  0.393606  0.611812  1
  P  P35  1  0.750000  0.106147  0.111810  1
