# generated using pymatgen
data_Ce3GdF15
_symmetry_space_group_name_H-M   'P 1'
_cell_length_a   8.65336049
_cell_length_b   8.65336060
_cell_length_c   8.62988231
_cell_angle_alpha   79.69711446
_cell_angle_beta   79.69711571
_cell_angle_gamma   100.31402162
_symmetry_Int_Tables_number   1
_chemical_formula_structural   Ce3GdF15
_chemical_formula_sum   'Ce6 Gd2 F30'
_cell_volume   610.49457978
_cell_formula_units_Z   2
loop_
 _symmetry_equiv_pos_site_id
 _symmetry_equiv_pos_as_xyz
  1  'x, y, z'
loop_
 _atom_site_type_symbol
 _atom_site_label
 _atom_site_symmetry_multiplicity
 _atom_site_fract_x
 _atom_site_fract_y
 _atom_site_fract_z
 _atom_site_occupancy
  Ce  Ce0  1  0.250010  0.749990  0.750000  1
  Ce  Ce1  1  0.749990  0.250010  0.250000  1
  Ce  Ce2  1  0.821777  0.747113  0.326003  1
  Ce  Ce3  1  0.252887  0.178223  0.173997  1
  Ce  Ce4  1  0.178223  0.252887  0.673997  1
  Ce  Ce5  1  0.747113  0.821777  0.826003  1
  Gd  Gd6  1  0.678398  0.321602  0.750000  1
  Gd  Gd7  1  0.321602  0.678398  0.250000  1
  F  F8  1  0.150638  0.182979  0.946734  1
  F  F9  1  0.686479  0.558023  0.845543  1
  F  F10  1  0.046184  0.655960  0.316508  1
  F  F11  1  0.655960  0.046184  0.816508  1
  F  F12  1  0.558023  0.686479  0.345543  1
  F  F13  1  0.182979  0.150638  0.446734  1
  F  F14  1  0.849362  0.817021  0.053266  1
  F  F15  1  0.313521  0.441977  0.154457  1
  F  F16  1  0.953816  0.344040  0.683492  1
  F  F17  1  0.344040  0.953816  0.183492  1
  F  F18  1  0.441977  0.313521  0.654457  1
  F  F19  1  0.817021  0.849362  0.553266  1
  F  F20  1  0.223274  0.724081  0.008646  1
  F  F21  1  0.224292  0.489626  0.781695  1
  F  F22  1  0.990980  0.721786  0.776294  1
  F  F23  1  0.721786  0.990980  0.276294  1
  F  F24  1  0.489626  0.224292  0.281695  1
  F  F25  1  0.724081  0.223274  0.508646  1
  F  F26  1  0.776726  0.275919  0.991354  1
  F  F27  1  0.775708  0.510374  0.218305  1
  F  F28  1  0.009020  0.278214  0.223706  1
  F  F29  1  0.278214  0.009020  0.723706  1
  F  F30  1  0.510374  0.775708  0.718305  1
  F  F31  1  0.275919  0.776726  0.491354  1
  F  F32  1  0.966194  0.033806  0.750000  1
  F  F33  1  0.539422  0.750708  0.033438  1
  F  F34  1  0.249292  0.460578  0.466562  1
  F  F35  1  0.460578  0.249292  0.966562  1
  F  F36  1  0.750708  0.539422  0.533438  1
  F  F37  1  0.033806  0.966194  0.250000  1
