# generated using pymatgen
data_RbCo2(Sb6Os)2
_symmetry_space_group_name_H-M   'P 1'
_cell_length_a   8.06134195
_cell_length_b   8.10822396
_cell_length_c   8.06134172
_cell_angle_alpha   109.54789961
_cell_angle_beta   109.23598068
_cell_angle_gamma   109.39437437
_symmetry_Int_Tables_number   1
_chemical_formula_structural   RbCo2(Sb6Os)2
_chemical_formula_sum   'Rb1 Co2 Sb12 Os2'
_cell_volume   406.79110650
_cell_formula_units_Z   1
loop_
 _symmetry_equiv_pos_site_id
 _symmetry_equiv_pos_as_xyz
  1  'x, y, z'
loop_
 _atom_site_type_symbol
 _atom_site_label
 _atom_site_symmetry_multiplicity
 _atom_site_fract_x
 _atom_site_fract_y
 _atom_site_fract_z
 _atom_site_occupancy
  Rb  Rb0  1  0.000000  0.000000  0.000000  1
  Co  Co1  1  0.000000  0.500000  0.000000  1
  Co  Co2  1  0.500000  0.500000  0.500000  1
  Sb  Sb3  1  0.343448  0.185820  0.842372  1
  Sb  Sb4  1  0.656552  0.814180  0.157628  1
  Sb  Sb5  1  0.663465  0.500972  0.837507  1
  Sb  Sb6  1  0.336535  0.499028  0.162493  1
  Sb  Sb7  1  0.180484  0.835355  0.334870  1
  Sb  Sb8  1  0.819516  0.164645  0.665130  1
  Sb  Sb9  1  0.500485  0.835355  0.654871  1
  Sb  Sb10  1  0.499515  0.164645  0.345129  1
  Sb  Sb11  1  0.845180  0.345354  0.180902  1
  Sb  Sb12  1  0.154820  0.654646  0.819098  1
  Sb  Sb13  1  0.835548  0.654646  0.499825  1
  Sb  Sb14  1  0.164452  0.345354  0.500175  1
  Os  Os15  1  0.000000  0.000000  0.500000  1
  Os  Os16  1  0.500000  0.000000  0.000000  1
