# generated using pymatgen
data_Y4TcB12Rh
_symmetry_space_group_name_H-M   'P 1'
_cell_length_a   3.68977300
_cell_length_b   9.16927056
_cell_length_c   11.56191105
_cell_angle_alpha   90.37735564
_cell_angle_beta   90.00000000
_cell_angle_gamma   90.00000000
_symmetry_Int_Tables_number   1
_chemical_formula_structural   Y4TcB12Rh
_chemical_formula_sum   'Y8 Tc2 B24 Rh2'
_cell_volume   391.16018309
_cell_formula_units_Z   2
loop_
 _symmetry_equiv_pos_site_id
 _symmetry_equiv_pos_as_xyz
  1  'x, y, z'
loop_
 _atom_site_type_symbol
 _atom_site_label
 _atom_site_symmetry_multiplicity
 _atom_site_fract_x
 _atom_site_fract_y
 _atom_site_fract_z
 _atom_site_occupancy
  Y  Y0  1  0.500000  0.319110  0.410971  1
  Y  Y1  1  0.500000  0.680890  0.589029  1
  Y  Y2  1  0.500000  0.173148  0.917082  1
  Y  Y3  1  0.500000  0.826852  0.082918  1
  Y  Y4  1  0.500000  0.441939  0.126722  1
  Y  Y5  1  0.500000  0.558061  0.873278  1
  Y  Y6  1  0.500000  0.053900  0.628483  1
  Y  Y7  1  0.500000  0.946100  0.371517  1
  Tc  Tc8  1  0.500000  0.139226  0.179819  1
  Tc  Tc9  1  0.500000  0.860774  0.820181  1
  B  B10  1  0.000000  0.109037  0.470669  1
  B  B11  1  0.000000  0.890963  0.529331  1
  B  B12  1  0.000000  0.392301  0.969972  1
  B  B13  1  0.000000  0.607699  0.030028  1
  B  B14  1  0.000000  0.132672  0.314439  1
  B  B15  1  0.000000  0.867328  0.685561  1
  B  B16  1  0.000000  0.367155  0.816107  1
  B  B17  1  0.000000  0.632845  0.183893  1
  B  B18  1  0.000000  0.053322  0.067631  1
  B  B19  1  0.000000  0.946678  0.932369  1
  B  B20  1  0.000000  0.445503  0.566170  1
  B  B21  1  0.000000  0.554497  0.433830  1
  B  B22  1  0.000000  0.484050  0.287853  1
  B  B23  1  0.000000  0.515950  0.712147  1
  B  B24  1  0.000000  0.015953  0.787189  1
  B  B25  1  0.000000  0.984047  0.212811  1
  B  B26  1  0.000000  0.247702  0.081318  1
  B  B27  1  0.000000  0.752298  0.918682  1
  B  B28  1  0.000000  0.251208  0.578891  1
  B  B29  1  0.000000  0.748792  0.421109  1
  B  B30  1  0.000000  0.292537  0.234509  1
  B  B31  1  0.000000  0.707463  0.765491  1
  B  B32  1  0.000000  0.208666  0.734639  1
  B  B33  1  0.000000  0.791334  0.265361  1
  Rh  Rh34  1  0.500000  0.361869  0.678425  1
  Rh  Rh35  1  0.500000  0.638131  0.321575  1
