# generated using pymatgen
data_Th2CoSnPd
_symmetry_space_group_name_H-M   'P 1'
_cell_length_a   7.75893287
_cell_length_b   7.75893297
_cell_length_c   3.75608900
_cell_angle_alpha   90.00000000
_cell_angle_beta   90.00000000
_cell_angle_gamma   91.32195615
_symmetry_Int_Tables_number   1
_chemical_formula_structural   Th2CoSnPd
_chemical_formula_sum   'Th4 Co2 Sn2 Pd2'
_cell_volume   226.06028065
_cell_formula_units_Z   2
loop_
 _symmetry_equiv_pos_site_id
 _symmetry_equiv_pos_as_xyz
  1  'x, y, z'
loop_
 _atom_site_type_symbol
 _atom_site_label
 _atom_site_symmetry_multiplicity
 _atom_site_fract_x
 _atom_site_fract_y
 _atom_site_fract_z
 _atom_site_occupancy
  Th  Th0  1  0.687767  0.187767  0.500000  1
  Th  Th1  1  0.312233  0.812233  0.500000  1
  Th  Th2  1  0.162240  0.337760  0.500000  1
  Th  Th3  1  0.837760  0.662240  0.500000  1
  Co  Co4  1  0.128887  0.628887  0.000000  1
  Co  Co5  1  0.871113  0.371113  0.000000  1
  Sn  Sn6  1  0.000000  0.000000  0.000000  1
  Sn  Sn7  1  0.500000  0.500000  0.000000  1
  Pd  Pd8  1  0.628723  0.871277  0.000000  1
  Pd  Pd9  1  0.371277  0.128723  0.000000  1
