# generated using pymatgen
data_Er12Co5Hg
_symmetry_space_group_name_H-M   'P 1'
_cell_length_a   8.17769022
_cell_length_b   8.17769025
_cell_length_c   8.17769050
_cell_angle_alpha   110.62106711
_cell_angle_beta   110.60619302
_cell_angle_gamma   107.20979350
_symmetry_Int_Tables_number   1
_chemical_formula_structural   Er12Co5Hg
_chemical_formula_sum   'Er12 Co5 Hg1'
_cell_volume   420.49892094
_cell_formula_units_Z   1
loop_
 _symmetry_equiv_pos_site_id
 _symmetry_equiv_pos_as_xyz
  1  'x, y, z'
loop_
 _atom_site_type_symbol
 _atom_site_label
 _atom_site_symmetry_multiplicity
 _atom_site_fract_x
 _atom_site_fract_y
 _atom_site_fract_z
 _atom_site_occupancy
  Er  Er0  1  0.287228  0.184008  0.471236  1
  Er  Er1  1  0.712772  0.815992  0.528764  1
  Er  Er2  1  0.287228  0.815992  0.103220  1
  Er  Er3  1  0.712772  0.184008  0.896780  1
  Er  Er4  1  0.618867  0.315452  0.303416  1
  Er  Er5  1  0.381133  0.684548  0.696584  1
  Er  Er6  1  0.012037  0.315452  0.696584  1
  Er  Er7  1  0.987963  0.684548  0.303416  1
  Er  Er8  1  0.214176  0.406617  0.192440  1
  Er  Er9  1  0.785824  0.593383  0.807560  1
  Er  Er10  1  0.214176  0.021736  0.807560  1
  Er  Er11  1  0.785824  0.978264  0.192440  1
  Co  Co12  1  0.000000  0.376590  0.376590  1
  Co  Co13  1  0.000000  0.623410  0.623410  1
  Co  Co14  1  0.386710  0.886710  0.500000  1
  Co  Co15  1  0.613290  0.113290  0.500000  1
  Co  Co16  1  0.000000  0.000000  0.000000  1
  Hg  Hg17  1  0.500000  0.500000  0.000000  1
