# generated using pymatgen
data_La2Pr4RuCl11
_symmetry_space_group_name_H-M   'P 1'
_cell_length_a   8.32046899
_cell_length_b   8.35070697
_cell_length_c   7.40476500
_cell_angle_alpha   87.16230782
_cell_angle_beta   87.08121791
_cell_angle_gamma   101.28999379
_symmetry_Int_Tables_number   1
_chemical_formula_structural   La2Pr4RuCl11
_chemical_formula_sum   'La2 Pr4 Ru1 Cl11'
_cell_volume   502.95576738
_cell_formula_units_Z   1
loop_
 _symmetry_equiv_pos_site_id
 _symmetry_equiv_pos_as_xyz
  1  'x, y, z'
loop_
 _atom_site_type_symbol
 _atom_site_label
 _atom_site_symmetry_multiplicity
 _atom_site_fract_x
 _atom_site_fract_y
 _atom_site_fract_z
 _atom_site_occupancy
  La  La0  1  0.712146  0.018029  0.773684  1
  La  La1  1  0.190092  0.189111  0.763157  1
  Pr  Pr2  1  0.982111  0.293183  0.230083  1
  Pr  Pr3  1  0.018678  0.706310  0.770659  1
  Pr  Pr4  1  0.805380  0.805506  0.240163  1
  Pr  Pr5  1  0.287266  0.983585  0.226131  1
  Ru  Ru6  1  0.006141  0.006407  0.993409  1
  Cl  Cl7  1  0.998867  0.997953  0.497620  1
  Cl  Cl8  1  0.661114  0.092694  0.363573  1
  Cl  Cl9  1  0.490276  0.201801  0.945961  1
  Cl  Cl10  1  0.302860  0.303169  0.365840  1
  Cl  Cl11  1  0.906149  0.339758  0.635096  1
  Cl  Cl12  1  0.201297  0.491107  0.945413  1
  Cl  Cl13  1  0.798188  0.510747  0.056881  1
  Cl  Cl14  1  0.092655  0.662262  0.363805  1
  Cl  Cl15  1  0.696969  0.695164  0.636290  1
  Cl  Cl16  1  0.510438  0.798079  0.057756  1
  Cl  Cl17  1  0.339374  0.905136  0.634477  1
