# generated using pymatgen
data_Pr7NdDyRh6
_symmetry_space_group_name_H-M   'P 1'
_cell_length_a   7.65786360
_cell_length_b   7.65786312
_cell_length_c   7.65786301
_cell_angle_alpha   71.21898449
_cell_angle_beta   71.21898593
_cell_angle_gamma   71.21898088
_symmetry_Int_Tables_number   1
_chemical_formula_structural   Pr7NdDyRh6
_chemical_formula_sum   'Pr7 Nd1 Dy1 Rh6'
_cell_volume   390.41048707
_cell_formula_units_Z   1
loop_
 _symmetry_equiv_pos_site_id
 _symmetry_equiv_pos_as_xyz
  1  'x, y, z'
loop_
 _atom_site_type_symbol
 _atom_site_label
 _atom_site_symmetry_multiplicity
 _atom_site_fract_x
 _atom_site_fract_y
 _atom_site_fract_z
 _atom_site_occupancy
  Pr  Pr0  1  0.201164  0.201164  0.201164  1
  Pr  Pr1  1  0.162690  0.389734  0.667489  1
  Pr  Pr2  1  0.667489  0.162690  0.389734  1
  Pr  Pr3  1  0.389734  0.667489  0.162690  1
  Pr  Pr4  1  0.837018  0.610761  0.332505  1
  Pr  Pr5  1  0.332505  0.837018  0.610761  1
  Pr  Pr6  1  0.610761  0.332505  0.837018  1
  Nd  Nd7  1  0.799107  0.799107  0.799107  1
  Dy  Dy8  1  0.999809  0.999809  0.999809  1
  Rh  Rh9  1  0.959007  0.157608  0.596797  1
  Rh  Rh10  1  0.596797  0.959007  0.157608  1
  Rh  Rh11  1  0.157608  0.596797  0.959007  1
  Rh  Rh12  1  0.040362  0.841845  0.404105  1
  Rh  Rh13  1  0.404105  0.040362  0.841845  1
  Rh  Rh14  1  0.841845  0.404105  0.040362  1
