# generated using pymatgen
data_Sm3Lu5B24(MoOs)2
_symmetry_space_group_name_H-M   'P 1'
_cell_length_a   3.64126200
_cell_length_b   9.16250160
_cell_length_c   11.58053024
_cell_angle_alpha   89.81994288
_cell_angle_beta   90.00000000
_cell_angle_gamma   90.00000000
_symmetry_Int_Tables_number   1
_chemical_formula_structural   Sm3Lu5B24(MoOs)2
_chemical_formula_sum   'Sm3 Lu5 B24 Mo2 Os2'
_cell_volume   386.36012025
_cell_formula_units_Z   1
loop_
 _symmetry_equiv_pos_site_id
 _symmetry_equiv_pos_as_xyz
  1  'x, y, z'
loop_
 _atom_site_type_symbol
 _atom_site_label
 _atom_site_symmetry_multiplicity
 _atom_site_fract_x
 _atom_site_fract_y
 _atom_site_fract_z
 _atom_site_occupancy
  Sm  Sm0  1  0.000000  0.321056  0.414416  1
  Sm  Sm1  1  0.000000  0.678659  0.586108  1
  Sm  Sm2  1  0.000000  0.821775  0.085095  1
  Lu  Lu3  1  0.000000  0.178752  0.914313  1
  Lu  Lu4  1  0.000000  0.944672  0.370805  1
  Lu  Lu5  1  0.000000  0.055726  0.629334  1
  Lu  Lu6  1  0.000000  0.442179  0.127706  1
  Lu  Lu7  1  0.000000  0.556810  0.871990  1
  B  B8  1  0.500000  0.552570  0.432797  1
  B  B9  1  0.500000  0.446554  0.568133  1
  B  B10  1  0.500000  0.055888  0.066111  1
  B  B11  1  0.500000  0.947374  0.931874  1
  B  B12  1  0.500000  0.752858  0.418887  1
  B  B13  1  0.500000  0.247273  0.582151  1
  B  B14  1  0.500000  0.250288  0.079872  1
  B  B15  1  0.500000  0.750042  0.917245  1
  B  B16  1  0.500000  0.795455  0.264639  1
  B  B17  1  0.500000  0.203727  0.737533  1
  B  B18  1  0.500000  0.290943  0.232169  1
  B  B19  1  0.500000  0.709237  0.766878  1
  B  B20  1  0.500000  0.629644  0.182180  1
  B  B21  1  0.500000  0.367981  0.819375  1
  B  B22  1  0.500000  0.129435  0.312828  1
  B  B23  1  0.500000  0.871697  0.687092  1
  B  B24  1  0.500000  0.984118  0.212039  1
  B  B25  1  0.500000  0.018444  0.788414  1
  B  B26  1  0.500000  0.479260  0.284965  1
  B  B27  1  0.500000  0.519627  0.715293  1
  B  B28  1  0.500000  0.598239  0.026540  1
  B  B29  1  0.500000  0.398543  0.972602  1
  B  B30  1  0.500000  0.098053  0.472552  1
  B  B31  1  0.500000  0.902400  0.527776  1
  Mo  Mo32  1  0.000000  0.639884  0.317742  1
  Mo  Mo33  1  0.000000  0.358815  0.683800  1
  Os  Os34  1  0.000000  0.139054  0.177398  1
  Os  Os35  1  0.000000  0.862969  0.821350  1
