# generated using pymatgen
data_Dy3Lu2Ru3
_symmetry_space_group_name_H-M   'P 1'
_cell_length_a   6.26330800
_cell_length_b   8.12557989
_cell_length_c   8.12558000
_cell_angle_alpha   120.00000858
_cell_angle_beta   90.00000000
_cell_angle_gamma   90.00000000
_symmetry_Int_Tables_number   1
_chemical_formula_structural   Dy3Lu2Ru3
_chemical_formula_sum   'Dy6 Lu4 Ru6'
_cell_volume   358.13197540
_cell_formula_units_Z   2
loop_
 _symmetry_equiv_pos_site_id
 _symmetry_equiv_pos_as_xyz
  1  'x, y, z'
loop_
 _atom_site_type_symbol
 _atom_site_label
 _atom_site_symmetry_multiplicity
 _atom_site_fract_x
 _atom_site_fract_y
 _atom_site_fract_z
 _atom_site_occupancy
  Dy  Dy0  1  0.750000  0.743422  0.743422  1
  Dy  Dy1  1  0.250000  0.256578  0.256578  1
  Dy  Dy2  1  0.750000  0.000000  0.256578  1
  Dy  Dy3  1  0.250000  0.000000  0.743422  1
  Dy  Dy4  1  0.750000  0.256578  0.000000  1
  Dy  Dy5  1  0.250000  0.743422  0.000000  1
  Lu  Lu6  1  0.000000  0.666667  0.333333  1
  Lu  Lu7  1  0.000000  0.333333  0.666667  1
  Lu  Lu8  1  0.500000  0.333333  0.666667  1
  Lu  Lu9  1  0.500000  0.666667  0.333333  1
  Ru  Ru10  1  0.750000  0.399244  0.399244  1
  Ru  Ru11  1  0.250000  0.600756  0.600756  1
  Ru  Ru12  1  0.750000  0.000000  0.600756  1
  Ru  Ru13  1  0.250000  0.000000  0.399244  1
  Ru  Ru14  1  0.750000  0.600756  0.000000  1
  Ru  Ru15  1  0.250000  0.399244  0.000000  1
