# generated using pymatgen
data_La2Pr2ErIr3
_symmetry_space_group_name_H-M   'P 1'
_cell_length_a   11.30394500
_cell_length_b   11.30394500
_cell_length_c   6.54266300
_cell_angle_alpha   90.00000000
_cell_angle_beta   90.00000000
_cell_angle_gamma   90.00000000
_symmetry_Int_Tables_number   1
_chemical_formula_structural   La2Pr2ErIr3
_chemical_formula_sum   'La8 Pr8 Er4 Ir12'
_cell_volume   836.01606450
_cell_formula_units_Z   4
loop_
 _symmetry_equiv_pos_site_id
 _symmetry_equiv_pos_as_xyz
  1  'x, y, z'
loop_
 _atom_site_type_symbol
 _atom_site_label
 _atom_site_symmetry_multiplicity
 _atom_site_fract_x
 _atom_site_fract_y
 _atom_site_fract_z
 _atom_site_occupancy
  La  La0  1  0.286922  0.088502  0.382463  1
  La  La1  1  0.286922  0.911498  0.882463  1
  La  La2  1  0.713078  0.088502  0.882463  1
  La  La3  1  0.713078  0.911498  0.382463  1
  La  La4  1  0.588502  0.786922  0.882463  1
  La  La5  1  0.588502  0.213078  0.382463  1
  La  La6  1  0.411498  0.786922  0.382463  1
  La  La7  1  0.411498  0.213078  0.882463  1
  Pr  Pr8  1  0.211130  0.413421  0.618180  1
  Pr  Pr9  1  0.211130  0.586579  0.118180  1
  Pr  Pr10  1  0.788870  0.413421  0.118180  1
  Pr  Pr11  1  0.788870  0.586579  0.618180  1
  Pr  Pr12  1  0.913421  0.711130  0.118180  1
  Pr  Pr13  1  0.913421  0.288870  0.618180  1
  Pr  Pr14  1  0.086579  0.711130  0.618180  1
  Pr  Pr15  1  0.086579  0.288870  0.118180  1
  Er  Er16  1  0.000000  0.000000  0.500586  1
  Er  Er17  1  0.000000  0.000000  0.000586  1
  Er  Er18  1  0.500000  0.500000  0.000586  1
  Er  Er19  1  0.500000  0.500000  0.500586  1
  Ir  Ir20  1  0.851790  0.146483  0.248489  1
  Ir  Ir21  1  0.851790  0.853517  0.748489  1
  Ir  Ir22  1  0.148210  0.146483  0.748489  1
  Ir  Ir23  1  0.148210  0.853517  0.248489  1
  Ir  Ir24  1  0.646483  0.351790  0.748489  1
  Ir  Ir25  1  0.646483  0.648210  0.248489  1
  Ir  Ir26  1  0.353517  0.351790  0.248489  1
  Ir  Ir27  1  0.353517  0.648210  0.748489  1
  Ir  Ir28  1  0.500000  0.000000  0.117937  1
  Ir  Ir29  1  0.500000  0.000000  0.617937  1
  Ir  Ir30  1  0.000000  0.500000  0.884366  1
  Ir  Ir31  1  0.000000  0.500000  0.384366  1
