# generated using pymatgen
data_Tm4Al2(ReOs)3
_symmetry_space_group_name_H-M   'P 1'
_cell_length_a   5.32032445
_cell_length_b   5.32176736
_cell_length_c   8.87359500
_cell_angle_alpha   90.00000000
_cell_angle_beta   90.00000000
_cell_angle_gamma   119.89789248
_symmetry_Int_Tables_number   1
_chemical_formula_structural   Tm4Al2(ReOs)3
_chemical_formula_sum   'Tm4 Al2 Re3 Os3'
_cell_volume   217.80616361
_cell_formula_units_Z   1
loop_
 _symmetry_equiv_pos_site_id
 _symmetry_equiv_pos_as_xyz
  1  'x, y, z'
loop_
 _atom_site_type_symbol
 _atom_site_label
 _atom_site_symmetry_multiplicity
 _atom_site_fract_x
 _atom_site_fract_y
 _atom_site_fract_z
 _atom_site_occupancy
  Tm  Tm0  1  0.668192  0.333741  0.563934  1
  Tm  Tm1  1  0.340071  0.670267  0.443599  1
  Tm  Tm2  1  0.340071  0.670267  0.056401  1
  Tm  Tm3  1  0.668192  0.333741  0.936066  1
  Al  Al4  1  0.819406  0.657576  0.250000  1
  Al  Al5  1  0.819595  0.161771  0.250000  1
  Re  Re6  1  0.167800  0.338477  0.750000  1
  Re  Re7  1  0.166981  0.829724  0.750000  1
  Re  Re8  1  0.655272  0.827198  0.750000  1
  Os  Os9  1  0.013538  0.006369  0.494411  1
  Os  Os10  1  0.013538  0.006369  0.005589  1
  Os  Os11  1  0.327349  0.164502  0.250000  1
