# generated using pymatgen
data_Lu6Zn4Ni13
_symmetry_space_group_name_H-M   'P 1'
_cell_length_a   7.69237306
_cell_length_b   7.69237378
_cell_length_c   7.69237300
_cell_angle_alpha   109.47121595
_cell_angle_beta   109.47121784
_cell_angle_gamma   109.47122528
_symmetry_Int_Tables_number   1
_chemical_formula_structural   Lu6Zn4Ni13
_chemical_formula_sum   'Lu6 Zn4 Ni13'
_cell_volume   350.39602956
_cell_formula_units_Z   1
loop_
 _symmetry_equiv_pos_site_id
 _symmetry_equiv_pos_as_xyz
  1  'x, y, z'
loop_
 _atom_site_type_symbol
 _atom_site_label
 _atom_site_symmetry_multiplicity
 _atom_site_fract_x
 _atom_site_fract_y
 _atom_site_fract_z
 _atom_site_occupancy
  Lu  Lu0  1  0.701200  0.701200  0.000000  1
  Lu  Lu1  1  0.298800  0.000000  0.298800  1
  Lu  Lu2  1  0.000000  0.298800  0.298800  1
  Lu  Lu3  1  0.298800  0.298800  0.000000  1
  Lu  Lu4  1  0.701200  0.000000  0.701200  1
  Lu  Lu5  1  0.000000  0.701200  0.701200  1
  Zn  Zn6  1  0.000000  0.000000  0.500000  1
  Zn  Zn7  1  0.000000  0.500000  0.000000  1
  Zn  Zn8  1  0.500000  0.000000  0.000000  1
  Zn  Zn9  1  0.500000  0.500000  0.500000  1
  Ni  Ni10  1  0.338687  0.338687  0.677375  1
  Ni  Ni11  1  0.661313  0.000000  0.338687  1
  Ni  Ni12  1  0.000000  0.661313  0.338687  1
  Ni  Ni13  1  0.661313  0.338687  0.000000  1
  Ni  Ni14  1  0.338687  0.677375  0.338687  1
  Ni  Ni15  1  0.000000  0.338687  0.661313  1
  Ni  Ni16  1  0.338687  0.661313  0.000000  1
  Ni  Ni17  1  0.338687  0.000000  0.661313  1
  Ni  Ni18  1  0.677375  0.338687  0.338687  1
  Ni  Ni19  1  0.661313  0.661313  0.322625  1
  Ni  Ni20  1  0.661313  0.322625  0.661313  1
  Ni  Ni21  1  0.322625  0.661313  0.661313  1
  Ni  Ni22  1  0.000000  0.000000  0.000000  1
