# generated using pymatgen
data_LaPrUFe2Si7
_symmetry_space_group_name_H-M   'P 1'
_cell_length_a   12.41476615
_cell_length_b   12.41476473
_cell_length_c   4.14798500
_cell_angle_alpha   90.00000000
_cell_angle_beta   90.00000000
_cell_angle_gamma   160.88321626
_symmetry_Int_Tables_number   1
_chemical_formula_structural   LaPrUFe2Si7
_chemical_formula_sum   'La1 Pr1 U1 Fe2 Si7'
_cell_volume   209.37194006
_cell_formula_units_Z   1
loop_
 _symmetry_equiv_pos_site_id
 _symmetry_equiv_pos_as_xyz
  1  'x, y, z'
loop_
 _atom_site_type_symbol
 _atom_site_label
 _atom_site_symmetry_multiplicity
 _atom_site_fract_x
 _atom_site_fract_y
 _atom_site_fract_z
 _atom_site_occupancy
  La  La0  1  0.682579  0.317421  0.000000  1
  Pr  Pr1  1  0.317801  0.682199  0.000000  1
  U  U2  1  0.999944  0.000056  0.500000  1
  Fe  Fe3  1  0.121751  0.878249  0.500000  1
  Fe  Fe4  1  0.878082  0.121918  0.500000  1
  Si  Si5  1  0.220648  0.779352  0.500000  1
  Si  Si6  1  0.780123  0.219877  0.500000  1
  Si  Si7  1  0.083184  0.916816  0.000000  1
  Si  Si8  1  0.916430  0.083570  0.000000  1
  Si  Si9  1  0.416033  0.583967  0.500000  1
  Si  Si10  1  0.500009  0.499991  0.000000  1
  Si  Si11  1  0.583416  0.416584  0.500000  1
