# generated using pymatgen
data_UCr3(CuS4)2
_symmetry_space_group_name_H-M   'P 1'
_cell_length_a   7.19202378
_cell_length_b   7.19202449
_cell_length_c   7.19202441
_cell_angle_alpha   59.43185075
_cell_angle_beta   59.43184498
_cell_angle_gamma   59.43184877
_symmetry_Int_Tables_number   1
_chemical_formula_structural   UCr3(CuS4)2
_chemical_formula_sum   'U1 Cr3 Cu2 S8'
_cell_volume   259.64972321
_cell_formula_units_Z   1
loop_
 _symmetry_equiv_pos_site_id
 _symmetry_equiv_pos_as_xyz
  1  'x, y, z'
loop_
 _atom_site_type_symbol
 _atom_site_label
 _atom_site_symmetry_multiplicity
 _atom_site_fract_x
 _atom_site_fract_y
 _atom_site_fract_z
 _atom_site_occupancy
  U  U0  1  0.125000  0.125000  0.125000  1
  Cr  Cr1  1  0.625000  0.125000  0.125000  1
  Cr  Cr2  1  0.125000  0.125000  0.625000  1
  Cr  Cr3  1  0.125000  0.625000  0.125000  1
  Cu  Cu4  1  0.495852  0.495852  0.495852  1
  Cu  Cu5  1  0.754148  0.754148  0.754148  1
  S  S6  1  0.365140  0.365140  0.365140  1
  S  S7  1  0.359548  0.867226  0.867226  1
  S  S8  1  0.867226  0.867226  0.359548  1
  S  S9  1  0.867226  0.359548  0.867226  1
  S  S10  1  0.382774  0.382774  0.890452  1
  S  S11  1  0.382774  0.890452  0.382774  1
  S  S12  1  0.884860  0.884860  0.884860  1
  S  S13  1  0.890452  0.382774  0.382774  1
