# generated using pymatgen
data_La9Ce(Hg2Ru3)2
_symmetry_space_group_name_H-M   'P 1'
_cell_length_a   8.68384445
_cell_length_b   8.76397503
_cell_length_c   8.76397574
_cell_angle_alpha   109.65570129
_cell_angle_beta   109.28610812
_cell_angle_gamma   109.28610486
_symmetry_Int_Tables_number   1
_chemical_formula_structural   La9Ce(Hg2Ru3)2
_chemical_formula_sum   'La9 Ce1 Hg4 Ru6'
_cell_volume   514.61151988
_cell_formula_units_Z   1
loop_
 _symmetry_equiv_pos_site_id
 _symmetry_equiv_pos_as_xyz
  1  'x, y, z'
loop_
 _atom_site_type_symbol
 _atom_site_label
 _atom_site_symmetry_multiplicity
 _atom_site_fract_x
 _atom_site_fract_y
 _atom_site_fract_z
 _atom_site_occupancy
  La  La0  1  0.253200  0.314081  0.063671  1
  La  La1  1  0.712919  0.720041  0.218899  1
  La  La2  1  0.189529  0.936329  0.250410  1
  La  La3  1  0.992878  0.498859  0.279960  1
  La  La4  1  0.747829  0.185510  0.429240  1
  La  La5  1  0.494021  0.781103  0.501143  1
  La  La6  1  0.939120  0.749590  0.685919  1
  La  La7  1  0.318589  0.570760  0.756270  1
  La  La8  1  0.562319  0.243730  0.814489  1
  Ce  Ce9  1  0.809664  0.000000  0.000000  1
  Hg  Hg10  1  0.415916  0.000000  0.000000  1
  Hg  Hg11  1  0.496282  0.405165  0.500754  1
  Hg  Hg12  1  0.091116  0.095589  0.594835  1
  Hg  Hg13  1  0.995528  0.499246  0.904411  1
  Ru  Ru14  1  0.393982  0.749942  0.146645  1
  Ru  Ru15  1  0.644040  0.396703  0.250058  1
  Ru  Ru16  1  0.083937  0.225192  0.330885  1
  Ru  Ru17  1  0.247336  0.853355  0.603298  1
  Ru  Ru18  1  0.858745  0.105693  0.774808  1
  Ru  Ru19  1  0.753052  0.669115  0.894307  1
