# generated using pymatgen
data_Pu2InRh5
_symmetry_space_group_name_H-M   'P 1'
_cell_length_a   4.21811000
_cell_length_b   5.80183500
_cell_length_c   11.48966700
_cell_angle_alpha   90.00000000
_cell_angle_beta   90.00000000
_cell_angle_gamma   90.00000000
_symmetry_Int_Tables_number   1
_chemical_formula_structural   Pu2InRh5
_chemical_formula_sum   'Pu4 In2 Rh10'
_cell_volume   281.18407245
_cell_formula_units_Z   2
loop_
 _symmetry_equiv_pos_site_id
 _symmetry_equiv_pos_as_xyz
  1  'x, y, z'
loop_
 _atom_site_type_symbol
 _atom_site_label
 _atom_site_symmetry_multiplicity
 _atom_site_fract_x
 _atom_site_fract_y
 _atom_site_fract_z
 _atom_site_occupancy
  Pu  Pu0  1  0.500000  0.186800  0.639418  1
  Pu  Pu1  1  0.500000  0.813200  0.360582  1
  Pu  Pu2  1  0.500000  0.686800  0.860582  1
  Pu  Pu3  1  0.500000  0.313200  0.139418  1
  In  In4  1  0.000000  0.500000  0.500000  1
  In  In5  1  0.000000  0.000000  0.000000  1
  Rh  Rh6  1  0.500000  0.209448  0.883302  1
  Rh  Rh7  1  0.500000  0.790552  0.116698  1
  Rh  Rh8  1  0.500000  0.709448  0.616698  1
  Rh  Rh9  1  0.500000  0.290552  0.383302  1
  Rh  Rh10  1  0.000000  0.441191  0.746096  1
  Rh  Rh11  1  0.000000  0.558809  0.253904  1
  Rh  Rh12  1  0.000000  0.000000  0.500000  1
  Rh  Rh13  1  0.000000  0.500000  0.000000  1
  Rh  Rh14  1  0.000000  0.058809  0.246096  1
  Rh  Rh15  1  0.000000  0.941191  0.753904  1
