# generated using pymatgen
data_Tm13Th7(Sn3Pb)4
_symmetry_space_group_name_H-M   'P 1'
_cell_length_a   8.09348335
_cell_length_b   8.26089872
_cell_length_c   15.56298800
_cell_angle_alpha   90.05905818
_cell_angle_beta   90.30854346
_cell_angle_gamma   89.58503566
_symmetry_Int_Tables_number   1
_chemical_formula_structural   Tm13Th7(Sn3Pb)4
_chemical_formula_sum   'Tm13 Th7 Sn12 Pb4'
_cell_volume   1040.48987138
_cell_formula_units_Z   1
loop_
 _symmetry_equiv_pos_site_id
 _symmetry_equiv_pos_as_xyz
  1  'x, y, z'
loop_
 _atom_site_type_symbol
 _atom_site_label
 _atom_site_symmetry_multiplicity
 _atom_site_fract_x
 _atom_site_fract_y
 _atom_site_fract_z
 _atom_site_occupancy
  Tm  Tm0  1  0.358628  0.837833  0.873895  1
  Tm  Tm1  1  0.856480  0.660618  0.626134  1
  Tm  Tm2  1  0.641116  0.161958  0.374130  1
  Tm  Tm3  1  0.137715  0.339108  0.124501  1
  Tm  Tm4  1  0.642741  0.163197  0.124353  1
  Tm  Tm5  1  0.145444  0.337452  0.375604  1
  Tm  Tm6  1  0.354967  0.838527  0.626406  1
  Tm  Tm7  1  0.858052  0.661784  0.875800  1
  Tm  Tm8  1  0.528810  0.323234  0.899423  1
  Tm  Tm9  1  0.187882  0.499848  0.749399  1
  Tm  Tm10  1  0.688917  0.000439  0.752259  1
  Tm  Tm11  1  0.811660  0.500329  0.247991  1
  Tm  Tm12  1  0.311093  0.998648  0.251342  1
  Th  Th13  1  0.022034  0.178718  0.598852  1
  Th  Th14  1  0.479310  0.678016  0.402790  1
  Th  Th15  1  0.978019  0.821468  0.096507  1
  Th  Th16  1  0.484897  0.676224  0.097595  1
  Th  Th17  1  0.986641  0.824032  0.403220  1
  Th  Th18  1  0.511492  0.323650  0.596369  1
  Th  Th19  1  0.013412  0.175816  0.902536  1
  Sn  Sn20  1  0.696981  0.959985  0.957834  1
  Sn  Sn21  1  0.196760  0.544778  0.541285  1
  Sn  Sn22  1  0.301988  0.041482  0.459249  1
  Sn  Sn23  1  0.797120  0.456408  0.040142  1
  Sn  Sn24  1  0.553420  0.623806  0.749792  1
  Sn  Sn25  1  0.052119  0.875254  0.750862  1
  Sn  Sn26  1  0.445369  0.374814  0.248936  1
  Sn  Sn27  1  0.946735  0.125562  0.249974  1
  Sn  Sn28  1  0.328761  0.148363  0.753515  1
  Sn  Sn29  1  0.821766  0.356052  0.750168  1
  Sn  Sn30  1  0.676177  0.855945  0.250375  1
  Sn  Sn31  1  0.174585  0.643810  0.249605  1
  Pb  Pb32  1  0.300101  0.039722  0.042079  1
  Pb  Pb33  1  0.801933  0.458015  0.458350  1
  Pb  Pb34  1  0.698584  0.960188  0.542305  1
  Pb  Pb35  1  0.208295  0.534916  0.956422  1
