# generated using pymatgen
data_Sr20Si11I
_symmetry_space_group_name_H-M   'P 1'
_cell_length_a   8.15773200
_cell_length_b   8.15773200
_cell_length_c   15.85070900
_cell_angle_alpha   90.00000000
_cell_angle_beta   90.00000000
_cell_angle_gamma   90.00000000
_symmetry_Int_Tables_number   1
_chemical_formula_structural   Sr20Si11I
_chemical_formula_sum   'Sr20 Si11 I1'
_cell_volume   1054.84235638
_cell_formula_units_Z   1
loop_
 _symmetry_equiv_pos_site_id
 _symmetry_equiv_pos_as_xyz
  1  'x, y, z'
loop_
 _atom_site_type_symbol
 _atom_site_label
 _atom_site_symmetry_multiplicity
 _atom_site_fract_x
 _atom_site_fract_y
 _atom_site_fract_z
 _atom_site_occupancy
  Sr  Sr0  1  0.338919  0.686428  0.112861  1
  Sr  Sr1  1  0.186428  0.161081  0.112861  1
  Sr  Sr2  1  0.500000  0.000000  0.724498  1
  Sr  Sr3  1  0.325527  0.678687  0.393294  1
  Sr  Sr4  1  0.654752  0.692735  0.887240  1
  Sr  Sr5  1  0.178687  0.174473  0.393294  1
  Sr  Sr6  1  0.674473  0.321313  0.393294  1
  Sr  Sr7  1  0.170689  0.817776  0.606568  1
  Sr  Sr8  1  0.345248  0.307265  0.887240  1
  Sr  Sr9  1  0.192735  0.845248  0.887240  1
  Sr  Sr10  1  0.500000  0.000000  0.261004  1
  Sr  Sr11  1  0.829311  0.182224  0.606568  1
  Sr  Sr12  1  0.317776  0.329311  0.606568  1
  Sr  Sr13  1  0.821313  0.825527  0.393294  1
  Sr  Sr14  1  0.807265  0.154752  0.887240  1
  Sr  Sr15  1  0.813572  0.838919  0.112861  1
  Sr  Sr16  1  0.000000  0.500000  0.265999  1
  Sr  Sr17  1  0.000000  0.500000  0.747072  1
  Sr  Sr18  1  0.661081  0.313572  0.112861  1
  Sr  Sr19  1  0.682224  0.670689  0.606568  1
  Si  Si20  1  0.106336  0.111889  0.750237  1
  Si  Si21  1  0.388111  0.606336  0.750237  1
  Si  Si22  1  0.611326  0.606600  0.250029  1
  Si  Si23  1  0.500000  0.000000  0.004178  1
  Si  Si24  1  0.106600  0.888674  0.250029  1
  Si  Si25  1  0.611889  0.393664  0.750237  1
  Si  Si26  1  0.893664  0.888111  0.750237  1
  Si  Si27  1  0.388674  0.393400  0.250029  1
  Si  Si28  1  0.893400  0.111326  0.250029  1
  Si  Si29  1  0.500000  0.000000  0.502280  1
  Si  Si30  1  0.000000  0.500000  0.497494  1
  I  I31  1  0.000000  0.500000  0.996559  1
