# generated using pymatgen
data_Nd2Sm6Zn(Si4Pd)3
_symmetry_space_group_name_H-M   'P 1'
_cell_length_a   8.21004100
_cell_length_b   8.21004242
_cell_length_c   8.42865100
_cell_angle_alpha   90.00000000
_cell_angle_beta   90.00000000
_cell_angle_gamma   119.99999025
_symmetry_Int_Tables_number   1
_chemical_formula_structural   Nd2Sm6Zn(Si4Pd)3
_chemical_formula_sum   'Nd2 Sm6 Zn1 Si12 Pd3'
_cell_volume   492.01627988
_cell_formula_units_Z   1
loop_
 _symmetry_equiv_pos_site_id
 _symmetry_equiv_pos_as_xyz
  1  'x, y, z'
loop_
 _atom_site_type_symbol
 _atom_site_label
 _atom_site_symmetry_multiplicity
 _atom_site_fract_x
 _atom_site_fract_y
 _atom_site_fract_z
 _atom_site_occupancy
  Nd  Nd0  1  0.000000  0.000000  0.749114  1
  Nd  Nd1  1  0.000000  0.000000  0.251302  1
  Sm  Sm2  1  0.499658  0.500342  0.748809  1
  Sm  Sm3  1  0.500657  0.499343  0.251122  1
  Sm  Sm4  1  0.000685  0.500342  0.748809  1
  Sm  Sm5  1  0.998685  0.499343  0.251122  1
  Sm  Sm6  1  0.499658  0.999315  0.748809  1
  Sm  Sm7  1  0.500657  0.001315  0.251122  1
  Zn  Zn8  1  0.666667  0.333333  0.996206  1
  Si  Si9  1  0.834888  0.165112  0.000696  1
  Si  Si10  1  0.167701  0.832299  0.999661  1
  Si  Si11  1  0.330225  0.165112  0.000696  1
  Si  Si12  1  0.166269  0.833731  0.499497  1
  Si  Si13  1  0.664599  0.832299  0.999661  1
  Si  Si14  1  0.833762  0.166238  0.500589  1
  Si  Si15  1  0.834888  0.669775  0.000696  1
  Si  Si16  1  0.667462  0.833731  0.499497  1
  Si  Si17  1  0.167701  0.335401  0.999661  1
  Si  Si18  1  0.332477  0.166238  0.500589  1
  Si  Si19  1  0.166269  0.332538  0.499497  1
  Si  Si20  1  0.833762  0.667523  0.500589  1
  Pd  Pd21  1  0.333333  0.666667  0.002160  1
  Pd  Pd22  1  0.333333  0.666667  0.498690  1
  Pd  Pd23  1  0.666667  0.333333  0.501403  1
