# generated using pymatgen
data_TmCrCo(PIr)3
_symmetry_space_group_name_H-M   'P 1'
_cell_length_a   3.83655900
_cell_length_b   10.72296600
_cell_length_c   12.35961500
_cell_angle_alpha   90.00000000
_cell_angle_beta   90.00000000
_cell_angle_gamma   90.00000000
_symmetry_Int_Tables_number   1
_chemical_formula_structural   TmCrCo(PIr)3
_chemical_formula_sum   'Tm4 Cr4 Co4 P12 Ir12'
_cell_volume   508.46580696
_cell_formula_units_Z   4
loop_
 _symmetry_equiv_pos_site_id
 _symmetry_equiv_pos_as_xyz
  1  'x, y, z'
loop_
 _atom_site_type_symbol
 _atom_site_label
 _atom_site_symmetry_multiplicity
 _atom_site_fract_x
 _atom_site_fract_y
 _atom_site_fract_z
 _atom_site_occupancy
  Tm  Tm0  1  0.250000  0.584036  0.710059  1
  Tm  Tm1  1  0.250000  0.915964  0.210059  1
  Tm  Tm2  1  0.750000  0.415964  0.289941  1
  Tm  Tm3  1  0.750000  0.084036  0.789941  1
  Cr  Cr4  1  0.250000  0.712456  0.985303  1
  Cr  Cr5  1  0.250000  0.787544  0.485303  1
  Cr  Cr6  1  0.750000  0.287544  0.014697  1
  Cr  Cr7  1  0.750000  0.212456  0.514697  1
  Co  Co8  1  0.250000  0.462894  0.935557  1
  Co  Co9  1  0.250000  0.037106  0.435557  1
  Co  Co10  1  0.750000  0.537106  0.064443  1
  Co  Co11  1  0.750000  0.962894  0.564443  1
  P  P12  1  0.250000  0.422707  0.105682  1
  P  P13  1  0.250000  0.077293  0.605682  1
  P  P14  1  0.750000  0.577293  0.894318  1
  P  P15  1  0.750000  0.922707  0.394318  1
  P  P16  1  0.250000  0.269973  0.873239  1
  P  P17  1  0.250000  0.230027  0.373239  1
  P  P18  1  0.750000  0.730027  0.126761  1
  P  P19  1  0.750000  0.769973  0.626761  1
  P  P20  1  0.250000  0.598318  0.388507  1
  P  P21  1  0.250000  0.901682  0.888507  1
  P  P22  1  0.750000  0.401682  0.611493  1
  P  P23  1  0.750000  0.098318  0.111493  1
  Ir  Ir24  1  0.250000  0.404869  0.481828  1
  Ir  Ir25  1  0.250000  0.095131  0.981828  1
  Ir  Ir26  1  0.750000  0.595131  0.518172  1
  Ir  Ir27  1  0.750000  0.904869  0.018172  1
  Ir  Ir28  1  0.250000  0.231515  0.180334  1
  Ir  Ir29  1  0.250000  0.268485  0.680334  1
  Ir  Ir30  1  0.750000  0.768485  0.819666  1
  Ir  Ir31  1  0.750000  0.731515  0.319666  1
  Ir  Ir32  1  0.250000  0.889436  0.697607  1
  Ir  Ir33  1  0.250000  0.610564  0.197607  1
  Ir  Ir34  1  0.750000  0.110564  0.302393  1
  Ir  Ir35  1  0.750000  0.389436  0.802393  1
