# generated using pymatgen
data_Tb6Ho10MgAg(HgRh2)2
_symmetry_space_group_name_H-M   'P 1'
_cell_length_a   9.59152133
_cell_length_b   9.60688663
_cell_length_c   9.60688700
_cell_angle_alpha   60.00000218
_cell_angle_beta   59.94699538
_cell_angle_gamma   59.94699874
_symmetry_Int_Tables_number   1
_chemical_formula_structural   Tb6Ho10MgAg(HgRh2)2
_chemical_formula_sum   'Tb6 Ho10 Mg1 Ag1 Hg2 Rh4'
_cell_volume   625.44548142
_cell_formula_units_Z   1
loop_
 _symmetry_equiv_pos_site_id
 _symmetry_equiv_pos_as_xyz
  1  'x, y, z'
loop_
 _atom_site_type_symbol
 _atom_site_label
 _atom_site_symmetry_multiplicity
 _atom_site_fract_x
 _atom_site_fract_y
 _atom_site_fract_z
 _atom_site_occupancy
  Tb  Tb0  1  0.934010  0.563938  0.563938  1
  Tb  Tb1  1  0.562895  0.936299  0.936299  1
  Tb  Tb2  1  0.563537  0.934435  0.563980  1
  Tb  Tb3  1  0.935322  0.563580  0.936465  1
  Tb  Tb4  1  0.563537  0.563980  0.934435  1
  Tb  Tb5  1  0.935322  0.936465  0.563580  1
  Ho  Ho6  1  0.351733  0.348952  0.348952  1
  Ho  Ho7  1  0.351078  0.348761  0.950897  1
  Ho  Ho8  1  0.351078  0.950897  0.348761  1
  Ho  Ho9  1  0.939424  0.353259  0.353259  1
  Ho  Ho10  1  0.810797  0.189012  0.189012  1
  Ho  Ho11  1  0.184811  0.814614  0.814614  1
  Ho  Ho12  1  0.185488  0.814242  0.186861  1
  Ho  Ho13  1  0.811120  0.188456  0.812435  1
  Ho  Ho14  1  0.185488  0.186861  0.814242  1
  Ho  Ho15  1  0.811120  0.812435  0.188456  1
  Mg  Mg16  1  0.285870  0.571708  0.571708  1
  Ag  Ag17  1  0.581282  0.585898  0.585898  1
  Hg  Hg18  1  0.581391  0.586794  0.247163  1
  Hg  Hg19  1  0.581391  0.247163  0.586794  1
  Rh  Rh20  1  0.140789  0.144093  0.144093  1
  Rh  Rh21  1  0.140495  0.144200  0.571018  1
  Rh  Rh22  1  0.140495  0.571018  0.144200  1
  Rh  Rh23  1  0.571530  0.142940  0.142940  1
