# generated using pymatgen
data_Ba4U7BiSe20
_symmetry_space_group_name_H-M   'P 1'
_cell_length_a   8.00558308
_cell_length_b   8.81426601
_cell_length_c   12.45885245
_cell_angle_alpha   89.49964616
_cell_angle_beta   90.36905944
_cell_angle_gamma   90.26642991
_symmetry_Int_Tables_number   1
_chemical_formula_structural   Ba4U7BiSe20
_chemical_formula_sum   'Ba4 U7 Bi1 Se20'
_cell_volume   879.07719136
_cell_formula_units_Z   1
loop_
 _symmetry_equiv_pos_site_id
 _symmetry_equiv_pos_as_xyz
  1  'x, y, z'
loop_
 _atom_site_type_symbol
 _atom_site_label
 _atom_site_symmetry_multiplicity
 _atom_site_fract_x
 _atom_site_fract_y
 _atom_site_fract_z
 _atom_site_occupancy
  Ba  Ba0  1  0.053295  0.486100  0.330914  1
  Ba  Ba1  1  0.554322  0.505355  0.169447  1
  Ba  Ba2  1  0.945389  0.507544  0.671241  1
  Ba  Ba3  1  0.445605  0.492901  0.831611  1
  U  U4  1  0.522360  0.003216  0.180547  1
  U  U5  1  0.976398  0.001239  0.681414  1
  U  U6  1  0.478226  0.998233  0.820081  1
  U  U7  1  0.069748  0.757698  0.006614  1
  U  U8  1  0.561377  0.249281  0.496281  1
  U  U9  1  0.933344  0.244063  0.990305  1
  U  U10  1  0.433798  0.756662  0.505547  1
  Bi  Bi11  1  0.011799  0.987388  0.319491  1
  Se  Se12  1  0.656733  0.964644  0.403248  1
  Se  Se13  1  0.167077  0.044986  0.093806  1
  Se  Se14  1  0.336792  0.044495  0.599299  1
  Se  Se15  1  0.837775  0.955590  0.900679  1
  Se  Se16  1  0.451656  0.791096  0.000717  1
  Se  Se17  1  0.940237  0.209890  0.504909  1
  Se  Se18  1  0.549733  0.207070  0.996010  1
  Se  Se19  1  0.056812  0.786477  0.507520  1
  Se  Se20  1  0.834693  0.780031  0.181546  1
  Se  Se21  1  0.357990  0.231293  0.310518  1
  Se  Se22  1  0.158745  0.217920  0.811130  1
  Se  Se23  1  0.657981  0.783735  0.687676  1
  Se  Se24  1  0.322221  0.765459  0.284823  1
  Se  Se25  1  0.812627  0.222009  0.207757  1
  Se  Se26  1  0.684144  0.226508  0.716469  1
  Se  Se27  1  0.187224  0.776205  0.787160  1
  Se  Se28  1  0.176101  0.462710  0.070321  1
  Se  Se29  1  0.678149  0.538192  0.430514  1
  Se  Se30  1  0.823721  0.538773  0.927847  1
  Se  Se31  1  0.323923  0.463239  0.574558  1
