# generated using pymatgen
data_Sc8VRe10Si16Os
_symmetry_space_group_name_H-M   'P 1'
_cell_length_a   6.60527392
_cell_length_b   6.60527445
_cell_length_c   12.53966126
_cell_angle_alpha   89.83818259
_cell_angle_beta   90.16181680
_cell_angle_gamma   90.45634378
_symmetry_Int_Tables_number   1
_chemical_formula_structural   Sc8VRe10Si16Os
_chemical_formula_sum   'Sc8 V1 Re10 Si16 Os1'
_cell_volume   547.07931280
_cell_formula_units_Z   1
loop_
 _symmetry_equiv_pos_site_id
 _symmetry_equiv_pos_as_xyz
  1  'x, y, z'
loop_
 _atom_site_type_symbol
 _atom_site_label
 _atom_site_symmetry_multiplicity
 _atom_site_fract_x
 _atom_site_fract_y
 _atom_site_fract_z
 _atom_site_occupancy
  Sc  Sc0  1  0.010171  0.661212  0.033143  1
  Sc  Sc1  1  0.988654  0.339872  0.532182  1
  Sc  Sc2  1  0.339872  0.988654  0.467818  1
  Sc  Sc3  1  0.157849  0.493675  0.779617  1
  Sc  Sc4  1  0.846004  0.507607  0.280753  1
  Sc  Sc5  1  0.493675  0.157849  0.220383  1
  Sc  Sc6  1  0.507607  0.846004  0.719247  1
  Sc  Sc7  1  0.661212  0.010171  0.966857  1
  V  V8  1  0.337655  0.337655  0.000000  1
  Re  Re9  1  0.169152  0.833316  0.249648  1
  Re  Re10  1  0.015940  0.809905  0.635081  1
  Re  Re11  1  0.998011  0.187012  0.130574  1
  Re  Re12  1  0.809905  0.015940  0.364919  1
  Re  Re13  1  0.306354  0.480801  0.388555  1
  Re  Re14  1  0.678884  0.513710  0.885296  1
  Re  Re15  1  0.480801  0.306354  0.611445  1
  Re  Re16  1  0.513710  0.678884  0.114704  1
  Re  Re17  1  0.187012  0.998011  0.869426  1
  Re  Re18  1  0.833316  0.169152  0.750352  1
  Si  Si19  1  0.021990  0.724161  0.440915  1
  Si  Si20  1  0.617768  0.303553  0.427881  1
  Si  Si21  1  0.373110  0.699651  0.929204  1
  Si  Si22  1  0.193847  0.119477  0.679805  1
  Si  Si23  1  0.303553  0.617768  0.572119  1
  Si  Si24  1  0.699651  0.373110  0.070796  1
  Si  Si25  1  0.804576  0.879469  0.178506  1
  Si  Si26  1  0.119477  0.193847  0.320195  1
  Si  Si27  1  0.976255  0.288742  0.937084  1
  Si  Si28  1  0.724161  0.021990  0.559085  1
  Si  Si29  1  0.226490  0.475461  0.192352  1
  Si  Si30  1  0.768716  0.523294  0.689853  1
  Si  Si31  1  0.475461  0.226490  0.807648  1
  Si  Si32  1  0.523294  0.768716  0.310147  1
  Si  Si33  1  0.288742  0.976255  0.062916  1
  Si  Si34  1  0.879469  0.804576  0.821494  1
  Os  Os35  1  0.667657  0.667657  0.500000  1
