# generated using pymatgen
data_YTm15(Tl3Co)2
_symmetry_space_group_name_H-M   'P 1'
_cell_length_a   10.24963000
_cell_length_b   10.24963140
_cell_length_c   6.97181700
_cell_angle_alpha   90.00000000
_cell_angle_beta   90.00000000
_cell_angle_gamma   120.00000193
_symmetry_Int_Tables_number   1
_chemical_formula_structural   YTm15(Tl3Co)2
_chemical_formula_sum   'Y1 Tm15 Tl6 Co2'
_cell_volume   634.29755578
_cell_formula_units_Z   1
loop_
 _symmetry_equiv_pos_site_id
 _symmetry_equiv_pos_as_xyz
  1  'x, y, z'
loop_
 _atom_site_type_symbol
 _atom_site_label
 _atom_site_symmetry_multiplicity
 _atom_site_fract_x
 _atom_site_fract_y
 _atom_site_fract_z
 _atom_site_occupancy
  Y  Y0  1  0.000000  0.000000  0.995281  1
  Tm  Tm1  1  0.462058  0.537942  0.479968  1
  Tm  Tm2  1  0.075884  0.537942  0.479968  1
  Tm  Tm3  1  0.462058  0.924116  0.479968  1
  Tm  Tm4  1  0.538014  0.461986  0.980141  1
  Tm  Tm5  1  0.923972  0.461986  0.980141  1
  Tm  Tm6  1  0.538014  0.076028  0.980141  1
  Tm  Tm7  1  0.820958  0.179042  0.280493  1
  Tm  Tm8  1  0.358084  0.179042  0.280493  1
  Tm  Tm9  1  0.820958  0.641916  0.280493  1
  Tm  Tm10  1  0.179213  0.820787  0.779196  1
  Tm  Tm11  1  0.641574  0.820787  0.779196  1
  Tm  Tm12  1  0.179213  0.358426  0.779196  1
  Tm  Tm13  1  0.333333  0.666667  0.090768  1
  Tm  Tm14  1  0.666667  0.333333  0.590490  1
  Tm  Tm15  1  0.000000  0.000000  0.496429  1
  Tl  Tl16  1  0.162553  0.837447  0.233268  1
  Tl  Tl17  1  0.674894  0.837447  0.233268  1
  Tl  Tl18  1  0.162553  0.325106  0.233268  1
  Tl  Tl19  1  0.837576  0.162424  0.731670  1
  Tl  Tl20  1  0.324847  0.162424  0.731670  1
  Tl  Tl21  1  0.837576  0.675153  0.731670  1
  Co  Co22  1  0.333333  0.666667  0.708711  1
  Co  Co23  1  0.666667  0.333333  0.208671  1
