# generated using pymatgen
data_TcPSeCl13
_symmetry_space_group_name_H-M   'P 1'
_cell_length_a   9.48270800
_cell_length_b   9.48270810
_cell_length_c   11.82703200
_cell_angle_alpha   90.00000000
_cell_angle_beta   90.00000000
_cell_angle_gamma   111.96093170
_symmetry_Int_Tables_number   1
_chemical_formula_structural   TcPSeCl13
_chemical_formula_sum   'Tc2 P2 Se2 Cl26'
_cell_volume   986.33835128
_cell_formula_units_Z   2
loop_
 _symmetry_equiv_pos_site_id
 _symmetry_equiv_pos_as_xyz
  1  'x, y, z'
loop_
 _atom_site_type_symbol
 _atom_site_label
 _atom_site_symmetry_multiplicity
 _atom_site_fract_x
 _atom_site_fract_y
 _atom_site_fract_z
 _atom_site_occupancy
  Tc  Tc0  1  0.216861  0.783139  0.506882  1
  Tc  Tc1  1  0.783139  0.216861  0.006882  1
  P  P2  1  0.137002  0.862998  0.967627  1
  P  P3  1  0.862998  0.137002  0.467627  1
  Se  Se4  1  0.580084  0.419916  0.128228  1
  Se  Se5  1  0.419916  0.580084  0.628228  1
  Cl  Cl6  1  0.359308  0.329029  0.603379  1
  Cl  Cl7  1  0.745378  0.254622  0.414662  1
  Cl  Cl8  1  0.434098  0.565902  0.818578  1
  Cl  Cl9  1  0.325130  0.990628  0.390015  1
  Cl  Cl10  1  0.070435  0.229427  0.409865  1
  Cl  Cl11  1  0.254622  0.745378  0.914662  1
  Cl  Cl12  1  0.329029  0.359308  0.103379  1
  Cl  Cl13  1  0.990628  0.325130  0.890015  1
  Cl  Cl14  1  0.009372  0.674870  0.390015  1
  Cl  Cl15  1  0.929565  0.770573  0.909865  1
  Cl  Cl16  1  0.565902  0.434098  0.318578  1
  Cl  Cl17  1  0.137370  0.862630  0.133427  1
  Cl  Cl18  1  0.871458  0.438661  0.131865  1
  Cl  Cl19  1  0.355843  0.644157  0.414274  1
  Cl  Cl20  1  0.904592  0.095408  0.118072  1
  Cl  Cl21  1  0.674870  0.009372  0.890015  1
  Cl  Cl22  1  0.770573  0.929565  0.409865  1
  Cl  Cl23  1  0.229427  0.070435  0.909865  1
  Cl  Cl24  1  0.644157  0.355843  0.914274  1
  Cl  Cl25  1  0.640692  0.670971  0.103379  1
  Cl  Cl26  1  0.561339  0.128542  0.131865  1
  Cl  Cl27  1  0.862630  0.137370  0.633427  1
  Cl  Cl28  1  0.438661  0.871458  0.631865  1
  Cl  Cl29  1  0.670971  0.640692  0.603379  1
  Cl  Cl30  1  0.095408  0.904592  0.618072  1
  Cl  Cl31  1  0.128542  0.561339  0.631865  1
