# generated using pymatgen
data_La3Tb2P12Ru19
_symmetry_space_group_name_H-M   'P 1'
_cell_length_a   4.02876600
_cell_length_b   12.63304131
_cell_length_c   12.62814234
_cell_angle_alpha   120.01283306
_cell_angle_beta   90.00000000
_cell_angle_gamma   90.00000000
_symmetry_Int_Tables_number   1
_chemical_formula_structural   La3Tb2P12Ru19
_chemical_formula_sum   'La3 Tb2 P12 Ru19'
_cell_volume   556.53679754
_cell_formula_units_Z   1
loop_
 _symmetry_equiv_pos_site_id
 _symmetry_equiv_pos_as_xyz
  1  'x, y, z'
loop_
 _atom_site_type_symbol
 _atom_site_label
 _atom_site_symmetry_multiplicity
 _atom_site_fract_x
 _atom_site_fract_y
 _atom_site_fract_z
 _atom_site_occupancy
  La  La0  1  0.500000  0.999964  0.183421  1
  La  La1  1  0.500000  0.183353  0.000000  1
  La  La2  1  0.500000  0.816544  0.816579  1
  Tb  Tb3  1  0.000000  0.333267  0.666588  1
  Tb  Tb4  1  0.000000  0.666678  0.333412  1
  P  P5  1  0.000000  0.999969  0.809392  1
  P  P6  1  0.000000  0.809454  0.000000  1
  P  P7  1  0.000000  0.190577  0.190608  1
  P  P8  1  0.500000  0.304044  0.478539  1
  P  P9  1  0.500000  0.174456  0.695940  1
  P  P10  1  0.500000  0.521436  0.825509  1
  P  P11  1  0.500000  0.825506  0.521461  1
  P  P12  1  0.500000  0.478515  0.304060  1
  P  P13  1  0.500000  0.695928  0.174491  1
  P  P14  1  0.000000  0.000066  0.375455  1
  P  P15  1  0.000000  0.375570  0.000000  1
  P  P16  1  0.000000  0.624611  0.624545  1
  Ru  Ru17  1  0.000000  0.999984  0.554090  1
  Ru  Ru18  1  0.000000  0.554164  0.000000  1
  Ru  Ru19  1  0.000000  0.445894  0.445910  1
  Ru  Ru20  1  0.500000  0.999969  0.711620  1
  Ru  Ru21  1  0.500000  0.711574  0.000000  1
  Ru  Ru22  1  0.500000  0.288348  0.288380  1
  Ru  Ru23  1  0.000000  0.195836  0.381688  1
  Ru  Ru24  1  0.000000  0.185907  0.804270  1
  Ru  Ru25  1  0.000000  0.618422  0.814152  1
  Ru  Ru26  1  0.000000  0.814149  0.618312  1
  Ru  Ru27  1  0.000000  0.381637  0.195730  1
  Ru  Ru28  1  0.000000  0.804270  0.185848  1
  Ru  Ru29  1  0.500000  0.125409  0.493889  1
  Ru  Ru30  1  0.500000  0.368400  0.874518  1
  Ru  Ru31  1  0.500000  0.506083  0.631609  1
  Ru  Ru32  1  0.500000  0.631520  0.506111  1
  Ru  Ru33  1  0.500000  0.493882  0.125482  1
  Ru  Ru34  1  0.500000  0.874474  0.368391  1
  Ru  Ru35  1  0.000000  0.000041  0.000000  1
