# generated using pymatgen
data_TcSbO5
_symmetry_space_group_name_H-M   'P 1'
_cell_length_a   5.57278900
_cell_length_b   10.50243900
_cell_length_c   11.76669400
_cell_angle_alpha   90.00000000
_cell_angle_beta   90.00000000
_cell_angle_gamma   90.00000000
_symmetry_Int_Tables_number   1
_chemical_formula_structural   TcSbO5
_chemical_formula_sum   'Tc4 Sb4 O20'
_cell_volume   688.67961363
_cell_formula_units_Z   4
loop_
 _symmetry_equiv_pos_site_id
 _symmetry_equiv_pos_as_xyz
  1  'x, y, z'
loop_
 _atom_site_type_symbol
 _atom_site_label
 _atom_site_symmetry_multiplicity
 _atom_site_fract_x
 _atom_site_fract_y
 _atom_site_fract_z
 _atom_site_occupancy
  Tc  Tc0  1  0.901518  0.035845  0.698387  1
  Tc  Tc1  1  0.401518  0.464155  0.301613  1
  Tc  Tc2  1  0.598482  0.964155  0.198387  1
  Tc  Tc3  1  0.098482  0.535845  0.801613  1
  Sb  Sb4  1  0.607447  0.331515  0.580896  1
  Sb  Sb5  1  0.107447  0.168485  0.419104  1
  Sb  Sb6  1  0.892553  0.668485  0.080896  1
  Sb  Sb7  1  0.392553  0.831515  0.919104  1
  O  O8  1  0.267759  0.403699  0.768516  1
  O  O9  1  0.274555  0.675405  0.791481  1
  O  O10  1  0.861202  0.544756  0.708456  1
  O  O11  1  0.008516  0.025901  0.556768  1
  O  O12  1  0.407854  0.203965  0.501608  1
  O  O13  1  0.907854  0.296035  0.498392  1
  O  O14  1  0.508516  0.474099  0.443232  1
  O  O15  1  0.361202  0.955244  0.291544  1
  O  O16  1  0.774555  0.824595  0.208519  1
  O  O17  1  0.767759  0.096301  0.231484  1
  O  O18  1  0.232241  0.596301  0.268516  1
  O  O19  1  0.225445  0.324595  0.291481  1
  O  O20  1  0.638798  0.455244  0.208456  1
  O  O21  1  0.491484  0.974099  0.056768  1
  O  O22  1  0.092146  0.796035  0.001608  1
  O  O23  1  0.592146  0.703965  0.998392  1
  O  O24  1  0.991484  0.525901  0.943232  1
  O  O25  1  0.138798  0.044756  0.791544  1
  O  O26  1  0.725445  0.175405  0.708519  1
  O  O27  1  0.732241  0.903699  0.731484  1
