# generated using pymatgen
data_Yb8Tl2Ag3Pt5Pb2
_symmetry_space_group_name_H-M   'P 1'
_cell_length_a   7.85464225
_cell_length_b   7.84801584
_cell_length_c   7.62767578
_cell_angle_alpha   90.06877151
_cell_angle_beta   89.95795196
_cell_angle_gamma   89.90182253
_symmetry_Int_Tables_number   1
_chemical_formula_structural   Yb8Tl2Ag3Pt5Pb2
_chemical_formula_sum   'Yb8 Tl2 Ag3 Pt5 Pb2'
_cell_volume   470.19438300
_cell_formula_units_Z   1
loop_
 _symmetry_equiv_pos_site_id
 _symmetry_equiv_pos_as_xyz
  1  'x, y, z'
loop_
 _atom_site_type_symbol
 _atom_site_label
 _atom_site_symmetry_multiplicity
 _atom_site_fract_x
 _atom_site_fract_y
 _atom_site_fract_z
 _atom_site_occupancy
  Yb  Yb0  1  0.661195  0.678996  0.011499  1
  Yb  Yb1  1  0.336323  0.343691  0.487145  1
  Yb  Yb2  1  0.824057  0.171880  0.482283  1
  Yb  Yb3  1  0.652080  0.667555  0.487897  1
  Yb  Yb4  1  0.325103  0.333579  0.012387  1
  Yb  Yb5  1  0.183932  0.820941  0.490787  1
  Yb  Yb6  1  0.837544  0.158285  0.020176  1
  Yb  Yb7  1  0.174208  0.831214  0.009860  1
  Tl  Tl8  1  0.499041  0.995067  0.750590  1
  Tl  Tl9  1  0.498592  0.006325  0.250083  1
  Ag  Ag10  1  0.872007  0.874106  0.736718  1
  Ag  Ag11  1  0.129808  0.124970  0.736462  1
  Ag  Ag12  1  0.627150  0.369061  0.764197  1
  Pt  Pt13  1  0.629755  0.372594  0.240156  1
  Pt  Pt14  1  0.370705  0.627199  0.242208  1
  Pt  Pt15  1  0.129394  0.126452  0.260574  1
  Pt  Pt16  1  0.876553  0.866951  0.260468  1
  Pt  Pt17  1  0.371796  0.626795  0.756075  1
  Pb  Pb18  1  0.007112  0.502504  0.750989  1
  Pb  Pb19  1  0.993646  0.501832  0.249445  1
