# generated using pymatgen
data_LaPrIr6
_symmetry_space_group_name_H-M   'P 1'
_cell_length_a   5.41191100
_cell_length_b   5.41191235
_cell_length_c   17.73268900
_cell_angle_alpha   90.00092359
_cell_angle_beta   90.00021347
_cell_angle_gamma   119.99860418
_symmetry_Int_Tables_number   1
_chemical_formula_structural   LaPrIr6
_chemical_formula_sum   'La3 Pr3 Ir18'
_cell_volume   449.79304686
_cell_formula_units_Z   3
loop_
 _symmetry_equiv_pos_site_id
 _symmetry_equiv_pos_as_xyz
  1  'x, y, z'
loop_
 _atom_site_type_symbol
 _atom_site_label
 _atom_site_symmetry_multiplicity
 _atom_site_fract_x
 _atom_site_fract_y
 _atom_site_fract_z
 _atom_site_occupancy
  La  La0  1  0.333350  0.666690  0.959540  1
  La  La1  1  0.666660  0.333321  0.040479  1
  La  La2  1  0.333334  0.666688  0.750449  1
  Pr  Pr3  1  0.666662  0.333332  0.458926  1
  Pr  Pr4  1  0.333337  0.666664  0.540896  1
  Pr  Pr5  1  0.666665  0.333327  0.249450  1
  Ir  Ir6  1  0.166566  0.833411  0.372047  1
  Ir  Ir7  1  0.166563  0.333138  0.372021  1
  Ir  Ir8  1  0.666833  0.833404  0.372050  1
  Ir  Ir9  1  0.833359  0.166662  0.627535  1
  Ir  Ir10  1  0.833377  0.666723  0.627539  1
  Ir  Ir11  1  0.333309  0.166649  0.627535  1
  Ir  Ir12  1  0.834017  0.166061  0.870554  1
  Ir  Ir13  1  0.833987  0.667965  0.870559  1
  Ir  Ir14  1  0.332031  0.166046  0.870553  1
  Ir  Ir15  1  0.165962  0.833959  0.129929  1
  Ir  Ir16  1  0.165991  0.332010  0.129945  1
  Ir  Ir17  1  0.668017  0.833981  0.129932  1
  Ir  Ir18  1  0.333439  0.666818  0.250622  1
  Ir  Ir19  1  0.666624  0.333296  0.749422  1
  Ir  Ir20  1  0.999892  0.999831  0.251339  1
  Ir  Ir21  1  0.000012  0.000001  0.748661  1
  Ir  Ir22  1  0.000006  0.000020  0.499915  1
  Ir  Ir23  1  0.000007  0.000004  0.000103  1
