# generated using pymatgen
data_Ti8Al15IrPt6
_symmetry_space_group_name_H-M   'P 1'
_cell_length_a   8.70946546
_cell_length_b   8.70946635
_cell_length_c   8.70946532
_cell_angle_alpha   120.14859866
_cell_angle_beta   119.78331370
_cell_angle_gamma   90.05926996
_symmetry_Int_Tables_number   1
_chemical_formula_structural   Ti8Al15IrPt6
_chemical_formula_sum   'Ti8 Al15 Ir1 Pt6'
_cell_volume   467.38760147
_cell_formula_units_Z   1
loop_
 _symmetry_equiv_pos_site_id
 _symmetry_equiv_pos_as_xyz
  1  'x, y, z'
loop_
 _atom_site_type_symbol
 _atom_site_label
 _atom_site_symmetry_multiplicity
 _atom_site_fract_x
 _atom_site_fract_y
 _atom_site_fract_z
 _atom_site_occupancy
  Ti  Ti0  1  0.786209  0.289263  0.075668  1
  Ti  Ti1  1  0.213594  0.289263  0.503054  1
  Ti  Ti2  1  0.212694  0.712694  0.500000  1
  Ti  Ti3  1  0.213594  0.710540  0.924332  1
  Ti  Ti4  1  0.786209  0.710540  0.496946  1
  Ti  Ti5  1  0.787539  0.287539  0.500000  1
  Ti  Ti6  1  0.380527  0.121666  0.741139  1
  Ti  Ti7  1  0.380527  0.639389  0.258861  1
  Al  Al8  1  0.000174  0.500174  0.500000  1
  Al  Al9  1  0.155422  0.347509  0.192086  1
  Al  Al10  1  0.155422  0.963336  0.807914  1
  Al  Al11  1  0.156823  0.343894  0.812928  1
  Al  Al12  1  0.530965  0.343894  0.187072  1
  Al  Al13  1  0.845793  0.654721  0.808929  1
  Al  Al14  1  0.845793  0.036865  0.191071  1
  Al  Al15  1  0.845813  0.654704  0.191108  1
  Al  Al16  1  0.463596  0.654704  0.808892  1
  Al  Al17  1  0.379821  0.120107  0.259715  1
  Al  Al18  1  0.860392  0.120107  0.740285  1
  Al  Al19  1  0.621096  0.878378  0.257283  1
  Al  Al20  1  0.621096  0.363813  0.742717  1
  Al  Al21  1  0.620913  0.878624  0.742290  1
  Al  Al22  1  0.136333  0.878624  0.257710  1
  Ir  Ir23  1  0.499511  0.999511  0.500000  1
  Pt  Pt24  1  0.997267  0.999616  0.498574  1
  Pt  Pt25  1  0.501042  0.999616  0.002349  1
  Pt  Pt26  1  0.502069  0.502069  0.000000  1
  Pt  Pt27  1  0.501042  0.498692  0.501426  1
  Pt  Pt28  1  0.997267  0.498692  0.997651  1
  Pt  Pt29  1  0.001456  0.001456  0.000000  1
