# generated using pymatgen
data_Li4Yb(ThPb2)2
_symmetry_space_group_name_H-M   'P 1'
_cell_length_a   4.76676635
_cell_length_b   7.27467844
_cell_length_c   8.79224500
_cell_angle_alpha   114.43739399
_cell_angle_beta   105.72843060
_cell_angle_gamma   90.00000084
_symmetry_Int_Tables_number   1
_chemical_formula_structural   Li4Yb(ThPb2)2
_chemical_formula_sum   'Li4 Yb1 Th2 Pb4'
_cell_volume   264.98258103
_cell_formula_units_Z   1
loop_
 _symmetry_equiv_pos_site_id
 _symmetry_equiv_pos_as_xyz
  1  'x, y, z'
loop_
 _atom_site_type_symbol
 _atom_site_label
 _atom_site_symmetry_multiplicity
 _atom_site_fract_x
 _atom_site_fract_y
 _atom_site_fract_z
 _atom_site_occupancy
  Li  Li0  1  0.673691  0.987907  0.347383  1
  Li  Li1  1  0.326309  0.012093  0.652617  1
  Li  Li2  1  0.326309  0.640525  0.652617  1
  Li  Li3  1  0.673691  0.359475  0.347383  1
  Yb  Yb4  1  0.000000  0.000000  0.000000  1
  Th  Th5  1  0.126240  0.626240  0.252481  1
  Th  Th6  1  0.873760  0.373760  0.747519  1
  Pb  Pb7  1  0.500000  0.709394  0.000000  1
  Pb  Pb8  1  0.500000  0.290606  0.000000  1
  Pb  Pb9  1  0.784230  0.784230  0.568459  1
  Pb  Pb10  1  0.215770  0.215770  0.431541  1
