# generated using pymatgen
data_DyLu7Sc12Si15Ag
_symmetry_space_group_name_H-M   'P 1'
_cell_length_a   7.06808097
_cell_length_b   7.30846851
_cell_length_c   13.97083440
_cell_angle_alpha   89.85727901
_cell_angle_beta   89.47525001
_cell_angle_gamma   90.10252647
_symmetry_Int_Tables_number   1
_chemical_formula_structural   DyLu7Sc12Si15Ag
_chemical_formula_sum   'Dy1 Lu7 Sc12 Si15 Ag1'
_cell_volume   721.65556633
_cell_formula_units_Z   1
loop_
 _symmetry_equiv_pos_site_id
 _symmetry_equiv_pos_as_xyz
  1  'x, y, z'
loop_
 _atom_site_type_symbol
 _atom_site_label
 _atom_site_symmetry_multiplicity
 _atom_site_fract_x
 _atom_site_fract_y
 _atom_site_fract_z
 _atom_site_occupancy
  Dy  Dy0  1  0.494645  0.679163  0.599268  1
  Lu  Lu1  1  0.011156  0.175813  0.097038  1
  Lu  Lu2  1  0.988786  0.825909  0.905222  1
  Lu  Lu3  1  0.487842  0.678416  0.903989  1
  Lu  Lu4  1  0.990963  0.830992  0.597394  1
  Lu  Lu5  1  0.511347  0.322507  0.096084  1
  Lu  Lu6  1  0.006170  0.171791  0.398388  1
  Lu  Lu7  1  0.510357  0.320699  0.399920  1
  Sc  Sc8  1  0.164903  0.502831  0.753890  1
  Sc  Sc9  1  0.835702  0.497063  0.250769  1
  Sc  Sc10  1  0.335078  0.001119  0.248879  1
  Sc  Sc11  1  0.667763  0.995399  0.751659  1
  Sc  Sc12  1  0.345364  0.173214  0.626784  1
  Sc  Sc13  1  0.662375  0.823741  0.373596  1
  Sc  Sc14  1  0.164745  0.675262  0.371154  1
  Sc  Sc15  1  0.668151  0.823521  0.124492  1
  Sc  Sc16  1  0.829051  0.326496  0.625963  1
  Sc  Sc17  1  0.329458  0.175758  0.877198  1
  Sc  Sc18  1  0.832593  0.322241  0.876825  1
  Sc  Sc19  1  0.167400  0.676354  0.124978  1
  Si  Si20  1  0.038310  0.118910  0.750500  1
  Si  Si21  1  0.963048  0.886328  0.247779  1
  Si  Si22  1  0.465222  0.611107  0.247700  1
  Si  Si23  1  0.535933  0.388061  0.753427  1
  Si  Si24  1  0.285743  0.872438  0.752338  1
  Si  Si25  1  0.711046  0.130185  0.247695  1
  Si  Si26  1  0.212940  0.366944  0.247579  1
  Si  Si27  1  0.790774  0.631083  0.754008  1
  Si  Si28  1  0.832425  0.535719  0.458779  1
  Si  Si29  1  0.331439  0.963452  0.460255  1
  Si  Si30  1  0.840777  0.534341  0.039191  1
  Si  Si31  1  0.666698  0.037721  0.537013  1
  Si  Si32  1  0.158457  0.466101  0.962253  1
  Si  Si33  1  0.659824  0.034049  0.960986  1
  Si  Si34  1  0.339672  0.965205  0.039978  1
  Ag  Ag35  1  0.163842  0.460067  0.537027  1
