# generated using pymatgen
data_DyY5TcBi2
_symmetry_space_group_name_H-M   'P 1'
_cell_length_a   8.33448566
_cell_length_b   8.33448549
_cell_length_c   4.29563500
_cell_angle_alpha   90.00000000
_cell_angle_beta   90.00000000
_cell_angle_gamma   120.07228891
_symmetry_Int_Tables_number   1
_chemical_formula_structural   DyY5TcBi2
_chemical_formula_sum   'Dy1 Y5 Tc1 Bi2'
_cell_volume   258.22529823
_cell_formula_units_Z   1
loop_
 _symmetry_equiv_pos_site_id
 _symmetry_equiv_pos_as_xyz
  1  'x, y, z'
loop_
 _atom_site_type_symbol
 _atom_site_label
 _atom_site_symmetry_multiplicity
 _atom_site_fract_x
 _atom_site_fract_y
 _atom_site_fract_z
 _atom_site_occupancy
  Dy  Dy0  1  0.767977  0.767977  0.500000  1
  Y  Y1  1  0.233146  0.999932  0.500000  1
  Y  Y2  1  0.999932  0.233146  0.500000  1
  Y  Y3  1  0.607104  0.999850  0.000000  1
  Y  Y4  1  0.999850  0.607104  0.000000  1
  Y  Y5  1  0.392951  0.392951  0.000000  1
  Tc  Tc6  1  0.999175  0.999175  0.000000  1
  Bi  Bi7  1  0.333229  0.666635  0.500000  1
  Bi  Bi8  1  0.666635  0.333229  0.500000  1
