# generated using pymatgen
data_Pr16NdHo3Pb16
_symmetry_space_group_name_H-M   'P 1'
_cell_length_a   8.43265202
_cell_length_b   16.30534700
_cell_length_c   8.56069900
_cell_angle_alpha   90.00000000
_cell_angle_beta   89.99667025
_cell_angle_gamma   90.00000000
_symmetry_Int_Tables_number   1
_chemical_formula_structural   Pr16NdHo3Pb16
_chemical_formula_sum   'Pr16 Nd1 Ho3 Pb16'
_cell_volume   1177.07314547
_cell_formula_units_Z   1
loop_
 _symmetry_equiv_pos_site_id
 _symmetry_equiv_pos_as_xyz
  1  'x, y, z'
loop_
 _atom_site_type_symbol
 _atom_site_label
 _atom_site_symmetry_multiplicity
 _atom_site_fract_x
 _atom_site_fract_y
 _atom_site_fract_z
 _atom_site_occupancy
  Pr  Pr0  1  0.622085  0.618244  0.157927  1
  Pr  Pr1  1  0.123962  0.881702  0.341681  1
  Pr  Pr2  1  0.376562  0.119194  0.841896  1
  Pr  Pr3  1  0.876828  0.380048  0.658058  1
  Pr  Pr4  1  0.376562  0.380806  0.841896  1
  Pr  Pr5  1  0.876828  0.119952  0.658058  1
  Pr  Pr6  1  0.622085  0.881756  0.157927  1
  Pr  Pr7  1  0.123962  0.618298  0.341681  1
  Pr  Pr8  1  0.467749  0.600072  0.679374  1
  Pr  Pr9  1  0.967701  0.899453  0.822931  1
  Pr  Pr10  1  0.533024  0.101538  0.321704  1
  Pr  Pr11  1  0.032620  0.399342  0.178089  1
  Pr  Pr12  1  0.533024  0.398462  0.321704  1
  Pr  Pr13  1  0.032620  0.100658  0.178089  1
  Pr  Pr14  1  0.467749  0.899928  0.679374  1
  Pr  Pr15  1  0.967701  0.600547  0.822931  1
  Nd  Nd16  1  0.792193  0.750000  0.497728  1
  Ho  Ho17  1  0.291151  0.750000  0.004328  1
  Ho  Ho18  1  0.209068  0.250000  0.502970  1
  Ho  Ho19  1  0.708775  0.250000  0.996353  1
  Pb  Pb20  1  0.718603  0.453512  0.968820  1
  Pb  Pb21  1  0.218706  0.046514  0.530518  1
  Pb  Pb22  1  0.280507  0.954137  0.030368  1
  Pb  Pb23  1  0.781464  0.543728  0.467750  1
  Pb  Pb24  1  0.280507  0.545863  0.030368  1
  Pb  Pb25  1  0.781464  0.956272  0.467750  1
  Pb  Pb26  1  0.718603  0.046488  0.968820  1
  Pb  Pb27  1  0.218706  0.453486  0.530518  1
  Pb  Pb28  1  0.424849  0.750000  0.371860  1
  Pb  Pb29  1  0.929117  0.750000  0.122698  1
  Pb  Pb30  1  0.570708  0.250000  0.625529  1
  Pb  Pb31  1  0.071481  0.250000  0.874780  1
  Pb  Pb32  1  0.656768  0.750000  0.852652  1
  Pb  Pb33  1  0.161084  0.750000  0.653979  1
  Pb  Pb34  1  0.342378  0.250000  0.152518  1
  Pb  Pb35  1  0.842814  0.250000  0.346371  1
