# generated using pymatgen
data_Ba4Yb4Si3Sn
_symmetry_space_group_name_H-M   'P 1'
_cell_length_a   5.10725800
_cell_length_b   8.63133576
_cell_length_c   9.30900593
_cell_angle_alpha   90.54078891
_cell_angle_beta   90.00000000
_cell_angle_gamma   90.00000000
_symmetry_Int_Tables_number   1
_chemical_formula_structural   Ba4Yb4Si3Sn
_chemical_formula_sum   'Ba4 Yb4 Si3 Sn1'
_cell_volume   410.34558985
_cell_formula_units_Z   1
loop_
 _symmetry_equiv_pos_site_id
 _symmetry_equiv_pos_as_xyz
  1  'x, y, z'
loop_
 _atom_site_type_symbol
 _atom_site_label
 _atom_site_symmetry_multiplicity
 _atom_site_fract_x
 _atom_site_fract_y
 _atom_site_fract_z
 _atom_site_occupancy
  Ba  Ba0  1  0.250000  0.030210  0.175453  1
  Ba  Ba1  1  0.750000  0.974937  0.829602  1
  Ba  Ba2  1  0.250000  0.521643  0.316740  1
  Ba  Ba3  1  0.750000  0.468488  0.679355  1
  Yb  Yb4  1  0.750000  0.358279  0.073386  1
  Yb  Yb5  1  0.250000  0.637267  0.934622  1
  Yb  Yb6  1  0.750000  0.862723  0.415191  1
  Yb  Yb7  1  0.250000  0.151242  0.573565  1
  Si  Si8  1  0.750000  0.220102  0.388874  1
  Si  Si9  1  0.250000  0.280551  0.894287  1
  Si  Si10  1  0.750000  0.716774  0.107916  1
  Sn  Sn11  1  0.250000  0.777785  0.611008  1
