# generated using pymatgen
data_Ho2Er6InAgRh2
_symmetry_space_group_name_H-M   'P 1'
_cell_length_a   9.53754919
_cell_length_b   9.52244115
_cell_length_c   9.52745199
_cell_angle_alpha   59.97640656
_cell_angle_beta   59.86671091
_cell_angle_gamma   59.89041222
_symmetry_Int_Tables_number   1
_chemical_formula_structural   Ho2Er6InAgRh2
_chemical_formula_sum   'Ho4 Er12 In2 Ag2 Rh4'
_cell_volume   610.61855999
_cell_formula_units_Z   2
loop_
 _symmetry_equiv_pos_site_id
 _symmetry_equiv_pos_as_xyz
  1  'x, y, z'
loop_
 _atom_site_type_symbol
 _atom_site_label
 _atom_site_symmetry_multiplicity
 _atom_site_fract_x
 _atom_site_fract_y
 _atom_site_fract_z
 _atom_site_occupancy
  Ho  Ho0  1  0.188045  0.188971  0.812120  1
  Ho  Ho1  1  0.438024  0.061463  0.061720  1
  Ho  Ho2  1  0.436016  0.059466  0.435769  1
  Ho  Ho3  1  0.066757  0.436467  0.059514  1
  Er  Er4  1  0.650432  0.052310  0.647062  1
  Er  Er5  1  0.188787  0.811860  0.812167  1
  Er  Er6  1  0.066666  0.059171  0.436525  1
  Er  Er7  1  0.808504  0.190922  0.191154  1
  Er  Er8  1  0.811785  0.810851  0.189893  1
  Er  Er9  1  0.649915  0.647303  0.052664  1
  Er  Er10  1  0.651239  0.649478  0.649482  1
  Er  Er11  1  0.062794  0.435532  0.435308  1
  Er  Er12  1  0.051922  0.648320  0.647725  1
  Er  Er13  1  0.811524  0.189974  0.810756  1
  Er  Er14  1  0.436484  0.436236  0.059281  1
  Er  Er15  1  0.188129  0.811827  0.189177  1
  In  In16  1  0.743571  0.421279  0.421447  1
  In  In17  1  0.417176  0.421098  0.420762  1
  Ag  Ag18  1  0.415830  0.749387  0.418073  1
  Ag  Ag19  1  0.416475  0.418096  0.749323  1
  Rh  Rh20  1  0.855960  0.428755  0.857778  1
  Rh  Rh21  1  0.856852  0.857711  0.428277  1
  Rh  Rh22  1  0.429613  0.856076  0.856961  1
  Rh  Rh23  1  0.857501  0.857444  0.857061  1
