# generated using pymatgen
data_CaPr(CdPt)2
_symmetry_space_group_name_H-M   'P 1'
_cell_length_a   4.27647000
_cell_length_b   7.35471600
_cell_length_c   8.85640800
_cell_angle_alpha   90.00000000
_cell_angle_beta   90.00000000
_cell_angle_gamma   90.00000000
_symmetry_Int_Tables_number   1
_chemical_formula_structural   CaPr(CdPt)2
_chemical_formula_sum   'Ca2 Pr2 Cd4 Pt4'
_cell_volume   278.55371348
_cell_formula_units_Z   2
loop_
 _symmetry_equiv_pos_site_id
 _symmetry_equiv_pos_as_xyz
  1  'x, y, z'
loop_
 _atom_site_type_symbol
 _atom_site_label
 _atom_site_symmetry_multiplicity
 _atom_site_fract_x
 _atom_site_fract_y
 _atom_site_fract_z
 _atom_site_occupancy
  Ca  Ca0  1  0.750000  0.958346  0.685761  1
  Ca  Ca1  1  0.750000  0.458346  0.814239  1
  Pr  Pr2  1  0.250000  0.039757  0.326356  1
  Pr  Pr3  1  0.250000  0.539757  0.173644  1
  Cd  Cd4  1  0.250000  0.143075  0.933623  1
  Cd  Cd5  1  0.250000  0.643075  0.566377  1
  Cd  Cd6  1  0.750000  0.862301  0.058009  1
  Cd  Cd7  1  0.750000  0.362301  0.441991  1
  Pt  Pt8  1  0.250000  0.246329  0.625234  1
  Pt  Pt9  1  0.250000  0.746329  0.874766  1
  Pt  Pt10  1  0.750000  0.750193  0.368374  1
  Pt  Pt11  1  0.750000  0.250193  0.131626  1
