# generated using pymatgen
data_La3SmGa3Ir11
_symmetry_space_group_name_H-M   'P 1'
_cell_length_a   12.89675743
_cell_length_b   12.89675795
_cell_length_c   12.89675700
_cell_angle_alpha   24.80125418
_cell_angle_beta   24.80124914
_cell_angle_gamma   24.80125683
_symmetry_Int_Tables_number   1
_chemical_formula_structural   La3SmGa3Ir11
_chemical_formula_sum   'La3 Sm1 Ga3 Ir11'
_cell_volume   331.97271335
_cell_formula_units_Z   1
loop_
 _symmetry_equiv_pos_site_id
 _symmetry_equiv_pos_as_xyz
  1  'x, y, z'
loop_
 _atom_site_type_symbol
 _atom_site_label
 _atom_site_symmetry_multiplicity
 _atom_site_fract_x
 _atom_site_fract_y
 _atom_site_fract_z
 _atom_site_occupancy
  La  La0  1  0.951833  0.951833  0.951833  1
  La  La1  1  0.052012  0.052012  0.052012  1
  La  La2  1  0.853761  0.853761  0.853761  1
  Sm  Sm3  1  0.148635  0.148635  0.148635  1
  Ga  Ga4  1  0.720247  0.720247  0.720247  1
  Ga  Ga5  1  0.278479  0.278479  0.278479  1
  Ga  Ga6  1  0.609812  0.609812  0.609812  1
  Ir  Ir7  1  0.500419  0.500419  0.500419  1
  Ir  Ir8  1  0.387360  0.387360  0.387360  1
  Ir  Ir9  1  0.499127  0.499127  0.997914  1
  Ir  Ir10  1  0.997914  0.499127  0.499127  1
  Ir  Ir11  1  0.499127  0.997914  0.499127  1
  Ir  Ir12  1  0.387619  0.895264  0.387619  1
  Ir  Ir13  1  0.387619  0.387619  0.895264  1
  Ir  Ir14  1  0.895264  0.387619  0.387619  1
  Ir  Ir15  1  0.612502  0.105766  0.612502  1
  Ir  Ir16  1  0.612502  0.612502  0.105766  1
  Ir  Ir17  1  0.105766  0.612502  0.612502  1
