# generated using pymatgen
data_Zr4P4IrRu2Pt
_symmetry_space_group_name_H-M   'P 1'
_cell_length_a   3.85318500
_cell_length_b   6.55767264
_cell_length_c   7.45550535
_cell_angle_alpha   89.56388379
_cell_angle_beta   90.00000000
_cell_angle_gamma   90.00000000
_symmetry_Int_Tables_number   1
_chemical_formula_structural   Zr4P4IrRu2Pt
_chemical_formula_sum   'Zr4 P4 Ir1 Ru2 Pt1'
_cell_volume   188.37969905
_cell_formula_units_Z   1
loop_
 _symmetry_equiv_pos_site_id
 _symmetry_equiv_pos_as_xyz
  1  'x, y, z'
loop_
 _atom_site_type_symbol
 _atom_site_label
 _atom_site_symmetry_multiplicity
 _atom_site_fract_x
 _atom_site_fract_y
 _atom_site_fract_z
 _atom_site_occupancy
  Zr  Zr0  1  0.750000  0.529018  0.324396  1
  Zr  Zr1  1  0.250000  0.975523  0.819518  1
  Zr  Zr2  1  0.750000  0.024893  0.177597  1
  Zr  Zr3  1  0.250000  0.478395  0.677887  1
  P  P4  1  0.250000  0.741416  0.116827  1
  P  P5  1  0.250000  0.233191  0.389564  1
  P  P6  1  0.750000  0.267010  0.864286  1
  P  P7  1  0.750000  0.769865  0.626833  1
  Ir  Ir8  1  0.250000  0.850977  0.435457  1
  Ru  Ru9  1  0.750000  0.141347  0.554698  1
  Ru  Ru10  1  0.750000  0.640396  0.943738  1
  Pt  Pt11  1  0.250000  0.347969  0.069197  1
