# generated using pymatgen
data_Ho16In4NiIr3
_symmetry_space_group_name_H-M   'P 1'
_cell_length_a   9.57606923
_cell_length_b   9.62452625
_cell_length_c   9.62452700
_cell_angle_alpha   60.00000087
_cell_angle_beta   59.83246849
_cell_angle_gamma   59.83247409
_symmetry_Int_Tables_number   1
_chemical_formula_structural   Ho16In4NiIr3
_chemical_formula_sum   'Ho16 In4 Ni1 Ir3'
_cell_volume   625.64311058
_cell_formula_units_Z   1
loop_
 _symmetry_equiv_pos_site_id
 _symmetry_equiv_pos_as_xyz
  1  'x, y, z'
loop_
 _atom_site_type_symbol
 _atom_site_label
 _atom_site_symmetry_multiplicity
 _atom_site_fract_x
 _atom_site_fract_y
 _atom_site_fract_z
 _atom_site_occupancy
  Ho  Ho0  1  0.439416  0.436192  0.062196  1
  Ho  Ho1  1  0.649185  0.652632  0.045553  1
  Ho  Ho2  1  0.190621  0.810585  0.188208  1
  Ho  Ho3  1  0.058573  0.440842  0.059742  1
  Ho  Ho4  1  0.190621  0.810585  0.810585  1
  Ho  Ho5  1  0.058573  0.440842  0.440842  1
  Ho  Ho6  1  0.810681  0.189786  0.189786  1
  Ho  Ho7  1  0.649185  0.652632  0.652632  1
  Ho  Ho8  1  0.810681  0.189786  0.809747  1
  Ho  Ho9  1  0.190621  0.188208  0.810585  1
  Ho  Ho10  1  0.049898  0.650034  0.650034  1
  Ho  Ho11  1  0.439416  0.062196  0.062196  1
  Ho  Ho12  1  0.058573  0.059742  0.440842  1
  Ho  Ho13  1  0.649185  0.045553  0.652632  1
  Ho  Ho14  1  0.810681  0.809747  0.189786  1
  Ho  Ho15  1  0.439416  0.062196  0.436192  1
  In  In16  1  0.418538  0.415538  0.415538  1
  In  In17  1  0.418538  0.415538  0.750387  1
  In  In18  1  0.418538  0.750387  0.415538  1
  In  In19  1  0.747394  0.417536  0.417536  1
  Ni  Ni20  1  0.423845  0.858718  0.858718  1
  Ir  Ir21  1  0.859273  0.857744  0.857744  1
  Ir  Ir22  1  0.859273  0.425237  0.857744  1
  Ir  Ir23  1  0.859273  0.857744  0.425237  1
