# generated using pymatgen
data_K10Ca2TaNbAs8
_symmetry_space_group_name_H-M   'P 1'
_cell_length_a   10.40974987
_cell_length_b   10.40852168
_cell_length_c   7.80453096
_cell_angle_alpha   88.10463863
_cell_angle_beta   88.10297383
_cell_angle_gamma   120.42960048
_symmetry_Int_Tables_number   1
_chemical_formula_structural   K10Ca2TaNbAs8
_chemical_formula_sum   'K10 Ca2 Ta1 Nb1 As8'
_cell_volume   727.51978225
_cell_formula_units_Z   1
loop_
 _symmetry_equiv_pos_site_id
 _symmetry_equiv_pos_as_xyz
  1  'x, y, z'
loop_
 _atom_site_type_symbol
 _atom_site_label
 _atom_site_symmetry_multiplicity
 _atom_site_fract_x
 _atom_site_fract_y
 _atom_site_fract_z
 _atom_site_occupancy
  K  K0  1  0.466520  0.525925  0.605641  1
  K  K1  1  0.057542  0.529313  0.609092  1
  K  K2  1  0.525944  0.466561  0.105587  1
  K  K3  1  0.529207  0.057344  0.108915  1
  K  K4  1  0.862428  0.143764  0.790261  1
  K  K5  1  0.290376  0.152359  0.828170  1
  K  K6  1  0.855082  0.715579  0.770846  1
  K  K7  1  0.143659  0.862481  0.290462  1
  K  K8  1  0.715743  0.855186  0.270997  1
  K  K9  1  0.152246  0.290303  0.328327  1
  Ca  Ca10  1  0.461768  0.934964  0.603951  1
  Ca  Ca11  1  0.934684  0.461657  0.103902  1
  Ta  Ta12  1  0.671768  0.328986  0.499892  1
  Nb  Nb13  1  0.329085  0.671643  0.000045  1
  As  As14  1  0.691200  0.343399  0.818896  1
  As  As15  1  0.343587  0.691458  0.319810  1
  As  As16  1  0.195052  0.797618  0.887260  1
  As  As17  1  0.588554  0.804589  0.861907  1
  As  As18  1  0.181951  0.400994  0.930501  1
  As  As19  1  0.797523  0.195336  0.387273  1
  As  As20  1  0.401706  0.182495  0.430525  1
  As  As21  1  0.804379  0.588047  0.362140  1
