# generated using pymatgen
data_Dy3Tm7(InBi2)2
_symmetry_space_group_name_H-M   'P 1'
_cell_length_a   6.46417200
_cell_length_b   8.99808355
_cell_length_c   9.01089773
_cell_angle_alpha   119.79469474
_cell_angle_beta   90.00010695
_cell_angle_gamma   90.00012499
_symmetry_Int_Tables_number   1
_chemical_formula_structural   Dy3Tm7(InBi2)2
_chemical_formula_sum   'Dy3 Tm7 In2 Bi4'
_cell_volume   454.83761106
_cell_formula_units_Z   1
loop_
 _symmetry_equiv_pos_site_id
 _symmetry_equiv_pos_as_xyz
  1  'x, y, z'
loop_
 _atom_site_type_symbol
 _atom_site_label
 _atom_site_symmetry_multiplicity
 _atom_site_fract_x
 _atom_site_fract_y
 _atom_site_fract_z
 _atom_site_occupancy
  Dy  Dy0  1  0.750001  0.237358  0.000010  1
  Dy  Dy1  1  0.750000  0.761747  0.759317  1
  Dy  Dy2  1  0.250001  0.766181  0.999838  1
  Tm  Tm3  1  0.496800  0.332522  0.661536  1
  Tm  Tm4  1  0.496984  0.672426  0.339774  1
  Tm  Tm5  1  0.003013  0.672428  0.339775  1
  Tm  Tm6  1  0.003202  0.332524  0.661537  1
  Tm  Tm7  1  0.749999  0.002239  0.237883  1
  Tm  Tm8  1  0.249999  0.234090  0.244402  1
  Tm  Tm9  1  0.249998  0.990403  0.755955  1
  In  In10  1  0.250001  0.604143  0.604681  1
  In  In11  1  0.249999  0.999227  0.396267  1
  Bi  Bi12  1  0.750001  0.607822  0.001892  1
  Bi  Bi13  1  0.750002  0.393836  0.392331  1
  Bi  Bi14  1  0.750000  0.004598  0.605236  1
  Bi  Bi15  1  0.250001  0.388456  0.999569  1
