# generated using pymatgen
data_Tb8Dy8Cd4Co3Ru
_symmetry_space_group_name_H-M   'P 1'
_cell_length_a   9.56999586
_cell_length_b   9.56932041
_cell_length_c   9.57070112
_cell_angle_alpha   59.59833650
_cell_angle_beta   59.59584443
_cell_angle_gamma   59.58976655
_symmetry_Int_Tables_number   1
_chemical_formula_structural   Tb8Dy8Cd4Co3Ru
_chemical_formula_sum   'Tb8 Dy8 Cd4 Co3 Ru1'
_cell_volume   614.04711852
_cell_formula_units_Z   1
loop_
 _symmetry_equiv_pos_site_id
 _symmetry_equiv_pos_as_xyz
  1  'x, y, z'
loop_
 _atom_site_type_symbol
 _atom_site_label
 _atom_site_symmetry_multiplicity
 _atom_site_fract_x
 _atom_site_fract_y
 _atom_site_fract_z
 _atom_site_occupancy
  Tb  Tb0  1  0.812572  0.812900  0.187804  1
  Tb  Tb1  1  0.211238  0.599628  0.599529  1
  Tb  Tb2  1  0.808221  0.189473  0.189437  1
  Tb  Tb3  1  0.057436  0.437600  0.437946  1
  Tb  Tb4  1  0.189479  0.808410  0.189285  1
  Tb  Tb5  1  0.599449  0.599611  0.211166  1
  Tb  Tb6  1  0.189470  0.189304  0.808321  1
  Tb  Tb7  1  0.061696  0.436160  0.061405  1
  Dy  Dy8  1  0.438028  0.437696  0.057315  1
  Dy  Dy9  1  0.595522  0.595494  0.595719  1
  Dy  Dy10  1  0.187951  0.812846  0.812550  1
  Dy  Dy11  1  0.061531  0.061328  0.436492  1
  Dy  Dy12  1  0.436453  0.061572  0.061499  1
  Dy  Dy13  1  0.812605  0.187976  0.812617  1
  Dy  Dy14  1  0.437775  0.057402  0.437779  1
  Dy  Dy15  1  0.599531  0.211207  0.599577  1
  Cd  Cd16  1  0.829737  0.829963  0.508075  1
  Cd  Cd17  1  0.829802  0.830073  0.829675  1
  Cd  Cd18  1  0.507986  0.829862  0.829780  1
  Cd  Cd19  1  0.829716  0.507958  0.829864  1
  Co  Co20  1  0.828567  0.392160  0.392596  1
  Co  Co21  1  0.392201  0.828886  0.392395  1
  Co  Co22  1  0.392472  0.392237  0.828645  1
  Ru  Ru23  1  0.390564  0.390258  0.390529  1
