# generated using pymatgen
data_SrAc3Pd4
_symmetry_space_group_name_H-M   'P 1'
_cell_length_a   4.65789500
_cell_length_b   6.15178336
_cell_length_c   7.93421722
_cell_angle_alpha   90.23363728
_cell_angle_beta   90.00000000
_cell_angle_gamma   90.00000000
_symmetry_Int_Tables_number   1
_chemical_formula_structural   SrAc3Pd4
_chemical_formula_sum   'Sr1 Ac3 Pd4'
_cell_volume   227.34803376
_cell_formula_units_Z   1
loop_
 _symmetry_equiv_pos_site_id
 _symmetry_equiv_pos_as_xyz
  1  'x, y, z'
loop_
 _atom_site_type_symbol
 _atom_site_label
 _atom_site_symmetry_multiplicity
 _atom_site_fract_x
 _atom_site_fract_y
 _atom_site_fract_z
 _atom_site_occupancy
  Sr  Sr0  1  0.750000  0.858664  0.818553  1
  Ac  Ac1  1  0.250000  0.358075  0.683830  1
  Ac  Ac2  1  0.250000  0.140374  0.179450  1
  Ac  Ac3  1  0.750000  0.641193  0.318540  1
  Pd  Pd4  1  0.250000  0.850965  0.534834  1
  Pd  Pd5  1  0.250000  0.640652  0.051717  1
  Pd  Pd6  1  0.750000  0.150646  0.453607  1
  Pd  Pd7  1  0.750000  0.359429  0.959470  1
