# generated using pymatgen
data_Li4Ca8Al4Si7Sn
_symmetry_space_group_name_H-M   'P 1'
_cell_length_a   4.38473000
_cell_length_b   7.07498131
_cell_length_c   16.52516159
_cell_angle_alpha   90.07250531
_cell_angle_beta   90.00000000
_cell_angle_gamma   90.00000000
_symmetry_Int_Tables_number   1
_chemical_formula_structural   Li4Ca8Al4Si7Sn
_chemical_formula_sum   'Li4 Ca8 Al4 Si7 Sn1'
_cell_volume   512.64121579
_cell_formula_units_Z   1
loop_
 _symmetry_equiv_pos_site_id
 _symmetry_equiv_pos_as_xyz
  1  'x, y, z'
loop_
 _atom_site_type_symbol
 _atom_site_label
 _atom_site_symmetry_multiplicity
 _atom_site_fract_x
 _atom_site_fract_y
 _atom_site_fract_z
 _atom_site_occupancy
  Li  Li0  1  0.250000  0.981521  0.067207  1
  Li  Li1  1  0.750000  0.512304  0.574607  1
  Li  Li2  1  0.750000  0.017894  0.932049  1
  Li  Li3  1  0.250000  0.473369  0.431643  1
  Ca  Ca4  1  0.250000  0.342759  0.938551  1
  Ca  Ca5  1  0.250000  0.847095  0.567239  1
  Ca  Ca6  1  0.750000  0.170497  0.439140  1
  Ca  Ca7  1  0.750000  0.489481  0.270812  1
  Ca  Ca8  1  0.750000  0.994312  0.221300  1
  Ca  Ca9  1  0.750000  0.658259  0.059413  1
  Ca  Ca10  1  0.250000  0.505638  0.724826  1
  Ca  Ca11  1  0.250000  0.006428  0.777786  1
  Al  Al12  1  0.750000  0.165728  0.657690  1
  Al  Al13  1  0.250000  0.837695  0.336169  1
  Al  Al14  1  0.750000  0.667196  0.843822  1
  Al  Al15  1  0.250000  0.332686  0.155190  1
  Si  Si16  1  0.750000  0.233569  0.073487  1
  Si  Si17  1  0.750000  0.795626  0.692058  1
  Si  Si18  1  0.250000  0.204371  0.308275  1
  Si  Si19  1  0.250000  0.704424  0.186649  1
  Si  Si20  1  0.250000  0.269458  0.575075  1
  Si  Si21  1  0.750000  0.296324  0.810520  1
  Si  Si22  1  0.250000  0.767431  0.926307  1
  Sn  Sn23  1  0.750000  0.725935  0.430185  1
