# generated using pymatgen
data_HoTm7(CdPt)2
_symmetry_space_group_name_H-M   'P 1'
_cell_length_a   9.57875162
_cell_length_b   9.57875220
_cell_length_c   9.57311400
_cell_angle_alpha   60.01946933
_cell_angle_beta   60.01946732
_cell_angle_gamma   59.96106350
_symmetry_Int_Tables_number   1
_chemical_formula_structural   HoTm7(CdPt)2
_chemical_formula_sum   'Ho2 Tm14 Cd4 Pt4'
_cell_volume   621.09178201
_cell_formula_units_Z   2
loop_
 _symmetry_equiv_pos_site_id
 _symmetry_equiv_pos_as_xyz
  1  'x, y, z'
loop_
 _atom_site_type_symbol
 _atom_site_label
 _atom_site_symmetry_multiplicity
 _atom_site_fract_x
 _atom_site_fract_y
 _atom_site_fract_z
 _atom_site_occupancy
  Ho  Ho0  1  0.565477  0.565477  0.934523  1
  Ho  Ho1  1  0.934523  0.934523  0.565476  1
  Tm  Tm2  1  0.352335  0.352335  0.352613  1
  Tm  Tm3  1  0.352335  0.352335  0.942716  1
  Tm  Tm4  1  0.352613  0.942716  0.352335  1
  Tm  Tm5  1  0.942716  0.352613  0.352335  1
  Tm  Tm6  1  0.810613  0.189387  0.189387  1
  Tm  Tm7  1  0.189387  0.810613  0.810613  1
  Tm  Tm8  1  0.189387  0.810613  0.189387  1
  Tm  Tm9  1  0.810613  0.189387  0.810613  1
  Tm  Tm10  1  0.189401  0.189401  0.810599  1
  Tm  Tm11  1  0.810599  0.810599  0.189401  1
  Tm  Tm12  1  0.935473  0.564527  0.564527  1
  Tm  Tm13  1  0.564527  0.935473  0.935473  1
  Tm  Tm14  1  0.564527  0.935473  0.564527  1
  Tm  Tm15  1  0.935473  0.564526  0.935473  1
  Cd  Cd16  1  0.581881  0.581881  0.581944  1
  Cd  Cd17  1  0.581881  0.581881  0.254293  1
  Cd  Cd18  1  0.581944  0.254293  0.581881  1
  Cd  Cd19  1  0.254293  0.581944  0.581881  1
  Pt  Pt20  1  0.143353  0.143353  0.142872  1
  Pt  Pt21  1  0.143353  0.143353  0.570422  1
  Pt  Pt22  1  0.142872  0.570422  0.143353  1
  Pt  Pt23  1  0.570422  0.142872  0.143353  1
