# generated using pymatgen
data_TbEr3(FeOs)4
_symmetry_space_group_name_H-M   'P 1'
_cell_length_a   5.25326145
_cell_length_b   5.24984043
_cell_length_c   9.03319821
_cell_angle_alpha   73.10697434
_cell_angle_beta   90.77125279
_cell_angle_gamma   119.97845232
_symmetry_Int_Tables_number   1
_chemical_formula_structural   TbEr3(FeOs)4
_chemical_formula_sum   'Tb1 Er3 Fe4 Os4'
_cell_volume   203.85843191
_cell_formula_units_Z   1
loop_
 _symmetry_equiv_pos_site_id
 _symmetry_equiv_pos_as_xyz
  1  'x, y, z'
loop_
 _atom_site_type_symbol
 _atom_site_label
 _atom_site_symmetry_multiplicity
 _atom_site_fract_x
 _atom_site_fract_y
 _atom_site_fract_z
 _atom_site_occupancy
  Tb  Tb0  1  0.877233  0.751285  0.374662  1
  Er  Er1  1  0.377504  0.751584  0.874336  1
  Er  Er2  1  0.997603  0.998783  0.000037  1
  Er  Er3  1  0.497384  0.998193  0.500999  1
  Fe  Fe4  1  0.187512  0.374811  0.437892  1
  Fe  Fe5  1  0.687588  0.375129  0.937332  1
  Fe  Fe6  1  0.937817  0.375726  0.186364  1
  Fe  Fe7  1  0.436945  0.374202  0.688540  1
  Os  Os8  1  0.437553  0.375848  0.186369  1
  Os  Os9  1  0.937653  0.374230  0.688550  1
  Os  Os10  1  0.437553  0.875337  0.186369  1
  Os  Os11  1  0.937653  0.874873  0.688550  1
