# generated using pymatgen
data_Mn4ReW
_symmetry_space_group_name_H-M   'P 1'
_cell_length_a   4.67779700
_cell_length_b   4.67779585
_cell_length_c   7.72998300
_cell_angle_alpha   90.00000000
_cell_angle_beta   90.00000000
_cell_angle_gamma   120.00000104
_symmetry_Int_Tables_number   1
_chemical_formula_structural   Mn4ReW
_chemical_formula_sum   'Mn8 Re2 W2'
_cell_volume   146.48454334
_cell_formula_units_Z   2
loop_
 _symmetry_equiv_pos_site_id
 _symmetry_equiv_pos_as_xyz
  1  'x, y, z'
loop_
 _atom_site_type_symbol
 _atom_site_label
 _atom_site_symmetry_multiplicity
 _atom_site_fract_x
 _atom_site_fract_y
 _atom_site_fract_z
 _atom_site_occupancy
  Mn  Mn0  1  0.000000  0.000000  0.999422  1
  Mn  Mn1  1  0.173040  0.346082  0.250000  1
  Mn  Mn2  1  0.173042  0.826961  0.250000  1
  Mn  Mn3  1  0.653918  0.826961  0.250000  1
  Mn  Mn4  1  0.000000  0.000000  0.500578  1
  Mn  Mn5  1  0.345252  0.172626  0.750000  1
  Mn  Mn6  1  0.827373  0.172626  0.750000  1
  Mn  Mn7  1  0.827374  0.654747  0.750000  1
  Re  Re8  1  0.333333  0.666667  0.569705  1
  Re  Re9  1  0.333333  0.666667  0.930295  1
  W  W10  1  0.666668  0.333335  0.062952  1
  W  W11  1  0.666668  0.333335  0.437048  1
