# generated using pymatgen
data_Ho3ThMnCo13B6
_symmetry_space_group_name_H-M   'P 1'
_cell_length_a   5.05049825
_cell_length_b   5.04995355
_cell_length_c   12.78014400
_cell_angle_alpha   90.00089898
_cell_angle_beta   90.00073717
_cell_angle_gamma   120.00639341
_symmetry_Int_Tables_number   1
_chemical_formula_structural   Ho3ThMnCo13B6
_chemical_formula_sum   'Ho3 Th1 Mn1 Co13 B6'
_cell_volume   282.26693298
_cell_formula_units_Z   1
loop_
 _symmetry_equiv_pos_site_id
 _symmetry_equiv_pos_as_xyz
  1  'x, y, z'
loop_
 _atom_site_type_symbol
 _atom_site_label
 _atom_site_symmetry_multiplicity
 _atom_site_fract_x
 _atom_site_fract_y
 _atom_site_fract_z
 _atom_site_occupancy
  Ho  Ho0  1  0.999996  0.000001  0.499960  1
  Ho  Ho1  1  0.999940  0.999997  0.263683  1
  Ho  Ho2  1  0.000063  0.000033  0.736295  1
  Th  Th3  1  0.999920  0.999998  0.000015  1
  Mn  Mn4  1  0.333299  0.666700  0.000069  1
  Co  Co5  1  0.666754  0.333256  0.000067  1
  Co  Co6  1  0.499936  0.999930  0.386199  1
  Co  Co7  1  0.000047  0.500040  0.386133  1
  Co  Co8  1  0.499941  0.500019  0.386100  1
  Co  Co9  1  0.500053  0.000040  0.613780  1
  Co  Co10  1  0.500044  0.499991  0.613830  1
  Co  Co11  1  0.999989  0.499980  0.613810  1
  Co  Co12  1  0.501114  0.002449  0.159533  1
  Co  Co13  1  0.997485  0.498809  0.159511  1
  Co  Co14  1  0.501184  0.498722  0.159354  1
  Co  Co15  1  0.501243  0.002449  0.840510  1
  Co  Co16  1  0.501290  0.498815  0.840609  1
  Co  Co17  1  0.997573  0.498827  0.840568  1
  B  B18  1  0.333338  0.666767  0.270192  1
  B  B19  1  0.666664  0.333186  0.271142  1
  B  B20  1  0.666655  0.333383  0.728974  1
  B  B21  1  0.333361  0.666629  0.729688  1
  B  B22  1  0.333328  0.666348  0.500017  1
  B  B23  1  0.666680  0.333631  0.499956  1
