# generated using pymatgen
data_Dy3YHo4(ReB6)4
_symmetry_space_group_name_H-M   'P 1'
_cell_length_a   3.67880600
_cell_length_b   9.16886200
_cell_length_c   11.55482300
_cell_angle_alpha   89.99983150
_cell_angle_beta   90.00000000
_cell_angle_gamma   90.00000000
_symmetry_Int_Tables_number   1
_chemical_formula_structural   Dy3YHo4(ReB6)4
_chemical_formula_sum   'Dy3 Y1 Ho4 Re4 B24'
_cell_volume   389.74954748
_cell_formula_units_Z   1
loop_
 _symmetry_equiv_pos_site_id
 _symmetry_equiv_pos_as_xyz
  1  'x, y, z'
loop_
 _atom_site_type_symbol
 _atom_site_label
 _atom_site_symmetry_multiplicity
 _atom_site_fract_x
 _atom_site_fract_y
 _atom_site_fract_z
 _atom_site_occupancy
  Dy  Dy0  1  0.000000  0.323571  0.413873  1
  Dy  Dy1  1  0.000000  0.676427  0.586149  1
  Dy  Dy2  1  0.000000  0.823541  0.086109  1
  Y  Y3  1  0.000000  0.176485  0.913909  1
  Ho  Ho4  1  0.000000  0.943200  0.370029  1
  Ho  Ho5  1  0.000000  0.056794  0.629928  1
  Ho  Ho6  1  0.000000  0.443239  0.129939  1
  Ho  Ho7  1  0.000000  0.556851  0.870087  1
  Re  Re8  1  0.000000  0.638811  0.320730  1
  Re  Re9  1  0.000000  0.361218  0.679244  1
  Re  Re10  1  0.000000  0.138812  0.179350  1
  Re  Re11  1  0.000000  0.861035  0.820675  1
  B  B12  1  0.500000  0.553433  0.432819  1
  B  B13  1  0.500000  0.446537  0.567211  1
  B  B14  1  0.500000  0.053348  0.067230  1
  B  B15  1  0.500000  0.946431  0.932841  1
  B  B16  1  0.500000  0.749327  0.418538  1
  B  B17  1  0.500000  0.250663  0.581482  1
  B  B18  1  0.500000  0.249398  0.081522  1
  B  B19  1  0.500000  0.750693  0.918547  1
  B  B20  1  0.500000  0.792228  0.265590  1
  B  B21  1  0.500000  0.207748  0.734323  1
  B  B22  1  0.500000  0.292240  0.234349  1
  B  B23  1  0.500000  0.707779  0.765621  1
  B  B24  1  0.500000  0.630923  0.185602  1
  B  B25  1  0.500000  0.369189  0.814369  1
  B  B26  1  0.500000  0.130945  0.314350  1
  B  B27  1  0.500000  0.869109  0.685640  1
  B  B28  1  0.500000  0.982475  0.212016  1
  B  B29  1  0.500000  0.017458  0.787890  1
  B  B30  1  0.500000  0.482459  0.287936  1
  B  B31  1  0.500000  0.517533  0.712088  1
  B  B32  1  0.500000  0.599830  0.027913  1
  B  B33  1  0.500000  0.400234  0.972093  1
  B  B34  1  0.500000  0.099787  0.472091  1
  B  B35  1  0.500000  0.900246  0.527913  1
