# generated using pymatgen
data_Ho2Lu3Tl4
_symmetry_space_group_name_H-M   'P 1'
_cell_length_a   7.84070600
_cell_length_b   8.14429800
_cell_length_c   15.62963200
_cell_angle_alpha   90.00000000
_cell_angle_beta   90.00000000
_cell_angle_gamma   90.00000000
_symmetry_Int_Tables_number   1
_chemical_formula_structural   Ho2Lu3Tl4
_chemical_formula_sum   'Ho8 Lu12 Tl16'
_cell_volume   998.06213263
_cell_formula_units_Z   4
loop_
 _symmetry_equiv_pos_site_id
 _symmetry_equiv_pos_as_xyz
  1  'x, y, z'
loop_
 _atom_site_type_symbol
 _atom_site_label
 _atom_site_symmetry_multiplicity
 _atom_site_fract_x
 _atom_site_fract_y
 _atom_site_fract_z
 _atom_site_occupancy
  Ho  Ho0  1  0.496996  0.679904  0.594088  1
  Ho  Ho1  1  0.996996  0.820096  0.905912  1
  Ho  Ho2  1  0.503004  0.320096  0.094088  1
  Ho  Ho3  1  0.003004  0.179904  0.405912  1
  Ho  Ho4  1  0.503004  0.320096  0.405912  1
  Ho  Ho5  1  0.003004  0.179904  0.094088  1
  Ho  Ho6  1  0.496996  0.679904  0.905912  1
  Ho  Ho7  1  0.996996  0.820096  0.594088  1
  Lu  Lu8  1  0.655618  0.165240  0.624196  1
  Lu  Lu9  1  0.155618  0.334760  0.875804  1
  Lu  Lu10  1  0.344382  0.834760  0.124196  1
  Lu  Lu11  1  0.844382  0.665240  0.375804  1
  Lu  Lu12  1  0.344382  0.834760  0.375804  1
  Lu  Lu13  1  0.844382  0.665240  0.124196  1
  Lu  Lu14  1  0.655618  0.165240  0.875804  1
  Lu  Lu15  1  0.155618  0.334760  0.624196  1
  Lu  Lu16  1  0.820171  0.503265  0.750000  1
  Lu  Lu17  1  0.320171  0.996735  0.750000  1
  Lu  Lu18  1  0.179829  0.496735  0.250000  1
  Lu  Lu19  1  0.679829  0.003265  0.250000  1
  Tl  Tl20  1  0.683684  0.964752  0.459086  1
  Tl  Tl21  1  0.183684  0.535248  0.040914  1
  Tl  Tl22  1  0.316316  0.035248  0.959086  1
  Tl  Tl23  1  0.816316  0.464752  0.540914  1
  Tl  Tl24  1  0.316316  0.035248  0.540914  1
  Tl  Tl25  1  0.816316  0.464752  0.959086  1
  Tl  Tl26  1  0.683684  0.964752  0.040914  1
  Tl  Tl27  1  0.183684  0.535248  0.459086  1
  Tl  Tl28  1  0.457580  0.383233  0.750000  1
  Tl  Tl29  1  0.957580  0.116767  0.750000  1
  Tl  Tl30  1  0.542420  0.616767  0.250000  1
  Tl  Tl31  1  0.042420  0.883233  0.250000  1
  Tl  Tl32  1  0.686190  0.856321  0.750000  1
  Tl  Tl33  1  0.186190  0.643679  0.750000  1
  Tl  Tl34  1  0.313810  0.143679  0.250000  1
  Tl  Tl35  1  0.813810  0.356321  0.250000  1
