# generated using pymatgen
data_Y4Al4IrPd3
_symmetry_space_group_name_H-M   'P 1'
_cell_length_a   4.44332700
_cell_length_b   6.88997531
_cell_length_c   7.82326461
_cell_angle_alpha   89.90625397
_cell_angle_beta   90.00000000
_cell_angle_gamma   90.00000000
_symmetry_Int_Tables_number   1
_chemical_formula_structural   Y4Al4IrPd3
_chemical_formula_sum   'Y4 Al4 Ir1 Pd3'
_cell_volume   239.50433582
_cell_formula_units_Z   1
loop_
 _symmetry_equiv_pos_site_id
 _symmetry_equiv_pos_as_xyz
  1  'x, y, z'
loop_
 _atom_site_type_symbol
 _atom_site_label
 _atom_site_symmetry_multiplicity
 _atom_site_fract_x
 _atom_site_fract_y
 _atom_site_fract_z
 _atom_site_occupancy
  Y  Y0  1  0.250000  0.035493  0.322317  1
  Y  Y1  1  0.250000  0.531428  0.180553  1
  Y  Y2  1  0.750000  0.977416  0.679436  1
  Y  Y3  1  0.750000  0.463870  0.816615  1
  Al  Al4  1  0.250000  0.146897  0.934975  1
  Al  Al5  1  0.250000  0.639456  0.562307  1
  Al  Al6  1  0.750000  0.854953  0.060530  1
  Al  Al7  1  0.750000  0.353508  0.441389  1
  Ir  Ir8  1  0.250000  0.270983  0.619747  1
  Pd  Pd9  1  0.250000  0.774449  0.881759  1
  Pd  Pd10  1  0.750000  0.726165  0.379851  1
  Pd  Pd11  1  0.750000  0.225381  0.120521  1
