# generated using pymatgen
data_Pr2Nd6Ga(Si4Rh)3
_symmetry_space_group_name_H-M   'P 1'
_cell_length_a   8.26785000
_cell_length_b   8.26785045
_cell_length_c   8.50484500
_cell_angle_alpha   89.99998387
_cell_angle_beta   90.00001367
_cell_angle_gamma   119.99982011
_symmetry_Int_Tables_number   1
_chemical_formula_structural   Pr2Nd6Ga(Si4Rh)3
_chemical_formula_sum   'Pr2 Nd6 Ga1 Si12 Rh3'
_cell_volume   503.48092686
_cell_formula_units_Z   1
loop_
 _symmetry_equiv_pos_site_id
 _symmetry_equiv_pos_as_xyz
  1  'x, y, z'
loop_
 _atom_site_type_symbol
 _atom_site_label
 _atom_site_symmetry_multiplicity
 _atom_site_fract_x
 _atom_site_fract_y
 _atom_site_fract_z
 _atom_site_occupancy
  Pr  Pr0  1  0.999999  0.000001  0.747606  1
  Pr  Pr1  1  0.999999  0.000001  0.252505  1
  Nd  Nd2  1  0.497818  0.502182  0.746087  1
  Nd  Nd3  1  0.497818  0.995636  0.746087  1
  Nd  Nd4  1  0.004364  0.502182  0.746087  1
  Nd  Nd5  1  0.499932  0.500068  0.253783  1
  Nd  Nd6  1  0.000137  0.500068  0.253783  1
  Nd  Nd7  1  0.499932  0.999863  0.253783  1
  Ga  Ga8  1  0.666668  0.333332  0.994715  1
  Si  Si9  1  0.838301  0.161699  0.000013  1
  Si  Si10  1  0.838300  0.676600  0.000013  1
  Si  Si11  1  0.323400  0.161700  0.000013  1
  Si  Si12  1  0.832453  0.167547  0.501453  1
  Si  Si13  1  0.832452  0.664904  0.501453  1
  Si  Si14  1  0.335096  0.167548  0.501453  1
  Si  Si15  1  0.167149  0.832851  0.498609  1
  Si  Si16  1  0.665702  0.832851  0.498608  1
  Si  Si17  1  0.167149  0.334298  0.498608  1
  Si  Si18  1  0.169450  0.830550  0.000828  1
  Si  Si19  1  0.661099  0.830550  0.000827  1
  Si  Si20  1  0.169450  0.338901  0.000827  1
  Rh  Rh21  1  0.666668  0.333332  0.503380  1
  Rh  Rh22  1  0.333334  0.666666  0.496910  1
  Rh  Rh23  1  0.333334  0.666666  0.002570  1
