# generated using pymatgen
data_Dy3YAl2(B2Rh5)2
_symmetry_space_group_name_H-M   'P 1'
_cell_length_a   9.52663914
_cell_length_b   9.52665214
_cell_length_c   3.18066000
_cell_angle_alpha   90.00000000
_cell_angle_beta   90.00000000
_cell_angle_gamma   89.98016495
_symmetry_Int_Tables_number   1
_chemical_formula_structural   Dy3YAl2(B2Rh5)2
_chemical_formula_sum   'Dy3 Y1 Al2 B4 Rh10'
_cell_volume   288.66706981
_cell_formula_units_Z   1
loop_
 _symmetry_equiv_pos_site_id
 _symmetry_equiv_pos_as_xyz
  1  'x, y, z'
loop_
 _atom_site_type_symbol
 _atom_site_label
 _atom_site_symmetry_multiplicity
 _atom_site_fract_x
 _atom_site_fract_y
 _atom_site_fract_z
 _atom_site_occupancy
  Dy  Dy0  1  0.824695  0.324695  0.000000  1
  Dy  Dy1  1  0.324917  0.175136  0.000000  1
  Dy  Dy2  1  0.675136  0.824917  0.000000  1
  Y  Y3  1  0.175245  0.675245  0.000000  1
  Al  Al4  1  0.000001  0.999944  0.000000  1
  Al  Al5  1  0.499943  0.500002  0.000000  1
  B  B6  1  0.621824  0.121824  0.000000  1
  B  B7  1  0.121783  0.378167  0.000000  1
  B  B8  1  0.878168  0.621783  0.000000  1
  B  B9  1  0.378236  0.878237  0.000000  1
  Rh  Rh10  1  0.070040  0.218734  0.500000  1
  Rh  Rh11  1  0.218846  0.930399  0.500000  1
  Rh  Rh12  1  0.781271  0.070095  0.500000  1
  Rh  Rh13  1  0.929524  0.781283  0.500000  1
  Rh  Rh14  1  0.430397  0.718849  0.500000  1
  Rh  Rh15  1  0.570096  0.281269  0.500000  1
  Rh  Rh16  1  0.718738  0.570040  0.500000  1
  Rh  Rh17  1  0.281284  0.429521  0.500000  1
  Rh  Rh18  1  0.500190  0.000190  0.500000  1
  Rh  Rh19  1  0.999667  0.499670  0.500000  1
