# generated using pymatgen
data_Ca5Ho(RuO6)2
_symmetry_space_group_name_H-M   'P 1'
_cell_length_a   5.82922937
_cell_length_b   5.56657055
_cell_length_c   9.74377811
_cell_angle_alpha   55.58036194
_cell_angle_beta   89.96371028
_cell_angle_gamma   89.96426220
_symmetry_Int_Tables_number   1
_chemical_formula_structural   Ca5Ho(RuO6)2
_chemical_formula_sum   'Ca5 Ho1 Ru2 O12'
_cell_volume   260.81818550
_cell_formula_units_Z   1
loop_
 _symmetry_equiv_pos_site_id
 _symmetry_equiv_pos_as_xyz
  1  'x, y, z'
loop_
 _atom_site_type_symbol
 _atom_site_label
 _atom_site_symmetry_multiplicity
 _atom_site_fract_x
 _atom_site_fract_y
 _atom_site_fract_z
 _atom_site_occupancy
  Ca  Ca0  1  0.440800  0.231252  0.749966  1
  Ca  Ca1  1  0.559200  0.768748  0.250034  1
  Ca  Ca2  1  0.937549  0.762741  0.755450  1
  Ca  Ca3  1  0.062451  0.237259  0.244550  1
  Ca  Ca4  1  0.500000  0.500000  0.000000  1
  Ho  Ho5  1  0.000000  0.500000  0.500000  1
  Ru  Ru6  1  0.000000  0.000000  0.000000  1
  Ru  Ru7  1  0.500000  0.000000  0.500000  1
  O  O8  1  0.721651  0.897019  0.933371  1
  O  O9  1  0.278349  0.102981  0.066629  1
  O  O10  1  0.216534  0.112320  0.566650  1
  O  O11  1  0.783466  0.887680  0.433350  1
  O  O12  1  0.047330  0.347872  0.766424  1
  O  O13  1  0.952670  0.652128  0.233576  1
  O  O14  1  0.547621  0.659756  0.725447  1
  O  O15  1  0.452379  0.340244  0.274553  1
  O  O16  1  0.179420  0.772284  0.945104  1
  O  O17  1  0.820580  0.227716  0.054896  1
  O  O18  1  0.686456  0.230813  0.555816  1
  O  O19  1  0.313544  0.769187  0.444184  1
