# generated using pymatgen
data_Mo2SeF18
_symmetry_space_group_name_H-M   'P 1'
_cell_length_a   9.34471200
_cell_length_b   9.34471115
_cell_length_c   5.40785200
_cell_angle_alpha   90.00000000
_cell_angle_beta   90.00000000
_cell_angle_gamma   120.00000301
_symmetry_Int_Tables_number   1
_chemical_formula_structural   Mo2SeF18
_chemical_formula_sum   'Mo2 Se1 F18'
_cell_volume   408.96601408
_cell_formula_units_Z   1
loop_
 _symmetry_equiv_pos_site_id
 _symmetry_equiv_pos_as_xyz
  1  'x, y, z'
loop_
 _atom_site_type_symbol
 _atom_site_label
 _atom_site_symmetry_multiplicity
 _atom_site_fract_x
 _atom_site_fract_y
 _atom_site_fract_z
 _atom_site_occupancy
  Mo  Mo0  1  0.666667  0.333333  0.446738  1
  Mo  Mo1  1  0.333333  0.666667  0.553262  1
  Se  Se2  1  0.000000  0.000000  0.000000  1
  F  F3  1  0.239091  0.760909  0.353831  1
  F  F4  1  0.239091  0.478181  0.353831  1
  F  F5  1  0.521819  0.760909  0.353831  1
  F  F6  1  0.087706  0.912294  0.814296  1
  F  F7  1  0.087706  0.175411  0.814296  1
  F  F8  1  0.824589  0.912294  0.814296  1
  F  F9  1  0.175411  0.087706  0.185704  1
  F  F10  1  0.912294  0.824589  0.185704  1
  F  F11  1  0.912294  0.087706  0.185704  1
  F  F12  1  0.427558  0.572442  0.752878  1
  F  F13  1  0.427558  0.855116  0.752878  1
  F  F14  1  0.144884  0.572442  0.752878  1
  F  F15  1  0.855116  0.427558  0.247122  1
  F  F16  1  0.572442  0.144884  0.247122  1
  F  F17  1  0.572442  0.427558  0.247122  1
  F  F18  1  0.760909  0.239091  0.646169  1
  F  F19  1  0.760909  0.521819  0.646169  1
  F  F20  1  0.478181  0.239091  0.646169  1
