# generated using pymatgen
data_Ho8Tm8Tl5GaCo2
_symmetry_space_group_name_H-M   'P 1'
_cell_length_a   10.14537200
_cell_length_b   10.14047601
_cell_length_c   7.06326986
_cell_angle_alpha   90.02042415
_cell_angle_beta   90.00000000
_cell_angle_gamma   120.01597272
_symmetry_Int_Tables_number   1
_chemical_formula_structural   Ho8Tm8Tl5GaCo2
_chemical_formula_sum   'Ho8 Tm8 Tl5 Ga1 Co2'
_cell_volume   629.20590431
_cell_formula_units_Z   1
loop_
 _symmetry_equiv_pos_site_id
 _symmetry_equiv_pos_as_xyz
  1  'x, y, z'
loop_
 _atom_site_type_symbol
 _atom_site_label
 _atom_site_symmetry_multiplicity
 _atom_site_fract_x
 _atom_site_fract_y
 _atom_site_fract_z
 _atom_site_occupancy
  Ho  Ho0  1  0.462039  0.535605  0.211834  1
  Ho  Ho1  1  0.073565  0.535605  0.211834  1
  Ho  Ho2  1  0.463332  0.926665  0.215597  1
  Ho  Ho3  1  0.544289  0.467950  0.710364  1
  Ho  Ho4  1  0.923662  0.467950  0.710364  1
  Ho  Ho5  1  0.536097  0.072194  0.710699  1
  Ho  Ho6  1  0.998281  0.996562  0.229921  1
  Ho  Ho7  1  0.996519  0.993039  0.726134  1
  Tm  Tm8  1  0.170146  0.817362  0.506423  1
  Tm  Tm9  1  0.647213  0.817362  0.506423  1
  Tm  Tm10  1  0.178392  0.356788  0.513302  1
  Tm  Tm11  1  0.821217  0.179832  0.010227  1
  Tm  Tm12  1  0.358617  0.179832  0.010227  1
  Tm  Tm13  1  0.822061  0.644120  0.022935  1
  Tm  Tm14  1  0.333611  0.667222  0.817267  1
  Tm  Tm15  1  0.669945  0.339890  0.323393  1
  Tl  Tl16  1  0.163716  0.836452  0.958304  1
  Tl  Tl17  1  0.672738  0.836452  0.958304  1
  Tl  Tl18  1  0.162822  0.325646  0.958280  1
  Tl  Tl19  1  0.835525  0.162772  0.459732  1
  Tl  Tl20  1  0.327247  0.162772  0.459732  1
  Ga  Ga21  1  0.837510  0.675019  0.457880  1
  Co  Co22  1  0.333653  0.667306  0.441522  1
  Co  Co23  1  0.667803  0.335605  0.943344  1
