# generated using pymatgen
data_Ba3HoScO6
_symmetry_space_group_name_H-M   'P 1'
_cell_length_a   7.26632217
_cell_length_b   7.26635641
_cell_length_c   7.26630326
_cell_angle_alpha   93.18926097
_cell_angle_beta   93.19040476
_cell_angle_gamma   93.18842645
_symmetry_Int_Tables_number   1
_chemical_formula_structural   Ba3HoScO6
_chemical_formula_sum   'Ba6 Ho2 Sc2 O12'
_cell_volume   381.80663866
_cell_formula_units_Z   2
loop_
 _symmetry_equiv_pos_site_id
 _symmetry_equiv_pos_as_xyz
  1  'x, y, z'
loop_
 _atom_site_type_symbol
 _atom_site_label
 _atom_site_symmetry_multiplicity
 _atom_site_fract_x
 _atom_site_fract_y
 _atom_site_fract_z
 _atom_site_occupancy
  Ba  Ba0  1  0.611628  0.888358  0.249993  1
  Ba  Ba1  1  0.249999  0.611641  0.888374  1
  Ba  Ba2  1  0.888369  0.249989  0.611639  1
  Ba  Ba3  1  0.388377  0.111634  0.749994  1
  Ba  Ba4  1  0.749995  0.388365  0.111636  1
  Ba  Ba5  1  0.111635  0.750003  0.388360  1
  Ho  Ho6  1  0.249982  0.250006  0.249993  1
  Ho  Ho7  1  0.750023  0.749992  0.749996  1
  Sc  Sc8  1  0.999995  0.999998  0.999995  1
  Sc  Sc9  1  0.499997  0.499994  0.500004  1
  O  O10  1  0.282778  0.968632  0.095755  1
  O  O11  1  0.095753  0.282785  0.968625  1
  O  O12  1  0.968628  0.095760  0.282783  1
  O  O13  1  0.531360  0.217223  0.404238  1
  O  O14  1  0.404243  0.531380  0.217222  1
  O  O15  1  0.217214  0.404253  0.531369  1
  O  O16  1  0.717229  0.031375  0.904248  1
  O  O17  1  0.904243  0.717219  0.031381  1
  O  O18  1  0.031371  0.904241  0.717225  1
  O  O19  1  0.468638  0.782780  0.595769  1
  O  O20  1  0.595758  0.468620  0.782777  1
  O  O21  1  0.782787  0.595750  0.468628  1
