# generated using pymatgen
data_Tm3Sn3GeRh2
_symmetry_space_group_name_H-M   'P 1'
_cell_length_a   7.36141200
_cell_length_b   7.36141267
_cell_length_c   4.12871100
_cell_angle_alpha   90.00000000
_cell_angle_beta   90.00000000
_cell_angle_gamma   119.99999818
_symmetry_Int_Tables_number   1
_chemical_formula_structural   Tm3Sn3GeRh2
_chemical_formula_sum   'Tm3 Sn3 Ge1 Rh2'
_cell_volume   193.76146674
_cell_formula_units_Z   1
loop_
 _symmetry_equiv_pos_site_id
 _symmetry_equiv_pos_as_xyz
  1  'x, y, z'
loop_
 _atom_site_type_symbol
 _atom_site_label
 _atom_site_symmetry_multiplicity
 _atom_site_fract_x
 _atom_site_fract_y
 _atom_site_fract_z
 _atom_site_occupancy
  Tm  Tm0  1  0.013251  0.413569  0.000000  1
  Tm  Tm1  1  0.586431  0.599682  0.000000  1
  Tm  Tm2  1  0.400318  0.986749  0.000000  1
  Sn  Sn3  1  0.246481  0.259618  0.500000  1
  Sn  Sn4  1  0.013137  0.753519  0.500000  1
  Sn  Sn5  1  0.740382  0.986863  0.500000  1
  Ge  Ge6  1  0.666667  0.333333  0.500000  1
  Rh  Rh7  1  0.333333  0.666667  0.500000  1
  Rh  Rh8  1  0.000000  0.000000  0.000000  1
