# generated using pymatgen
data_Nd17Ho3(Ga5Bi)2
_symmetry_space_group_name_H-M   'P 1'
_cell_length_a   8.02456900
_cell_length_b   8.02456900
_cell_length_c   14.27149500
_cell_angle_alpha   90.00000000
_cell_angle_beta   90.00000000
_cell_angle_gamma   90.00000000
_symmetry_Int_Tables_number   1
_chemical_formula_structural   Nd17Ho3(Ga5Bi)2
_chemical_formula_sum   'Nd17 Ho3 Ga10 Bi2'
_cell_volume   918.99447656
_cell_formula_units_Z   1
loop_
 _symmetry_equiv_pos_site_id
 _symmetry_equiv_pos_as_xyz
  1  'x, y, z'
loop_
 _atom_site_type_symbol
 _atom_site_label
 _atom_site_symmetry_multiplicity
 _atom_site_fract_x
 _atom_site_fract_y
 _atom_site_fract_z
 _atom_site_occupancy
  Nd  Nd0  1  0.000000  0.500000  0.796187  1
  Nd  Nd1  1  0.673546  0.659247  0.610338  1
  Nd  Nd2  1  0.675109  0.338275  0.100484  1
  Nd  Nd3  1  0.828853  0.840502  0.388551  1
  Nd  Nd4  1  0.177842  0.841246  0.899804  1
  Nd  Nd5  1  0.326454  0.340753  0.610338  1
  Nd  Nd6  1  0.324891  0.661725  0.100484  1
  Nd  Nd7  1  0.171147  0.159498  0.388551  1
  Nd  Nd8  1  0.822158  0.158754  0.899804  1
  Nd  Nd9  1  0.659498  0.328853  0.388551  1
  Nd  Nd10  1  0.341246  0.322158  0.899804  1
  Nd  Nd11  1  0.159247  0.826454  0.610338  1
  Nd  Nd12  1  0.838275  0.824891  0.100484  1
  Nd  Nd13  1  0.340502  0.671147  0.388551  1
  Nd  Nd14  1  0.658754  0.677842  0.899804  1
  Nd  Nd15  1  0.840753  0.173546  0.610338  1
  Nd  Nd16  1  0.161725  0.175109  0.100484  1
  Ho  Ho17  1  0.000000  0.500000  0.238760  1
  Ho  Ho18  1  0.500000  0.000000  0.211654  1
  Ho  Ho19  1  0.500000  0.000000  0.757214  1
  Ga  Ga20  1  0.000000  0.500000  0.010697  1
  Ga  Ga21  1  0.500000  0.000000  0.998145  1
  Ga  Ga22  1  0.870752  0.876962  0.750888  1
  Ga  Ga23  1  0.873358  0.128416  0.247756  1
  Ga  Ga24  1  0.628416  0.626642  0.247756  1
  Ga  Ga25  1  0.376962  0.629248  0.750888  1
  Ga  Ga26  1  0.129248  0.123038  0.750888  1
  Ga  Ga27  1  0.126642  0.871584  0.247756  1
  Ga  Ga28  1  0.371584  0.373358  0.247756  1
  Ga  Ga29  1  0.623038  0.370752  0.750888  1
  Bi  Bi30  1  0.000000  0.500000  0.486623  1
  Bi  Bi31  1  0.500000  0.000000  0.509437  1
