# generated using pymatgen
data_Lu6Zn20Ag3Se
_symmetry_space_group_name_H-M   'P 1'
_cell_length_a   9.08631906
_cell_length_b   9.08635270
_cell_length_c   9.09417400
_cell_angle_alpha   59.97146344
_cell_angle_beta   59.97123158
_cell_angle_gamma   59.95828159
_symmetry_Int_Tables_number   1
_chemical_formula_structural   Lu6Zn20Ag3Se
_chemical_formula_sum   'Lu6 Zn20 Ag3 Se1'
_cell_volume   530.51860327
_cell_formula_units_Z   1
loop_
 _symmetry_equiv_pos_site_id
 _symmetry_equiv_pos_as_xyz
  1  'x, y, z'
loop_
 _atom_site_type_symbol
 _atom_site_label
 _atom_site_symmetry_multiplicity
 _atom_site_fract_x
 _atom_site_fract_y
 _atom_site_fract_z
 _atom_site_occupancy
  Lu  Lu0  1  0.715649  0.284566  0.284320  1
  Lu  Lu1  1  0.715658  0.284555  0.715469  1
  Lu  Lu2  1  0.714178  0.714165  0.285825  1
  Lu  Lu3  1  0.284544  0.715654  0.715474  1
  Lu  Lu4  1  0.284552  0.715650  0.284322  1
  Lu  Lu5  1  0.283288  0.283315  0.716697  1
  Zn  Zn6  1  0.125568  0.125576  0.622547  1
  Zn  Zn7  1  0.125566  0.125571  0.126318  1
  Zn  Zn8  1  0.376170  0.872543  0.875645  1
  Zn  Zn9  1  0.872561  0.376166  0.875638  1
  Zn  Zn10  1  0.874967  0.874961  0.372842  1
  Zn  Zn11  1  0.874969  0.874964  0.877218  1
  Zn  Zn12  1  0.497717  0.998739  0.999105  1
  Zn  Zn13  1  0.497723  0.998733  0.504427  1
  Zn  Zn14  1  0.501382  0.501391  0.998618  1
  Zn  Zn15  1  0.998745  0.497722  0.504430  1
  Zn  Zn16  1  0.998727  0.497723  0.999117  1
  Zn  Zn17  1  0.999392  0.999386  0.500609  1
  Zn  Zn18  1  0.005238  0.330780  0.331990  1
  Zn  Zn19  1  0.330778  0.005243  0.331993  1
  Zn  Zn20  1  0.331048  0.331044  0.004579  1
  Zn  Zn21  1  0.331044  0.331049  0.333335  1
  Zn  Zn22  1  0.993140  0.668548  0.669156  1
  Zn  Zn23  1  0.668554  0.993130  0.669156  1
  Zn  Zn24  1  0.668819  0.668807  0.994140  1
  Zn  Zn25  1  0.668815  0.668812  0.668238  1
  Ag  Ag26  1  0.630447  0.122495  0.123527  1
  Ag  Ag27  1  0.122493  0.630443  0.123533  1
  Ag  Ag28  1  0.009195  0.009196  0.990804  1
  Se  Se29  1  0.499072  0.499071  0.500928  1
