# generated using pymatgen
data_Y10Si6O
_symmetry_space_group_name_H-M   'P 1'
_cell_length_a   8.43766100
_cell_length_b   8.43766095
_cell_length_c   6.32924200
_cell_angle_alpha   90.00000000
_cell_angle_beta   90.00000000
_cell_angle_gamma   119.99999629
_symmetry_Int_Tables_number   1
_chemical_formula_structural   Y10Si6O
_chemical_formula_sum   'Y10 Si6 O1'
_cell_volume   390.23524570
_cell_formula_units_Z   1
loop_
 _symmetry_equiv_pos_site_id
 _symmetry_equiv_pos_as_xyz
  1  'x, y, z'
loop_
 _atom_site_type_symbol
 _atom_site_label
 _atom_site_symmetry_multiplicity
 _atom_site_fract_x
 _atom_site_fract_y
 _atom_site_fract_z
 _atom_site_occupancy
  Y  Y0  1  0.333333  0.666667  0.500000  1
  Y  Y1  1  0.666667  0.333333  0.500000  1
  Y  Y2  1  0.666667  0.333333  0.000000  1
  Y  Y3  1  0.333333  0.666667  0.000000  1
  Y  Y4  1  0.000000  0.763524  0.260192  1
  Y  Y5  1  0.236476  0.236476  0.260192  1
  Y  Y6  1  0.763524  0.000000  0.260192  1
  Y  Y7  1  0.000000  0.236476  0.739808  1
  Y  Y8  1  0.763524  0.763524  0.739808  1
  Y  Y9  1  0.236476  0.000000  0.739808  1
  Si  Si10  1  0.000000  0.396706  0.250001  1
  Si  Si11  1  0.603294  0.603294  0.250001  1
  Si  Si12  1  0.396706  0.000000  0.250001  1
  Si  Si13  1  0.000000  0.603294  0.749999  1
  Si  Si14  1  0.396706  0.396706  0.749999  1
  Si  Si15  1  0.603294  0.000000  0.749999  1
  O  O16  1  0.000000  0.000000  0.500000  1
