# generated using pymatgen
data_BaHo2P4(PbS8)2
_symmetry_space_group_name_H-M   'P 1'
_cell_length_a   10.25979800
_cell_length_b   12.90728500
_cell_length_c   19.16927700
_cell_angle_alpha   90.00000000
_cell_angle_beta   90.00000000
_cell_angle_gamma   90.00000000
_symmetry_Int_Tables_number   1
_chemical_formula_structural   BaHo2P4(PbS8)2
_chemical_formula_sum   'Ba4 Ho8 P16 Pb8 S64'
_cell_volume   2538.51329890
_cell_formula_units_Z   4
loop_
 _symmetry_equiv_pos_site_id
 _symmetry_equiv_pos_as_xyz
  1  'x, y, z'
loop_
 _atom_site_type_symbol
 _atom_site_label
 _atom_site_symmetry_multiplicity
 _atom_site_fract_x
 _atom_site_fract_y
 _atom_site_fract_z
 _atom_site_occupancy
  Ba  Ba0  1  0.121638  0.250000  0.000000  1
  Ba  Ba1  1  0.878362  0.750000  0.000000  1
  Ba  Ba2  1  0.378362  0.750000  0.500000  1
  Ba  Ba3  1  0.621638  0.250000  0.500000  1
  Ho  Ho4  1  0.624791  0.386088  0.073398  1
  Ho  Ho5  1  0.624791  0.113912  0.926602  1
  Ho  Ho6  1  0.375209  0.613912  0.926602  1
  Ho  Ho7  1  0.875209  0.886088  0.426602  1
  Ho  Ho8  1  0.375209  0.886088  0.073398  1
  Ho  Ho9  1  0.875209  0.613912  0.573398  1
  Ho  Ho10  1  0.124791  0.386088  0.426602  1
  Ho  Ho11  1  0.124791  0.113912  0.573398  1
  P  P12  1  0.495765  0.356887  0.896236  1
  P  P13  1  0.934832  0.459212  0.132153  1
  P  P14  1  0.434832  0.459212  0.367847  1
  P  P15  1  0.934832  0.040788  0.867847  1
  P  P16  1  0.065168  0.540788  0.867847  1
  P  P17  1  0.565168  0.959212  0.367847  1
  P  P18  1  0.504235  0.856887  0.896236  1
  P  P19  1  0.495765  0.143113  0.103764  1
  P  P20  1  0.004235  0.856887  0.603764  1
  P  P21  1  0.565168  0.540788  0.632153  1
  P  P22  1  0.995765  0.356887  0.603764  1
  P  P23  1  0.995765  0.143113  0.396236  1
  P  P24  1  0.004235  0.643113  0.396236  1
  P  P25  1  0.504235  0.643113  0.103764  1
  P  P26  1  0.065168  0.959212  0.132153  1
  P  P27  1  0.434832  0.040788  0.632153  1
  Pb  Pb28  1  0.802314  0.074998  0.228303  1
  Pb  Pb29  1  0.697686  0.925002  0.728303  1
  Pb  Pb30  1  0.302314  0.425002  0.728303  1
  Pb  Pb31  1  0.197686  0.925002  0.771697  1
  Pb  Pb32  1  0.802314  0.425002  0.771697  1
  Pb  Pb33  1  0.697686  0.574998  0.271697  1
  Pb  Pb34  1  0.302314  0.074998  0.271697  1
  Pb  Pb35  1  0.197686  0.574998  0.228303  1
  S  S36  1  0.005504  0.482027  0.670223  1
  S  S37  1  0.118750  0.584538  0.966625  1
  S  S38  1  0.934555  0.616199  0.149300  1
  S  S39  1  0.710859  0.607164  0.693059  1
  S  S40  1  0.884201  0.899467  0.153061  1
  S  S41  1  0.429484  0.272298  0.149032  1
  S  S42  1  0.934555  0.883801  0.850700  1
  S  S43  1  0.112846  0.595903  0.482081  1
  S  S44  1  0.682063  0.170914  0.069513  1
  S  S45  1  0.618750  0.915462  0.466625  1
  S  S46  1  0.494496  0.982027  0.829777  1
  S  S47  1  0.065445  0.116199  0.149300  1
  S  S48  1  0.115799  0.100533  0.846939  1
  S  S49  1  0.881250  0.415462  0.033375  1
  S  S50  1  0.070516  0.772298  0.350968  1
  S  S51  1  0.317937  0.829086  0.930487  1
  S  S52  1  0.570516  0.772298  0.149032  1
  S  S53  1  0.289141  0.392836  0.306941  1
  S  S54  1  0.505504  0.017973  0.170223  1
  S  S55  1  0.381250  0.415462  0.466625  1
  S  S56  1  0.182063  0.170914  0.430487  1
  S  S57  1  0.434555  0.883801  0.649300  1
  S  S58  1  0.817937  0.670914  0.430487  1
  S  S59  1  0.434555  0.616199  0.350700  1
  S  S60  1  0.682063  0.329086  0.930487  1
  S  S61  1  0.387154  0.404097  0.982081  1
  S  S62  1  0.789141  0.107164  0.806941  1
  S  S63  1  0.384201  0.899467  0.346939  1
  S  S64  1  0.887154  0.095903  0.482081  1
  S  S65  1  0.070516  0.727702  0.649032  1
  S  S66  1  0.429484  0.227702  0.850968  1
  S  S67  1  0.387154  0.095903  0.017919  1
  S  S68  1  0.929484  0.272298  0.350968  1
  S  S69  1  0.289141  0.107164  0.693059  1
  S  S70  1  0.182063  0.329086  0.569513  1
  S  S71  1  0.005504  0.017973  0.329777  1
  S  S72  1  0.384201  0.600533  0.653061  1
  S  S73  1  0.929484  0.227702  0.649032  1
  S  S74  1  0.994496  0.517973  0.329777  1
  S  S75  1  0.565445  0.116199  0.350700  1
  S  S76  1  0.570516  0.727702  0.850968  1
  S  S77  1  0.817937  0.829086  0.569513  1
  S  S78  1  0.112846  0.904097  0.517919  1
  S  S79  1  0.618750  0.584538  0.533375  1
  S  S80  1  0.118750  0.915462  0.033375  1
  S  S81  1  0.789141  0.392836  0.193059  1
  S  S82  1  0.494496  0.517973  0.170223  1
  S  S83  1  0.381250  0.084538  0.533375  1
  S  S84  1  0.887154  0.404097  0.517919  1
  S  S85  1  0.884201  0.600533  0.846939  1
  S  S86  1  0.210859  0.892836  0.193059  1
  S  S87  1  0.615799  0.100533  0.653061  1
  S  S88  1  0.710859  0.892836  0.306941  1
  S  S89  1  0.210859  0.607164  0.806941  1
  S  S90  1  0.615799  0.399467  0.346939  1
  S  S91  1  0.565445  0.383801  0.649300  1
  S  S92  1  0.505504  0.482027  0.829777  1
  S  S93  1  0.065445  0.383801  0.850700  1
  S  S94  1  0.612846  0.904097  0.982081  1
  S  S95  1  0.317937  0.670914  0.069513  1
  S  S96  1  0.994496  0.982027  0.670223  1
  S  S97  1  0.115799  0.399467  0.153061  1
  S  S98  1  0.881250  0.084538  0.966625  1
  S  S99  1  0.612846  0.595903  0.017919  1
