# generated using pymatgen
data_Au2IBr
_symmetry_space_group_name_H-M   'P 1'
_cell_length_a   4.59406700
_cell_length_b   4.59406700
_cell_length_c   13.76904300
_cell_angle_alpha   90.00000000
_cell_angle_beta   90.00000000
_cell_angle_gamma   90.00000000
_symmetry_Int_Tables_number   1
_chemical_formula_structural   Au2IBr
_chemical_formula_sum   'Au4 I2 Br2'
_cell_volume   290.60187062
_cell_formula_units_Z   2
loop_
 _symmetry_equiv_pos_site_id
 _symmetry_equiv_pos_as_xyz
  1  'x, y, z'
loop_
 _atom_site_type_symbol
 _atom_site_label
 _atom_site_symmetry_multiplicity
 _atom_site_fract_x
 _atom_site_fract_y
 _atom_site_fract_z
 _atom_site_occupancy
  Au  Au0  1  0.241402  0.741402  0.749212  1
  Au  Au1  1  0.758598  0.741402  0.249212  1
  Au  Au2  1  0.241402  0.258598  0.249212  1
  Au  Au3  1  0.758598  0.258598  0.749212  1
  I  I4  1  0.500000  0.000000  0.893651  1
  I  I5  1  0.500000  0.000000  0.393651  1
  Br  Br6  1  0.000000  0.500000  0.107925  1
  Br  Br7  1  0.000000  0.500000  0.607925  1
