# generated using pymatgen
data_Pr4IrIO12
_symmetry_space_group_name_H-M   'P 1'
_cell_length_a   5.49422600
_cell_length_b   9.48830768
_cell_length_c   10.30551300
_cell_angle_alpha   90.00000000
_cell_angle_beta   90.00000000
_cell_angle_gamma   90.19272726
_symmetry_Int_Tables_number   1
_chemical_formula_structural   Pr4IrIO12
_chemical_formula_sum   'Pr8 Ir2 I2 O24'
_cell_volume   537.23269782
_cell_formula_units_Z   2
loop_
 _symmetry_equiv_pos_site_id
 _symmetry_equiv_pos_as_xyz
  1  'x, y, z'
loop_
 _atom_site_type_symbol
 _atom_site_label
 _atom_site_symmetry_multiplicity
 _atom_site_fract_x
 _atom_site_fract_y
 _atom_site_fract_z
 _atom_site_occupancy
  Pr  Pr0  1  0.037809  0.228645  0.136030  1
  Pr  Pr1  1  0.462191  0.771355  0.636030  1
  Pr  Pr2  1  0.971899  0.706014  0.360068  1
  Pr  Pr3  1  0.528101  0.293986  0.860068  1
  Pr  Pr4  1  0.032283  0.119279  0.544846  1
  Pr  Pr5  1  0.467717  0.880721  0.044846  1
  Pr  Pr6  1  0.977418  0.590274  0.958948  1
  Pr  Pr7  1  0.522582  0.409726  0.458948  1
  Ir  Ir8  1  0.458498  0.503505  0.140405  1
  Ir  Ir9  1  0.041502  0.496495  0.640405  1
  I  I10  1  0.547862  0.005275  0.360355  1
  I  I11  1  0.952138  0.994725  0.860355  1
  O  O12  1  0.442585  0.150713  0.475269  1
  O  O13  1  0.057415  0.849287  0.975269  1
  O  O14  1  0.574602  0.646766  0.013745  1
  O  O15  1  0.925398  0.353234  0.513745  1
  O  O16  1  0.727749  0.382435  0.067316  1
  O  O17  1  0.772251  0.617565  0.567316  1
  O  O18  1  0.285227  0.896116  0.435030  1
  O  O19  1  0.214773  0.103884  0.935030  1
  O  O20  1  0.247231  0.404360  0.004782  1
  O  O21  1  0.252769  0.595640  0.504782  1
  O  O22  1  0.748262  0.923510  0.493978  1
  O  O23  1  0.751738  0.076490  0.993978  1
  O  O24  1  0.194891  0.646428  0.172272  1
  O  O25  1  0.305109  0.353572  0.672272  1
  O  O26  1  0.813400  0.128691  0.322329  1
  O  O27  1  0.686600  0.871309  0.822329  1
  O  O28  1  0.348841  0.055658  0.218335  1
  O  O29  1  0.151159  0.944342  0.718335  1
  O  O30  1  0.672581  0.558246  0.284495  1
  O  O31  1  0.827419  0.441754  0.784495  1
  O  O32  1  0.311454  0.367272  0.260510  1
  O  O33  1  0.188546  0.632728  0.760510  1
  O  O34  1  0.669974  0.861813  0.251288  1
  O  O35  1  0.830026  0.138187  0.751288  1
