# generated using pymatgen
data_Nd17Sm(HoSn8)2
_symmetry_space_group_name_H-M   'P 1'
_cell_length_a   8.26922202
_cell_length_b   8.42107177
_cell_length_c   15.95671700
_cell_angle_alpha   90.00000000
_cell_angle_beta   90.00000000
_cell_angle_gamma   89.97898549
_symmetry_Int_Tables_number   1
_chemical_formula_structural   Nd17Sm(HoSn8)2
_chemical_formula_sum   'Nd17 Sm1 Ho2 Sn16'
_cell_volume   1111.15727641
_cell_formula_units_Z   1
loop_
 _symmetry_equiv_pos_site_id
 _symmetry_equiv_pos_as_xyz
  1  'x, y, z'
loop_
 _atom_site_type_symbol
 _atom_site_label
 _atom_site_symmetry_multiplicity
 _atom_site_fract_x
 _atom_site_fract_y
 _atom_site_fract_z
 _atom_site_occupancy
  Nd  Nd0  1  0.017432  0.180915  0.401085  1
  Nd  Nd1  1  0.368481  0.837238  0.120540  1
  Nd  Nd2  1  0.132426  0.336521  0.620591  1
  Nd  Nd3  1  0.481746  0.681447  0.901321  1
  Nd  Nd4  1  0.867743  0.663220  0.121160  1
  Nd  Nd5  1  0.132426  0.336521  0.879409  1
  Nd  Nd6  1  0.481746  0.681447  0.598679  1
  Nd  Nd7  1  0.631207  0.162818  0.620296  1
  Nd  Nd8  1  0.802202  0.497966  0.750000  1
  Nd  Nd9  1  0.867743  0.663220  0.378840  1
  Nd  Nd10  1  0.017432  0.180915  0.098915  1
  Nd  Nd11  1  0.982702  0.819476  0.901249  1
  Nd  Nd12  1  0.631207  0.162818  0.879704  1
  Nd  Nd13  1  0.518033  0.318857  0.099074  1
  Nd  Nd14  1  0.368481  0.837238  0.379460  1
  Nd  Nd15  1  0.982702  0.819476  0.598751  1
  Nd  Nd16  1  0.518033  0.318857  0.400926  1
  Sm  Sm17  1  0.198722  0.502113  0.250000  1
  Ho  Ho18  1  0.699716  0.998092  0.250000  1
  Ho  Ho19  1  0.300454  0.002256  0.750000  1
  Sn  Sn20  1  0.791561  0.463693  0.541718  1
  Sn  Sn21  1  0.708454  0.964704  0.456233  1
  Sn  Sn22  1  0.674881  0.858254  0.750000  1
  Sn  Sn23  1  0.208360  0.535201  0.456802  1
  Sn  Sn24  1  0.291694  0.035200  0.956434  1
  Sn  Sn25  1  0.823871  0.353718  0.250000  1
  Sn  Sn26  1  0.791561  0.463693  0.958282  1
  Sn  Sn27  1  0.566093  0.617036  0.250000  1
  Sn  Sn28  1  0.208360  0.535201  0.043198  1
  Sn  Sn29  1  0.431639  0.382454  0.750000  1
  Sn  Sn30  1  0.177735  0.646844  0.750000  1
  Sn  Sn31  1  0.935974  0.114561  0.750000  1
  Sn  Sn32  1  0.291694  0.035200  0.543566  1
  Sn  Sn33  1  0.708454  0.964704  0.043767  1
  Sn  Sn34  1  0.324136  0.144289  0.250000  1
  Sn  Sn35  1  0.064904  0.883843  0.250000  1
