# generated using pymatgen
data_AlCo20ReB6W
_symmetry_space_group_name_H-M   'P 1'
_cell_length_a   7.40259497
_cell_length_b   7.40259480
_cell_length_c   7.40259500
_cell_angle_alpha   59.99999466
_cell_angle_beta   59.99999539
_cell_angle_gamma   59.99999619
_symmetry_Int_Tables_number   1
_chemical_formula_structural   AlCo20ReB6W
_chemical_formula_sum   'Al1 Co20 Re1 B6 W1'
_cell_volume   286.83814973
_cell_formula_units_Z   1
loop_
 _symmetry_equiv_pos_site_id
 _symmetry_equiv_pos_as_xyz
  1  'x, y, z'
loop_
 _atom_site_type_symbol
 _atom_site_label
 _atom_site_symmetry_multiplicity
 _atom_site_fract_x
 _atom_site_fract_y
 _atom_site_fract_z
 _atom_site_occupancy
  Al  Al0  1  0.000000  0.000000  0.000000  1
  Co  Co1  1  0.617118  0.617118  0.148648  1
  Co  Co2  1  0.617118  0.148648  0.617118  1
  Co  Co3  1  0.148648  0.617118  0.617118  1
  Co  Co4  1  0.617118  0.617118  0.617118  1
  Co  Co5  1  0.381031  0.381031  0.856905  1
  Co  Co6  1  0.381031  0.856905  0.381031  1
  Co  Co7  1  0.856905  0.381031  0.381031  1
  Co  Co8  1  0.381031  0.381031  0.381031  1
  Co  Co9  1  0.000096  0.000096  0.342045  1
  Co  Co10  1  0.657763  0.000096  0.342045  1
  Co  Co11  1  0.000096  0.657763  0.342045  1
  Co  Co12  1  0.657763  0.342045  0.000096  1
  Co  Co13  1  0.000096  0.342045  0.000096  1
  Co  Co14  1  0.000096  0.342045  0.657763  1
  Co  Co15  1  0.342045  0.657763  0.000096  1
  Co  Co16  1  0.342045  0.000096  0.657763  1
  Co  Co17  1  0.342045  0.000096  0.000096  1
  Co  Co18  1  0.000096  0.000096  0.657763  1
  Co  Co19  1  0.000096  0.657763  0.000096  1
  Co  Co20  1  0.657763  0.000096  0.000096  1
  Re  Re21  1  0.250000  0.250000  0.250000  1
  B  B22  1  0.724058  0.724058  0.275942  1
  B  B23  1  0.275942  0.724058  0.275942  1
  B  B24  1  0.724058  0.275942  0.275942  1
  B  B25  1  0.275942  0.275942  0.724058  1
  B  B26  1  0.724058  0.275942  0.724058  1
  B  B27  1  0.275942  0.724058  0.724058  1
  W  W28  1  0.750000  0.750000  0.750000  1
