# generated using pymatgen
data_Tb3ThSe6
_symmetry_space_group_name_H-M   'P 1'
_cell_length_a   11.25427400
_cell_length_b   4.06938200
_cell_length_c   11.03082200
_cell_angle_alpha   90.00000000
_cell_angle_beta   90.00000000
_cell_angle_gamma   90.00000000
_symmetry_Int_Tables_number   1
_chemical_formula_structural   Tb3ThSe6
_chemical_formula_sum   'Tb6 Th2 Se12'
_cell_volume   505.18892453
_cell_formula_units_Z   2
loop_
 _symmetry_equiv_pos_site_id
 _symmetry_equiv_pos_as_xyz
  1  'x, y, z'
loop_
 _atom_site_type_symbol
 _atom_site_label
 _atom_site_symmetry_multiplicity
 _atom_site_fract_x
 _atom_site_fract_y
 _atom_site_fract_z
 _atom_site_occupancy
  Tb  Tb0  1  0.484126  0.250000  0.186579  1
  Tb  Tb1  1  0.984126  0.250000  0.313421  1
  Tb  Tb2  1  0.512474  0.750000  0.811437  1
  Tb  Tb3  1  0.012474  0.750000  0.688563  1
  Tb  Tb4  1  0.695986  0.750000  0.495808  1
  Tb  Tb5  1  0.195986  0.750000  0.004192  1
  Th  Th6  1  0.307068  0.250000  0.496737  1
  Th  Th7  1  0.807068  0.250000  0.003263  1
  Se  Se8  1  0.548243  0.250000  0.625609  1
  Se  Se9  1  0.048243  0.250000  0.874391  1
  Se  Se10  1  0.457054  0.750000  0.371249  1
  Se  Se11  1  0.957054  0.750000  0.128751  1
  Se  Se12  1  0.615682  0.750000  0.053162  1
  Se  Se13  1  0.115682  0.750000  0.446838  1
  Se  Se14  1  0.379269  0.250000  0.945981  1
  Se  Se15  1  0.879269  0.250000  0.554019  1
  Se  Se16  1  0.725283  0.250000  0.297784  1
  Se  Se17  1  0.225283  0.250000  0.202216  1
  Se  Se18  1  0.274816  0.750000  0.698590  1
  Se  Se19  1  0.774816  0.750000  0.801410  1
