# generated using pymatgen
data_La10In(HgRu2)3
_symmetry_space_group_name_H-M   'P 1'
_cell_length_a   8.83427678
_cell_length_b   8.74746497
_cell_length_c   8.74746500
_cell_angle_alpha   109.26932059
_cell_angle_beta   109.67237950
_cell_angle_gamma   109.67238099
_symmetry_Int_Tables_number   1
_chemical_formula_structural   La10In(HgRu2)3
_chemical_formula_sum   'La10 In1 Hg3 Ru6'
_cell_volume   519.07403271
_cell_formula_units_Z   1
loop_
 _symmetry_equiv_pos_site_id
 _symmetry_equiv_pos_as_xyz
  1  'x, y, z'
loop_
 _atom_site_type_symbol
 _atom_site_label
 _atom_site_symmetry_multiplicity
 _atom_site_fract_x
 _atom_site_fract_y
 _atom_site_fract_z
 _atom_site_occupancy
  La  La0  1  0.790603  0.000000  0.000000  1
  La  La1  1  0.248360  0.312462  0.062723  1
  La  La2  1  0.710210  0.710145  0.209199  1
  La  La3  1  0.185638  0.937277  0.249740  1
  La  La4  1  0.000065  0.499055  0.289856  1
  La  La5  1  0.751714  0.187538  0.439714  1
  La  La6  1  0.501011  0.790803  0.500947  1
  La  La7  1  0.935898  0.750260  0.687538  1
  La  La8  1  0.311999  0.560286  0.747824  1
  La  La9  1  0.564175  0.252176  0.812461  1
  In  In10  1  0.409777  0.000000  0.000000  1
  Hg  Hg11  1  0.500207  0.410795  0.498736  1
  Hg  Hg12  1  0.089412  0.087940  0.589205  1
  Hg  Hg13  1  0.001471  0.501264  0.912060  1
  Ru  Ru14  1  0.394124  0.755934  0.140040  1
  Ru  Ru15  1  0.638189  0.384107  0.244066  1
  Ru  Ru16  1  0.108316  0.253779  0.358103  1
  Ru  Ru17  1  0.254082  0.859960  0.615894  1
  Ru  Ru18  1  0.854536  0.104324  0.746221  1
  Ru  Ru19  1  0.750213  0.641897  0.895676  1
