# generated using pymatgen
data_YbY7(Lu3Pt4)4
_symmetry_space_group_name_H-M   'P 1'
_cell_length_a   7.43651669
_cell_length_b   7.50783101
_cell_length_c   14.53298976
_cell_angle_alpha   90.05594462
_cell_angle_beta   90.09528841
_cell_angle_gamma   89.93723831
_symmetry_Int_Tables_number   1
_chemical_formula_structural   YbY7(Lu3Pt4)4
_chemical_formula_sum   'Yb1 Y7 Lu12 Pt16'
_cell_volume   811.40549756
_cell_formula_units_Z   1
loop_
 _symmetry_equiv_pos_site_id
 _symmetry_equiv_pos_as_xyz
  1  'x, y, z'
loop_
 _atom_site_type_symbol
 _atom_site_label
 _atom_site_symmetry_multiplicity
 _atom_site_fract_x
 _atom_site_fract_y
 _atom_site_fract_z
 _atom_site_occupancy
  Yb  Yb0  1  0.001339  0.821467  0.406385  1
  Y  Y1  1  0.500860  0.677853  0.094722  1
  Y  Y2  1  0.500665  0.321910  0.592498  1
  Y  Y3  1  0.999777  0.178739  0.905840  1
  Y  Y4  1  0.999305  0.178347  0.594278  1
  Y  Y5  1  0.500025  0.321294  0.906248  1
  Y  Y6  1  0.500929  0.678132  0.406312  1
  Y  Y7  1  0.001140  0.822021  0.094081  1
  Lu  Lu8  1  0.682762  0.991364  0.250782  1
  Lu  Lu9  1  0.180639  0.508705  0.250641  1
  Lu  Lu10  1  0.818875  0.491460  0.749868  1
  Lu  Lu11  1  0.318060  0.009023  0.750143  1
  Lu  Lu12  1  0.655852  0.833030  0.622879  1
  Lu  Lu13  1  0.155302  0.666607  0.877775  1
  Lu  Lu14  1  0.844976  0.334364  0.377453  1
  Lu  Lu15  1  0.344723  0.166651  0.121819  1
  Lu  Lu16  1  0.343311  0.164224  0.377568  1
  Lu  Lu17  1  0.843802  0.334175  0.122042  1
  Lu  Lu18  1  0.155100  0.667567  0.621318  1
  Lu  Lu19  1  0.655049  0.833662  0.877476  1
  Pt  Pt20  1  0.813060  0.638238  0.247560  1
  Pt  Pt21  1  0.315869  0.860251  0.248506  1
  Pt  Pt22  1  0.684585  0.140062  0.750228  1
  Pt  Pt23  1  0.185076  0.361775  0.750157  1
  Pt  Pt24  1  0.543303  0.377166  0.250213  1
  Pt  Pt25  1  0.047076  0.122932  0.248434  1
  Pt  Pt26  1  0.953104  0.877755  0.749991  1
  Pt  Pt27  1  0.453352  0.621729  0.750188  1
  Pt  Pt28  1  0.818623  0.532936  0.543438  1
  Pt  Pt29  1  0.318780  0.963904  0.957642  1
  Pt  Pt30  1  0.676474  0.039608  0.458535  1
  Pt  Pt31  1  0.180759  0.465126  0.042427  1
  Pt  Pt32  1  0.184018  0.460311  0.458308  1
  Pt  Pt33  1  0.681056  0.035284  0.041862  1
  Pt  Pt34  1  0.323557  0.966546  0.545509  1
  Pt  Pt35  1  0.818816  0.535782  0.956872  1
