# generated using pymatgen
data_HoTm7Mn2(B12Ru)2
_symmetry_space_group_name_H-M   'P 1'
_cell_length_a   3.57335800
_cell_length_b   9.05059427
_cell_length_c   11.42369301
_cell_angle_alpha   89.98342143
_cell_angle_beta   90.00000000
_cell_angle_gamma   90.00000000
_symmetry_Int_Tables_number   1
_chemical_formula_structural   HoTm7Mn2(B12Ru)2
_chemical_formula_sum   'Ho1 Tm7 Mn2 B24 Ru2'
_cell_volume   369.45379390
_cell_formula_units_Z   1
loop_
 _symmetry_equiv_pos_site_id
 _symmetry_equiv_pos_as_xyz
  1  'x, y, z'
loop_
 _atom_site_type_symbol
 _atom_site_label
 _atom_site_symmetry_multiplicity
 _atom_site_fract_x
 _atom_site_fract_y
 _atom_site_fract_z
 _atom_site_occupancy
  Ho  Ho0  1  0.000000  0.326405  0.416356  1
  Tm  Tm1  1  0.000000  0.673603  0.583491  1
  Tm  Tm2  1  0.000000  0.820087  0.087490  1
  Tm  Tm3  1  0.000000  0.179901  0.912505  1
  Tm  Tm4  1  0.000000  0.939763  0.370845  1
  Tm  Tm5  1  0.000000  0.059894  0.629262  1
  Tm  Tm6  1  0.000000  0.445214  0.131290  1
  Tm  Tm7  1  0.000000  0.554910  0.868670  1
  Mn  Mn8  1  0.000000  0.638234  0.320258  1
  Mn  Mn9  1  0.000000  0.362089  0.679849  1
  B  B10  1  0.500000  0.554265  0.432586  1
  B  B11  1  0.500000  0.446364  0.567690  1
  B  B12  1  0.500000  0.053377  0.066590  1
  B  B13  1  0.500000  0.946571  0.933364  1
  B  B14  1  0.500000  0.746626  0.418027  1
  B  B15  1  0.500000  0.253414  0.582452  1
  B  B16  1  0.500000  0.249488  0.080815  1
  B  B17  1  0.500000  0.750507  0.919105  1
  B  B18  1  0.500000  0.789762  0.265704  1
  B  B19  1  0.500000  0.210147  0.734431  1
  B  B20  1  0.500000  0.292009  0.235363  1
  B  B21  1  0.500000  0.707815  0.764259  1
  B  B22  1  0.500000  0.631203  0.186269  1
  B  B23  1  0.500000  0.368949  0.813727  1
  B  B24  1  0.500000  0.130626  0.315264  1
  B  B25  1  0.500000  0.869002  0.684500  1
  B  B26  1  0.500000  0.981203  0.212440  1
  B  B27  1  0.500000  0.018664  0.787542  1
  B  B28  1  0.500000  0.485131  0.288759  1
  B  B29  1  0.500000  0.515513  0.711165  1
  B  B30  1  0.500000  0.603220  0.028540  1
  B  B31  1  0.500000  0.396821  0.971399  1
  B  B32  1  0.500000  0.103125  0.471672  1
  B  B33  1  0.500000  0.896249  0.528488  1
  Ru  Ru34  1  0.000000  0.137842  0.178847  1
  Ru  Ru35  1  0.000000  0.862008  0.820987  1
