# generated using pymatgen
data_NdFe3B4Os
_symmetry_space_group_name_H-M   'P 1'
_cell_length_a   7.13084500
_cell_length_b   7.32033667
_cell_length_c   3.86287600
_cell_angle_alpha   90.00000000
_cell_angle_beta   90.00000000
_cell_angle_gamma   91.27523182
_symmetry_Int_Tables_number   1
_chemical_formula_structural   NdFe3B4Os
_chemical_formula_sum   'Nd2 Fe6 B8 Os2'
_cell_volume   201.59290401
_cell_formula_units_Z   2
loop_
 _symmetry_equiv_pos_site_id
 _symmetry_equiv_pos_as_xyz
  1  'x, y, z'
loop_
 _atom_site_type_symbol
 _atom_site_label
 _atom_site_symmetry_multiplicity
 _atom_site_fract_x
 _atom_site_fract_y
 _atom_site_fract_z
 _atom_site_occupancy
  Nd  Nd0  1  0.000000  0.000000  0.937281  1
  Nd  Nd1  1  0.500000  0.500000  0.429964  1
  Fe  Fe2  1  0.891778  0.347557  0.395481  1
  Fe  Fe3  1  0.108222  0.652443  0.395481  1
  Fe  Fe4  1  0.377593  0.110114  0.618901  1
  Fe  Fe5  1  0.622407  0.889886  0.618901  1
  Fe  Fe6  1  0.617924  0.123656  0.119447  1
  Fe  Fe7  1  0.382076  0.876344  0.119447  1
  B  B8  1  0.659741  0.816332  0.119035  1
  B  B9  1  0.340259  0.183668  0.119035  1
  B  B10  1  0.311578  0.833550  0.616222  1
  B  B11  1  0.688422  0.166450  0.616222  1
  B  B12  1  0.828409  0.729667  0.401988  1
  B  B13  1  0.171591  0.270333  0.401988  1
  B  B14  1  0.211925  0.670717  0.898436  1
  B  B15  1  0.788075  0.329283  0.898436  1
  Os  Os16  1  0.146347  0.389321  0.896865  1
  Os  Os17  1  0.853653  0.610679  0.896865  1
