# generated using pymatgen
data_Sr4Ni(OsO6)2
_symmetry_space_group_name_H-M   'P 1'
_cell_length_a   5.58488613
_cell_length_b   5.58488600
_cell_length_c   9.56696526
_cell_angle_alpha   73.02921900
_cell_angle_beta   106.97077982
_cell_angle_gamma   119.99999653
_symmetry_Int_Tables_number   1
_chemical_formula_structural   Sr4Ni(OsO6)2
_chemical_formula_sum   'Sr4 Ni1 Os2 O12'
_cell_volume   243.30418314
_cell_formula_units_Z   1
loop_
 _symmetry_equiv_pos_site_id
 _symmetry_equiv_pos_as_xyz
  1  'x, y, z'
loop_
 _atom_site_type_symbol
 _atom_site_label
 _atom_site_symmetry_multiplicity
 _atom_site_fract_x
 _atom_site_fract_y
 _atom_site_fract_z
 _atom_site_occupancy
  Sr  Sr0  1  0.708211  0.291788  0.124637  1
  Sr  Sr1  1  0.131647  0.868352  0.394941  1
  Sr  Sr2  1  0.868352  0.131646  0.605059  1
  Sr  Sr3  1  0.291788  0.708211  0.875364  1
  Ni  Ni4  1  0.000000  0.000000  0.000000  1
  Os  Os5  1  0.420429  0.579571  0.261286  1
  Os  Os6  1  0.579572  0.420428  0.738714  1
  O  O7  1  0.216331  0.301831  0.130829  1
  O  O8  1  0.698168  0.783669  0.130829  1
  O  O9  1  0.216331  0.783669  0.130829  1
  O  O10  1  0.130974  0.379771  0.371433  1
  O  O11  1  0.620230  0.379772  0.371433  1
  O  O12  1  0.620230  0.869027  0.371433  1
  O  O13  1  0.379771  0.130975  0.628567  1
  O  O14  1  0.869027  0.620229  0.628567  1
  O  O15  1  0.379771  0.620230  0.628567  1
  O  O16  1  0.783668  0.216330  0.869170  1
  O  O17  1  0.301830  0.216330  0.869170  1
  O  O18  1  0.783668  0.698168  0.869170  1
