# generated using pymatgen
data_Th3Mg2AlAu3
_symmetry_space_group_name_H-M   'P 1'
_cell_length_a   7.42799384
_cell_length_b   7.40216944
_cell_length_c   4.47366400
_cell_angle_alpha   90.00000000
_cell_angle_beta   90.00000000
_cell_angle_gamma   119.88506880
_symmetry_Int_Tables_number   1
_chemical_formula_structural   Th3Mg2AlAu3
_chemical_formula_sum   'Th3 Mg2 Al1 Au3'
_cell_volume   213.26832281
_cell_formula_units_Z   1
loop_
 _symmetry_equiv_pos_site_id
 _symmetry_equiv_pos_as_xyz
  1  'x, y, z'
loop_
 _atom_site_type_symbol
 _atom_site_label
 _atom_site_symmetry_multiplicity
 _atom_site_fract_x
 _atom_site_fract_y
 _atom_site_fract_z
 _atom_site_occupancy
  Th  Th0  1  0.417698  0.418884  0.500000  1
  Th  Th1  1  0.582302  0.001186  0.500000  1
  Th  Th2  1  0.000000  0.572176  0.500000  1
  Mg  Mg3  1  0.761940  0.762991  0.000000  1
  Mg  Mg4  1  0.238060  0.001052  0.000000  1
  Al  Al5  1  0.000000  0.241985  0.000000  1
  Au  Au6  1  0.669143  0.333060  0.000000  1
  Au  Au7  1  0.330857  0.663920  0.000000  1
  Au  Au8  1  0.000000  0.004745  0.500000  1
