# generated using pymatgen
data_Pr4ScAl19Pt12
_symmetry_space_group_name_H-M   'P 1'
_cell_length_a   4.17040900
_cell_length_b   7.46473559
_cell_length_c   20.77137059
_cell_angle_alpha   89.74917432
_cell_angle_beta   90.00000000
_cell_angle_gamma   90.00000000
_symmetry_Int_Tables_number   1
_chemical_formula_structural   Pr4ScAl19Pt12
_chemical_formula_sum   'Pr4 Sc1 Al19 Pt12'
_cell_volume   646.62735142
_cell_formula_units_Z   1
loop_
 _symmetry_equiv_pos_site_id
 _symmetry_equiv_pos_as_xyz
  1  'x, y, z'
loop_
 _atom_site_type_symbol
 _atom_site_label
 _atom_site_symmetry_multiplicity
 _atom_site_fract_x
 _atom_site_fract_y
 _atom_site_fract_z
 _atom_site_occupancy
  Pr  Pr0  1  0.250000  0.118213  0.641131  1
  Pr  Pr1  1  0.750000  0.878553  0.358669  1
  Pr  Pr2  1  0.250000  0.383287  0.138376  1
  Pr  Pr3  1  0.750000  0.618757  0.860067  1
  Sc  Sc4  1  0.750000  0.363823  0.383129  1
  Al  Al5  1  0.750000  0.887295  0.982755  1
  Al  Al6  1  0.750000  0.687509  0.200120  1
  Al  Al7  1  0.250000  0.869790  0.496214  1
  Al  Al8  1  0.250000  0.631686  0.991233  1
  Al  Al9  1  0.250000  0.312256  0.799376  1
  Al  Al10  1  0.750000  0.072150  0.208358  1
  Al  Al11  1  0.250000  0.640829  0.617051  1
  Al  Al12  1  0.250000  0.571788  0.291343  1
  Al  Al13  1  0.250000  0.182451  0.296416  1
  Al  Al14  1  0.750000  0.146457  0.883943  1
  Al  Al15  1  0.250000  0.923750  0.791760  1
  Al  Al16  1  0.750000  0.369155  0.008048  1
  Al  Al17  1  0.750000  0.623535  0.486103  1
  Al  Al18  1  0.750000  0.129282  0.510369  1
  Al  Al19  1  0.250000  0.113793  0.017109  1
  Al  Al20  1  0.250000  0.852818  0.115501  1
  Al  Al21  1  0.250000  0.386666  0.513990  1
  Al  Al22  1  0.750000  0.424189  0.708107  1
  Al  Al23  1  0.750000  0.812375  0.702305  1
  Pt  Pt24  1  0.750000  0.380413  0.257159  1
  Pt  Pt25  1  0.250000  0.879184  0.236290  1
  Pt  Pt26  1  0.250000  0.616270  0.737771  1
  Pt  Pt27  1  0.750000  0.117272  0.763458  1
  Pt  Pt28  1  0.250000  0.151889  0.428512  1
  Pt  Pt29  1  0.750000  0.420614  0.583353  1
  Pt  Pt30  1  0.750000  0.077186  0.084322  1
  Pt  Pt31  1  0.250000  0.923513  0.915963  1
  Pt  Pt32  1  0.750000  0.837894  0.575782  1
  Pt  Pt33  1  0.250000  0.336531  0.928057  1
  Pt  Pt34  1  0.750000  0.663717  0.071629  1
  Pt  Pt35  1  0.250000  0.595111  0.416229  1
