# generated using pymatgen
data_Pm3C3Br
_symmetry_space_group_name_H-M   'P 1'
_cell_length_a   3.98864893
_cell_length_b   3.83392099
_cell_length_c   11.01440916
_cell_angle_alpha   100.18196124
_cell_angle_beta   97.88801846
_cell_angle_gamma   118.80467371
_symmetry_Int_Tables_number   1
_chemical_formula_structural   Pm3C3Br
_chemical_formula_sum   'Pm3 C3 Br1'
_cell_volume   140.35556868
_cell_formula_units_Z   1
loop_
 _symmetry_equiv_pos_site_id
 _symmetry_equiv_pos_as_xyz
  1  'x, y, z'
loop_
 _atom_site_type_symbol
 _atom_site_label
 _atom_site_symmetry_multiplicity
 _atom_site_fract_x
 _atom_site_fract_y
 _atom_site_fract_z
 _atom_site_occupancy
  Pm  Pm0  1  0.221972  0.651477  0.044484  1
  Pm  Pm1  1  0.080525  0.216494  0.308880  1
  Pm  Pm2  1  0.481914  0.629174  0.752452  1
  C  C3  1  0.542896  0.244878  0.915852  1
  C  C4  1  0.650981  0.448799  0.205577  1
  C  C5  1  0.165226  0.023749  0.853428  1
  Br  Br6  1  0.622934  0.095880  0.539448  1
