# generated using pymatgen
data_Nb3Co7Ir2
_symmetry_space_group_name_H-M   'P 1'
_cell_length_a   7.07180199
_cell_length_b   7.07180230
_cell_length_c   7.05884727
_cell_angle_alpha   43.82695859
_cell_angle_beta   43.82695633
_cell_angle_gamma   44.06509584
_symmetry_Int_Tables_number   1
_chemical_formula_structural   Nb3Co7Ir2
_chemical_formula_sum   'Nb3 Co7 Ir2'
_cell_volume   154.16504763
_cell_formula_units_Z   1
loop_
 _symmetry_equiv_pos_site_id
 _symmetry_equiv_pos_as_xyz
  1  'x, y, z'
loop_
 _atom_site_type_symbol
 _atom_site_label
 _atom_site_symmetry_multiplicity
 _atom_site_fract_x
 _atom_site_fract_y
 _atom_site_fract_z
 _atom_site_occupancy
  Nb  Nb0  1  0.005136  0.005136  0.996427  1
  Nb  Nb1  1  0.214394  0.214394  0.219551  1
  Nb  Nb2  1  0.786929  0.786929  0.769155  1
  Co  Co3  1  0.281663  0.758434  0.290966  1
  Co  Co4  1  0.758434  0.281663  0.290966  1
  Co  Co5  1  0.496719  0.004629  0.501061  1
  Co  Co6  1  0.004629  0.496719  0.501061  1
  Co  Co7  1  0.235010  0.715381  0.716389  1
  Co  Co8  1  0.715381  0.235010  0.716389  1
  Co  Co9  1  0.287873  0.287873  0.756534  1
  Ir  Ir10  1  0.499466  0.499466  0.001592  1
  Ir  Ir11  1  0.714367  0.714367  0.239909  1
