# generated using pymatgen
data_La13PrNd2Mg2(HgRu2)2
_symmetry_space_group_name_H-M   'P 1'
_cell_length_a   10.10167463
_cell_length_b   10.06507706
_cell_length_c   10.04443961
_cell_angle_alpha   60.08491234
_cell_angle_beta   59.94679224
_cell_angle_gamma   59.74436899
_symmetry_Int_Tables_number   1
_chemical_formula_structural   La13PrNd2Mg2(HgRu2)2
_chemical_formula_sum   'La13 Pr1 Nd2 Mg2 Hg2 Ru4'
_cell_volume   720.90408274
_cell_formula_units_Z   1
loop_
 _symmetry_equiv_pos_site_id
 _symmetry_equiv_pos_as_xyz
  1  'x, y, z'
loop_
 _atom_site_type_symbol
 _atom_site_label
 _atom_site_symmetry_multiplicity
 _atom_site_fract_x
 _atom_site_fract_y
 _atom_site_fract_z
 _atom_site_occupancy
  La  La0  1  0.189338  0.810662  0.810662  1
  La  La1  1  0.596985  0.595839  0.210713  1
  La  La2  1  0.441302  0.058698  0.058698  1
  La  La3  1  0.060647  0.439059  0.061776  1
  La  La4  1  0.438520  0.061776  0.439059  1
  La  La5  1  0.215911  0.593441  0.594487  1
  La  La6  1  0.062174  0.437826  0.437826  1
  La  La7  1  0.596464  0.210713  0.595839  1
  La  La8  1  0.596162  0.594487  0.593441  1
  La  La9  1  0.189958  0.812578  0.187006  1
  La  La10  1  0.810458  0.187006  0.812578  1
  La  La11  1  0.061402  0.062006  0.438841  1
  La  La12  1  0.437750  0.438841  0.062006  1
  Pr  Pr13  1  0.811609  0.188391  0.188391  1
  Nd  Nd14  1  0.190111  0.186985  0.812422  1
  Nd  Nd15  1  0.810482  0.812422  0.186985  1
  Mg  Mg16  1  0.824048  0.523617  0.829059  1
  Mg  Mg17  1  0.823275  0.829059  0.523617  1
  Hg  Hg18  1  0.836611  0.829157  0.830639  1
  Hg  Hg19  1  0.503595  0.830639  0.829157  1
  Ru  Ru20  1  0.840614  0.386181  0.386025  1
  Ru  Ru21  1  0.387180  0.386025  0.386181  1
  Ru  Ru22  1  0.387576  0.838553  0.386044  1
  Ru  Ru23  1  0.387825  0.386044  0.838553  1
