# generated using pymatgen
data_Ga2Hg2I3Cl5
_symmetry_space_group_name_H-M   'P 1'
_cell_length_a   7.16530567
_cell_length_b   7.15786687
_cell_length_c   10.37963093
_cell_angle_alpha   83.23789889
_cell_angle_beta   77.61877066
_cell_angle_gamma   62.52326044
_symmetry_Int_Tables_number   1
_chemical_formula_structural   Ga2Hg2I3Cl5
_chemical_formula_sum   'Ga2 Hg2 I3 Cl5'
_cell_volume   461.20987838
_cell_formula_units_Z   1
loop_
 _symmetry_equiv_pos_site_id
 _symmetry_equiv_pos_as_xyz
  1  'x, y, z'
loop_
 _atom_site_type_symbol
 _atom_site_label
 _atom_site_symmetry_multiplicity
 _atom_site_fract_x
 _atom_site_fract_y
 _atom_site_fract_z
 _atom_site_occupancy
  Ga  Ga0  1  0.370867  0.864847  0.756347  1
  Ga  Ga1  1  0.631455  0.136045  0.236476  1
  Hg  Hg2  1  0.916201  0.517805  0.892963  1
  Hg  Hg3  1  0.077258  0.489898  0.104423  1
  I  I4  1  0.755068  0.543712  0.668701  1
  I  I5  1  0.244539  0.442472  0.329984  1
  I  I6  1  0.328613  0.832262  0.007948  1
  Cl  Cl7  1  0.665472  0.175357  0.021288  1
  Cl  Cl8  1  0.143168  0.812471  0.675061  1
  Cl  Cl9  1  0.856869  0.189561  0.319037  1
  Cl  Cl10  1  0.383110  0.159341  0.685786  1
  Cl  Cl11  1  0.627381  0.836229  0.301986  1
