# generated using pymatgen
data_YMg4P12Ru19
_symmetry_space_group_name_H-M   'P 1'
_cell_length_a   12.42635000
_cell_length_b   12.42635019
_cell_length_c   3.95401700
_cell_angle_alpha   90.00000000
_cell_angle_beta   90.00000000
_cell_angle_gamma   119.99999948
_symmetry_Int_Tables_number   1
_chemical_formula_structural   YMg4P12Ru19
_chemical_formula_sum   'Y1 Mg4 P12 Ru19'
_cell_volume   528.75725152
_cell_formula_units_Z   1
loop_
 _symmetry_equiv_pos_site_id
 _symmetry_equiv_pos_as_xyz
  1  'x, y, z'
loop_
 _atom_site_type_symbol
 _atom_site_label
 _atom_site_symmetry_multiplicity
 _atom_site_fract_x
 _atom_site_fract_y
 _atom_site_fract_z
 _atom_site_occupancy
  Y  Y0  1  0.333333  0.666667  0.000000  1
  Mg  Mg1  1  0.185986  0.185983  0.500000  1
  Mg  Mg2  1  0.814017  0.000003  0.500000  1
  Mg  Mg3  1  0.999997  0.814014  0.500000  1
  Mg  Mg4  1  0.666667  0.333333  0.000000  1
  P  P5  1  0.820638  0.820082  0.000000  1
  P  P6  1  0.179918  0.000556  0.000000  1
  P  P7  1  0.999444  0.179362  0.000000  1
  P  P8  1  0.172401  0.471360  0.500000  1
  P  P9  1  0.528640  0.701040  0.500000  1
  P  P10  1  0.298960  0.827599  0.500000  1
  P  P11  1  0.702033  0.533025  0.500000  1
  P  P12  1  0.830991  0.297967  0.500000  1
  P  P13  1  0.466975  0.169009  0.500000  1
  P  P14  1  0.388292  0.386552  0.000000  1
  P  P15  1  0.613448  0.001740  0.000000  1
  P  P16  1  0.998260  0.611708  0.000000  1
  Ru  Ru17  1  0.566328  0.567890  0.000000  1
  Ru  Ru18  1  0.432110  0.998439  0.000000  1
  Ru  Ru19  1  0.001561  0.433672  0.000000  1
  Ru  Ru20  1  0.728243  0.729308  0.500000  1
  Ru  Ru21  1  0.270692  0.998935  0.500000  1
  Ru  Ru22  1  0.001065  0.271757  0.500000  1
  Ru  Ru23  1  0.189990  0.363148  0.000000  1
  Ru  Ru24  1  0.636852  0.826842  0.000000  1
  Ru  Ru25  1  0.173158  0.810010  0.000000  1
  Ru  Ru26  1  0.824009  0.634333  0.000000  1
  Ru  Ru27  1  0.810323  0.175991  0.000000  1
  Ru  Ru28  1  0.365667  0.189677  0.000000  1
  Ru  Ru29  1  0.371834  0.495030  0.500000  1
  Ru  Ru30  1  0.504970  0.876804  0.500000  1
  Ru  Ru31  1  0.123196  0.628166  0.500000  1
  Ru  Ru32  1  0.867443  0.496072  0.500000  1
  Ru  Ru33  1  0.628628  0.132557  0.500000  1
  Ru  Ru34  1  0.503928  0.371372  0.500000  1
  Ru  Ru35  1  0.000000  0.000000  0.000000  1
