# generated using pymatgen
data_Ca4InRh7
_symmetry_space_group_name_H-M   'P 1'
_cell_length_a   5.48321900
_cell_length_b   5.48321743
_cell_length_c   8.67217900
_cell_angle_alpha   90.00000000
_cell_angle_beta   90.00000000
_cell_angle_gamma   119.99999138
_symmetry_Int_Tables_number   1
_chemical_formula_structural   Ca4InRh7
_chemical_formula_sum   'Ca4 In1 Rh7'
_cell_volume   225.80313242
_cell_formula_units_Z   1
loop_
 _symmetry_equiv_pos_site_id
 _symmetry_equiv_pos_as_xyz
  1  'x, y, z'
loop_
 _atom_site_type_symbol
 _atom_site_label
 _atom_site_symmetry_multiplicity
 _atom_site_fract_x
 _atom_site_fract_y
 _atom_site_fract_z
 _atom_site_occupancy
  Ca  Ca0  1  0.333333  0.666667  0.064356  1
  Ca  Ca1  1  0.666667  0.333333  0.574566  1
  Ca  Ca2  1  0.666667  0.333333  0.935644  1
  Ca  Ca3  1  0.333333  0.666667  0.425434  1
  In  In4  1  0.000000  0.000000  0.500000  1
  Rh  Rh5  1  0.000000  0.000000  0.000000  1
  Rh  Rh6  1  0.828283  0.656567  0.244962  1
  Rh  Rh7  1  0.171717  0.828283  0.755038  1
  Rh  Rh8  1  0.656567  0.828283  0.755038  1
  Rh  Rh9  1  0.343433  0.171717  0.244962  1
  Rh  Rh10  1  0.828283  0.171717  0.244962  1
  Rh  Rh11  1  0.171717  0.343433  0.755038  1
