# generated using pymatgen
data_MgV5(SiOs2)6
_symmetry_space_group_name_H-M   'P 1'
_cell_length_a   4.23211300
_cell_length_b   5.98367800
_cell_length_c   12.71462100
_cell_angle_alpha   90.00000000
_cell_angle_beta   90.00148815
_cell_angle_gamma   90.00000000
_symmetry_Int_Tables_number   1
_chemical_formula_structural   MgV5(SiOs2)6
_chemical_formula_sum   'Mg1 V5 Si6 Os12'
_cell_volume   321.97999476
_cell_formula_units_Z   1
loop_
 _symmetry_equiv_pos_site_id
 _symmetry_equiv_pos_as_xyz
  1  'x, y, z'
loop_
 _atom_site_type_symbol
 _atom_site_label
 _atom_site_symmetry_multiplicity
 _atom_site_fract_x
 _atom_site_fract_y
 _atom_site_fract_z
 _atom_site_occupancy
  Mg  Mg0  1  0.000000  0.500001  0.000000  1
  V  V1  1  0.499804  0.000000  0.166393  1
  V  V2  1  0.999779  0.500001  0.333071  1
  V  V3  1  0.500000  0.000000  0.500000  1
  V  V4  1  0.000220  0.500001  0.666929  1
  V  V5  1  0.500195  0.000000  0.833607  1
  Si  Si6  1  0.000000  0.000000  0.000000  1
  Si  Si7  1  0.499767  0.500001  0.162436  1
  Si  Si8  1  0.999749  0.000000  0.332247  1
  Si  Si9  1  0.500000  0.500001  0.500000  1
  Si  Si10  1  0.000252  0.000000  0.667753  1
  Si  Si11  1  0.500235  0.500001  0.837564  1
  Os  Os12  1  0.500000  0.241709  0.000000  1
  Os  Os13  1  0.500000  0.758291  0.000000  1
  Os  Os14  1  0.999824  0.247071  0.171593  1
  Os  Os15  1  0.999824  0.752929  0.171593  1
  Os  Os16  1  0.499837  0.251487  0.335041  1
  Os  Os17  1  0.499837  0.748513  0.335041  1
  Os  Os18  1  0.000000  0.249648  0.500000  1
  Os  Os19  1  0.000000  0.750352  0.500000  1
  Os  Os20  1  0.500165  0.251487  0.664959  1
  Os  Os21  1  0.500165  0.748513  0.664959  1
  Os  Os22  1  0.000175  0.247071  0.828407  1
  Os  Os23  1  0.000175  0.752929  0.828407  1
