# generated using pymatgen
data_Nb10Al3IrOs
_symmetry_space_group_name_H-M   'P 1'
_cell_length_a   9.93953000
_cell_length_b   9.94015000
_cell_length_c   5.20201100
_cell_angle_alpha   90.00000000
_cell_angle_beta   90.00000000
_cell_angle_gamma   90.00294553
_symmetry_Int_Tables_number   1
_chemical_formula_structural   Nb10Al3IrOs
_chemical_formula_sum   'Nb20 Al6 Ir2 Os2'
_cell_volume   513.96086678
_cell_formula_units_Z   2
loop_
 _symmetry_equiv_pos_site_id
 _symmetry_equiv_pos_as_xyz
  1  'x, y, z'
loop_
 _atom_site_type_symbol
 _atom_site_label
 _atom_site_symmetry_multiplicity
 _atom_site_fract_x
 _atom_site_fract_y
 _atom_site_fract_z
 _atom_site_occupancy
  Nb  Nb0  1  0.397372  0.392444  0.000000  1
  Nb  Nb1  1  0.891821  0.102890  0.500000  1
  Nb  Nb2  1  0.106807  0.897406  0.500000  1
  Nb  Nb3  1  0.603017  0.607201  0.000000  1
  Nb  Nb4  1  0.128495  0.463697  0.000000  1
  Nb  Nb5  1  0.963627  0.370616  0.500000  1
  Nb  Nb6  1  0.036425  0.628234  0.500000  1
  Nb  Nb7  1  0.871217  0.536057  0.000000  1
  Nb  Nb8  1  0.373154  0.965623  0.500000  1
  Nb  Nb9  1  0.626984  0.035468  0.500000  1
  Nb  Nb10  1  0.465287  0.126281  0.000000  1
  Nb  Nb11  1  0.534922  0.872250  0.000000  1
  Nb  Nb12  1  0.184850  0.182381  0.249529  1
  Nb  Nb13  1  0.681857  0.316807  0.748365  1
  Nb  Nb14  1  0.316445  0.685168  0.749979  1
  Nb  Nb15  1  0.816453  0.816921  0.248922  1
  Nb  Nb16  1  0.316445  0.685168  0.250021  1
  Nb  Nb17  1  0.681857  0.316807  0.251635  1
  Nb  Nb18  1  0.184850  0.182381  0.750471  1
  Nb  Nb19  1  0.816453  0.816921  0.751078  1
  Al  Al20  1  0.999985  0.000122  0.000000  1
  Al  Al21  1  0.499941  0.500591  0.500000  1
  Al  Al22  1  0.242182  0.432860  0.500000  1
  Al  Al23  1  0.758363  0.566942  0.500000  1
  Al  Al24  1  0.932646  0.258018  0.000000  1
  Al  Al25  1  0.066893  0.741652  0.000000  1
  Ir  Ir26  1  0.567662  0.756613  0.500000  1
  Ir  Ir27  1  0.743223  0.066900  0.000000  1
  Os  Os28  1  0.257146  0.932994  0.000000  1
  Os  Os29  1  0.433622  0.242588  0.500000  1
