# generated using pymatgen
data_SrMoF5
_symmetry_space_group_name_H-M   'P 1'
_cell_length_a   6.03675692
_cell_length_b   6.03675649
_cell_length_c   8.16433462
_cell_angle_alpha   70.23567228
_cell_angle_beta   70.23565535
_cell_angle_gamma   71.97534061
_symmetry_Int_Tables_number   1
_chemical_formula_structural   SrMoF5
_chemical_formula_sum   'Sr2 Mo2 F10'
_cell_volume   257.03499869
_cell_formula_units_Z   2
loop_
 _symmetry_equiv_pos_site_id
 _symmetry_equiv_pos_as_xyz
  1  'x, y, z'
loop_
 _atom_site_type_symbol
 _atom_site_label
 _atom_site_symmetry_multiplicity
 _atom_site_fract_x
 _atom_site_fract_y
 _atom_site_fract_z
 _atom_site_occupancy
  Sr  Sr0  1  0.539831  0.460168  0.250000  1
  Sr  Sr1  1  0.460169  0.539832  0.750000  1
  Mo  Mo2  1  0.000000  0.000000  0.500000  1
  Mo  Mo3  1  0.000000  0.000000  0.000000  1
  F  F4  1  0.088579  0.911422  0.750000  1
  F  F5  1  0.911421  0.088578  0.250000  1
  F  F6  1  0.211275  0.254142  0.877739  1
  F  F7  1  0.745858  0.788724  0.622261  1
  F  F8  1  0.715541  0.304201  0.529812  1
  F  F9  1  0.695799  0.284459  0.970188  1
  F  F10  1  0.284459  0.695799  0.470188  1
  F  F11  1  0.304201  0.715541  0.029812  1
  F  F12  1  0.254142  0.211276  0.377739  1
  F  F13  1  0.788725  0.745858  0.122261  1
