# generated using pymatgen
data_HfHg3(Pd2Au)4
_symmetry_space_group_name_H-M   'P 1'
_cell_length_a   5.97794523
_cell_length_b   5.99010624
_cell_length_c   7.73164601
_cell_angle_alpha   89.99788039
_cell_angle_beta   90.00589791
_cell_angle_gamma   89.96818337
_symmetry_Int_Tables_number   1
_chemical_formula_structural   HfHg3(Pd2Au)4
_chemical_formula_sum   'Hf1 Hg3 Pd8 Au4'
_cell_volume   276.85881083
_cell_formula_units_Z   1
loop_
 _symmetry_equiv_pos_site_id
 _symmetry_equiv_pos_as_xyz
  1  'x, y, z'
loop_
 _atom_site_type_symbol
 _atom_site_label
 _atom_site_symmetry_multiplicity
 _atom_site_fract_x
 _atom_site_fract_y
 _atom_site_fract_z
 _atom_site_occupancy
  Hf  Hf0  1  0.249851  0.250005  0.999998  1
  Hg  Hg1  1  0.750180  0.749997  0.000013  1
  Hg  Hg2  1  0.749841  0.750005  0.499999  1
  Hg  Hg3  1  0.250227  0.249999  0.500018  1
  Pd  Pd4  1  0.494051  0.005502  0.243897  1
  Pd  Pd5  1  0.494011  0.494493  0.243912  1
  Pd  Pd6  1  0.006007  0.005524  0.244223  1
  Pd  Pd7  1  0.005954  0.494563  0.244228  1
  Pd  Pd8  1  0.006037  0.005485  0.755780  1
  Pd  Pd9  1  0.005986  0.494526  0.755786  1
  Pd  Pd10  1  0.493990  0.005434  0.756075  1
  Pd  Pd11  1  0.493930  0.494482  0.756072  1
  Au  Au12  1  0.750213  0.249999  0.000045  1
  Au  Au13  1  0.249775  0.749982  0.999960  1
  Au  Au14  1  0.749865  0.249986  0.499968  1
  Au  Au15  1  0.250081  0.750017  0.500029  1
