# generated using pymatgen
data_Tb5CeH18
_symmetry_space_group_name_H-M   'P 1'
_cell_length_a   6.50626872
_cell_length_b   6.50119213
_cell_length_c   6.80669307
_cell_angle_alpha   90.00000285
_cell_angle_beta   89.82606455
_cell_angle_gamma   119.97420655
_symmetry_Int_Tables_number   1
_chemical_formula_structural   Tb5CeH18
_chemical_formula_sum   'Tb5 Ce1 H18'
_cell_volume   249.40315875
_cell_formula_units_Z   1
loop_
 _symmetry_equiv_pos_site_id
 _symmetry_equiv_pos_as_xyz
  1  'x, y, z'
loop_
 _atom_site_type_symbol
 _atom_site_label
 _atom_site_symmetry_multiplicity
 _atom_site_fract_x
 _atom_site_fract_y
 _atom_site_fract_z
 _atom_site_occupancy
  Tb  Tb0  1  0.335806  0.336869  0.750119  1
  Tb  Tb1  1  0.664194  0.001063  0.749881  1
  Tb  Tb2  1  0.660769  0.662066  0.250058  1
  Tb  Tb3  1  0.000000  0.335100  0.250000  1
  Tb  Tb4  1  0.339231  0.001297  0.249942  1
  Ce  Ce5  1  0.000000  0.666620  0.750000  1
  H  H6  1  0.675179  0.650744  0.587934  1
  H  H7  1  0.343306  0.023545  0.594394  1
  H  H8  1  0.971578  0.320472  0.591219  1
  H  H9  1  0.340321  0.667818  0.696561  1
  H  H10  1  0.000000  0.008677  0.750000  1
  H  H11  1  0.659679  0.327497  0.803439  1
  H  H12  1  0.028422  0.348894  0.908781  1
  H  H13  1  0.656694  0.680239  0.905606  1
  H  H14  1  0.324821  0.975565  0.912066  1
  H  H15  1  0.677100  0.030692  0.091494  1
  H  H16  1  0.354630  0.324138  0.091810  1
  H  H17  1  0.965723  0.641632  0.095850  1
  H  H18  1  0.332546  0.666362  0.190905  1
  H  H19  1  0.000000  0.997884  0.250000  1
  H  H20  1  0.667454  0.333816  0.309095  1
  H  H21  1  0.034277  0.675910  0.404150  1
  H  H22  1  0.645370  0.969508  0.408190  1
  H  H23  1  0.322900  0.353592  0.408506  1
