# generated using pymatgen
data_Pa2TcNiSn
_symmetry_space_group_name_H-M   'P 1'
_cell_length_a   7.51747000
_cell_length_b   7.50849000
_cell_length_c   3.63973500
_cell_angle_alpha   90.00000000
_cell_angle_beta   90.00000000
_cell_angle_gamma   90.00000000
_symmetry_Int_Tables_number   1
_chemical_formula_structural   Pa2TcNiSn
_chemical_formula_sum   'Pa4 Tc2 Ni2 Sn2'
_cell_volume   205.44429000
_cell_formula_units_Z   2
loop_
 _symmetry_equiv_pos_site_id
 _symmetry_equiv_pos_as_xyz
  1  'x, y, z'
loop_
 _atom_site_type_symbol
 _atom_site_label
 _atom_site_symmetry_multiplicity
 _atom_site_fract_x
 _atom_site_fract_y
 _atom_site_fract_z
 _atom_site_occupancy
  Pa  Pa0  1  0.672031  0.165417  0.500000  1
  Pa  Pa1  1  0.331049  0.826024  0.500000  1
  Pa  Pa2  1  0.831049  0.673976  0.500000  1
  Pa  Pa3  1  0.172031  0.334583  0.500000  1
  Tc  Tc4  1  0.629868  0.873817  0.000000  1
  Tc  Tc5  1  0.129868  0.626183  0.000000  1
  Ni  Ni6  1  0.864076  0.363622  0.000000  1
  Ni  Ni7  1  0.364076  0.136378  0.000000  1
  Sn  Sn8  1  0.502976  0.495170  0.000000  1
  Sn  Sn9  1  0.002976  0.004830  0.000000  1
