# generated using pymatgen
data_Pr7Rh6Pb23
_symmetry_space_group_name_H-M   'P 1'
_cell_length_a   10.30981800
_cell_length_b   10.30981874
_cell_length_c   10.64023400
_cell_angle_alpha   90.00000000
_cell_angle_beta   90.00000000
_cell_angle_gamma   120.00001045
_symmetry_Int_Tables_number   1
_chemical_formula_structural   Pr7Rh6Pb23
_chemical_formula_sum   'Pr7 Rh6 Pb23'
_cell_volume   979.45343525
_cell_formula_units_Z   1
loop_
 _symmetry_equiv_pos_site_id
 _symmetry_equiv_pos_as_xyz
  1  'x, y, z'
loop_
 _atom_site_type_symbol
 _atom_site_label
 _atom_site_symmetry_multiplicity
 _atom_site_fract_x
 _atom_site_fract_y
 _atom_site_fract_z
 _atom_site_occupancy
  Pr  Pr0  1  0.000000  0.000000  0.000000  1
  Pr  Pr1  1  0.479616  0.520384  0.305540  1
  Pr  Pr2  1  0.520384  0.479616  0.694460  1
  Pr  Pr3  1  0.479616  0.959233  0.305540  1
  Pr  Pr4  1  0.520384  0.040767  0.694460  1
  Pr  Pr5  1  0.040767  0.520384  0.305540  1
  Pr  Pr6  1  0.959233  0.479616  0.694460  1
  Rh  Rh7  1  0.830827  0.169173  0.198784  1
  Rh  Rh8  1  0.169173  0.830827  0.801216  1
  Rh  Rh9  1  0.830827  0.661656  0.198784  1
  Rh  Rh10  1  0.169173  0.338344  0.801216  1
  Rh  Rh11  1  0.338344  0.169173  0.198784  1
  Rh  Rh12  1  0.661656  0.830827  0.801216  1
  Pb  Pb13  1  0.347746  0.000000  0.000000  1
  Pb  Pb14  1  0.652254  0.000000  0.000000  1
  Pb  Pb15  1  0.000000  0.347746  0.000000  1
  Pb  Pb16  1  0.000000  0.652254  0.000000  1
  Pb  Pb17  1  0.652254  0.652254  0.000000  1
  Pb  Pb18  1  0.347746  0.347746  0.000000  1
  Pb  Pb19  1  0.333333  0.666667  0.816165  1
  Pb  Pb20  1  0.666667  0.333333  0.183835  1
  Pb  Pb21  1  0.000000  0.000000  0.500000  1
  Pb  Pb22  1  0.779415  0.220585  0.454052  1
  Pb  Pb23  1  0.220585  0.779415  0.545948  1
  Pb  Pb24  1  0.779415  0.558831  0.454052  1
  Pb  Pb25  1  0.220585  0.441169  0.545948  1
  Pb  Pb26  1  0.441169  0.220585  0.454052  1
  Pb  Pb27  1  0.558831  0.779415  0.545948  1
  Pb  Pb28  1  0.333333  0.666667  0.117489  1
  Pb  Pb29  1  0.666667  0.333333  0.882511  1
  Pb  Pb30  1  0.118319  0.881681  0.276043  1
  Pb  Pb31  1  0.881681  0.118319  0.723957  1
  Pb  Pb32  1  0.118319  0.236639  0.276043  1
  Pb  Pb33  1  0.881681  0.763361  0.723957  1
  Pb  Pb34  1  0.763361  0.881681  0.276043  1
  Pb  Pb35  1  0.236639  0.118319  0.723957  1
