# generated using pymatgen
data_Dy9Er(SnSb)4
_symmetry_space_group_name_H-M   'P 1'
_cell_length_a   8.72305610
_cell_length_b   8.72305578
_cell_length_c   8.14449402
_cell_angle_alpha   90.00330937
_cell_angle_beta   90.00331000
_cell_angle_gamma   124.70023824
_symmetry_Int_Tables_number   1
_chemical_formula_structural   Dy9Er(SnSb)4
_chemical_formula_sum   'Dy9 Er1 Sn4 Sb4'
_cell_volume   509.50456902
_cell_formula_units_Z   1
loop_
 _symmetry_equiv_pos_site_id
 _symmetry_equiv_pos_as_xyz
  1  'x, y, z'
loop_
 _atom_site_type_symbol
 _atom_site_label
 _atom_site_symmetry_multiplicity
 _atom_site_fract_x
 _atom_site_fract_y
 _atom_site_fract_z
 _atom_site_occupancy
  Dy  Dy0  1  0.030086  0.301776  0.335824  1
  Dy  Dy1  1  0.969914  0.698224  0.664176  1
  Dy  Dy2  1  0.469815  0.198058  0.835913  1
  Dy  Dy3  1  0.801942  0.530185  0.164087  1
  Dy  Dy4  1  0.530185  0.801942  0.164087  1
  Dy  Dy5  1  0.198058  0.469815  0.835913  1
  Dy  Dy6  1  0.698224  0.969914  0.664176  1
  Dy  Dy7  1  0.301776  0.030086  0.335824  1
  Dy  Dy8  1  0.500000  0.500000  0.500000  1
  Er  Er9  1  0.000000  0.000000  0.000000  1
  Sn  Sn10  1  0.363625  0.363625  0.135760  1
  Sn  Sn11  1  0.636375  0.636375  0.864240  1
  Sn  Sn12  1  0.135909  0.135909  0.636263  1
  Sn  Sn13  1  0.864091  0.864091  0.363737  1
  Sb  Sb14  1  0.797861  0.202139  0.000000  1
  Sb  Sb15  1  0.202139  0.797861  0.000000  1
  Sb  Sb16  1  0.702454  0.297546  0.500000  1
  Sb  Sb17  1  0.297546  0.702454  0.500000  1
