# generated using pymatgen
data_Nd2CdNiAg
_symmetry_space_group_name_H-M   'P 1'
_cell_length_a   7.93859200
_cell_length_b   7.93859229
_cell_length_c   3.79996700
_cell_angle_alpha   90.00000000
_cell_angle_beta   90.00000000
_cell_angle_gamma   88.27917594
_symmetry_Int_Tables_number   1
_chemical_formula_structural   Nd2CdNiAg
_chemical_formula_sum   'Nd4 Cd2 Ni2 Ag2'
_cell_volume   239.37065000
_cell_formula_units_Z   2
loop_
 _symmetry_equiv_pos_site_id
 _symmetry_equiv_pos_as_xyz
  1  'x, y, z'
loop_
 _atom_site_type_symbol
 _atom_site_label
 _atom_site_symmetry_multiplicity
 _atom_site_fract_x
 _atom_site_fract_y
 _atom_site_fract_z
 _atom_site_occupancy
  Nd  Nd0  1  0.660803  0.160803  0.500000  1
  Nd  Nd1  1  0.339197  0.839197  0.500000  1
  Nd  Nd2  1  0.196596  0.303404  0.500000  1
  Nd  Nd3  1  0.803404  0.696596  0.500000  1
  Cd  Cd4  1  0.500000  0.500000  0.000000  1
  Cd  Cd5  1  0.000000  0.000000  0.000000  1
  Ni  Ni6  1  0.614137  0.885863  0.000000  1
  Ni  Ni7  1  0.385863  0.114137  0.000000  1
  Ag  Ag8  1  0.123748  0.623748  0.000000  1
  Ag  Ag9  1  0.876252  0.376252  0.000000  1
