# generated using pymatgen
data_Y3Tm2BiPb2
_symmetry_space_group_name_H-M   'P 1'
_cell_length_a   6.53569100
_cell_length_b   9.06723633
_cell_length_c   9.09085005
_cell_angle_alpha   120.08382810
_cell_angle_beta   90.00012438
_cell_angle_gamma   90.00017909
_symmetry_Int_Tables_number   1
_chemical_formula_structural   Y3Tm2BiPb2
_chemical_formula_sum   'Y6 Tm4 Bi2 Pb4'
_cell_volume   466.15902931
_cell_formula_units_Z   2
loop_
 _symmetry_equiv_pos_site_id
 _symmetry_equiv_pos_as_xyz
  1  'x, y, z'
loop_
 _atom_site_type_symbol
 _atom_site_label
 _atom_site_symmetry_multiplicity
 _atom_site_fract_x
 _atom_site_fract_y
 _atom_site_fract_z
 _atom_site_occupancy
  Y  Y0  1  0.750003  0.237366  0.997715  1
  Y  Y1  1  0.750001  0.762538  0.760276  1
  Y  Y2  1  0.750004  0.999979  0.239458  1
  Y  Y3  1  0.250003  0.761218  0.000320  1
  Y  Y4  1  0.249997  0.238875  0.239173  1
  Y  Y5  1  0.249998  0.000025  0.761089  1
  Tm  Tm6  1  0.498666  0.331476  0.666272  1
  Tm  Tm7  1  0.498665  0.668508  0.334795  1
  Tm  Tm8  1  0.001334  0.668530  0.334798  1
  Tm  Tm9  1  0.001332  0.331496  0.666270  1
  Bi  Bi10  1  0.749994  0.605828  0.000096  1
  Bi  Bi11  1  0.750004  0.394133  0.394246  1
  Pb  Pb12  1  0.750004  0.999951  0.604457  1
  Pb  Pb13  1  0.249988  0.394561  0.000437  1
  Pb  Pb14  1  0.250006  0.605486  0.605900  1
  Pb  Pb15  1  0.250003  0.000029  0.394697  1
