# generated using pymatgen
data_ErTmFe8(P3Ru)2
_symmetry_space_group_name_H-M   'P 1'
_cell_length_a   3.69645800
_cell_length_b   10.32918300
_cell_length_c   11.78542000
_cell_angle_alpha   90.00000000
_cell_angle_beta   90.00000000
_cell_angle_gamma   90.00000000
_symmetry_Int_Tables_number   1
_chemical_formula_structural   ErTmFe8(P3Ru)2
_chemical_formula_sum   'Er2 Tm2 Fe16 P12 Ru4'
_cell_volume   449.98373070
_cell_formula_units_Z   2
loop_
 _symmetry_equiv_pos_site_id
 _symmetry_equiv_pos_as_xyz
  1  'x, y, z'
loop_
 _atom_site_type_symbol
 _atom_site_label
 _atom_site_symmetry_multiplicity
 _atom_site_fract_x
 _atom_site_fract_y
 _atom_site_fract_z
 _atom_site_occupancy
  Er  Er0  1  0.250000  0.581714  0.703800  1
  Er  Er1  1  0.250000  0.918286  0.203800  1
  Tm  Tm2  1  0.750000  0.418573  0.296098  1
  Tm  Tm3  1  0.750000  0.081427  0.796098  1
  Fe  Fe4  1  0.250000  0.405579  0.488813  1
  Fe  Fe5  1  0.250000  0.094421  0.988813  1
  Fe  Fe6  1  0.750000  0.594417  0.510670  1
  Fe  Fe7  1  0.750000  0.905583  0.010670  1
  Fe  Fe8  1  0.250000  0.219975  0.175378  1
  Fe  Fe9  1  0.250000  0.280025  0.675378  1
  Fe  Fe10  1  0.750000  0.780379  0.824672  1
  Fe  Fe11  1  0.750000  0.719621  0.324672  1
  Fe  Fe12  1  0.250000  0.877869  0.704170  1
  Fe  Fe13  1  0.250000  0.622131  0.204170  1
  Fe  Fe14  1  0.750000  0.122716  0.296013  1
  Fe  Fe15  1  0.750000  0.377284  0.796013  1
  Fe  Fe16  1  0.250000  0.462535  0.932706  1
  Fe  Fe17  1  0.250000  0.037465  0.432706  1
  Fe  Fe18  1  0.750000  0.537236  0.067704  1
  Fe  Fe19  1  0.750000  0.962764  0.567704  1
  P  P20  1  0.250000  0.424779  0.115145  1
  P  P21  1  0.250000  0.075221  0.615145  1
  P  P22  1  0.750000  0.575247  0.885262  1
  P  P23  1  0.750000  0.924753  0.385262  1
  P  P24  1  0.250000  0.265572  0.867057  1
  P  P25  1  0.250000  0.234428  0.367057  1
  P  P26  1  0.750000  0.733949  0.132752  1
  P  P27  1  0.750000  0.766051  0.632752  1
  P  P28  1  0.250000  0.595211  0.394710  1
  P  P29  1  0.250000  0.904789  0.894710  1
  P  P30  1  0.750000  0.404511  0.605104  1
  P  P31  1  0.750000  0.095489  0.105104  1
  Ru  Ru32  1  0.250000  0.707985  0.988444  1
  Ru  Ru33  1  0.250000  0.792015  0.488444  1
  Ru  Ru34  1  0.750000  0.292074  0.011501  1
  Ru  Ru35  1  0.750000  0.207926  0.511501  1
