# generated using pymatgen
data_DyY(HoBi)3
_symmetry_space_group_name_H-M   'P 1'
_cell_length_a   8.24504600
_cell_length_b   9.49454200
_cell_length_c   12.05365400
_cell_angle_alpha   90.00000000
_cell_angle_beta   90.00000000
_cell_angle_gamma   90.00000000
_symmetry_Int_Tables_number   1
_chemical_formula_structural   DyY(HoBi)3
_chemical_formula_sum   'Dy4 Y4 Ho12 Bi12'
_cell_volume   943.59541909
_cell_formula_units_Z   4
loop_
 _symmetry_equiv_pos_site_id
 _symmetry_equiv_pos_as_xyz
  1  'x, y, z'
loop_
 _atom_site_type_symbol
 _atom_site_label
 _atom_site_symmetry_multiplicity
 _atom_site_fract_x
 _atom_site_fract_y
 _atom_site_fract_z
 _atom_site_occupancy
  Dy  Dy0  1  0.186322  0.750000  0.718971  1
  Dy  Dy1  1  0.686322  0.750000  0.781029  1
  Dy  Dy2  1  0.813678  0.250000  0.281029  1
  Dy  Dy3  1  0.313678  0.250000  0.218971  1
  Y  Y4  1  0.353823  0.750000  0.215303  1
  Y  Y5  1  0.853823  0.750000  0.284697  1
  Y  Y6  1  0.646177  0.250000  0.784697  1
  Y  Y7  1  0.146177  0.250000  0.715303  1
  Ho  Ho8  1  0.026032  0.750000  0.988852  1
  Ho  Ho9  1  0.526032  0.750000  0.511148  1
  Ho  Ho10  1  0.973968  0.250000  0.011148  1
  Ho  Ho11  1  0.473968  0.250000  0.488852  1
  Ho  Ho12  1  0.306266  0.436574  0.940184  1
  Ho  Ho13  1  0.806266  0.063426  0.559816  1
  Ho  Ho14  1  0.693734  0.936574  0.059816  1
  Ho  Ho15  1  0.193734  0.563426  0.440184  1
  Ho  Ho16  1  0.693734  0.563426  0.059816  1
  Ho  Ho17  1  0.193734  0.936574  0.440184  1
  Ho  Ho18  1  0.306266  0.063426  0.940184  1
  Ho  Ho19  1  0.806266  0.436574  0.559816  1
  Bi  Bi20  1  0.433575  0.003664  0.673513  1
  Bi  Bi21  1  0.933575  0.496336  0.826487  1
  Bi  Bi22  1  0.566425  0.503664  0.326487  1
  Bi  Bi23  1  0.066425  0.996336  0.173513  1
  Bi  Bi24  1  0.566425  0.996336  0.326487  1
  Bi  Bi25  1  0.066425  0.503664  0.173513  1
  Bi  Bi26  1  0.433575  0.496336  0.673513  1
  Bi  Bi27  1  0.933575  0.003664  0.826487  1
  Bi  Bi28  1  0.409302  0.750000  0.958036  1
  Bi  Bi29  1  0.909302  0.750000  0.541964  1
  Bi  Bi30  1  0.590698  0.250000  0.041964  1
  Bi  Bi31  1  0.090698  0.250000  0.458036  1
