# generated using pymatgen
data_SmBi5(RuO6)3
_symmetry_space_group_name_H-M   'P 1'
_cell_length_a   9.20935100
_cell_length_b   9.20633040
_cell_length_c   5.30169002
_cell_angle_alpha   90.36834564
_cell_angle_beta   90.00000000
_cell_angle_gamma   120.01087204
_symmetry_Int_Tables_number   1
_chemical_formula_structural   SmBi5(RuO6)3
_chemical_formula_sum   'Sm1 Bi5 Ru3 O18'
_cell_volume   389.22523349
_cell_formula_units_Z   1
loop_
 _symmetry_equiv_pos_site_id
 _symmetry_equiv_pos_as_xyz
  1  'x, y, z'
loop_
 _atom_site_type_symbol
 _atom_site_label
 _atom_site_symmetry_multiplicity
 _atom_site_fract_x
 _atom_site_fract_y
 _atom_site_fract_z
 _atom_site_occupancy
  Sm  Sm0  1  0.615999  0.000000  0.500000  1
  Bi  Bi1  1  0.000687  0.623625  0.501276  1
  Bi  Bi2  1  0.999010  0.286632  0.999772  1
  Bi  Bi3  1  0.377062  0.376375  0.498724  1
  Bi  Bi4  1  0.286651  0.000000  0.000000  1
  Bi  Bi5  1  0.712378  0.713368  0.000228  1
  Ru  Ru6  1  0.334515  0.667569  0.989277  1
  Ru  Ru7  1  0.000004  0.000000  0.500000  1
  Ru  Ru8  1  0.666948  0.332431  0.010723  1
  O  O9  1  0.076432  0.875297  0.291365  1
  O  O10  1  0.235262  0.769221  0.768972  1
  O  O11  1  0.134003  0.545763  0.195137  1
  O  O12  1  0.409500  0.869108  0.199264  1
  O  O13  1  0.235406  0.464868  0.777791  1
  O  O14  1  0.122636  0.198276  0.284593  1
  O  O15  1  0.201136  0.124703  0.708635  1
  O  O16  1  0.537797  0.772356  0.779649  1
  O  O17  1  0.458905  0.596442  0.202814  1
  O  O18  1  0.799112  0.920030  0.290859  1
  O  O19  1  0.466042  0.230779  0.231028  1
  O  O20  1  0.588240  0.454237  0.804863  1
  O  O21  1  0.540393  0.130892  0.800736  1
  O  O22  1  0.770538  0.535132  0.222209  1
  O  O23  1  0.924360  0.801724  0.715407  1
  O  O24  1  0.765441  0.227644  0.220351  1
  O  O25  1  0.862461  0.403558  0.797186  1
  O  O26  1  0.879082  0.079970  0.709141  1
