# generated using pymatgen
data_La4MgOs
_symmetry_space_group_name_H-M   'P 1'
_cell_length_a   10.16112355
_cell_length_b   10.16112404
_cell_length_c   10.16112300
_cell_angle_alpha   60.00000014
_cell_angle_beta   59.99999855
_cell_angle_gamma   59.99999874
_symmetry_Int_Tables_number   1
_chemical_formula_structural   La4MgOs
_chemical_formula_sum   'La16 Mg4 Os4'
_cell_volume   741.83989883
_cell_formula_units_Z   4
loop_
 _symmetry_equiv_pos_site_id
 _symmetry_equiv_pos_as_xyz
  1  'x, y, z'
loop_
 _atom_site_type_symbol
 _atom_site_label
 _atom_site_symmetry_multiplicity
 _atom_site_fract_x
 _atom_site_fract_y
 _atom_site_fract_z
 _atom_site_occupancy
  La  La0  1  0.558770  0.941230  0.558770  1
  La  La1  1  0.187451  0.187451  0.812549  1
  La  La2  1  0.558770  0.558770  0.941230  1
  La  La3  1  0.968472  0.343843  0.343843  1
  La  La4  1  0.812549  0.187451  0.812549  1
  La  La5  1  0.187451  0.812549  0.187451  1
  La  La6  1  0.343843  0.343843  0.968472  1
  La  La7  1  0.343843  0.968472  0.343843  1
  La  La8  1  0.941230  0.941230  0.558770  1
  La  La9  1  0.941230  0.558770  0.558770  1
  La  La10  1  0.343843  0.343843  0.343843  1
  La  La11  1  0.812549  0.812549  0.187451  1
  La  La12  1  0.812549  0.187451  0.187451  1
  La  La13  1  0.558770  0.941230  0.941230  1
  La  La14  1  0.941230  0.558770  0.941230  1
  La  La15  1  0.187451  0.812549  0.812549  1
  Mg  Mg16  1  0.578226  0.578226  0.578226  1
  Mg  Mg17  1  0.578226  0.265324  0.578226  1
  Mg  Mg18  1  0.578226  0.578226  0.265324  1
  Mg  Mg19  1  0.265324  0.578226  0.578226  1
  Os  Os20  1  0.137599  0.587205  0.137599  1
  Os  Os21  1  0.587205  0.137599  0.137599  1
  Os  Os22  1  0.137599  0.137599  0.587205  1
  Os  Os23  1  0.137599  0.137599  0.137599  1
