# generated using pymatgen
data_Y11Tm5MgAg3Rh4
_symmetry_space_group_name_H-M   'P 1'
_cell_length_a   9.51749016
_cell_length_b   9.55674891
_cell_length_c   9.55685944
_cell_angle_alpha   60.19774974
_cell_angle_beta   60.32193791
_cell_angle_gamma   60.32191294
_symmetry_Int_Tables_number   1
_chemical_formula_structural   Y11Tm5MgAg3Rh4
_chemical_formula_sum   'Y11 Tm5 Mg1 Ag3 Rh4'
_cell_volume   618.55754157
_cell_formula_units_Z   1
loop_
 _symmetry_equiv_pos_site_id
 _symmetry_equiv_pos_as_xyz
  1  'x, y, z'
loop_
 _atom_site_type_symbol
 _atom_site_label
 _atom_site_symmetry_multiplicity
 _atom_site_fract_x
 _atom_site_fract_y
 _atom_site_fract_z
 _atom_site_occupancy
  Y  Y0  1  0.436646  0.061770  0.061795  1
  Y  Y1  1  0.436060  0.062853  0.436752  1
  Y  Y2  1  0.058735  0.439620  0.060111  1
  Y  Y3  1  0.436064  0.436766  0.062853  1
  Y  Y4  1  0.058741  0.060096  0.439617  1
  Y  Y5  1  0.185818  0.812995  0.812992  1
  Y  Y6  1  0.816002  0.184938  0.184922  1
  Y  Y7  1  0.813918  0.187401  0.812908  1
  Y  Y8  1  0.185921  0.811411  0.187991  1
  Y  Y9  1  0.813927  0.812914  0.187400  1
  Y  Y10  1  0.185920  0.187983  0.811422  1
  Tm  Tm11  1  0.601589  0.598377  0.598395  1
  Tm  Tm12  1  0.598963  0.595900  0.208182  1
  Tm  Tm13  1  0.598940  0.208213  0.595900  1
  Tm  Tm14  1  0.187134  0.604287  0.604333  1
  Tm  Tm15  1  0.059407  0.438939  0.438940  1
  Mg  Mg16  1  0.540343  0.820779  0.820770  1
  Ag  Ag17  1  0.831572  0.833948  0.833937  1
  Ag  Ag18  1  0.832938  0.834667  0.500463  1
  Ag  Ag19  1  0.832940  0.500474  0.834654  1
  Rh  Rh20  1  0.384814  0.397708  0.397687  1
  Rh  Rh21  1  0.391601  0.397337  0.815385  1
  Rh  Rh22  1  0.391583  0.815382  0.397346  1
  Rh  Rh23  1  0.820425  0.395245  0.395244  1
