# generated using pymatgen
data_YLu3Ga17SiIr6
_symmetry_space_group_name_H-M   'P 1'
_cell_length_a   7.56847642
_cell_length_b   7.54576987
_cell_length_c   9.44541024
_cell_angle_alpha   90.07207385
_cell_angle_beta   89.77722634
_cell_angle_gamma   119.93412962
_symmetry_Int_Tables_number   1
_chemical_formula_structural   YLu3Ga17SiIr6
_chemical_formula_sum   'Y1 Lu3 Ga17 Si1 Ir6'
_cell_volume   467.46375093
_cell_formula_units_Z   1
loop_
 _symmetry_equiv_pos_site_id
 _symmetry_equiv_pos_as_xyz
  1  'x, y, z'
loop_
 _atom_site_type_symbol
 _atom_site_label
 _atom_site_symmetry_multiplicity
 _atom_site_fract_x
 _atom_site_fract_y
 _atom_site_fract_z
 _atom_site_occupancy
  Y  Y0  1  0.330308  0.002454  0.749663  1
  Lu  Lu1  1  0.997236  0.664166  0.247932  1
  Lu  Lu2  1  0.002481  0.330905  0.751649  1
  Lu  Lu3  1  0.675216  0.003398  0.247983  1
  Ga  Ga4  1  0.129309  0.128445  0.250837  1
  Ga  Ga5  1  0.872617  0.874756  0.750747  1
  Ga  Ga6  1  0.998646  0.670207  0.917543  1
  Ga  Ga7  1  0.000297  0.664846  0.580140  1
  Ga  Ga8  1  0.333851  0.997042  0.418053  1
  Ga  Ga9  1  0.998854  0.334616  0.419850  1
  Ga  Ga10  1  0.666244  0.001099  0.580211  1
  Ga  Ga11  1  0.659063  0.995110  0.917649  1
  Ga  Ga12  1  0.333388  0.996824  0.082835  1
  Ga  Ga13  1  0.331623  0.331793  0.565031  1
  Ga  Ga14  1  0.669369  0.669845  0.433749  1
  Ga  Ga15  1  0.668701  0.670158  0.068748  1
  Ga  Ga16  1  0.337856  0.332703  0.933404  1
  Ga  Ga17  1  0.341551  0.547388  0.251550  1
  Ga  Ga18  1  0.662088  0.452369  0.751201  1
  Ga  Ga19  1  0.548382  0.339753  0.250655  1
  Ga  Ga20  1  0.450897  0.658311  0.750497  1
  Si  Si21  1  0.998941  0.334367  0.073224  1
  Ir  Ir22  1  0.684431  0.329313  0.003926  1
  Ir  Ir23  1  0.312355  0.656186  0.001829  1
  Ir  Ir24  1  0.327807  0.671084  0.500253  1
  Ir  Ir25  1  0.671831  0.328426  0.499792  1
  Ir  Ir26  1  0.997559  0.014488  0.001685  1
  Ir  Ir27  1  0.999099  0.999948  0.499361  1
