# generated using pymatgen
data_Tm2ScPa(Ga3Ir)6
_symmetry_space_group_name_H-M   'P 1'
_cell_length_a   7.59018332
_cell_length_b   7.57577286
_cell_length_c   9.39838300
_cell_angle_alpha   90.00000000
_cell_angle_beta   90.00000000
_cell_angle_gamma   119.91966936
_symmetry_Int_Tables_number   1
_chemical_formula_structural   Tm2ScPa(Ga3Ir)6
_chemical_formula_sum   'Tm2 Sc1 Pa1 Ga18 Ir6'
_cell_volume   468.39684174
_cell_formula_units_Z   1
loop_
 _symmetry_equiv_pos_site_id
 _symmetry_equiv_pos_as_xyz
  1  'x, y, z'
loop_
 _atom_site_type_symbol
 _atom_site_label
 _atom_site_symmetry_multiplicity
 _atom_site_fract_x
 _atom_site_fract_y
 _atom_site_fract_z
 _atom_site_occupancy
  Tm  Tm0  1  0.670169  0.996868  0.750000  1
  Tm  Tm1  1  0.330348  0.002322  0.250000  1
  Sc  Sc2  1  0.003648  0.331065  0.250000  1
  Pa  Pa3  1  0.997398  0.669649  0.750000  1
  Ga  Ga4  1  0.130750  0.131374  0.750000  1
  Ga  Ga5  1  0.874404  0.876808  0.250000  1
  Ga  Ga6  1  0.998229  0.329935  0.577438  1
  Ga  Ga7  1  0.001818  0.662051  0.412944  1
  Ga  Ga8  1  0.001818  0.662051  0.087056  1
  Ga  Ga9  1  0.339498  0.002979  0.920101  1
  Ga  Ga10  1  0.998229  0.329935  0.922562  1
  Ga  Ga11  1  0.669101  0.005716  0.084101  1
  Ga  Ga12  1  0.669101  0.005716  0.415899  1
  Ga  Ga13  1  0.339498  0.002979  0.579899  1
  Ga  Ga14  1  0.327697  0.330578  0.072033  1
  Ga  Ga15  1  0.663424  0.668043  0.934225  1
  Ga  Ga16  1  0.663424  0.668043  0.565775  1
  Ga  Ga17  1  0.327697  0.330578  0.427967  1
  Ga  Ga18  1  0.338940  0.544793  0.750000  1
  Ga  Ga19  1  0.660868  0.450985  0.250000  1
  Ga  Ga20  1  0.543845  0.339591  0.750000  1
  Ga  Ga21  1  0.449173  0.660209  0.250000  1
  Ir  Ir22  1  0.673806  0.331320  0.501654  1
  Ir  Ir23  1  0.326615  0.672095  0.501541  1
  Ir  Ir24  1  0.326615  0.672095  0.998459  1
  Ir  Ir25  1  0.673806  0.331320  0.998346  1
  Ir  Ir26  1  0.000042  0.995452  0.502285  1
  Ir  Ir27  1  0.000042  0.995452  0.997715  1
