# generated using pymatgen
data_La5Tb4Nd7(CdIr)4
_symmetry_space_group_name_H-M   'P 1'
_cell_length_a   9.93519187
_cell_length_b   9.93165803
_cell_length_c   9.90749238
_cell_angle_alpha   59.97416404
_cell_angle_beta   60.15755856
_cell_angle_gamma   60.32452049
_symmetry_Int_Tables_number   1
_chemical_formula_structural   La5Tb4Nd7(CdIr)4
_chemical_formula_sum   'La5 Tb4 Nd7 Cd4 Ir4'
_cell_volume   693.63681863
_cell_formula_units_Z   1
loop_
 _symmetry_equiv_pos_site_id
 _symmetry_equiv_pos_as_xyz
  1  'x, y, z'
loop_
 _atom_site_type_symbol
 _atom_site_label
 _atom_site_symmetry_multiplicity
 _atom_site_fract_x
 _atom_site_fract_y
 _atom_site_fract_z
 _atom_site_occupancy
  La  La0  1  0.345172  0.350370  0.350880  1
  La  La1  1  0.349809  0.349008  0.951639  1
  La  La2  1  0.347313  0.952266  0.350160  1
  La  La3  1  0.952291  0.348977  0.352676  1
  La  La4  1  0.814096  0.186877  0.185185  1
  Tb  Tb5  1  0.187685  0.813622  0.812418  1
  Tb  Tb6  1  0.192137  0.810199  0.185289  1
  Tb  Tb7  1  0.813035  0.187290  0.808948  1
  Tb  Tb8  1  0.190416  0.185827  0.810590  1
  Nd  Nd9  1  0.812563  0.810038  0.185475  1
  Nd  Nd10  1  0.938330  0.561924  0.563469  1
  Nd  Nd11  1  0.559822  0.939067  0.936894  1
  Nd  Nd12  1  0.559208  0.938109  0.564402  1
  Nd  Nd13  1  0.941337  0.561734  0.935955  1
  Nd  Nd14  1  0.560091  0.563441  0.937207  1
  Nd  Nd15  1  0.940266  0.936887  0.562645  1
  Cd  Cd16  1  0.580317  0.579724  0.580496  1
  Cd  Cd17  1  0.578677  0.582664  0.258572  1
  Cd  Cd18  1  0.579469  0.258369  0.582984  1
  Cd  Cd19  1  0.258216  0.580640  0.580400  1
  Ir  Ir20  1  0.138658  0.139753  0.141241  1
  Ir  Ir21  1  0.139680  0.140536  0.581131  1
  Ir  Ir22  1  0.143965  0.578151  0.140759  1
  Ir  Ir23  1  0.577449  0.144521  0.140582  1
