# generated using pymatgen
data_MnCu2Rh3S8
_symmetry_space_group_name_H-M   'P 1'
_cell_length_a   6.86026560
_cell_length_b   6.86026452
_cell_length_c   6.86026514
_cell_angle_alpha   62.09832389
_cell_angle_beta   62.09833202
_cell_angle_gamma   62.09833383
_symmetry_Int_Tables_number   1
_chemical_formula_structural   MnCu2Rh3S8
_chemical_formula_sum   'Mn1 Cu2 Rh3 S8'
_cell_volume   239.00847490
_cell_formula_units_Z   1
loop_
 _symmetry_equiv_pos_site_id
 _symmetry_equiv_pos_as_xyz
  1  'x, y, z'
loop_
 _atom_site_type_symbol
 _atom_site_label
 _atom_site_symmetry_multiplicity
 _atom_site_fract_x
 _atom_site_fract_y
 _atom_site_fract_z
 _atom_site_occupancy
  Mn  Mn0  1  0.000000  0.000000  0.000000  1
  Cu  Cu1  1  0.378262  0.378262  0.378262  1
  Cu  Cu2  1  0.621738  0.621738  0.621738  1
  Rh  Rh3  1  0.000000  0.500000  0.000000  1
  Rh  Rh4  1  0.000000  0.000000  0.500000  1
  Rh  Rh5  1  0.500000  0.000000  0.000000  1
  S  S6  1  0.760160  0.223442  0.760160  1
  S  S7  1  0.759748  0.759748  0.759748  1
  S  S8  1  0.776558  0.239840  0.239840  1
  S  S9  1  0.239840  0.239840  0.776558  1
  S  S10  1  0.239840  0.776558  0.239840  1
  S  S11  1  0.240252  0.240252  0.240252  1
  S  S12  1  0.223442  0.760160  0.760160  1
  S  S13  1  0.760160  0.760160  0.223442  1
