# generated using pymatgen
data_Tb5Er(Si3Ru)8
_symmetry_space_group_name_H-M   'P 1'
_cell_length_a   10.12545591
_cell_length_b   10.12545616
_cell_length_c   8.15423421
_cell_angle_alpha   89.98959470
_cell_angle_beta   89.98958853
_cell_angle_gamma   132.52329367
_symmetry_Int_Tables_number   1
_chemical_formula_structural   Tb5Er(Si3Ru)8
_chemical_formula_sum   'Tb5 Er1 Si24 Ru8'
_cell_volume   616.14276015
_cell_formula_units_Z   1
loop_
 _symmetry_equiv_pos_site_id
 _symmetry_equiv_pos_as_xyz
  1  'x, y, z'
loop_
 _atom_site_type_symbol
 _atom_site_label
 _atom_site_symmetry_multiplicity
 _atom_site_fract_x
 _atom_site_fract_y
 _atom_site_fract_z
 _atom_site_occupancy
  Tb  Tb0  1  0.497559  0.997477  0.249826  1
  Tb  Tb1  1  0.002523  0.502441  0.750174  1
  Tb  Tb2  1  0.502441  0.002523  0.750174  1
  Tb  Tb3  1  0.997477  0.497559  0.249826  1
  Tb  Tb4  1  0.500000  0.500000  0.500000  1
  Er  Er5  1  0.000000  0.000000  0.000000  1
  Si  Si6  1  0.388211  0.154566  0.005075  1
  Si  Si7  1  0.654575  0.888206  0.494946  1
  Si  Si8  1  0.111794  0.345425  0.505054  1
  Si  Si9  1  0.845434  0.611789  0.994925  1
  Si  Si10  1  0.611789  0.845434  0.994925  1
  Si  Si11  1  0.345425  0.111794  0.505054  1
  Si  Si12  1  0.888206  0.654575  0.494946  1
  Si  Si13  1  0.154566  0.388211  0.005075  1
  Si  Si14  1  0.613071  0.378756  0.228356  1
  Si  Si15  1  0.878396  0.112496  0.271290  1
  Si  Si16  1  0.887504  0.121604  0.728710  1
  Si  Si17  1  0.621244  0.386929  0.771644  1
  Si  Si18  1  0.386929  0.621244  0.771644  1
  Si  Si19  1  0.121604  0.887504  0.728710  1
  Si  Si20  1  0.705305  0.294695  0.000000  1
  Si  Si21  1  0.794895  0.205105  0.500000  1
  Si  Si22  1  0.294695  0.705305  0.000000  1
  Si  Si23  1  0.205105  0.794895  0.500000  1
  Si  Si24  1  0.167536  0.167536  0.333176  1
  Si  Si25  1  0.667435  0.667435  0.166796  1
  Si  Si26  1  0.332565  0.332565  0.833204  1
  Si  Si27  1  0.832464  0.832464  0.666824  1
  Si  Si28  1  0.378756  0.613071  0.228356  1
  Si  Si29  1  0.112496  0.878396  0.271290  1
  Ru  Ru30  1  0.626868  0.626868  0.873972  1
  Ru  Ru31  1  0.125537  0.125537  0.627888  1
  Ru  Ru32  1  0.874463  0.874463  0.372112  1
  Ru  Ru33  1  0.373132  0.373132  0.126028  1
  Ru  Ru34  1  0.330805  0.669195  0.500000  1
  Ru  Ru35  1  0.168621  0.831379  0.000000  1
  Ru  Ru36  1  0.669195  0.330805  0.500000  1
  Ru  Ru37  1  0.831379  0.168621  0.000000  1
