# generated using pymatgen
data_Dy4Lu3Cd(Co3Sn11)2
_symmetry_space_group_name_H-M   'P 1'
_cell_length_a   9.64793648
_cell_length_b   9.65132685
_cell_length_c   9.99316788
_cell_angle_alpha   90.02617377
_cell_angle_beta   89.95232095
_cell_angle_gamma   120.03089664
_symmetry_Int_Tables_number   1
_chemical_formula_structural   Dy4Lu3Cd(Co3Sn11)2
_chemical_formula_sum   'Dy4 Lu3 Cd1 Co6 Sn22'
_cell_volume   805.60068687
_cell_formula_units_Z   1
loop_
 _symmetry_equiv_pos_site_id
 _symmetry_equiv_pos_as_xyz
  1  'x, y, z'
loop_
 _atom_site_type_symbol
 _atom_site_label
 _atom_site_symmetry_multiplicity
 _atom_site_fract_x
 _atom_site_fract_y
 _atom_site_fract_z
 _atom_site_occupancy
  Dy  Dy0  1  0.999531  0.999185  0.000679  1
  Dy  Dy1  1  0.521146  0.040944  0.693292  1
  Dy  Dy2  1  0.040498  0.520304  0.306478  1
  Dy  Dy3  1  0.959401  0.479136  0.693109  1
  Lu  Lu4  1  0.480455  0.518479  0.305283  1
  Lu  Lu5  1  0.519199  0.481026  0.694246  1
  Lu  Lu6  1  0.480515  0.962423  0.305634  1
  Cd  Cd7  1  0.999792  0.999649  0.499578  1
  Co  Co8  1  0.830130  0.167408  0.197187  1
  Co  Co9  1  0.168450  0.831594  0.803180  1
  Co  Co10  1  0.830039  0.662497  0.197715  1
  Co  Co11  1  0.170477  0.338239  0.802894  1
  Co  Co12  1  0.338748  0.169368  0.197930  1
  Co  Co13  1  0.661804  0.829579  0.802349  1
  Sn  Sn14  1  0.346679  0.000408  0.000251  1
  Sn  Sn15  1  0.653342  0.999849  0.999865  1
  Sn  Sn16  1  0.999943  0.346212  0.000241  1
  Sn  Sn17  1  0.999590  0.653285  0.000474  1
  Sn  Sn18  1  0.653289  0.652978  0.000299  1
  Sn  Sn19  1  0.346844  0.346515  0.000510  1
  Sn  Sn20  1  0.333300  0.666034  0.819408  1
  Sn  Sn21  1  0.666416  0.332743  0.180535  1
  Sn  Sn22  1  0.781662  0.215450  0.453656  1
  Sn  Sn23  1  0.218180  0.784131  0.545121  1
  Sn  Sn24  1  0.780365  0.565842  0.454608  1
  Sn  Sn25  1  0.219486  0.433870  0.544874  1
  Sn  Sn26  1  0.433895  0.218190  0.454349  1
  Sn  Sn27  1  0.565265  0.781063  0.543759  1
  Sn  Sn28  1  0.337202  0.669253  0.123807  1
  Sn  Sn29  1  0.664952  0.335605  0.877916  1
  Sn  Sn30  1  0.117128  0.883700  0.270411  1
  Sn  Sn31  1  0.884504  0.115970  0.730020  1
  Sn  Sn32  1  0.117183  0.233584  0.270017  1
  Sn  Sn33  1  0.882509  0.765822  0.729850  1
  Sn  Sn34  1  0.763687  0.881929  0.270083  1
  Sn  Sn35  1  0.234395  0.117735  0.730390  1
