# generated using pymatgen
data_Lu8In3Rh
_symmetry_space_group_name_H-M   'P 1'
_cell_length_a   10.22966000
_cell_length_b   10.22965963
_cell_length_c   6.88356500
_cell_angle_alpha   90.00000000
_cell_angle_beta   90.00000000
_cell_angle_gamma   120.00000121
_symmetry_Int_Tables_number   1
_chemical_formula_structural   Lu8In3Rh
_chemical_formula_sum   'Lu16 In6 Rh2'
_cell_volume   623.83024557
_cell_formula_units_Z   2
loop_
 _symmetry_equiv_pos_site_id
 _symmetry_equiv_pos_as_xyz
  1  'x, y, z'
loop_
 _atom_site_type_symbol
 _atom_site_label
 _atom_site_symmetry_multiplicity
 _atom_site_fract_x
 _atom_site_fract_y
 _atom_site_fract_z
 _atom_site_occupancy
  Lu  Lu0  1  0.532472  0.064944  0.524532  1
  Lu  Lu1  1  0.935056  0.467528  0.524532  1
  Lu  Lu2  1  0.532472  0.467528  0.524532  1
  Lu  Lu3  1  0.467528  0.935056  0.024532  1
  Lu  Lu4  1  0.064944  0.532472  0.024532  1
  Lu  Lu5  1  0.467528  0.532472  0.024532  1
  Lu  Lu6  1  0.177172  0.354343  0.729185  1
  Lu  Lu7  1  0.645657  0.822828  0.729185  1
  Lu  Lu8  1  0.177172  0.822828  0.729185  1
  Lu  Lu9  1  0.822828  0.645657  0.229185  1
  Lu  Lu10  1  0.354343  0.177172  0.229185  1
  Lu  Lu11  1  0.822828  0.177172  0.229185  1
  Lu  Lu12  1  0.666667  0.333333  0.904039  1
  Lu  Lu13  1  0.333333  0.666667  0.404039  1
  Lu  Lu14  1  0.000000  0.000000  0.506659  1
  Lu  Lu15  1  0.000000  0.000000  0.006659  1
  In  In16  1  0.837228  0.674456  0.769254  1
  In  In17  1  0.325544  0.162772  0.769254  1
  In  In18  1  0.837228  0.162772  0.769254  1
  In  In19  1  0.162772  0.325544  0.269254  1
  In  In20  1  0.674456  0.837228  0.269254  1
  In  In21  1  0.162772  0.837228  0.269254  1
  Rh  Rh22  1  0.666667  0.333333  0.298229  1
  Rh  Rh23  1  0.333333  0.666667  0.798229  1
