# generated using pymatgen
data_Sr6Sn8BiTe
_symmetry_space_group_name_H-M   'P 1'
_cell_length_a   9.04782904
_cell_length_b   9.04782870
_cell_length_c   9.04782976
_cell_angle_alpha   120.23178787
_cell_angle_beta   120.23178929
_cell_angle_gamma   89.59899831
_symmetry_Int_Tables_number   1
_chemical_formula_structural   Sr6Sn8BiTe
_chemical_formula_sum   'Sr6 Sn8 Bi1 Te1'
_cell_volume   521.89415287
_cell_formula_units_Z   1
loop_
 _symmetry_equiv_pos_site_id
 _symmetry_equiv_pos_as_xyz
  1  'x, y, z'
loop_
 _atom_site_type_symbol
 _atom_site_label
 _atom_site_symmetry_multiplicity
 _atom_site_fract_x
 _atom_site_fract_y
 _atom_site_fract_z
 _atom_site_occupancy
  Sr  Sr0  1  0.251899  0.251899  0.000000  1
  Sr  Sr1  1  0.748101  0.748101  0.000000  1
  Sr  Sr2  1  0.164044  0.662619  0.826665  1
  Sr  Sr3  1  0.835956  0.337381  0.173335  1
  Sr  Sr4  1  0.662619  0.835956  0.498575  1
  Sr  Sr5  1  0.337381  0.164044  0.501425  1
  Sn  Sn6  1  0.832889  0.330937  0.784621  1
  Sn  Sn7  1  0.167111  0.669063  0.215379  1
  Sn  Sn8  1  0.546315  0.048268  0.215379  1
  Sn  Sn9  1  0.330937  0.546315  0.498048  1
  Sn  Sn10  1  0.951732  0.167111  0.498048  1
  Sn  Sn11  1  0.453685  0.951732  0.784621  1
  Sn  Sn12  1  0.669063  0.453685  0.501952  1
  Sn  Sn13  1  0.048268  0.832889  0.501952  1
  Bi  Bi14  1  0.000000  0.000000  0.000000  1
  Te  Te15  1  0.500000  0.500000  0.000000  1
