# generated using pymatgen
data_Y5Mg2Ni16As12Pd
_symmetry_space_group_name_H-M   'P 1'
_cell_length_a   12.67226684
_cell_length_b   12.70908311
_cell_length_c   3.93893900
_cell_angle_alpha   90.00000000
_cell_angle_beta   90.00000000
_cell_angle_gamma   120.09615863
_symmetry_Int_Tables_number   1
_chemical_formula_structural   Y5Mg2Ni16As12Pd
_chemical_formula_sum   'Y5 Mg2 Ni16 As12 Pd1'
_cell_volume   548.85394092
_cell_formula_units_Z   1
loop_
 _symmetry_equiv_pos_site_id
 _symmetry_equiv_pos_as_xyz
  1  'x, y, z'
loop_
 _atom_site_type_symbol
 _atom_site_label
 _atom_site_symmetry_multiplicity
 _atom_site_fract_x
 _atom_site_fract_y
 _atom_site_fract_z
 _atom_site_occupancy
  Y  Y0  1  0.185890  0.183989  0.500000  1
  Y  Y1  1  0.814110  0.998100  0.500000  1
  Y  Y2  1  0.000000  0.813691  0.500000  1
  Y  Y3  1  0.332180  0.665952  0.000000  1
  Y  Y4  1  0.667820  0.333771  0.000000  1
  Mg  Mg5  1  0.565049  0.564640  0.000000  1
  Mg  Mg6  1  0.434951  0.999590  0.000000  1
  Ni  Ni7  1  0.718280  0.718640  0.500000  1
  Ni  Ni8  1  0.281720  0.000360  0.500000  1
  Ni  Ni9  1  0.000000  0.282007  0.500000  1
  Ni  Ni10  1  0.181705  0.379077  0.000000  1
  Ni  Ni11  1  0.620371  0.803319  0.000000  1
  Ni  Ni12  1  0.195000  0.816107  0.000000  1
  Ni  Ni13  1  0.805000  0.621107  0.000000  1
  Ni  Ni14  1  0.818295  0.197371  0.000000  1
  Ni  Ni15  1  0.379629  0.182947  0.000000  1
  Ni  Ni16  1  0.360231  0.480848  0.500000  1
  Ni  Ni17  1  0.518779  0.880249  0.500000  1
  Ni  Ni18  1  0.122195  0.637888  0.500000  1
  Ni  Ni19  1  0.877805  0.515693  0.500000  1
  Ni  Ni20  1  0.639769  0.120617  0.500000  1
  Ni  Ni21  1  0.481221  0.361469  0.500000  1
  Ni  Ni22  1  0.000000  0.000367  0.000000  1
  As  As23  1  0.822577  0.821727  0.000000  1
  As  As24  1  0.177423  0.999150  0.000000  1
  As  As25  1  0.000000  0.178105  0.000000  1
  As  As26  1  0.170243  0.479252  0.500000  1
  As  As27  1  0.519236  0.692632  0.500000  1
  As  As28  1  0.306702  0.826670  0.500000  1
  As  As29  1  0.693298  0.519967  0.500000  1
  As  As30  1  0.829757  0.309008  0.500000  1
  As  As31  1  0.480764  0.173395  0.500000  1
  As  As32  1  0.357437  0.358751  0.000000  1
  As  As33  1  0.642563  0.001314  0.000000  1
  As  As34  1  0.000000  0.638642  0.000000  1
  Pd  Pd35  1  0.000000  0.443585  0.000000  1
