# generated using pymatgen
data_Er3Zr5(Si4Mo3)4
_symmetry_space_group_name_H-M   'P 1'
_cell_length_a   6.65973100
_cell_length_b   6.81079801
_cell_length_c   12.80311000
_cell_angle_alpha   90.25419267
_cell_angle_beta   90.00161742
_cell_angle_gamma   90.12016535
_symmetry_Int_Tables_number   1
_chemical_formula_structural   Er3Zr5(Si4Mo3)4
_chemical_formula_sum   'Er3 Zr5 Si16 Mo12'
_cell_volume   580.71752885
_cell_formula_units_Z   1
loop_
 _symmetry_equiv_pos_site_id
 _symmetry_equiv_pos_as_xyz
  1  'x, y, z'
loop_
 _atom_site_type_symbol
 _atom_site_label
 _atom_site_symmetry_multiplicity
 _atom_site_fract_x
 _atom_site_fract_y
 _atom_site_fract_z
 _atom_site_occupancy
  Er  Er0  1  0.995150  0.168736  0.094763  1
  Er  Er1  1  0.003685  0.831063  0.906199  1
  Er  Er2  1  0.503317  0.667240  0.907128  1
  Zr  Zr3  1  0.002826  0.830666  0.592602  1
  Zr  Zr4  1  0.497144  0.327434  0.097853  1
  Zr  Zr5  1  0.997631  0.169589  0.406284  1
  Zr  Zr6  1  0.495950  0.331087  0.407154  1
  Zr  Zr7  1  0.503446  0.669816  0.592130  1
  Si  Si8  1  0.035728  0.129102  0.748256  1
  Si  Si9  1  0.965235  0.870925  0.252002  1
  Si  Si10  1  0.465235  0.626114  0.250596  1
  Si  Si11  1  0.535363  0.372784  0.747522  1
  Si  Si12  1  0.301690  0.865130  0.747228  1
  Si  Si13  1  0.698328  0.134968  0.252754  1
  Si  Si14  1  0.200795  0.365176  0.252175  1
  Si  Si15  1  0.800749  0.636064  0.747190  1
  Si  Si16  1  0.166063  0.458413  0.542113  1
  Si  Si17  1  0.834298  0.541722  0.457109  1
  Si  Si18  1  0.333414  0.958454  0.457185  1
  Si  Si19  1  0.833578  0.540360  0.046027  1
  Si  Si20  1  0.666312  0.041648  0.541745  1
  Si  Si21  1  0.163575  0.456631  0.955881  1
  Si  Si22  1  0.661248  0.044891  0.955887  1
  Si  Si23  1  0.338777  0.960320  0.045648  1
  Mo  Mo24  1  0.166373  0.506921  0.747788  1
  Mo  Mo25  1  0.832683  0.491421  0.251616  1
  Mo  Mo26  1  0.332627  0.009023  0.252046  1
  Mo  Mo27  1  0.667043  0.994626  0.746531  1
  Mo  Mo28  1  0.334855  0.165066  0.621577  1
  Mo  Mo29  1  0.664252  0.834532  0.377635  1
  Mo  Mo30  1  0.166983  0.663221  0.377349  1
  Mo  Mo31  1  0.665083  0.835715  0.126464  1
  Mo  Mo32  1  0.834626  0.336382  0.621791  1
  Mo  Mo33  1  0.335808  0.165955  0.874111  1
  Mo  Mo34  1  0.832850  0.335614  0.873803  1
  Mo  Mo35  1  0.167282  0.663187  0.125863  1
