# generated using pymatgen
data_DyEr2Th3Si4
_symmetry_space_group_name_H-M   'P 1'
_cell_length_a   7.59067242
_cell_length_b   7.59067274
_cell_length_c   4.25095400
_cell_angle_alpha   90.00000000
_cell_angle_beta   90.00000000
_cell_angle_gamma   90.50690782
_symmetry_Int_Tables_number   1
_chemical_formula_structural   DyEr2Th3Si4
_chemical_formula_sum   'Dy1 Er2 Th3 Si4'
_cell_volume   244.92320061
_cell_formula_units_Z   1
loop_
 _symmetry_equiv_pos_site_id
 _symmetry_equiv_pos_as_xyz
  1  'x, y, z'
loop_
 _atom_site_type_symbol
 _atom_site_label
 _atom_site_symmetry_multiplicity
 _atom_site_fract_x
 _atom_site_fract_y
 _atom_site_fract_z
 _atom_site_occupancy
  Dy  Dy0  1  0.676089  0.176089  0.500000  1
  Er  Er1  1  0.500510  0.501321  0.000000  1
  Er  Er2  1  0.001321  0.000510  0.000000  1
  Th  Th3  1  0.323469  0.823469  0.500000  1
  Th  Th4  1  0.177713  0.320364  0.500000  1
  Th  Th5  1  0.820364  0.677713  0.500000  1
  Si  Si6  1  0.117047  0.617047  0.000000  1
  Si  Si7  1  0.879015  0.379015  0.000000  1
  Si  Si8  1  0.619026  0.885445  0.000000  1
  Si  Si9  1  0.385445  0.119026  0.000000  1
