# generated using pymatgen
data_Tb6Dy10Cd4Co3Os
_symmetry_space_group_name_H-M   'P 1'
_cell_length_a   9.61414166
_cell_length_b   9.61140104
_cell_length_c   9.61117355
_cell_angle_alpha   59.39950061
_cell_angle_beta   59.39684175
_cell_angle_gamma   59.38884269
_symmetry_Int_Tables_number   1
_chemical_formula_structural   Tb6Dy10Cd4Co3Os
_chemical_formula_sum   'Tb6 Dy10 Cd4 Co3 Os1'
_cell_volume   619.35309893
_cell_formula_units_Z   1
loop_
 _symmetry_equiv_pos_site_id
 _symmetry_equiv_pos_as_xyz
  1  'x, y, z'
loop_
 _atom_site_type_symbol
 _atom_site_label
 _atom_site_symmetry_multiplicity
 _atom_site_fract_x
 _atom_site_fract_y
 _atom_site_fract_z
 _atom_site_occupancy
  Tb  Tb0  1  0.805995  0.189994  0.190215  1
  Tb  Tb1  1  0.057593  0.437396  0.437666  1
  Tb  Tb2  1  0.190014  0.806197  0.190028  1
  Tb  Tb3  1  0.599715  0.599921  0.211531  1
  Tb  Tb4  1  0.190251  0.190043  0.805929  1
  Tb  Tb5  1  0.061614  0.435894  0.061147  1
  Dy  Dy6  1  0.437742  0.437140  0.057600  1
  Dy  Dy7  1  0.595708  0.595903  0.596147  1
  Dy  Dy8  1  0.187309  0.813092  0.812775  1
  Dy  Dy9  1  0.061457  0.060987  0.436259  1
  Dy  Dy10  1  0.436192  0.061456  0.061449  1
  Dy  Dy11  1  0.812883  0.187195  0.813067  1
  Dy  Dy12  1  0.437568  0.057673  0.437249  1
  Dy  Dy13  1  0.599825  0.211727  0.599783  1
  Dy  Dy14  1  0.812849  0.813345  0.187093  1
  Dy  Dy15  1  0.211998  0.599874  0.599646  1
  Cd  Cd16  1  0.829328  0.829566  0.508616  1
  Cd  Cd17  1  0.829910  0.830106  0.829572  1
  Cd  Cd18  1  0.508515  0.829512  0.829348  1
  Cd  Cd19  1  0.829316  0.508580  0.829392  1
  Co  Co20  1  0.829277  0.391776  0.392359  1
  Co  Co21  1  0.391747  0.829494  0.392371  1
  Co  Co22  1  0.392116  0.392177  0.829092  1
  Os  Os23  1  0.391078  0.390957  0.391667  1
