# generated using pymatgen
data_U3NiP2Ru3
_symmetry_space_group_name_H-M   'P 1'
_cell_length_a   6.58598000
_cell_length_b   6.58598038
_cell_length_c   4.02258400
_cell_angle_alpha   90.00000000
_cell_angle_beta   90.00000000
_cell_angle_gamma   119.99998807
_symmetry_Int_Tables_number   1
_chemical_formula_structural   U3NiP2Ru3
_chemical_formula_sum   'U3 Ni1 P2 Ru3'
_cell_volume   151.10423817
_cell_formula_units_Z   1
loop_
 _symmetry_equiv_pos_site_id
 _symmetry_equiv_pos_as_xyz
  1  'x, y, z'
loop_
 _atom_site_type_symbol
 _atom_site_label
 _atom_site_symmetry_multiplicity
 _atom_site_fract_x
 _atom_site_fract_y
 _atom_site_fract_z
 _atom_site_occupancy
  U  U0  1  0.000000  0.604812  0.500000  1
  U  U1  1  0.395188  0.395188  0.500000  1
  U  U2  1  0.604812  0.000000  0.500000  1
  Ni  Ni3  1  0.000000  0.000000  0.500000  1
  P  P4  1  0.666667  0.333333  0.000000  1
  P  P5  1  0.333333  0.666667  0.000000  1
  Ru  Ru6  1  0.247735  0.000000  0.000000  1
  Ru  Ru7  1  0.752265  0.752265  0.000000  1
  Ru  Ru8  1  0.000000  0.247735  0.000000  1
