# generated using pymatgen
data_Ce2PrTh(CoSi3)2
_symmetry_space_group_name_H-M   'P 1'
_cell_length_a   8.06800600
_cell_length_b   8.06800483
_cell_length_c   4.15910500
_cell_angle_alpha   90.00000000
_cell_angle_beta   90.00000000
_cell_angle_gamma   119.72433420
_symmetry_Int_Tables_number   1
_chemical_formula_structural   Ce2PrTh(CoSi3)2
_chemical_formula_sum   'Ce2 Pr1 Th1 Co2 Si6'
_cell_volume   235.10538050
_cell_formula_units_Z   1
loop_
 _symmetry_equiv_pos_site_id
 _symmetry_equiv_pos_as_xyz
  1  'x, y, z'
loop_
 _atom_site_type_symbol
 _atom_site_label
 _atom_site_symmetry_multiplicity
 _atom_site_fract_x
 _atom_site_fract_y
 _atom_site_fract_z
 _atom_site_occupancy
  Ce  Ce0  1  0.000000  0.500000  0.000000  1
  Ce  Ce1  1  0.500000  0.000000  0.000000  1
  Pr  Pr2  1  0.000000  0.000000  0.000000  1
  Th  Th3  1  0.500000  0.500000  0.000000  1
  Co  Co4  1  0.335482  0.664518  0.500000  1
  Co  Co5  1  0.664518  0.335482  0.500000  1
  Si  Si6  1  0.831686  0.658942  0.500000  1
  Si  Si7  1  0.172955  0.827045  0.500000  1
  Si  Si8  1  0.658942  0.831686  0.500000  1
  Si  Si9  1  0.168314  0.341058  0.500000  1
  Si  Si10  1  0.827045  0.172955  0.500000  1
  Si  Si11  1  0.341058  0.168314  0.500000  1
