# generated using pymatgen
data_YbYRh2O7
_symmetry_space_group_name_H-M   'P 1'
_cell_length_a   7.22091906
_cell_length_b   7.22091955
_cell_length_c   7.22091926
_cell_angle_alpha   119.91235419
_cell_angle_beta   120.10013786
_cell_angle_gamma   89.98926005
_symmetry_Int_Tables_number   1
_chemical_formula_structural   YbYRh2O7
_chemical_formula_sum   'Yb2 Y2 Rh4 O14'
_cell_volume   266.20732420
_cell_formula_units_Z   2
loop_
 _symmetry_equiv_pos_site_id
 _symmetry_equiv_pos_as_xyz
  1  'x, y, z'
loop_
 _atom_site_type_symbol
 _atom_site_label
 _atom_site_symmetry_multiplicity
 _atom_site_fract_x
 _atom_site_fract_y
 _atom_site_fract_z
 _atom_site_occupancy
  Yb  Yb0  1  0.000000  0.500000  0.000000  1
  Yb  Yb1  1  0.000000  0.000000  0.500000  1
  Y  Y2  1  0.000000  0.500000  0.500000  1
  Y  Y3  1  0.500000  0.500000  0.000000  1
  Rh  Rh4  1  0.500000  0.000000  0.000000  1
  Rh  Rh5  1  0.500000  0.500000  0.500000  1
  Rh  Rh6  1  0.500000  0.000000  0.500000  1
  Rh  Rh7  1  0.000000  0.000000  0.000000  1
  O  O8  1  0.871179  0.621179  0.250000  1
  O  O9  1  0.128821  0.378821  0.750000  1
  O  O10  1  0.829106  0.079106  0.750000  1
  O  O11  1  0.418358  0.668358  0.750000  1
  O  O12  1  0.830504  0.668894  0.745997  1
  O  O13  1  0.422896  0.084508  0.754003  1
  O  O14  1  0.830504  0.084508  0.161611  1
  O  O15  1  0.422896  0.668894  0.338389  1
  O  O16  1  0.170894  0.920894  0.250000  1
  O  O17  1  0.581642  0.331642  0.250000  1
  O  O18  1  0.169496  0.331106  0.254003  1
  O  O19  1  0.577104  0.915492  0.245997  1
  O  O20  1  0.169496  0.915492  0.838389  1
  O  O21  1  0.577104  0.331106  0.661611  1
