# generated using pymatgen
data_Tb11Cd9Pd3Pt
_symmetry_space_group_name_H-M   'P 1'
_cell_length_a   13.21340429
_cell_length_b   13.21067791
_cell_length_c   3.71504300
_cell_angle_alpha   90.00000000
_cell_angle_beta   90.00000000
_cell_angle_gamma   112.52376330
_symmetry_Int_Tables_number   1
_chemical_formula_structural   Tb11Cd9Pd3Pt
_chemical_formula_sum   'Tb11 Cd9 Pd3 Pt1'
_cell_volume   599.02419647
_cell_formula_units_Z   1
loop_
 _symmetry_equiv_pos_site_id
 _symmetry_equiv_pos_as_xyz
  1  'x, y, z'
loop_
 _atom_site_type_symbol
 _atom_site_label
 _atom_site_symmetry_multiplicity
 _atom_site_fract_x
 _atom_site_fract_y
 _atom_site_fract_z
 _atom_site_occupancy
  Tb  Tb0  1  0.415521  0.075640  0.000000  1
  Tb  Tb1  1  0.584660  0.925558  0.000000  1
  Tb  Tb2  1  0.074619  0.415441  0.000000  1
  Tb  Tb3  1  0.925380  0.584444  0.000000  1
  Tb  Tb4  1  0.162434  0.838071  0.000000  1
  Tb  Tb5  1  0.836933  0.161949  0.000000  1
  Tb  Tb6  1  0.372862  0.626960  0.000000  1
  Tb  Tb7  1  0.625042  0.371630  0.000000  1
  Tb  Tb8  1  0.309083  0.306631  0.000000  1
  Tb  Tb9  1  0.692720  0.692527  0.000000  1
  Tb  Tb10  1  0.000599  0.000340  0.000000  1
  Cd  Cd11  1  0.366191  0.842011  0.500000  1
  Cd  Cd12  1  0.634711  0.157638  0.500000  1
  Cd  Cd13  1  0.841951  0.366428  0.500000  1
  Cd  Cd14  1  0.157660  0.633732  0.500000  1
  Cd  Cd15  1  0.212914  0.068182  0.500000  1
  Cd  Cd16  1  0.785860  0.931038  0.500000  1
  Cd  Cd17  1  0.069024  0.213959  0.500000  1
  Cd  Cd18  1  0.931016  0.785646  0.500000  1
  Cd  Cd19  1  0.500339  0.501005  0.500000  1
  Pd  Pd20  1  0.549286  0.750431  0.500000  1
  Pd  Pd21  1  0.249518  0.451383  0.500000  1
  Pd  Pd22  1  0.751042  0.550097  0.500000  1
  Pt  Pt23  1  0.450636  0.249259  0.500000  1
