# generated using pymatgen
data_Ca8Yb7Dy5Pt16
_symmetry_space_group_name_H-M   'P 1'
_cell_length_a   7.50502140
_cell_length_b   7.63686809
_cell_length_c   14.54745000
_cell_angle_alpha   90.03553195
_cell_angle_beta   90.01858958
_cell_angle_gamma   90.04745694
_symmetry_Int_Tables_number   1
_chemical_formula_structural   Ca8Yb7Dy5Pt16
_chemical_formula_sum   'Ca8 Yb7 Dy5 Pt16'
_cell_volume   833.78454650
_cell_formula_units_Z   1
loop_
 _symmetry_equiv_pos_site_id
 _symmetry_equiv_pos_as_xyz
  1  'x, y, z'
loop_
 _atom_site_type_symbol
 _atom_site_label
 _atom_site_symmetry_multiplicity
 _atom_site_fract_x
 _atom_site_fract_y
 _atom_site_fract_z
 _atom_site_occupancy
  Ca  Ca0  1  0.498756  0.325395  0.902531  1
  Ca  Ca1  1  0.999271  0.175698  0.595729  1
  Ca  Ca2  1  0.499866  0.676352  0.405270  1
  Ca  Ca3  1  0.002471  0.822421  0.095899  1
  Ca  Ca4  1  0.501671  0.677138  0.096879  1
  Ca  Ca5  1  0.002309  0.821156  0.404263  1
  Ca  Ca6  1  0.498145  0.321742  0.597048  1
  Ca  Ca7  1  0.998083  0.178521  0.902100  1
  Yb  Yb8  1  0.163661  0.333548  0.378580  1
  Yb  Yb9  1  0.337172  0.832800  0.621848  1
  Yb  Yb10  1  0.837911  0.666971  0.878050  1
  Yb  Yb11  1  0.177775  0.490900  0.749311  1
  Yb  Yb12  1  0.678357  0.009728  0.749684  1
  Yb  Yb13  1  0.823541  0.512097  0.251060  1
  Yb  Yb14  1  0.319604  0.988870  0.251187  1
  Dy  Dy15  1  0.336794  0.836063  0.877140  1
  Dy  Dy16  1  0.836579  0.665055  0.622878  1
  Dy  Dy17  1  0.662267  0.165165  0.377103  1
  Dy  Dy18  1  0.162430  0.334769  0.122659  1
  Dy  Dy19  1  0.663648  0.166873  0.122364  1
  Pt  Pt20  1  0.327373  0.039498  0.042562  1
  Pt  Pt21  1  0.824887  0.461391  0.458596  1
  Pt  Pt22  1  0.674563  0.961235  0.541378  1
  Pt  Pt23  1  0.172855  0.539717  0.958903  1
  Pt  Pt24  1  0.667437  0.967052  0.957758  1
  Pt  Pt25  1  0.163394  0.534027  0.543143  1
  Pt  Pt26  1  0.336029  0.034045  0.456542  1
  Pt  Pt27  1  0.833635  0.460409  0.042752  1
  Pt  Pt28  1  0.541865  0.628198  0.752573  1
  Pt  Pt29  1  0.042115  0.872900  0.748436  1
  Pt  Pt30  1  0.460433  0.371984  0.248713  1
  Pt  Pt31  1  0.957007  0.127807  0.247968  1
  Pt  Pt32  1  0.301709  0.130875  0.752005  1
  Pt  Pt33  1  0.801475  0.369900  0.747592  1
  Pt  Pt34  1  0.695243  0.870569  0.250762  1
  Pt  Pt35  1  0.199665  0.629132  0.248736  1
