# generated using pymatgen
data_K6LuAlSb4
_symmetry_space_group_name_H-M   'P 1'
_cell_length_a   9.70856803
_cell_length_b   9.70856841
_cell_length_c   9.70856903
_cell_angle_alpha   128.13580599
_cell_angle_beta   69.56953068
_cell_angle_gamma   137.01589988
_symmetry_Int_Tables_number   1
_chemical_formula_structural   K6LuAlSb4
_chemical_formula_sum   'K6 Lu1 Al1 Sb4'
_cell_volume   481.65427061
_cell_formula_units_Z   1
loop_
 _symmetry_equiv_pos_site_id
 _symmetry_equiv_pos_as_xyz
  1  'x, y, z'
loop_
 _atom_site_type_symbol
 _atom_site_label
 _atom_site_symmetry_multiplicity
 _atom_site_fract_x
 _atom_site_fract_y
 _atom_site_fract_z
 _atom_site_occupancy
  K  K0  1  0.805927  0.179934  0.003863  1
  K  K1  1  0.694074  0.697937  0.374006  1
  K  K2  1  0.750000  0.250000  0.500000  1
  K  K3  1  0.250000  0.750000  0.499999  1
  K  K4  1  0.323931  0.320067  0.625993  1
  K  K5  1  0.176069  0.802064  0.996137  1
  Lu  Lu6  1  0.250000  0.250000  0.000000  1
  Al  Al7  1  0.750000  0.750000  0.000000  1
  Sb  Sb8  1  0.417618  0.709261  0.092842  1
  Sb  Sb9  1  0.082381  0.175224  0.291643  1
  Sb  Sb10  1  0.883580  0.790738  0.708358  1
  Sb  Sb11  1  0.616419  0.324776  0.907157  1
