# generated using pymatgen
data_LaBeSiIr3
_symmetry_space_group_name_H-M   'P 1'
_cell_length_a   5.52714000
_cell_length_b   5.52714130
_cell_length_c   3.54198900
_cell_angle_alpha   90.00000000
_cell_angle_beta   90.00000000
_cell_angle_gamma   120.00001614
_symmetry_Int_Tables_number   1
_chemical_formula_structural   LaBeSiIr3
_chemical_formula_sum   'La1 Be1 Si1 Ir3'
_cell_volume   93.70846026
_cell_formula_units_Z   1
loop_
 _symmetry_equiv_pos_site_id
 _symmetry_equiv_pos_as_xyz
  1  'x, y, z'
loop_
 _atom_site_type_symbol
 _atom_site_label
 _atom_site_symmetry_multiplicity
 _atom_site_fract_x
 _atom_site_fract_y
 _atom_site_fract_z
 _atom_site_occupancy
  La  La0  1  0.000000  0.000000  0.000000  1
  Be  Be1  1  0.333333  0.666667  0.000000  1
  Si  Si2  1  0.666667  0.333333  0.000000  1
  Ir  Ir3  1  0.007762  0.503881  0.500000  1
  Ir  Ir4  1  0.496119  0.503881  0.500000  1
  Ir  Ir5  1  0.496119  0.992238  0.500000  1
