# generated using pymatgen
data_TmTh3(ZnRh)4
_symmetry_space_group_name_H-M   'P 1'
_cell_length_a   3.98186100
_cell_length_b   7.18626260
_cell_length_c   8.40095759
_cell_angle_alpha   90.08322402
_cell_angle_beta   90.00000000
_cell_angle_gamma   90.00000000
_symmetry_Int_Tables_number   1
_chemical_formula_structural   TmTh3(ZnRh)4
_chemical_formula_sum   'Tm1 Th3 Zn4 Rh4'
_cell_volume   240.39061733
_cell_formula_units_Z   1
loop_
 _symmetry_equiv_pos_site_id
 _symmetry_equiv_pos_as_xyz
  1  'x, y, z'
loop_
 _atom_site_type_symbol
 _atom_site_label
 _atom_site_symmetry_multiplicity
 _atom_site_fract_x
 _atom_site_fract_y
 _atom_site_fract_z
 _atom_site_occupancy
  Tm  Tm0  1  0.250000  0.054347  0.307918  1
  Th  Th1  1  0.250000  0.551681  0.194331  1
  Th  Th2  1  0.750000  0.450099  0.812818  1
  Th  Th3  1  0.750000  0.951294  0.679971  1
  Zn  Zn4  1  0.250000  0.623630  0.558269  1
  Zn  Zn5  1  0.750000  0.359992  0.438155  1
  Zn  Zn6  1  0.750000  0.885048  0.065691  1
  Zn  Zn7  1  0.250000  0.122078  0.944335  1
  Rh  Rh8  1  0.250000  0.740334  0.872341  1
  Rh  Rh9  1  0.750000  0.266317  0.122893  1
  Rh  Rh10  1  0.750000  0.756630  0.373831  1
  Rh  Rh11  1  0.250000  0.238552  0.629447  1
