# generated using pymatgen
data_Sc2AlMoOs2
_symmetry_space_group_name_H-M   'P 1'
_cell_length_a   5.31390893
_cell_length_b   5.32318239
_cell_length_c   8.46849800
_cell_angle_alpha   90.00000000
_cell_angle_beta   90.00000000
_cell_angle_gamma   120.05777269
_symmetry_Int_Tables_number   1
_chemical_formula_structural   Sc2AlMoOs2
_chemical_formula_sum   'Sc4 Al2 Mo2 Os4'
_cell_volume   207.33343999
_cell_formula_units_Z   2
loop_
 _symmetry_equiv_pos_site_id
 _symmetry_equiv_pos_as_xyz
  1  'x, y, z'
loop_
 _atom_site_type_symbol
 _atom_site_label
 _atom_site_symmetry_multiplicity
 _atom_site_fract_x
 _atom_site_fract_y
 _atom_site_fract_z
 _atom_site_occupancy
  Sc  Sc0  1  0.337192  0.673411  0.061644  1
  Sc  Sc1  1  0.662808  0.336218  0.561644  1
  Sc  Sc2  1  0.337192  0.673411  0.438356  1
  Sc  Sc3  1  0.662808  0.336218  0.938356  1
  Al  Al4  1  0.835143  0.175884  0.250000  1
  Al  Al5  1  0.164857  0.340742  0.750000  1
  Mo  Mo6  1  0.000000  0.979989  0.500000  1
  Mo  Mo7  1  0.000000  0.979989  0.000000  1
  Os  Os8  1  0.825628  0.656879  0.250000  1
  Os  Os9  1  0.174372  0.831253  0.750000  1
  Os  Os10  1  0.650754  0.833381  0.750000  1
  Os  Os11  1  0.349246  0.182627  0.250000  1
