# generated using pymatgen
data_Er10In8Rh3Au
_symmetry_space_group_name_H-M   'P 1'
_cell_length_a   3.59027200
_cell_length_b   8.10002821
_cell_length_c   18.18416308
_cell_angle_alpha   90.01157989
_cell_angle_beta   90.00000000
_cell_angle_gamma   90.00000000
_symmetry_Int_Tables_number   1
_chemical_formula_structural   Er10In8Rh3Au
_chemical_formula_sum   'Er10 In8 Rh3 Au1'
_cell_volume   528.81917236
_cell_formula_units_Z   1
loop_
 _symmetry_equiv_pos_site_id
 _symmetry_equiv_pos_as_xyz
  1  'x, y, z'
loop_
 _atom_site_type_symbol
 _atom_site_label
 _atom_site_symmetry_multiplicity
 _atom_site_fract_x
 _atom_site_fract_y
 _atom_site_fract_z
 _atom_site_occupancy
  Er  Er0  1  0.000000  0.115193  0.415484  1
  Er  Er1  1  0.000000  0.882732  0.588513  1
  Er  Er2  1  0.000000  0.384540  0.910897  1
  Er  Er3  1  0.000000  0.620252  0.081307  1
  Er  Er4  1  0.000000  0.226556  0.222154  1
  Er  Er5  1  0.000000  0.757445  0.778240  1
  Er  Er6  1  0.000000  0.255039  0.721616  1
  Er  Er7  1  0.000000  0.758506  0.281549  1
  Er  Er8  1  0.000000  0.999782  0.998443  1
  Er  Er9  1  0.000000  0.500131  0.501100  1
  In  In10  1  0.500000  0.419853  0.353082  1
  In  In11  1  0.500000  0.571078  0.650101  1
  In  In12  1  0.500000  0.073977  0.850047  1
  In  In13  1  0.500000  0.927203  0.148382  1
  In  In14  1  0.500000  0.291323  0.064212  1
  In  In15  1  0.500000  0.708509  0.930379  1
  In  In16  1  0.500000  0.206057  0.568102  1
  In  In17  1  0.500000  0.792247  0.433196  1
  Rh  Rh18  1  0.500000  0.024779  0.305670  1
  Rh  Rh19  1  0.500000  0.980605  0.695679  1
  Rh  Rh20  1  0.500000  0.480790  0.804029  1
  Au  Au21  1  0.500000  0.523403  0.197818  1
