# generated using pymatgen
data_Tb2Lu6In3Fe
_symmetry_space_group_name_H-M   'P 1'
_cell_length_a   10.14821400
_cell_length_b   10.14372763
_cell_length_c   7.05694696
_cell_angle_alpha   89.89434131
_cell_angle_beta   90.00000000
_cell_angle_gamma   120.01462507
_symmetry_Int_Tables_number   1
_chemical_formula_structural   Tb2Lu6In3Fe
_chemical_formula_sum   'Tb4 Lu12 In6 Fe2'
_cell_volume   629.02756159
_cell_formula_units_Z   2
loop_
 _symmetry_equiv_pos_site_id
 _symmetry_equiv_pos_as_xyz
  1  'x, y, z'
loop_
 _atom_site_type_symbol
 _atom_site_label
 _atom_site_symmetry_multiplicity
 _atom_site_fract_x
 _atom_site_fract_y
 _atom_site_fract_z
 _atom_site_occupancy
  Tb  Tb0  1  0.070696  0.535645  0.285926  1
  Tb  Tb1  1  0.464948  0.535645  0.285926  1
  Tb  Tb2  1  0.999753  0.999505  0.772600  1
  Tb  Tb3  1  0.000025  0.000049  0.271036  1
  Lu  Lu4  1  0.820208  0.640418  0.492011  1
  Lu  Lu5  1  0.360846  0.179669  0.491093  1
  Lu  Lu6  1  0.818823  0.179669  0.491093  1
  Lu  Lu7  1  0.179218  0.358436  0.987017  1
  Lu  Lu8  1  0.640649  0.821000  0.988238  1
  Lu  Lu9  1  0.180353  0.821000  0.988238  1
  Lu  Lu10  1  0.665890  0.331778  0.179803  1
  Lu  Lu11  1  0.333759  0.667520  0.682206  1
  Lu  Lu12  1  0.537359  0.074718  0.788176  1
  Lu  Lu13  1  0.924454  0.462302  0.787066  1
  Lu  Lu14  1  0.537849  0.462302  0.787066  1
  Lu  Lu15  1  0.463922  0.927844  0.287206  1
  In  In16  1  0.835714  0.671430  0.039897  1
  In  In17  1  0.328582  0.164305  0.040744  1
  In  In18  1  0.835723  0.164305  0.040744  1
  In  In19  1  0.163519  0.327037  0.541145  1
  In  In20  1  0.671930  0.836631  0.540760  1
  In  In21  1  0.164702  0.836631  0.540760  1
  Fe  Fe22  1  0.666759  0.333515  0.559745  1
  Fe  Fe23  1  0.334321  0.668642  0.057577  1
