# generated using pymatgen
data_Gd2DyErB16
_symmetry_space_group_name_H-M   'P 1'
_cell_length_a   7.10979314
_cell_length_b   7.11006107
_cell_length_c   4.02812300
_cell_angle_alpha   90.00000000
_cell_angle_beta   90.00000000
_cell_angle_gamma   90.15093954
_symmetry_Int_Tables_number   1
_chemical_formula_structural   Gd2DyErB16
_chemical_formula_sum   'Gd2 Dy1 Er1 B16'
_cell_volume   203.62519460
_cell_formula_units_Z   1
loop_
 _symmetry_equiv_pos_site_id
 _symmetry_equiv_pos_as_xyz
  1  'x, y, z'
loop_
 _atom_site_type_symbol
 _atom_site_label
 _atom_site_symmetry_multiplicity
 _atom_site_fract_x
 _atom_site_fract_y
 _atom_site_fract_z
 _atom_site_occupancy
  Gd  Gd0  1  0.182242  0.682280  0.000000  1
  Gd  Gd1  1  0.317988  0.181807  0.000000  1
  Dy  Dy2  1  0.818156  0.318145  0.000000  1
  Er  Er3  1  0.681588  0.818337  0.000000  1
  B  B4  1  0.325102  0.461360  0.500000  1
  B  B5  1  0.677216  0.539327  0.500000  1
  B  B6  1  0.539952  0.324277  0.500000  1
  B  B7  1  0.462973  0.676433  0.500000  1
  B  B8  1  0.998298  0.999724  0.202414  1
  B  B9  1  0.501566  0.500594  0.797591  1
  B  B10  1  0.998298  0.999724  0.797586  1
  B  B11  1  0.501566  0.500594  0.202409  1
  B  B12  1  0.587161  0.086830  0.500000  1
  B  B13  1  0.087261  0.412631  0.500000  1
  B  B14  1  0.913141  0.586772  0.500000  1
  B  B15  1  0.412776  0.912422  0.500000  1
  B  B16  1  0.037555  0.175851  0.500000  1
  B  B17  1  0.174851  0.961093  0.500000  1
  B  B18  1  0.822727  0.038091  0.500000  1
  B  B19  1  0.959584  0.823711  0.500000  1
