# generated using pymatgen
data_Hf3TiReOs
_symmetry_space_group_name_H-M   'P 1'
_cell_length_a   8.59907577
_cell_length_b   8.59907575
_cell_length_c   8.59907500
_cell_angle_alpha   59.99999905
_cell_angle_beta   59.99999912
_cell_angle_gamma   60.00000157
_symmetry_Int_Tables_number   1
_chemical_formula_structural   Hf3TiReOs
_chemical_formula_sum   'Hf12 Ti4 Re4 Os4'
_cell_volume   449.61447930
_cell_formula_units_Z   4
loop_
 _symmetry_equiv_pos_site_id
 _symmetry_equiv_pos_as_xyz
  1  'x, y, z'
loop_
 _atom_site_type_symbol
 _atom_site_label
 _atom_site_symmetry_multiplicity
 _atom_site_fract_x
 _atom_site_fract_y
 _atom_site_fract_z
 _atom_site_occupancy
  Hf  Hf0  1  0.807047  0.807047  0.192953  1
  Hf  Hf1  1  0.192953  0.192953  0.807047  1
  Hf  Hf2  1  0.807047  0.192953  0.807047  1
  Hf  Hf3  1  0.192953  0.807047  0.192953  1
  Hf  Hf4  1  0.192953  0.807047  0.807047  1
  Hf  Hf5  1  0.807047  0.192953  0.192953  1
  Hf  Hf6  1  0.443154  0.443154  0.056846  1
  Hf  Hf7  1  0.056846  0.056846  0.443154  1
  Hf  Hf8  1  0.443154  0.056846  0.443154  1
  Hf  Hf9  1  0.056846  0.443154  0.056846  1
  Hf  Hf10  1  0.056846  0.443154  0.443154  1
  Hf  Hf11  1  0.443154  0.056846  0.056846  1
  Ti  Ti12  1  0.122030  0.625990  0.625990  1
  Ti  Ti13  1  0.625990  0.122030  0.625990  1
  Ti  Ti14  1  0.625990  0.625990  0.122030  1
  Ti  Ti15  1  0.625990  0.625990  0.625990  1
  Re  Re16  1  0.757584  0.414138  0.414138  1
  Re  Re17  1  0.414138  0.757584  0.414138  1
  Re  Re18  1  0.414138  0.414138  0.757584  1
  Re  Re19  1  0.414138  0.414138  0.414138  1
  Os  Os20  1  0.492807  0.835732  0.835732  1
  Os  Os21  1  0.835732  0.492807  0.835732  1
  Os  Os22  1  0.835732  0.835732  0.492807  1
  Os  Os23  1  0.835732  0.835732  0.835732  1
