# generated using pymatgen
data_Tb7Dy(LuBi)12
_symmetry_space_group_name_H-M   'P 1'
_cell_length_a   8.18927603
_cell_length_b   9.40467100
_cell_length_c   11.99467200
_cell_angle_alpha   90.00000000
_cell_angle_beta   89.99504652
_cell_angle_gamma   90.00000000
_symmetry_Int_Tables_number   1
_chemical_formula_structural   Tb7Dy(LuBi)12
_chemical_formula_sum   'Tb7 Dy1 Lu12 Bi12'
_cell_volume   923.79900914
_cell_formula_units_Z   1
loop_
 _symmetry_equiv_pos_site_id
 _symmetry_equiv_pos_as_xyz
  1  'x, y, z'
loop_
 _atom_site_type_symbol
 _atom_site_label
 _atom_site_symmetry_multiplicity
 _atom_site_fract_x
 _atom_site_fract_y
 _atom_site_fract_z
 _atom_site_occupancy
  Tb  Tb0  1  0.185971  0.750000  0.718716  1
  Tb  Tb1  1  0.686074  0.750000  0.781217  1
  Tb  Tb2  1  0.814076  0.250000  0.281247  1
  Tb  Tb3  1  0.313961  0.250000  0.218764  1
  Tb  Tb4  1  0.353026  0.750000  0.216721  1
  Tb  Tb5  1  0.853140  0.750000  0.283255  1
  Tb  Tb6  1  0.646885  0.250000  0.783271  1
  Dy  Dy7  1  0.146894  0.250000  0.716910  1
  Lu  Lu8  1  0.023617  0.750000  0.989384  1
  Lu  Lu9  1  0.523579  0.750000  0.510473  1
  Lu  Lu10  1  0.976394  0.250000  0.010511  1
  Lu  Lu11  1  0.476416  0.250000  0.489422  1
  Lu  Lu12  1  0.307634  0.433677  0.941016  1
  Lu  Lu13  1  0.807627  0.066304  0.559001  1
  Lu  Lu14  1  0.692373  0.933693  0.058973  1
  Lu  Lu15  1  0.192374  0.566379  0.440980  1
  Lu  Lu16  1  0.692373  0.566307  0.058973  1
  Lu  Lu17  1  0.192374  0.933621  0.440980  1
  Lu  Lu18  1  0.307634  0.066323  0.941016  1
  Lu  Lu19  1  0.807627  0.433696  0.559001  1
  Bi  Bi20  1  0.433781  0.004027  0.671459  1
  Bi  Bi21  1  0.933938  0.495954  0.828411  1
  Bi  Bi22  1  0.566127  0.503969  0.328531  1
  Bi  Bi23  1  0.066135  0.996043  0.171526  1
  Bi  Bi24  1  0.566127  0.996031  0.328531  1
  Bi  Bi25  1  0.066135  0.503957  0.171526  1
  Bi  Bi26  1  0.433781  0.495973  0.671459  1
  Bi  Bi27  1  0.933938  0.004046  0.828411  1
  Bi  Bi28  1  0.404080  0.750000  0.957312  1
  Bi  Bi29  1  0.904080  0.750000  0.542710  1
  Bi  Bi30  1  0.595915  0.250000  0.042717  1
  Bi  Bi31  1  0.095915  0.250000  0.457573  1
