# generated using pymatgen
data_Sm5YU4O20
_symmetry_space_group_name_H-M   'P 1'
_cell_length_a   6.71676873
_cell_length_b   7.60996064
_cell_length_c   8.52134173
_cell_angle_alpha   101.20923494
_cell_angle_beta   97.69517596
_cell_angle_gamma   107.22119413
_symmetry_Int_Tables_number   1
_chemical_formula_structural   Sm5YU4O20
_chemical_formula_sum   'Sm5 Y1 U4 O20'
_cell_volume   399.48886727
_cell_formula_units_Z   1
loop_
 _symmetry_equiv_pos_site_id
 _symmetry_equiv_pos_as_xyz
  1  'x, y, z'
loop_
 _atom_site_type_symbol
 _atom_site_label
 _atom_site_symmetry_multiplicity
 _atom_site_fract_x
 _atom_site_fract_y
 _atom_site_fract_z
 _atom_site_occupancy
  Sm  Sm0  1  0.613384  0.703984  0.699390  1
  Sm  Sm1  1  0.386616  0.296016  0.300610  1
  Sm  Sm2  1  0.198225  0.897316  0.892229  1
  Sm  Sm3  1  0.000000  0.500000  0.500000  1
  Sm  Sm4  1  0.801775  0.102684  0.107771  1
  Y  Y5  1  0.000000  0.000000  0.500000  1
  U  U6  1  0.401549  0.804054  0.301932  1
  U  U7  1  0.198770  0.400517  0.900187  1
  U  U8  1  0.801230  0.599483  0.099813  1
  U  U9  1  0.598451  0.195946  0.698068  1
  O  O10  1  0.439037  0.532882  0.135164  1
  O  O11  1  0.556288  0.990854  0.839092  1
  O  O12  1  0.271354  0.148561  0.743911  1
  O  O13  1  0.359795  0.597170  0.439817  1
  O  O14  1  0.054904  0.731298  0.329249  1
  O  O15  1  0.443712  0.009146  0.160908  1
  O  O16  1  0.150133  0.186812  0.030473  1
  O  O17  1  0.560963  0.467118  0.864836  1
  O  O18  1  0.854652  0.339278  0.949883  1
  O  O19  1  0.255760  0.603641  0.761299  1
  O  O20  1  0.954393  0.776171  0.649022  1
  O  O21  1  0.354397  0.059914  0.454724  1
  O  O22  1  0.645603  0.940086  0.545276  1
  O  O23  1  0.045607  0.223829  0.350978  1
  O  O24  1  0.744240  0.396359  0.238701  1
  O  O25  1  0.145348  0.660722  0.050117  1
  O  O26  1  0.849867  0.813188  0.969527  1
  O  O27  1  0.945096  0.268702  0.670751  1
  O  O28  1  0.640205  0.402830  0.560183  1
  O  O29  1  0.728646  0.851439  0.256089  1
