# generated using pymatgen
data_Tb3Nd3Al24Ru7Rh
_symmetry_space_group_name_H-M   'P 1'
_cell_length_a   8.85887243
_cell_length_b   8.86534252
_cell_length_c   9.66342982
_cell_angle_alpha   89.99999969
_cell_angle_beta   89.92727354
_cell_angle_gamma   120.02416818
_symmetry_Int_Tables_number   1
_chemical_formula_structural   Tb3Nd3Al24Ru7Rh
_chemical_formula_sum   'Tb3 Nd3 Al24 Ru7 Rh1'
_cell_volume   657.09719326
_cell_formula_units_Z   1
loop_
 _symmetry_equiv_pos_site_id
 _symmetry_equiv_pos_as_xyz
  1  'x, y, z'
loop_
 _atom_site_type_symbol
 _atom_site_label
 _atom_site_symmetry_multiplicity
 _atom_site_fract_x
 _atom_site_fract_y
 _atom_site_fract_z
 _atom_site_occupancy
  Tb  Tb0  1  0.613340  0.806670  0.750801  1
  Tb  Tb1  1  0.193699  0.808369  0.750974  1
  Tb  Tb2  1  0.193699  0.385331  0.750974  1
  Nd  Nd3  1  0.384113  0.192057  0.249251  1
  Nd  Nd4  1  0.807394  0.191435  0.249416  1
  Nd  Nd5  1  0.807394  0.615957  0.249416  1
  Al  Al6  1  0.436349  0.873684  0.250339  1
  Al  Al7  1  0.126166  0.563083  0.248790  1
  Al  Al8  1  0.436349  0.562665  0.250339  1
  Al  Al9  1  0.561435  0.122298  0.749717  1
  Al  Al10  1  0.878144  0.439071  0.750492  1
  Al  Al11  1  0.561435  0.439138  0.749717  1
  Al  Al12  1  0.164891  0.838317  0.426869  1
  Al  Al13  1  0.164891  0.326575  0.426869  1
  Al  Al14  1  0.673170  0.836585  0.426610  1
  Al  Al15  1  0.835796  0.160344  0.578941  1
  Al  Al16  1  0.835796  0.675452  0.578941  1
  Al  Al17  1  0.324947  0.162473  0.579392  1
  Al  Al18  1  0.837730  0.162665  0.921471  1
  Al  Al19  1  0.837730  0.675064  0.921471  1
  Al  Al20  1  0.325481  0.162740  0.920863  1
  Al  Al21  1  0.163320  0.836321  0.072741  1
  Al  Al22  1  0.163320  0.326999  0.072741  1
  Al  Al23  1  0.672870  0.836435  0.073199  1
  Al  Al24  1  0.335069  0.667535  0.518741  1
  Al  Al25  1  0.664529  0.332264  0.489352  1
  Al  Al26  1  0.666764  0.333382  0.010252  1
  Al  Al27  1  0.333478  0.666739  0.981764  1
  Al  Al28  1  0.998882  0.999441  0.249910  1
  Al  Al29  1  0.000286  0.000143  0.749985  1
  Ru  Ru30  1  0.000229  0.000114  0.500826  1
  Ru  Ru31  1  0.000318  0.000159  0.999021  1
  Ru  Ru32  1  0.499164  0.998114  0.502223  1
  Ru  Ru33  1  0.499164  0.501050  0.502223  1
  Ru  Ru34  1  0.499409  0.998389  0.997871  1
  Ru  Ru35  1  0.001904  0.500952  0.997585  1
  Ru  Ru36  1  0.499409  0.501020  0.997871  1
  Rh  Rh37  1  0.001937  0.500969  0.502042  1
