# generated using pymatgen
data_RbTa8RhS16
_symmetry_space_group_name_H-M   'P 1'
_cell_length_a   6.71101802
_cell_length_b   6.71102201
_cell_length_c   14.27406500
_cell_angle_alpha   89.98485436
_cell_angle_beta   90.00392728
_cell_angle_gamma   120.00354025
_symmetry_Int_Tables_number   1
_chemical_formula_structural   RbTa8RhS16
_chemical_formula_sum   'Rb1 Ta8 Rh1 S16'
_cell_volume   556.72389184
_cell_formula_units_Z   1
loop_
 _symmetry_equiv_pos_site_id
 _symmetry_equiv_pos_as_xyz
  1  'x, y, z'
loop_
 _atom_site_type_symbol
 _atom_site_label
 _atom_site_symmetry_multiplicity
 _atom_site_fract_x
 _atom_site_fract_y
 _atom_site_fract_z
 _atom_site_occupancy
  Rb  Rb0  1  0.000000  0.000000  0.500000  1
  Ta  Ta1  1  0.503958  0.496199  0.790500  1
  Ta  Ta2  1  0.007850  0.503802  0.209496  1
  Ta  Ta3  1  0.496019  0.991956  0.209495  1
  Ta  Ta4  1  0.503981  0.008044  0.790505  1
  Ta  Ta5  1  0.992150  0.496198  0.790504  1
  Ta  Ta6  1  0.496042  0.503801  0.209500  1
  Ta  Ta7  1  0.000032  0.000142  0.785961  1
  Ta  Ta8  1  0.999968  0.999858  0.214039  1
  Rh  Rh9  1  0.000000  0.000000  0.000000  1
  S  S10  1  0.831287  0.168435  0.319083  1
  S  S11  1  0.831311  0.662495  0.319097  1
  S  S12  1  0.337258  0.168430  0.319086  1
  S  S13  1  0.667737  0.833943  0.897032  1
  S  S14  1  0.168689  0.337505  0.680903  1
  S  S15  1  0.166157  0.833941  0.897031  1
  S  S16  1  0.166145  0.332348  0.897034  1
  S  S17  1  0.833843  0.166059  0.102969  1
  S  S18  1  0.332263  0.166057  0.102968  1
  S  S19  1  0.662742  0.831570  0.680914  1
  S  S20  1  0.333333  0.666578  0.099604  1
  S  S21  1  0.666713  0.333556  0.677744  1
  S  S22  1  0.666667  0.333422  0.900396  1
  S  S23  1  0.333287  0.666444  0.322256  1
  S  S24  1  0.833855  0.667652  0.102966  1
  S  S25  1  0.168713  0.831565  0.680917  1
