# generated using pymatgen
data_Ho10Ga3CuBi2
_symmetry_space_group_name_H-M   'P 1'
_cell_length_a   8.52775211
_cell_length_b   8.52775206
_cell_length_c   8.71068757
_cell_angle_alpha   123.78592572
_cell_angle_beta   123.78592073
_cell_angle_gamma   82.18118313
_symmetry_Int_Tables_number   1
_chemical_formula_structural   Ho10Ga3CuBi2
_chemical_formula_sum   'Ho10 Ga3 Cu1 Bi2'
_cell_volume   423.59501331
_cell_formula_units_Z   1
loop_
 _symmetry_equiv_pos_site_id
 _symmetry_equiv_pos_as_xyz
  1  'x, y, z'
loop_
 _atom_site_type_symbol
 _atom_site_label
 _atom_site_symmetry_multiplicity
 _atom_site_fract_x
 _atom_site_fract_y
 _atom_site_fract_z
 _atom_site_occupancy
  Ho  Ho0  1  0.996453  0.998385  0.994837  1
  Ho  Ho1  1  0.501615  0.503547  0.005163  1
  Ho  Ho2  1  0.787715  0.296154  0.796701  1
  Ho  Ho3  1  0.203846  0.712285  0.203299  1
  Ho  Ho4  1  0.491015  0.999453  0.203299  1
  Ho  Ho5  1  0.296426  0.473283  0.500000  1
  Ho  Ho6  1  0.026717  0.203574  0.500000  1
  Ho  Ho7  1  0.500547  0.008985  0.796701  1
  Ho  Ho8  1  0.709062  0.514499  0.500000  1
  Ho  Ho9  1  0.985501  0.790938  0.500000  1
  Ga  Ga10  1  0.152542  0.650436  0.802978  1
  Ga  Ga11  1  0.849564  0.347458  0.197022  1
  Ga  Ga12  1  0.637968  0.862032  0.500000  1
  Cu  Cu13  1  0.367033  0.132967  0.500000  1
  Bi  Bi14  1  0.246997  0.253003  0.000000  1
  Bi  Bi15  1  0.746997  0.753003  0.000000  1
