# generated using pymatgen
data_Dy2YZn3RuAu2
_symmetry_space_group_name_H-M   'P 1'
_cell_length_a   7.43125624
_cell_length_b   7.43846014
_cell_length_c   3.85572400
_cell_angle_alpha   90.00000000
_cell_angle_beta   90.00000000
_cell_angle_gamma   119.90183313
_symmetry_Int_Tables_number   1
_chemical_formula_structural   Dy2YZn3RuAu2
_chemical_formula_sum   'Dy2 Y1 Zn3 Ru1 Au2'
_cell_volume   184.76112572
_cell_formula_units_Z   1
loop_
 _symmetry_equiv_pos_site_id
 _symmetry_equiv_pos_as_xyz
  1  'x, y, z'
loop_
 _atom_site_type_symbol
 _atom_site_label
 _atom_site_symmetry_multiplicity
 _atom_site_fract_x
 _atom_site_fract_y
 _atom_site_fract_z
 _atom_site_occupancy
  Dy  Dy0  1  0.022214  0.604149  0.000000  1
  Dy  Dy1  1  0.396306  0.418553  0.000000  1
  Y  Y2  1  0.582585  0.978804  0.000000  1
  Zn  Zn3  1  0.258151  0.987685  0.500000  1
  Zn  Zn4  1  0.012093  0.270234  0.500000  1
  Zn  Zn5  1  0.729756  0.741892  0.500000  1
  Ru  Ru6  1  0.330871  0.663707  0.500000  1
  Au  Au7  1  0.667096  0.334821  0.500000  1
  Au  Au8  1  0.000927  0.000155  0.000000  1
