# generated using pymatgen
data_SrNdAs7Pd12
_symmetry_space_group_name_H-M   'P 1'
_cell_length_a   10.15238700
_cell_length_b   10.15238721
_cell_length_c   4.18297000
_cell_angle_alpha   90.00000000
_cell_angle_beta   90.00000000
_cell_angle_gamma   120.00000259
_symmetry_Int_Tables_number   1
_chemical_formula_structural   SrNdAs7Pd12
_chemical_formula_sum   'Sr1 Nd1 As7 Pd12'
_cell_volume   373.38056426
_cell_formula_units_Z   1
loop_
 _symmetry_equiv_pos_site_id
 _symmetry_equiv_pos_as_xyz
  1  'x, y, z'
loop_
 _atom_site_type_symbol
 _atom_site_label
 _atom_site_symmetry_multiplicity
 _atom_site_fract_x
 _atom_site_fract_y
 _atom_site_fract_z
 _atom_site_occupancy
  Sr  Sr0  1  0.666667  0.333333  0.245798  1
  Nd  Nd1  1  0.000000  0.000000  0.752464  1
  As  As2  1  0.333333  0.666667  0.486777  1
  As  As3  1  0.742153  0.782774  0.252212  1
  As  As4  1  0.040621  0.257847  0.252212  1
  As  As5  1  0.217226  0.959379  0.252212  1
  As  As6  1  0.926811  0.553567  0.744637  1
  As  As7  1  0.626755  0.073189  0.744637  1
  As  As8  1  0.446433  0.373245  0.744637  1
  Pd  Pd9  1  0.770855  0.044548  0.249741  1
  Pd  Pd10  1  0.273694  0.229145  0.249741  1
  Pd  Pd11  1  0.955452  0.726306  0.249741  1
  Pd  Pd12  1  0.900157  0.285587  0.746481  1
  Pd  Pd13  1  0.385429  0.099843  0.746481  1
  Pd  Pd14  1  0.714413  0.614571  0.746481  1
  Pd  Pd15  1  0.476885  0.555525  0.225843  1
  Pd  Pd16  1  0.078639  0.523115  0.225843  1
  Pd  Pd17  1  0.444475  0.921361  0.225843  1
  Pd  Pd18  1  0.191889  0.775476  0.769911  1
  Pd  Pd19  1  0.583586  0.808111  0.769911  1
  Pd  Pd20  1  0.224524  0.416414  0.769911  1
