# generated using pymatgen
data_KEu2F8
_symmetry_space_group_name_H-M   'P 1'
_cell_length_a   6.46548811
_cell_length_b   6.46530129
_cell_length_c   4.36505301
_cell_angle_alpha   94.95714154
_cell_angle_beta   94.95831147
_cell_angle_gamma   113.55647260
_symmetry_Int_Tables_number   1
_chemical_formula_structural   KEu2F8
_chemical_formula_sum   'K1 Eu2 F8'
_cell_volume   165.16571007
_cell_formula_units_Z   1
loop_
 _symmetry_equiv_pos_site_id
 _symmetry_equiv_pos_as_xyz
  1  'x, y, z'
loop_
 _atom_site_type_symbol
 _atom_site_label
 _atom_site_symmetry_multiplicity
 _atom_site_fract_x
 _atom_site_fract_y
 _atom_site_fract_z
 _atom_site_occupancy
  K  K0  1  0.000000  0.000000  0.000000  1
  Eu  Eu1  1  0.676947  0.323058  0.499993  1
  Eu  Eu2  1  0.323054  0.676943  0.500009  1
  F  F3  1  0.737590  0.262413  0.999996  1
  F  F4  1  0.262409  0.737586  0.000004  1
  F  F5  1  0.397018  0.397017  0.225489  1
  F  F6  1  0.952545  0.666956  0.436001  1
  F  F7  1  0.666957  0.952544  0.435997  1
  F  F8  1  0.333043  0.047455  0.564003  1
  F  F9  1  0.047454  0.333044  0.563999  1
  F  F10  1  0.602981  0.602982  0.774511  1
