# generated using pymatgen
data_Yb5ErAl17Si7Os8
_symmetry_space_group_name_H-M   'P 1'
_cell_length_a   8.68582521
_cell_length_b   8.67389412
_cell_length_c   9.60368200
_cell_angle_alpha   90.00000000
_cell_angle_beta   90.00000000
_cell_angle_gamma   120.24639235
_symmetry_Int_Tables_number   1
_chemical_formula_structural   Yb5ErAl17Si7Os8
_chemical_formula_sum   'Yb5 Er1 Al17 Si7 Os8'
_cell_volume   625.04310661
_cell_formula_units_Z   1
loop_
 _symmetry_equiv_pos_site_id
 _symmetry_equiv_pos_as_xyz
  1  'x, y, z'
loop_
 _atom_site_type_symbol
 _atom_site_label
 _atom_site_symmetry_multiplicity
 _atom_site_fract_x
 _atom_site_fract_y
 _atom_site_fract_z
 _atom_site_occupancy
  Yb  Yb0  1  0.192683  0.388820  0.250000  1
  Yb  Yb1  1  0.805623  0.612078  0.750000  1
  Yb  Yb2  1  0.609945  0.807344  0.250000  1
  Yb  Yb3  1  0.389522  0.192575  0.750000  1
  Yb  Yb4  1  0.196303  0.804588  0.250000  1
  Er  Er5  1  0.800147  0.192314  0.750000  1
  Al  Al6  1  0.165068  0.331950  0.576551  1
  Al  Al7  1  0.833512  0.668087  0.422376  1
  Al  Al8  1  0.669440  0.834338  0.575609  1
  Al  Al9  1  0.833512  0.668087  0.077624  1
  Al  Al10  1  0.333059  0.166560  0.423510  1
  Al  Al11  1  0.165068  0.331950  0.923449  1
  Al  Al12  1  0.165105  0.833612  0.573490  1
  Al  Al13  1  0.333059  0.166560  0.076490  1
  Al  Al14  1  0.833946  0.165195  0.421759  1
  Al  Al15  1  0.669440  0.834338  0.924391  1
  Al  Al16  1  0.833946  0.165195  0.078241  1
  Al  Al17  1  0.165105  0.833612  0.926510  1
  Al  Al18  1  0.126016  0.567117  0.750000  1
  Al  Al19  1  0.564356  0.434604  0.250000  1
  Al  Al20  1  0.439261  0.566685  0.750000  1
  Al  Al21  1  0.000101  0.998653  0.250000  1
  Al  Al22  1  0.999653  0.000701  0.750000  1
  Si  Si23  1  0.333360  0.664819  0.032498  1
  Si  Si24  1  0.666315  0.335779  0.961492  1
  Si  Si25  1  0.666315  0.335779  0.538508  1
  Si  Si26  1  0.333360  0.664819  0.467502  1
  Si  Si27  1  0.565585  0.125992  0.250000  1
  Si  Si28  1  0.434219  0.871823  0.750000  1
  Si  Si29  1  0.873303  0.433435  0.250000  1
  Os  Os30  1  0.502350  0.001342  0.999538  1
  Os  Os31  1  0.998394  0.498363  0.005809  1
  Os  Os32  1  0.502350  0.001342  0.500462  1
  Os  Os33  1  0.500343  0.500624  0.000058  1
  Os  Os34  1  0.998394  0.498363  0.494191  1
  Os  Os35  1  0.500343  0.500624  0.499942  1
  Os  Os36  1  0.000748  0.000966  0.000163  1
  Os  Os37  1  0.000748  0.000966  0.499837  1
