# generated using pymatgen
data_Yb2YHo(B4Ru)4
_symmetry_space_group_name_H-M   'P 1'
_cell_length_a   3.53921501
_cell_length_b   5.95100593
_cell_length_c   11.51045302
_cell_angle_alpha   90.02807205
_cell_angle_beta   89.99999893
_cell_angle_gamma   90.00000791
_symmetry_Int_Tables_number   1
_chemical_formula_structural   Yb2YHo(B4Ru)4
_chemical_formula_sum   'Yb2 Y1 Ho1 B16 Ru4'
_cell_volume   242.43186084
_cell_formula_units_Z   1
loop_
 _symmetry_equiv_pos_site_id
 _symmetry_equiv_pos_as_xyz
  1  'x, y, z'
loop_
 _atom_site_type_symbol
 _atom_site_label
 _atom_site_symmetry_multiplicity
 _atom_site_fract_x
 _atom_site_fract_y
 _atom_site_fract_z
 _atom_site_occupancy
  Yb  Yb0  1  0.999995  0.370726  0.649640  1
  Yb  Yb1  1  0.000002  0.129531  0.150120  1
  Y  Y2  1  0.999996  0.871267  0.849524  1
  Ho  Ho3  1  0.000006  0.628729  0.349539  1
  B  B4  1  0.500002  0.787978  0.185599  1
  B  B5  1  0.499996  0.212499  0.814748  1
  B  B6  1  0.500007  0.288055  0.314948  1
  B  B7  1  0.499996  0.711734  0.684884  1
  B  B8  1  0.500000  0.864232  0.031452  1
  B  B9  1  0.499996  0.136050  0.969879  1
  B  B10  1  0.500002  0.364257  0.469428  1
  B  B11  1  0.500000  0.635589  0.530744  1
  B  B12  1  0.500006  0.888454  0.453272  1
  B  B13  1  0.499999  0.113991  0.547213  1
  B  B14  1  0.499999  0.386102  0.047635  1
  B  B15  1  0.499997  0.610985  0.953643  1
  B  B16  1  0.500005  0.975480  0.308074  1
  B  B17  1  0.499998  0.023878  0.691364  1
  B  B18  1  0.500005  0.476406  0.191994  1
  B  B19  1  0.499994  0.523975  0.807883  1
  Ru  Ru20  1  0.999997  0.638012  0.090265  1
  Ru  Ru21  1  0.999994  0.361935  0.909354  1
  Ru  Ru22  1  0.000008  0.138316  0.409241  1
  Ru  Ru23  1  0.000000  0.861820  0.589556  1
