# generated using pymatgen
data_YbFeAg2(NO3)8
_symmetry_space_group_name_H-M   'P 1'
_cell_length_a   8.05704460
_cell_length_b   8.09334647
_cell_length_c   7.79837952
_cell_angle_alpha   89.55515471
_cell_angle_beta   89.74714024
_cell_angle_gamma   88.69271315
_symmetry_Int_Tables_number   1
_chemical_formula_structural   YbFeAg2(NO3)8
_chemical_formula_sum   'Yb1 Fe1 Ag2 N8 O24'
_cell_volume   508.36802143
_cell_formula_units_Z   1
loop_
 _symmetry_equiv_pos_site_id
 _symmetry_equiv_pos_as_xyz
  1  'x, y, z'
loop_
 _atom_site_type_symbol
 _atom_site_label
 _atom_site_symmetry_multiplicity
 _atom_site_fract_x
 _atom_site_fract_y
 _atom_site_fract_z
 _atom_site_occupancy
  Yb  Yb0  1  0.000000  0.000000  0.000000  1
  Fe  Fe1  1  0.000000  0.500000  0.500000  1
  Ag  Ag2  1  0.500000  0.500000  0.000000  1
  Ag  Ag3  1  0.500000  0.000000  0.500000  1
  N  N4  1  0.313153  0.359444  0.320594  1
  N  N5  1  0.335071  0.163999  0.829005  1
  N  N6  1  0.166897  0.805504  0.350716  1
  N  N7  1  0.864467  0.317424  0.191950  1
  N  N8  1  0.686847  0.640556  0.679406  1
  N  N9  1  0.135533  0.682576  0.808050  1
  N  N10  1  0.833103  0.194496  0.649284  1
  N  N11  1  0.664929  0.836001  0.170995  1
  O  O12  1  0.760586  0.304434  0.075574  1
  O  O13  1  0.168209  0.916543  0.237573  1
  O  O14  1  0.274362  0.792313  0.464108  1
  O  O15  1  0.227739  0.176233  0.947151  1
  O  O16  1  0.208878  0.354657  0.447162  1
  O  O17  1  0.425361  0.251998  0.311604  1
  O  O18  1  0.297281  0.473617  0.210130  1
  O  O19  1  0.143752  0.554532  0.709830  1
  O  O20  1  0.953843  0.298272  0.654557  1
  O  O21  1  0.677336  0.954572  0.277214  1
  O  O22  1  0.022962  0.791054  0.784425  1
  O  O23  1  0.548565  0.736276  0.185242  1
  O  O24  1  0.831791  0.083457  0.762427  1
  O  O25  1  0.725638  0.207687  0.535892  1
  O  O26  1  0.772261  0.823767  0.052849  1
  O  O27  1  0.239414  0.695566  0.924426  1
  O  O28  1  0.791122  0.645343  0.552838  1
  O  O29  1  0.574639  0.748002  0.688396  1
  O  O30  1  0.702719  0.526383  0.789870  1
  O  O31  1  0.856248  0.445468  0.290170  1
  O  O32  1  0.046157  0.701728  0.345443  1
  O  O33  1  0.322664  0.045428  0.722786  1
  O  O34  1  0.977038  0.208946  0.215575  1
  O  O35  1  0.451435  0.263724  0.814758  1
