# generated using pymatgen
data_Nd19Dy(Bi2Te)4
_symmetry_space_group_name_H-M   'P 1'
_cell_length_a   8.44247067
_cell_length_b   9.79711793
_cell_length_c   12.32963821
_cell_angle_alpha   90.01489864
_cell_angle_beta   89.93345185
_cell_angle_gamma   89.82154130
_symmetry_Int_Tables_number   1
_chemical_formula_structural   Nd19Dy(Bi2Te)4
_chemical_formula_sum   'Nd19 Dy1 Bi8 Te4'
_cell_volume   1019.80189620
_cell_formula_units_Z   1
loop_
 _symmetry_equiv_pos_site_id
 _symmetry_equiv_pos_as_xyz
  1  'x, y, z'
loop_
 _atom_site_type_symbol
 _atom_site_label
 _atom_site_symmetry_multiplicity
 _atom_site_fract_x
 _atom_site_fract_y
 _atom_site_fract_z
 _atom_site_occupancy
  Nd  Nd0  1  0.352368  0.749021  0.212570  1
  Nd  Nd1  1  0.855112  0.749797  0.288968  1
  Nd  Nd2  1  0.645682  0.248936  0.788468  1
  Nd  Nd3  1  0.145260  0.249390  0.711098  1
  Nd  Nd4  1  0.692996  0.556391  0.058534  1
  Nd  Nd5  1  0.191402  0.943319  0.442430  1
  Nd  Nd6  1  0.308120  0.056676  0.942221  1
  Nd  Nd7  1  0.806873  0.443048  0.557905  1
  Nd  Nd8  1  0.307049  0.443272  0.942199  1
  Nd  Nd9  1  0.810397  0.057620  0.557123  1
  Nd  Nd10  1  0.691723  0.942645  0.057598  1
  Nd  Nd11  1  0.477276  0.249642  0.486542  1
  Nd  Nd12  1  0.976868  0.249442  0.013896  1
  Nd  Nd13  1  0.522639  0.749938  0.512871  1
  Nd  Nd14  1  0.023123  0.749944  0.986887  1
  Nd  Nd15  1  0.320579  0.250264  0.221325  1
  Nd  Nd16  1  0.820652  0.249183  0.279375  1
  Nd  Nd17  1  0.679062  0.750018  0.779099  1
  Nd  Nd18  1  0.178670  0.749431  0.719869  1
  Dy  Dy19  1  0.191424  0.559843  0.442218  1
  Bi  Bi20  1  0.569313  0.994088  0.324864  1
  Bi  Bi21  1  0.069992  0.505155  0.176583  1
  Bi  Bi22  1  0.429754  0.494353  0.673578  1
  Bi  Bi23  1  0.930825  0.004947  0.824901  1
  Bi  Bi24  1  0.430563  0.004992  0.674671  1
  Bi  Bi25  1  0.930906  0.494297  0.825002  1
  Bi  Bi26  1  0.567723  0.505470  0.325639  1
  Bi  Bi27  1  0.069355  0.994622  0.175241  1
  Te  Te28  1  0.412815  0.749454  0.959666  1
  Te  Te29  1  0.913294  0.748216  0.540215  1
  Te  Te30  1  0.587415  0.250096  0.040913  1
  Te  Te31  1  0.090768  0.256491  0.457530  1
