# generated using pymatgen
data_Y14Er2MgAg3Rh4
_symmetry_space_group_name_H-M   'P 1'
_cell_length_a   9.57807055
_cell_length_b   9.60536539
_cell_length_c   9.62177987
_cell_angle_alpha   60.21770009
_cell_angle_beta   60.08979548
_cell_angle_gamma   60.01355945
_symmetry_Int_Tables_number   1
_chemical_formula_structural   Y14Er2MgAg3Rh4
_chemical_formula_sum   'Y14 Er2 Mg1 Ag3 Rh4'
_cell_volume   627.45315280
_cell_formula_units_Z   1
loop_
 _symmetry_equiv_pos_site_id
 _symmetry_equiv_pos_as_xyz
  1  'x, y, z'
loop_
 _atom_site_type_symbol
 _atom_site_label
 _atom_site_symmetry_multiplicity
 _atom_site_fract_x
 _atom_site_fract_y
 _atom_site_fract_z
 _atom_site_occupancy
  Y  Y0  1  0.598785  0.205280  0.599099  1
  Y  Y1  1  0.185879  0.604422  0.604664  1
  Y  Y2  1  0.058651  0.438317  0.438817  1
  Y  Y3  1  0.435572  0.062765  0.062618  1
  Y  Y4  1  0.436578  0.062281  0.436742  1
  Y  Y5  1  0.058161  0.439065  0.059328  1
  Y  Y6  1  0.437130  0.437433  0.061979  1
  Y  Y7  1  0.058989  0.060345  0.438110  1
  Y  Y8  1  0.185532  0.811911  0.812978  1
  Y  Y9  1  0.815599  0.185303  0.185425  1
  Y  Y10  1  0.813369  0.186916  0.815631  1
  Y  Y11  1  0.186147  0.812016  0.185460  1
  Y  Y12  1  0.813226  0.813973  0.187236  1
  Y  Y13  1  0.185391  0.183433  0.814053  1
  Er  Er14  1  0.601279  0.598473  0.597432  1
  Er  Er15  1  0.597853  0.598221  0.207740  1
  Mg  Mg16  1  0.542993  0.818842  0.820190  1
  Ag  Ag17  1  0.830484  0.835500  0.836421  1
  Ag  Ag18  1  0.832817  0.835875  0.498191  1
  Ag  Ag19  1  0.833324  0.497834  0.836665  1
  Rh  Rh20  1  0.388279  0.397053  0.392513  1
  Rh  Rh21  1  0.391222  0.399818  0.820122  1
  Rh  Rh22  1  0.392766  0.818734  0.397020  1
  Rh  Rh23  1  0.819973  0.396194  0.391565  1
