# generated using pymatgen
data_Y4TiBe4Ir9
_symmetry_space_group_name_H-M   'P 1'
_cell_length_a   5.49482200
_cell_length_b   5.49482112
_cell_length_c   21.94007900
_cell_angle_alpha   90.00000000
_cell_angle_beta   90.00000000
_cell_angle_gamma   119.99999327
_symmetry_Int_Tables_number   1
_chemical_formula_structural   Y4TiBe4Ir9
_chemical_formula_sum   'Y8 Ti2 Be8 Ir18'
_cell_volume   573.68835601
_cell_formula_units_Z   2
loop_
 _symmetry_equiv_pos_site_id
 _symmetry_equiv_pos_as_xyz
  1  'x, y, z'
loop_
 _atom_site_type_symbol
 _atom_site_label
 _atom_site_symmetry_multiplicity
 _atom_site_fract_x
 _atom_site_fract_y
 _atom_site_fract_z
 _atom_site_occupancy
  Y  Y0  1  0.333333  0.666667  0.528153  1
  Y  Y1  1  0.666667  0.333333  0.471847  1
  Y  Y2  1  0.666667  0.333333  0.028153  1
  Y  Y3  1  0.333333  0.666667  0.971847  1
  Y  Y4  1  0.333333  0.666667  0.675643  1
  Y  Y5  1  0.666667  0.333333  0.324357  1
  Y  Y6  1  0.666667  0.333333  0.175643  1
  Y  Y7  1  0.333333  0.666667  0.824357  1
  Ti  Ti8  1  0.000000  0.000000  0.000000  1
  Ti  Ti9  1  0.000000  0.000000  0.500000  1
  Be  Be10  1  0.333333  0.666667  0.172604  1
  Be  Be11  1  0.666667  0.333333  0.827396  1
  Be  Be12  1  0.666667  0.333333  0.672604  1
  Be  Be13  1  0.333333  0.666667  0.327396  1
  Be  Be14  1  0.000000  0.000000  0.170188  1
  Be  Be15  1  0.000000  0.000000  0.829812  1
  Be  Be16  1  0.000000  0.000000  0.670188  1
  Be  Be17  1  0.000000  0.000000  0.329812  1
  Ir  Ir18  1  0.169046  0.338093  0.092950  1
  Ir  Ir19  1  0.830954  0.661907  0.907050  1
  Ir  Ir20  1  0.661907  0.830954  0.092950  1
  Ir  Ir21  1  0.830954  0.661907  0.592950  1
  Ir  Ir22  1  0.338093  0.169046  0.907050  1
  Ir  Ir23  1  0.169046  0.338093  0.407050  1
  Ir  Ir24  1  0.169046  0.830954  0.092950  1
  Ir  Ir25  1  0.338093  0.169046  0.592950  1
  Ir  Ir26  1  0.830954  0.169046  0.907050  1
  Ir  Ir27  1  0.661907  0.830954  0.407050  1
  Ir  Ir28  1  0.830954  0.169046  0.592950  1
  Ir  Ir29  1  0.169046  0.830954  0.407050  1
  Ir  Ir30  1  0.165908  0.331816  0.250000  1
  Ir  Ir31  1  0.834092  0.668184  0.750000  1
  Ir  Ir32  1  0.668184  0.834092  0.250000  1
  Ir  Ir33  1  0.331816  0.165908  0.750000  1
  Ir  Ir34  1  0.165908  0.834092  0.250000  1
  Ir  Ir35  1  0.834092  0.165908  0.750000  1
