# generated using pymatgen
data_Dy6Sc3NbAl12Ir7
_symmetry_space_group_name_H-M   'P 1'
_cell_length_a   9.07503766
_cell_length_b   9.07504127
_cell_length_c   9.07502484
_cell_angle_alpha   60.07400262
_cell_angle_beta   60.07402146
_cell_angle_gamma   60.07398825
_symmetry_Int_Tables_number   1
_chemical_formula_structural   Dy6Sc3NbAl12Ir7
_chemical_formula_sum   'Dy6 Sc3 Nb1 Al12 Ir7'
_cell_volume   529.36790062
_cell_formula_units_Z   1
loop_
 _symmetry_equiv_pos_site_id
 _symmetry_equiv_pos_as_xyz
  1  'x, y, z'
loop_
 _atom_site_type_symbol
 _atom_site_label
 _atom_site_symmetry_multiplicity
 _atom_site_fract_x
 _atom_site_fract_y
 _atom_site_fract_z
 _atom_site_occupancy
  Dy  Dy0  1  0.704678  0.704684  0.296480  1
  Dy  Dy1  1  0.296702  0.704309  0.296709  1
  Dy  Dy2  1  0.704314  0.296699  0.296710  1
  Dy  Dy3  1  0.296701  0.296697  0.704325  1
  Dy  Dy4  1  0.704681  0.296483  0.704672  1
  Dy  Dy5  1  0.296483  0.704685  0.704670  1
  Sc  Sc6  1  0.882696  0.882696  0.354714  1
  Sc  Sc7  1  0.882702  0.354709  0.882706  1
  Sc  Sc8  1  0.354712  0.882698  0.882704  1
  Nb  Nb9  1  0.878816  0.878818  0.878816  1
  Al  Al10  1  0.120390  0.120400  0.640028  1
  Al  Al11  1  0.120406  0.640034  0.120383  1
  Al  Al12  1  0.640032  0.120412  0.120379  1
  Al  Al13  1  0.119704  0.119699  0.119715  1
  Al  Al14  1  0.668365  0.668364  0.992239  1
  Al  Al15  1  0.668363  0.992246  0.668364  1
  Al  Al16  1  0.992246  0.668362  0.668364  1
  Al  Al17  1  0.669419  0.669413  0.669426  1
  Al  Al18  1  0.328849  0.328853  0.013083  1
  Al  Al19  1  0.328853  0.013074  0.328849  1
  Al  Al20  1  0.013075  0.328858  0.328846  1
  Al  Al21  1  0.328933  0.328932  0.328937  1
  Ir  Ir22  1  0.995413  0.995410  0.995418  1
  Ir  Ir23  1  0.000401  0.000404  0.504421  1
  Ir  Ir24  1  0.498112  0.002009  0.498114  1
  Ir  Ir25  1  0.002011  0.498110  0.498114  1
  Ir  Ir26  1  0.498112  0.498110  0.002016  1
  Ir  Ir27  1  0.000404  0.504426  0.000402  1
  Ir  Ir28  1  0.504425  0.000405  0.000401  1
