# generated using pymatgen
data_Y6Al24FeRu7
_symmetry_space_group_name_H-M   'P 1'
_cell_length_a   8.79316700
_cell_length_b   8.79316625
_cell_length_c   9.52905300
_cell_angle_alpha   90.00000000
_cell_angle_beta   90.00000000
_cell_angle_gamma   119.99999154
_symmetry_Int_Tables_number   1
_chemical_formula_structural   Y6Al24FeRu7
_chemical_formula_sum   'Y6 Al24 Fe1 Ru7'
_cell_volume   638.07395341
_cell_formula_units_Z   1
loop_
 _symmetry_equiv_pos_site_id
 _symmetry_equiv_pos_as_xyz
  1  'x, y, z'
loop_
 _atom_site_type_symbol
 _atom_site_label
 _atom_site_symmetry_multiplicity
 _atom_site_fract_x
 _atom_site_fract_y
 _atom_site_fract_z
 _atom_site_occupancy
  Y  Y0  1  0.193129  0.386257  0.250038  1
  Y  Y1  1  0.806871  0.613743  0.749962  1
  Y  Y2  1  0.613743  0.806871  0.250038  1
  Y  Y3  1  0.386257  0.193129  0.749962  1
  Y  Y4  1  0.193129  0.806871  0.250038  1
  Y  Y5  1  0.806871  0.193129  0.749962  1
  Al  Al6  1  0.333333  0.666667  0.014053  1
  Al  Al7  1  0.666667  0.333333  0.985947  1
  Al  Al8  1  0.666667  0.333333  0.515109  1
  Al  Al9  1  0.333333  0.666667  0.484891  1
  Al  Al10  1  0.161809  0.323619  0.577779  1
  Al  Al11  1  0.838191  0.676381  0.422221  1
  Al  Al12  1  0.676381  0.838191  0.577779  1
  Al  Al13  1  0.840716  0.681433  0.076296  1
  Al  Al14  1  0.323619  0.161809  0.422221  1
  Al  Al15  1  0.159284  0.318567  0.923704  1
  Al  Al16  1  0.161809  0.838191  0.577779  1
  Al  Al17  1  0.318567  0.159284  0.076296  1
  Al  Al18  1  0.838191  0.161809  0.422221  1
  Al  Al19  1  0.681433  0.840716  0.923704  1
  Al  Al20  1  0.840716  0.159284  0.076296  1
  Al  Al21  1  0.159284  0.840716  0.923704  1
  Al  Al22  1  0.560980  0.121961  0.249432  1
  Al  Al23  1  0.439020  0.878039  0.750568  1
  Al  Al24  1  0.878039  0.439020  0.249432  1
  Al  Al25  1  0.121961  0.560980  0.750568  1
  Al  Al26  1  0.560980  0.439020  0.249432  1
  Al  Al27  1  0.439020  0.560980  0.750568  1
  Al  Al28  1  0.000000  0.000000  0.244348  1
  Al  Al29  1  0.000000  0.000000  0.755652  1
  Fe  Fe30  1  0.000000  0.000000  0.000000  1
  Ru  Ru31  1  0.500000  0.000000  0.000000  1
  Ru  Ru32  1  0.000000  0.500000  0.000000  1
  Ru  Ru33  1  0.500000  0.000000  0.500000  1
  Ru  Ru34  1  0.500000  0.500000  0.000000  1
  Ru  Ru35  1  0.000000  0.500000  0.500000  1
  Ru  Ru36  1  0.500000  0.500000  0.500000  1
  Ru  Ru37  1  0.000000  0.000000  0.500000  1
