# generated using pymatgen
data_Tb3Y(BC)2
_symmetry_space_group_name_H-M   'P 1'
_cell_length_a   6.41234895
_cell_length_b   6.41234883
_cell_length_c   9.22404094
_cell_angle_alpha   51.79268387
_cell_angle_beta   51.79268311
_cell_angle_gamma   31.93244423
_symmetry_Int_Tables_number   1
_chemical_formula_structural   Tb3Y(BC)2
_chemical_formula_sum   'Tb3 Y1 B2 C2'
_cell_volume   153.58274376
_cell_formula_units_Z   1
loop_
 _symmetry_equiv_pos_site_id
 _symmetry_equiv_pos_as_xyz
  1  'x, y, z'
loop_
 _atom_site_type_symbol
 _atom_site_label
 _atom_site_symmetry_multiplicity
 _atom_site_fract_x
 _atom_site_fract_y
 _atom_site_fract_z
 _atom_site_occupancy
  Tb  Tb0  1  0.201417  0.201417  0.886728  1
  Tb  Tb1  1  0.798413  0.798413  0.113554  1
  Tb  Tb2  1  0.562986  0.562986  0.639035  1
  Y  Y3  1  0.437856  0.437856  0.360635  1
  B  B4  1  0.919378  0.919378  0.608887  1
  B  B5  1  0.080178  0.080178  0.391207  1
  C  C6  1  0.126034  0.126034  0.195635  1
  C  C7  1  0.873738  0.873738  0.804317  1
