# generated using pymatgen
data_UReTe2F24
_symmetry_space_group_name_H-M   'P 1'
_cell_length_a   5.38426661
_cell_length_b   9.16685900
_cell_length_c   10.07405445
_cell_angle_alpha   90.00000000
_cell_angle_beta   90.28997461
_cell_angle_gamma   90.00000000
_symmetry_Int_Tables_number   1
_chemical_formula_structural   UReTe2F24
_chemical_formula_sum   'U1 Re1 Te2 F24'
_cell_volume   497.21685221
_cell_formula_units_Z   1
loop_
 _symmetry_equiv_pos_site_id
 _symmetry_equiv_pos_as_xyz
  1  'x, y, z'
loop_
 _atom_site_type_symbol
 _atom_site_label
 _atom_site_symmetry_multiplicity
 _atom_site_fract_x
 _atom_site_fract_y
 _atom_site_fract_z
 _atom_site_occupancy
  U  U0  1  0.593603  0.750000  0.628589  1
  Re  Re1  1  0.093878  0.250000  0.871516  1
  Te  Te2  1  0.406430  0.250000  0.371404  1
  Te  Te3  1  0.907220  0.750000  0.128517  1
  F  F4  1  0.553411  0.393692  0.266873  1
  F  F5  1  0.055283  0.605847  0.232748  1
  F  F6  1  0.437103  0.906715  0.742777  1
  F  F7  1  0.944609  0.103982  0.769364  1
  F  F8  1  0.182777  0.750000  0.017051  1
  F  F9  1  0.682533  0.250000  0.483950  1
  F  F10  1  0.811236  0.250000  0.978915  1
  F  F11  1  0.290022  0.750000  0.508600  1
  F  F12  1  0.630957  0.750000  0.239857  1
  F  F13  1  0.129424  0.250000  0.259080  1
  F  F14  1  0.376637  0.250000  0.764247  1
  F  F15  1  0.898001  0.750000  0.748383  1
  F  F16  1  0.757461  0.893840  0.024121  1
  F  F17  1  0.257759  0.106311  0.475542  1
  F  F18  1  0.242053  0.396216  0.973670  1
  F  F19  1  0.750963  0.593376  0.514850  1
  F  F20  1  0.242053  0.103784  0.973670  1
  F  F21  1  0.750963  0.906624  0.514850  1
  F  F22  1  0.757461  0.606160  0.024121  1
  F  F23  1  0.257759  0.393689  0.475542  1
  F  F24  1  0.055283  0.894153  0.232748  1
  F  F25  1  0.553411  0.106308  0.266873  1
  F  F26  1  0.944609  0.396018  0.769364  1
  F  F27  1  0.437103  0.593285  0.742777  1
