# generated using pymatgen
data_Ho4Al4Pt3Rh
_symmetry_space_group_name_H-M   'P 1'
_cell_length_a   4.40444400
_cell_length_b   6.81359276
_cell_length_c   7.81075693
_cell_angle_alpha   90.05496434
_cell_angle_beta   90.00000000
_cell_angle_gamma   90.00000000
_symmetry_Int_Tables_number   1
_chemical_formula_structural   Ho4Al4Pt3Rh
_chemical_formula_sum   'Ho4 Al4 Pt3 Rh1'
_cell_volume   234.40139290
_cell_formula_units_Z   1
loop_
 _symmetry_equiv_pos_site_id
 _symmetry_equiv_pos_as_xyz
  1  'x, y, z'
loop_
 _atom_site_type_symbol
 _atom_site_label
 _atom_site_symmetry_multiplicity
 _atom_site_fract_x
 _atom_site_fract_y
 _atom_site_fract_z
 _atom_site_occupancy
  Ho  Ho0  1  0.250000  0.531975  0.179500  1
  Ho  Ho1  1  0.750000  0.466659  0.819051  1
  Ho  Ho2  1  0.750000  0.970164  0.679051  1
  Ho  Ho3  1  0.250000  0.034857  0.322872  1
  Al  Al4  1  0.250000  0.637587  0.561488  1
  Al  Al5  1  0.750000  0.358945  0.440190  1
  Al  Al6  1  0.750000  0.858090  0.060885  1
  Al  Al7  1  0.250000  0.142324  0.938383  1
  Pt  Pt8  1  0.250000  0.770016  0.879460  1
  Pt  Pt9  1  0.750000  0.231421  0.121120  1
  Pt  Pt10  1  0.750000  0.732049  0.378712  1
  Rh  Rh11  1  0.250000  0.265912  0.619287  1
