# generated using pymatgen
data_DyCr3InO12
_symmetry_space_group_name_H-M   'P 1'
_cell_length_a   9.27267488
_cell_length_b   9.27267439
_cell_length_c   9.92626974
_cell_angle_alpha   117.84475124
_cell_angle_beta   62.15523875
_cell_angle_gamma   120.00000601
_symmetry_Int_Tables_number   1
_chemical_formula_structural   DyCr3InO12
_chemical_formula_sum   'Dy2 Cr6 In2 O24'
_cell_volume   622.42357209
_cell_formula_units_Z   2
loop_
 _symmetry_equiv_pos_site_id
 _symmetry_equiv_pos_as_xyz
  1  'x, y, z'
loop_
 _atom_site_type_symbol
 _atom_site_label
 _atom_site_symmetry_multiplicity
 _atom_site_fract_x
 _atom_site_fract_y
 _atom_site_fract_z
 _atom_site_occupancy
  Dy  Dy0  1  0.647587  0.352414  0.057243  1
  Dy  Dy1  1  0.858088  0.141913  0.425739  1
  Cr  Cr2  1  0.250337  0.028720  0.248688  1
  Cr  Cr3  1  0.971279  0.470305  0.248688  1
  Cr  Cr4  1  0.529695  0.749662  0.248688  1
  Cr  Cr5  1  0.456811  0.250025  0.751393  1
  Cr  Cr6  1  0.041821  0.543189  0.751393  1
  Cr  Cr7  1  0.749975  0.958179  0.751393  1
  In  In8  1  0.142705  0.857296  0.571886  1
  In  In9  1  0.351216  0.648785  0.946353  1
  O  O10  1  0.161587  0.488460  0.103899  1
  O  O11  1  0.511539  0.777025  0.103899  1
  O  O12  1  0.222975  0.838412  0.103899  1
  O  O13  1  0.455919  0.165525  0.201070  1
  O  O14  1  0.834475  0.491464  0.201070  1
  O  O15  1  0.508536  0.544081  0.201070  1
  O  O16  1  0.117702  0.113734  0.269709  1
  O  O17  1  0.886265  0.273676  0.269709  1
  O  O18  1  0.726324  0.882298  0.269709  1
  O  O19  1  0.199498  0.999021  0.420448  1
  O  O20  1  0.000980  0.620925  0.420448  1
  O  O21  1  0.379075  0.800502  0.420448  1
  O  O22  1  0.615958  0.211037  0.584014  1
  O  O23  1  0.011065  0.384042  0.584014  1
  O  O24  1  0.788962  0.988934  0.584014  1
  O  O25  1  0.264101  0.108667  0.723494  1
  O  O26  1  0.121071  0.735899  0.723494  1
  O  O27  1  0.891335  0.878929  0.723494  1
  O  O28  1  0.471338  0.454915  0.803525  1
  O  O29  1  0.180052  0.528662  0.803525  1
  O  O30  1  0.545084  0.819946  0.803525  1
  O  O31  1  0.776266  0.150334  0.893355  1
  O  O32  1  0.480713  0.223734  0.893355  1
  O  O33  1  0.849666  0.519288  0.893355  1
