# generated using pymatgen
data_LiNd8Al(Si6Rh)2
_symmetry_space_group_name_H-M   'P 1'
_cell_length_a   8.28016900
_cell_length_b   8.28016951
_cell_length_c   8.42799000
_cell_angle_alpha   90.00000000
_cell_angle_beta   90.00000000
_cell_angle_gamma   120.00000196
_symmetry_Int_Tables_number   1
_chemical_formula_structural   LiNd8Al(Si6Rh)2
_chemical_formula_sum   'Li1 Nd8 Al1 Si12 Rh2'
_cell_volume   500.41816177
_cell_formula_units_Z   1
loop_
 _symmetry_equiv_pos_site_id
 _symmetry_equiv_pos_as_xyz
  1  'x, y, z'
loop_
 _atom_site_type_symbol
 _atom_site_label
 _atom_site_symmetry_multiplicity
 _atom_site_fract_x
 _atom_site_fract_y
 _atom_site_fract_z
 _atom_site_occupancy
  Li  Li0  1  0.666667  0.333333  0.503999  1
  Nd  Nd1  1  0.000000  0.000000  0.747277  1
  Nd  Nd2  1  0.000000  0.000000  0.252892  1
  Nd  Nd3  1  0.495421  0.504579  0.748371  1
  Nd  Nd4  1  0.495421  0.990842  0.748371  1
  Nd  Nd5  1  0.009158  0.504579  0.748371  1
  Nd  Nd6  1  0.497496  0.502504  0.251334  1
  Nd  Nd7  1  0.005008  0.502504  0.251334  1
  Nd  Nd8  1  0.497496  0.994992  0.251334  1
  Al  Al9  1  0.666667  0.333333  0.995579  1
  Si  Si10  1  0.838452  0.161548  0.999960  1
  Si  Si11  1  0.838452  0.676906  0.999960  1
  Si  Si12  1  0.323094  0.161548  0.999960  1
  Si  Si13  1  0.835769  0.164231  0.500624  1
  Si  Si14  1  0.835769  0.671537  0.500624  1
  Si  Si15  1  0.328463  0.164231  0.500624  1
  Si  Si16  1  0.167916  0.832084  0.499212  1
  Si  Si17  1  0.664168  0.832084  0.499212  1
  Si  Si18  1  0.167916  0.335832  0.499212  1
  Si  Si19  1  0.170145  0.829855  0.000516  1
  Si  Si20  1  0.659710  0.829855  0.000516  1
  Si  Si21  1  0.170145  0.340290  0.000516  1
  Rh  Rh22  1  0.333333  0.666667  0.497602  1
  Rh  Rh23  1  0.333333  0.666667  0.002602  1
