# generated using pymatgen
data_Be6ZnSi5Rh12
_symmetry_space_group_name_H-M   'P 1'
_cell_length_a   4.06601000
_cell_length_b   5.77312700
_cell_length_c   12.20993501
_cell_angle_alpha   90.00000000
_cell_angle_beta   90.00435682
_cell_angle_gamma   90.00000000
_symmetry_Int_Tables_number   1
_chemical_formula_structural   Be6ZnSi5Rh12
_chemical_formula_sum   'Be6 Zn1 Si5 Rh12'
_cell_volume   286.61103351
_cell_formula_units_Z   1
loop_
 _symmetry_equiv_pos_site_id
 _symmetry_equiv_pos_as_xyz
  1  'x, y, z'
loop_
 _atom_site_type_symbol
 _atom_site_label
 _atom_site_symmetry_multiplicity
 _atom_site_fract_x
 _atom_site_fract_y
 _atom_site_fract_z
 _atom_site_occupancy
  Be  Be0  1  0.000000  0.500000  0.000000  1
  Be  Be1  1  0.499663  0.000000  0.161295  1
  Be  Be2  1  0.999616  0.500000  0.331848  1
  Be  Be3  1  0.500000  0.000000  0.500000  1
  Be  Be4  1  0.000382  0.500000  0.668151  1
  Be  Be5  1  0.500337  0.000000  0.838705  1
  Zn  Zn6  1  0.000000  0.000000  0.000000  1
  Si  Si7  1  0.499732  0.500000  0.165651  1
  Si  Si8  1  0.999765  0.000000  0.333486  1
  Si  Si9  1  0.500000  0.500000  0.500000  1
  Si  Si10  1  0.000235  0.000000  0.666514  1
  Si  Si11  1  0.500268  0.500000  0.834349  1
  Rh  Rh12  1  0.500000  0.259094  0.000000  1
  Rh  Rh13  1  0.500000  0.740906  0.000000  1
  Rh  Rh14  1  0.999774  0.253418  0.173548  1
  Rh  Rh15  1  0.999774  0.746583  0.173548  1
  Rh  Rh16  1  0.499814  0.249750  0.336250  1
  Rh  Rh17  1  0.499814  0.750251  0.336250  1
  Rh  Rh18  1  0.000000  0.250108  0.500000  1
  Rh  Rh19  1  0.000000  0.749893  0.500000  1
  Rh  Rh20  1  0.500186  0.249750  0.663750  1
  Rh  Rh21  1  0.500186  0.750251  0.663750  1
  Rh  Rh22  1  0.000226  0.253418  0.826452  1
  Rh  Rh23  1  0.000226  0.746583  0.826452  1
