# generated using pymatgen
data_Tm3Lu5(Si3Rh)4
_symmetry_space_group_name_H-M   'P 1'
_cell_length_a   8.10899000
_cell_length_b   8.11280485
_cell_length_c   7.72088100
_cell_angle_alpha   90.00000000
_cell_angle_beta   90.00000000
_cell_angle_gamma   119.98444629
_symmetry_Int_Tables_number   1
_chemical_formula_structural   Tm3Lu5(Si3Rh)4
_chemical_formula_sum   'Tm3 Lu5 Si12 Rh4'
_cell_volume   439.95000807
_cell_formula_units_Z   1
loop_
 _symmetry_equiv_pos_site_id
 _symmetry_equiv_pos_as_xyz
  1  'x, y, z'
loop_
 _atom_site_type_symbol
 _atom_site_label
 _atom_site_symmetry_multiplicity
 _atom_site_fract_x
 _atom_site_fract_y
 _atom_site_fract_z
 _atom_site_occupancy
  Tm  Tm0  1  0.509381  0.018764  0.250000  1
  Tm  Tm1  1  0.000066  0.000132  0.750000  1
  Tm  Tm2  1  0.999949  0.999898  0.250000  1
  Lu  Lu3  1  0.981623  0.490900  0.250000  1
  Lu  Lu4  1  0.509277  0.490900  0.250000  1
  Lu  Lu5  1  0.490729  0.981456  0.750000  1
  Lu  Lu6  1  0.018525  0.509245  0.750000  1
  Lu  Lu7  1  0.490721  0.509245  0.750000  1
  Si  Si8  1  0.166911  0.832990  0.500037  1
  Si  Si9  1  0.166928  0.333856  0.499978  1
  Si  Si10  1  0.666080  0.832990  0.500037  1
  Si  Si11  1  0.333899  0.167073  0.999612  1
  Si  Si12  1  0.833019  0.666040  0.500108  1
  Si  Si13  1  0.833173  0.167073  0.999612  1
  Si  Si14  1  0.833019  0.666040  0.999892  1
  Si  Si15  1  0.166928  0.333856  0.000022  1
  Si  Si16  1  0.666080  0.832990  0.999963  1
  Si  Si17  1  0.333899  0.167073  0.500388  1
  Si  Si18  1  0.833173  0.167073  0.500388  1
  Si  Si19  1  0.166911  0.832990  0.999963  1
  Rh  Rh20  1  0.333035  0.666071  0.034307  1
  Rh  Rh21  1  0.666819  0.333636  0.964544  1
  Rh  Rh22  1  0.666819  0.333636  0.535456  1
  Rh  Rh23  1  0.333035  0.666071  0.465693  1
