# generated using pymatgen
data_Dy2Ho3Co17(ReP6)2
_symmetry_space_group_name_H-M   'P 1'
_cell_length_a   12.00332807
_cell_length_b   11.94469524
_cell_length_c   3.69356800
_cell_angle_alpha   90.00000000
_cell_angle_beta   90.00000000
_cell_angle_gamma   119.83853975
_symmetry_Int_Tables_number   1
_chemical_formula_structural   Dy2Ho3Co17(ReP6)2
_chemical_formula_sum   'Dy2 Ho3 Co17 Re2 P12'
_cell_volume   459.36486259
_cell_formula_units_Z   1
loop_
 _symmetry_equiv_pos_site_id
 _symmetry_equiv_pos_as_xyz
  1  'x, y, z'
loop_
 _atom_site_type_symbol
 _atom_site_label
 _atom_site_symmetry_multiplicity
 _atom_site_fract_x
 _atom_site_fract_y
 _atom_site_fract_z
 _atom_site_occupancy
  Dy  Dy0  1  0.665556  0.331992  0.000000  1
  Dy  Dy1  1  0.334444  0.666437  0.000000  1
  Ho  Ho2  1  0.184257  0.184405  0.500000  1
  Ho  Ho3  1  0.815743  0.000147  0.500000  1
  Ho  Ho4  1  0.000000  0.812741  0.500000  1
  Co  Co5  1  0.000000  0.448945  0.000000  1
  Co  Co6  1  0.822930  0.200879  0.000000  1
  Co  Co7  1  0.803040  0.624611  0.000000  1
  Co  Co8  1  0.374063  0.177355  0.000000  1
  Co  Co9  1  0.196960  0.821572  0.000000  1
  Co  Co10  1  0.625937  0.803292  0.000000  1
  Co  Co11  1  0.177070  0.377950  0.000000  1
  Co  Co12  1  0.642463  0.123814  0.500000  1
  Co  Co13  1  0.873648  0.516016  0.500000  1
  Co  Co14  1  0.483205  0.356191  0.500000  1
  Co  Co15  1  0.126352  0.642368  0.500000  1
  Co  Co16  1  0.516795  0.872986  0.500000  1
  Co  Co17  1  0.357537  0.481351  0.500000  1
  Co  Co18  1  0.717706  0.717980  0.500000  1
  Co  Co19  1  0.282294  0.000275  0.500000  1
  Co  Co20  1  0.000000  0.285881  0.500000  1
  Co  Co21  1  0.000000  0.002092  0.000000  1
  Re  Re22  1  0.554225  0.553683  0.000000  1
  Re  Re23  1  0.445775  0.999457  0.000000  1
  P  P24  1  0.360487  0.361960  0.000000  1
  P  P25  1  0.639513  0.001473  0.000000  1
  P  P26  1  0.000000  0.633025  0.000000  1
  P  P27  1  0.834593  0.314584  0.500000  1
  P  P28  1  0.686422  0.520333  0.500000  1
  P  P29  1  0.479204  0.164106  0.500000  1
  P  P30  1  0.313578  0.833911  0.500000  1
  P  P31  1  0.520796  0.684902  0.500000  1
  P  P32  1  0.165407  0.479991  0.500000  1
  P  P33  1  0.823401  0.822939  0.000000  1
  P  P34  1  0.176599  0.999538  0.000000  1
  P  P35  1  0.000000  0.180818  0.000000  1
