# generated using pymatgen
data_Hf3Nb2GaGe2
_symmetry_space_group_name_H-M   'P 1'
_cell_length_a   7.92553767
_cell_length_b   7.93119358
_cell_length_c   5.42866100
_cell_angle_alpha   90.00000000
_cell_angle_beta   90.00000000
_cell_angle_gamma   120.02360529
_symmetry_Int_Tables_number   1
_chemical_formula_structural   Hf3Nb2GaGe2
_chemical_formula_sum   'Hf6 Nb4 Ga2 Ge4'
_cell_volume   295.45224011
_cell_formula_units_Z   2
loop_
 _symmetry_equiv_pos_site_id
 _symmetry_equiv_pos_as_xyz
  1  'x, y, z'
loop_
 _atom_site_type_symbol
 _atom_site_label
 _atom_site_symmetry_multiplicity
 _atom_site_fract_x
 _atom_site_fract_y
 _atom_site_fract_z
 _atom_site_occupancy
  Hf  Hf0  1  0.746591  0.747123  0.250000  1
  Hf  Hf1  1  0.746591  0.999468  0.750000  1
  Hf  Hf2  1  0.000027  0.253129  0.250000  1
  Hf  Hf3  1  0.251028  0.250345  0.750000  1
  Hf  Hf4  1  0.251028  0.000683  0.250000  1
  Hf  Hf5  1  0.000027  0.746898  0.750000  1
  Nb  Nb6  1  0.669051  0.334525  0.000000  1
  Nb  Nb7  1  0.669051  0.334525  0.500000  1
  Nb  Nb8  1  0.332366  0.666183  0.500000  1
  Nb  Nb9  1  0.332366  0.666183  0.000000  1
  Ga  Ga10  1  0.394782  0.393776  0.250000  1
  Ga  Ga11  1  0.394782  0.001006  0.750000  1
  Ge  Ge12  1  0.605196  0.999893  0.250000  1
  Ge  Ge13  1  0.605196  0.605303  0.750000  1
  Ge  Ge14  1  0.000960  0.392278  0.750000  1
  Ge  Ge15  1  0.000960  0.608681  0.250000  1
