# generated using pymatgen
data_Nd2TiRh3
_symmetry_space_group_name_H-M   'P 1'
_cell_length_a   5.22927569
_cell_length_b   5.22927672
_cell_length_c   5.22927616
_cell_angle_alpha   67.35668413
_cell_angle_beta   67.35667595
_cell_angle_gamma   67.35668493
_symmetry_Int_Tables_number   1
_chemical_formula_structural   Nd2TiRh3
_chemical_formula_sum   'Nd2 Ti1 Rh3'
_cell_volume   117.00101280
_cell_formula_units_Z   1
loop_
 _symmetry_equiv_pos_site_id
 _symmetry_equiv_pos_as_xyz
  1  'x, y, z'
loop_
 _atom_site_type_symbol
 _atom_site_label
 _atom_site_symmetry_multiplicity
 _atom_site_fract_x
 _atom_site_fract_y
 _atom_site_fract_z
 _atom_site_occupancy
  Nd  Nd0  1  0.371815  0.371815  0.371815  1
  Nd  Nd1  1  0.628185  0.628185  0.628185  1
  Ti  Ti2  1  0.000000  0.000000  0.000000  1
  Rh  Rh3  1  0.499999  0.000000  0.000000  1
  Rh  Rh4  1  0.000000  0.499999  0.000000  1
  Rh  Rh5  1  0.000000  0.000000  0.499999  1
