# generated using pymatgen
data_BaLa(Si2Rh3)2
_symmetry_space_group_name_H-M   'P 1'
_cell_length_a   5.73387694
_cell_length_b   6.79933109
_cell_length_c   6.79933041
_cell_angle_alpha   63.70907615
_cell_angle_beta   65.06119188
_cell_angle_gamma   65.06119406
_symmetry_Int_Tables_number   1
_chemical_formula_structural   BaLa(Si2Rh3)2
_chemical_formula_sum   'Ba1 La1 Si4 Rh6'
_cell_volume   206.31030143
_cell_formula_units_Z   1
loop_
 _symmetry_equiv_pos_site_id
 _symmetry_equiv_pos_as_xyz
  1  'x, y, z'
loop_
 _atom_site_type_symbol
 _atom_site_label
 _atom_site_symmetry_multiplicity
 _atom_site_fract_x
 _atom_site_fract_y
 _atom_site_fract_z
 _atom_site_occupancy
  Ba  Ba0  1  0.529163  0.750000  0.750000  1
  La  La1  1  0.456397  0.250000  0.250000  1
  Si  Si2  1  0.222911  0.576193  0.576193  1
  Si  Si3  1  0.776946  0.421917  0.421917  1
  Si  Si4  1  0.120779  0.078083  0.078083  1
  Si  Si5  1  0.875299  0.923807  0.923807  1
  Rh  Rh6  1  0.500366  0.219935  0.786179  1
  Rh  Rh7  1  0.006480  0.713821  0.280065  1
  Rh  Rh8  1  0.500366  0.786179  0.219935  1
  Rh  Rh9  1  0.006480  0.280065  0.713821  1
  Rh  Rh10  1  0.002406  0.494825  0.005175  1
  Rh  Rh11  1  0.002406  0.005175  0.494825  1
