# generated using pymatgen
data_Ho11ThTc3Ir
_symmetry_space_group_name_H-M   'P 1'
_cell_length_a   6.31354692
_cell_length_b   7.37465134
_cell_length_c   9.18312700
_cell_angle_alpha   90.00000000
_cell_angle_beta   90.00000000
_cell_angle_gamma   90.42297481
_symmetry_Int_Tables_number   1
_chemical_formula_structural   Ho11ThTc3Ir
_chemical_formula_sum   'Ho11 Th1 Tc3 Ir1'
_cell_volume   427.55664570
_cell_formula_units_Z   1
loop_
 _symmetry_equiv_pos_site_id
 _symmetry_equiv_pos_as_xyz
  1  'x, y, z'
loop_
 _atom_site_type_symbol
 _atom_site_label
 _atom_site_symmetry_multiplicity
 _atom_site_fract_x
 _atom_site_fract_y
 _atom_site_fract_z
 _atom_site_occupancy
  Ho  Ho0  1  0.335589  0.677208  0.063793  1
  Ho  Ho1  1  0.164354  0.176206  0.437790  1
  Ho  Ho2  1  0.665492  0.320039  0.564792  1
  Ho  Ho3  1  0.834060  0.827147  0.935068  1
  Ho  Ho4  1  0.665492  0.320039  0.935208  1
  Ho  Ho5  1  0.834060  0.827147  0.564932  1
  Ho  Ho6  1  0.335589  0.677208  0.436207  1
  Ho  Ho7  1  0.164354  0.176206  0.062210  1
  Ho  Ho8  1  0.625683  0.040982  0.250000  1
  Ho  Ho9  1  0.132810  0.459368  0.750000  1
  Ho  Ho10  1  0.369532  0.958896  0.750000  1
  Th  Th11  1  0.864404  0.548528  0.250000  1
  Tc  Tc12  1  0.027297  0.870410  0.250000  1
  Tc  Tc13  1  0.477163  0.387753  0.250000  1
  Tc  Tc14  1  0.961658  0.116308  0.750000  1
  Ir  Ir15  1  0.542465  0.616554  0.750000  1
