# generated using pymatgen
data_HoTh3In2CoNi3
_symmetry_space_group_name_H-M   'P 1'
_cell_length_a   7.59131545
_cell_length_b   7.53822754
_cell_length_c   3.68199900
_cell_angle_alpha   90.00000000
_cell_angle_beta   90.00000000
_cell_angle_gamma   91.61372511
_symmetry_Int_Tables_number   1
_chemical_formula_structural   HoTh3In2CoNi3
_chemical_formula_sum   'Ho1 Th3 In2 Co1 Ni3'
_cell_volume   210.61906027
_cell_formula_units_Z   1
loop_
 _symmetry_equiv_pos_site_id
 _symmetry_equiv_pos_as_xyz
  1  'x, y, z'
loop_
 _atom_site_type_symbol
 _atom_site_label
 _atom_site_symmetry_multiplicity
 _atom_site_fract_x
 _atom_site_fract_y
 _atom_site_fract_z
 _atom_site_occupancy
  Ho  Ho0  1  0.830146  0.672154  0.500000  1
  Th  Th1  1  0.672524  0.169914  0.500000  1
  Th  Th2  1  0.320493  0.820409  0.500000  1
  Th  Th3  1  0.171452  0.337366  0.500000  1
  In  In4  1  0.510005  0.504835  0.000000  1
  In  In5  1  0.994673  0.991584  0.000000  1
  Co  Co6  1  0.137551  0.621531  0.000000  1
  Ni  Ni7  1  0.874032  0.374360  0.000000  1
  Ni  Ni8  1  0.617825  0.881391  0.000000  1
  Ni  Ni9  1  0.371300  0.126455  0.000000  1
