# generated using pymatgen
data_CaCrSn(PO4)3
_symmetry_space_group_name_H-M   'P 1'
_cell_length_a   8.59820386
_cell_length_b   8.59820219
_cell_length_c   8.94960236
_cell_angle_alpha   61.29056002
_cell_angle_beta   118.70943373
_cell_angle_gamma   120.00000670
_symmetry_Int_Tables_number   1
_chemical_formula_structural   CaCrSn(PO4)3
_chemical_formula_sum   'Ca2 Cr2 Sn2 P6 O24'
_cell_volume   476.76673727
_cell_formula_units_Z   2
loop_
 _symmetry_equiv_pos_site_id
 _symmetry_equiv_pos_as_xyz
  1  'x, y, z'
loop_
 _atom_site_type_symbol
 _atom_site_label
 _atom_site_symmetry_multiplicity
 _atom_site_fract_x
 _atom_site_fract_y
 _atom_site_fract_z
 _atom_site_occupancy
  Ca  Ca0  1  0.000000  0.000000  0.000000  1
  Ca  Ca1  1  0.500000  0.500000  0.499999  1
  Cr  Cr2  1  0.146871  0.853129  0.440612  1
  Cr  Cr3  1  0.853129  0.146871  0.559388  1
  Sn  Sn4  1  0.352883  0.647117  0.058648  1
  Sn  Sn5  1  0.647118  0.352882  0.941352  1
  P  P6  1  0.042057  0.245698  0.254987  1
  P  P7  1  0.754301  0.541372  0.254987  1
  P  P8  1  0.458627  0.957943  0.254987  1
  P  P9  1  0.541373  0.042058  0.745015  1
  P  P10  1  0.245697  0.458626  0.745015  1
  P  P11  1  0.957942  0.754300  0.745015  1
  O  O12  1  0.482813  0.105460  0.071998  1
  O  O13  1  0.894540  0.305355  0.071998  1
  O  O14  1  0.694645  0.517187  0.071998  1
  O  O15  1  0.243925  0.398579  0.250062  1
  O  O16  1  0.601423  0.595285  0.250062  1
  O  O17  1  0.404715  0.756076  0.250062  1
  O  O18  1  0.034791  0.059422  0.260861  1
  O  O19  1  0.940578  0.714508  0.260861  1
  O  O20  1  0.285493  0.965208  0.260861  1
  O  O21  1  0.017184  0.237852  0.415829  1
  O  O22  1  0.762150  0.363504  0.415829  1
  O  O23  1  0.636496  0.982816  0.415829  1
  O  O24  1  0.363504  0.017183  0.584172  1
  O  O25  1  0.237853  0.636496  0.584172  1
  O  O26  1  0.982816  0.762148  0.584172  1
  O  O27  1  0.714508  0.034791  0.739139  1
  O  O28  1  0.059422  0.285492  0.739139  1
  O  O29  1  0.965209  0.940577  0.739139  1
  O  O30  1  0.595286  0.243925  0.749938  1
  O  O31  1  0.398576  0.404713  0.749938  1
  O  O32  1  0.756077  0.601425  0.749938  1
  O  O33  1  0.305354  0.482813  0.928001  1
  O  O34  1  0.105459  0.694645  0.928001  1
  O  O35  1  0.517188  0.894542  0.928001  1
