# generated using pymatgen
data_Y7Er(Sc3Sn4)4
_symmetry_space_group_name_H-M   'P 1'
_cell_length_a   7.76295147
_cell_length_b   7.92139404
_cell_length_c   14.93049100
_cell_angle_alpha   90.00613362
_cell_angle_beta   89.79135539
_cell_angle_gamma   90.13502630
_symmetry_Int_Tables_number   1
_chemical_formula_structural   Y7Er(Sc3Sn4)4
_chemical_formula_sum   'Y7 Er1 Sc12 Sn16'
_cell_volume   918.11797615
_cell_formula_units_Z   1
loop_
 _symmetry_equiv_pos_site_id
 _symmetry_equiv_pos_as_xyz
  1  'x, y, z'
loop_
 _atom_site_type_symbol
 _atom_site_label
 _atom_site_symmetry_multiplicity
 _atom_site_fract_x
 _atom_site_fract_y
 _atom_site_fract_z
 _atom_site_occupancy
  Y  Y0  1  0.016433  0.176901  0.595157  1
  Y  Y1  1  0.483748  0.677112  0.405099  1
  Y  Y2  1  0.984040  0.823166  0.094792  1
  Y  Y3  1  0.483888  0.677041  0.094533  1
  Y  Y4  1  0.983507  0.823371  0.404968  1
  Y  Y5  1  0.515753  0.322664  0.594499  1
  Y  Y6  1  0.015951  0.177021  0.905195  1
  Er  Er7  1  0.516361  0.322676  0.905529  1
  Sc  Sc8  1  0.355532  0.838326  0.873925  1
  Sc  Sc9  1  0.856309  0.661888  0.626102  1
  Sc  Sc10  1  0.643605  0.161883  0.374016  1
  Sc  Sc11  1  0.144431  0.337945  0.126236  1
  Sc  Sc12  1  0.644430  0.161948  0.125855  1
  Sc  Sc13  1  0.143535  0.338055  0.373907  1
  Sc  Sc14  1  0.356356  0.838580  0.626020  1
  Sc  Sc15  1  0.855259  0.661428  0.873845  1
  Sc  Sc16  1  0.187207  0.505481  0.749945  1
  Sc  Sc17  1  0.687135  0.994377  0.749798  1
  Sc  Sc18  1  0.813132  0.494237  0.250263  1
  Sc  Sc19  1  0.312900  0.005554  0.250139  1
  Sn  Sn20  1  0.308984  0.043987  0.042280  1
  Sn  Sn21  1  0.808198  0.456938  0.457580  1
  Sn  Sn22  1  0.692155  0.956398  0.542262  1
  Sn  Sn23  1  0.191956  0.542470  0.957447  1
  Sn  Sn24  1  0.690891  0.956847  0.957453  1
  Sn  Sn25  1  0.191610  0.543373  0.542401  1
  Sn  Sn26  1  0.307800  0.043527  0.457503  1
  Sn  Sn27  1  0.808694  0.456566  0.042272  1
  Sn  Sn28  1  0.550352  0.626187  0.750076  1
  Sn  Sn29  1  0.050946  0.873438  0.750077  1
  Sn  Sn30  1  0.449636  0.373292  0.249904  1
  Sn  Sn31  1  0.949115  0.126546  0.250006  1
  Sn  Sn32  1  0.325956  0.148283  0.750922  1
  Sn  Sn33  1  0.823950  0.352527  0.750411  1
  Sn  Sn34  1  0.674995  0.852735  0.249727  1
  Sn  Sn35  1  0.175250  0.647232  0.249854  1
