# generated using pymatgen
data_Sc2Fe8Ni4P7
_symmetry_space_group_name_H-M   'P 1'
_cell_length_a   8.95294943
_cell_length_b   8.96748790
_cell_length_c   3.57437700
_cell_angle_alpha   90.00000000
_cell_angle_beta   90.00000000
_cell_angle_gamma   120.30535276
_symmetry_Int_Tables_number   1
_chemical_formula_structural   Sc2Fe8Ni4P7
_chemical_formula_sum   'Sc2 Fe8 Ni4 P7'
_cell_volume   247.75554449
_cell_formula_units_Z   1
loop_
 _symmetry_equiv_pos_site_id
 _symmetry_equiv_pos_as_xyz
  1  'x, y, z'
loop_
 _atom_site_type_symbol
 _atom_site_label
 _atom_site_symmetry_multiplicity
 _atom_site_fract_x
 _atom_site_fract_y
 _atom_site_fract_z
 _atom_site_occupancy
  Sc  Sc0  1  0.998409  0.002918  0.000000  1
  Sc  Sc1  1  0.334461  0.663562  0.500000  1
  Fe  Fe2  1  0.829487  0.614254  0.000000  1
  Fe  Fe3  1  0.781909  0.175505  0.000000  1
  Fe  Fe4  1  0.391694  0.214828  0.000000  1
  Fe  Fe5  1  0.712887  0.942961  0.500000  1
  Fe  Fe6  1  0.227795  0.283365  0.500000  1
  Fe  Fe7  1  0.891468  0.430331  0.500000  1
  Fe  Fe8  1  0.544123  0.115817  0.500000  1
  Fe  Fe9  1  0.571164  0.458344  0.500000  1
  Ni  Ni10  1  0.098435  0.394545  0.000000  1
  Ni  Ni11  1  0.296106  0.897470  0.000000  1
  Ni  Ni12  1  0.600257  0.699289  0.000000  1
  Ni  Ni13  1  0.058126  0.775660  0.500000  1
  P  P14  1  0.077984  0.626220  0.000000  1
  P  P15  1  0.553041  0.920325  0.000000  1
  P  P16  1  0.366426  0.443299  0.000000  1
  P  P17  1  0.785453  0.741182  0.500000  1
  P  P18  1  0.948596  0.207766  0.500000  1
  P  P19  1  0.262982  0.054855  0.500000  1
  P  P20  1  0.669202  0.337503  0.000000  1
