# generated using pymatgen
data_Na3RhPb3Au2
_symmetry_space_group_name_H-M   'P 1'
_cell_length_a   8.05745200
_cell_length_b   8.05745276
_cell_length_c   3.82799400
_cell_angle_alpha   90.00000000
_cell_angle_beta   90.00000000
_cell_angle_gamma   119.99999688
_symmetry_Int_Tables_number   1
_chemical_formula_structural   Na3RhPb3Au2
_chemical_formula_sum   'Na3 Rh1 Pb3 Au2'
_cell_volume   215.22731547
_cell_formula_units_Z   1
loop_
 _symmetry_equiv_pos_site_id
 _symmetry_equiv_pos_as_xyz
  1  'x, y, z'
loop_
 _atom_site_type_symbol
 _atom_site_label
 _atom_site_symmetry_multiplicity
 _atom_site_fract_x
 _atom_site_fract_y
 _atom_site_fract_z
 _atom_site_occupancy
  Na  Na0  1  0.402341  0.402341  0.500000  1
  Na  Na1  1  0.597659  0.000000  0.500000  1
  Na  Na2  1  0.000000  0.597659  0.500000  1
  Rh  Rh3  1  0.000000  0.000000  0.500000  1
  Pb  Pb4  1  0.739915  0.739915  0.000000  1
  Pb  Pb5  1  0.260085  0.000000  0.000000  1
  Pb  Pb6  1  0.000000  0.260085  0.000000  1
  Au  Au7  1  0.666667  0.333333  0.000000  1
  Au  Au8  1  0.333333  0.666667  0.000000  1
