# generated using pymatgen
data_Hf10CuSn5GeSb
_symmetry_space_group_name_H-M   'P 1'
_cell_length_a   8.62493656
_cell_length_b   8.62310149
_cell_length_c   5.80111129
_cell_angle_alpha   90.03636851
_cell_angle_beta   89.98182454
_cell_angle_gamma   119.99296184
_symmetry_Int_Tables_number   1
_chemical_formula_structural   Hf10CuSn5GeSb
_chemical_formula_sum   'Hf10 Cu1 Sn5 Ge1 Sb1'
_cell_volume   373.67319441
_cell_formula_units_Z   1
loop_
 _symmetry_equiv_pos_site_id
 _symmetry_equiv_pos_as_xyz
  1  'x, y, z'
loop_
 _atom_site_type_symbol
 _atom_site_label
 _atom_site_symmetry_multiplicity
 _atom_site_fract_x
 _atom_site_fract_y
 _atom_site_fract_z
 _atom_site_occupancy
  Hf  Hf0  1  0.667495  0.333403  0.999816  1
  Hf  Hf1  1  0.332505  0.665909  0.999816  1
  Hf  Hf2  1  0.332892  0.666285  0.500433  1
  Hf  Hf3  1  0.667108  0.333392  0.500433  1
  Hf  Hf4  1  0.735175  0.735159  0.749598  1
  Hf  Hf5  1  0.264825  0.999984  0.749598  1
  Hf  Hf6  1  0.000000  0.265587  0.750633  1
  Hf  Hf7  1  0.263815  0.264556  0.250083  1
  Hf  Hf8  1  0.736185  0.000741  0.250083  1
  Hf  Hf9  1  0.000000  0.734516  0.249998  1
  Cu  Cu10  1  0.000000  0.998929  0.998632  1
  Sn  Sn11  1  0.389347  0.388840  0.751297  1
  Sn  Sn12  1  0.610653  0.999494  0.751297  1
  Sn  Sn13  1  0.000000  0.612475  0.750529  1
  Sn  Sn14  1  0.610949  0.611082  0.249152  1
  Sn  Sn15  1  0.389051  0.000132  0.249152  1
  Ge  Ge16  1  0.000000  0.999714  0.500547  1
  Sb  Sb17  1  0.000000  0.389800  0.248902  1
