# generated using pymatgen
data_TbNd15(HgRh)4
_symmetry_space_group_name_H-M   'P 1'
_cell_length_a   9.89644913
_cell_length_b   9.89644891
_cell_length_c   9.88980700
_cell_angle_alpha   60.02219534
_cell_angle_beta   60.02219606
_cell_angle_gamma   59.98152484
_symmetry_Int_Tables_number   1
_chemical_formula_structural   TbNd15(HgRh)4
_chemical_formula_sum   'Tb1 Nd15 Hg4 Rh4'
_cell_volume   685.04090546
_cell_formula_units_Z   1
loop_
 _symmetry_equiv_pos_site_id
 _symmetry_equiv_pos_as_xyz
  1  'x, y, z'
loop_
 _atom_site_type_symbol
 _atom_site_label
 _atom_site_symmetry_multiplicity
 _atom_site_fract_x
 _atom_site_fract_y
 _atom_site_fract_z
 _atom_site_occupancy
  Tb  Tb0  1  0.059518  0.059518  0.440482  1
  Nd  Nd1  1  0.302347  0.899784  0.898934  1
  Nd  Nd2  1  0.689181  0.310479  0.687132  1
  Nd  Nd3  1  0.310479  0.689181  0.313209  1
  Nd  Nd4  1  0.059518  0.439403  0.439943  1
  Nd  Nd5  1  0.689181  0.310479  0.313209  1
  Nd  Nd6  1  0.439403  0.059518  0.439943  1
  Nd  Nd7  1  0.439403  0.059518  0.061136  1
  Nd  Nd8  1  0.900209  0.900209  0.897591  1
  Nd  Nd9  1  0.059518  0.439403  0.061136  1
  Nd  Nd10  1  0.899784  0.302347  0.898934  1
  Nd  Nd11  1  0.310479  0.689181  0.687132  1
  Nd  Nd12  1  0.900209  0.900209  0.301991  1
  Nd  Nd13  1  0.441141  0.441141  0.058859  1
  Nd  Nd14  1  0.312282  0.312282  0.687718  1
  Nd  Nd15  1  0.688120  0.688120  0.311880  1
  Hg  Hg16  1  0.001783  0.666452  0.665883  1
  Hg  Hg17  1  0.666452  0.001783  0.665883  1
  Hg  Hg18  1  0.665773  0.665773  0.001397  1
  Hg  Hg19  1  0.665773  0.665773  0.667056  1
  Rh  Rh20  1  0.107095  0.107095  0.673495  1
  Rh  Rh21  1  0.108171  0.677086  0.107371  1
  Rh  Rh22  1  0.107095  0.107095  0.112315  1
  Rh  Rh23  1  0.677086  0.108171  0.107371  1
