# generated using pymatgen
data_Hf16Ta4Si15As
_symmetry_space_group_name_H-M   'P 1'
_cell_length_a   7.01024410
_cell_length_b   6.98918281
_cell_length_c   12.80363448
_cell_angle_alpha   89.98607428
_cell_angle_beta   89.76777919
_cell_angle_gamma   89.94659232
_symmetry_Int_Tables_number   1
_chemical_formula_structural   Hf16Ta4Si15As
_chemical_formula_sum   'Hf16 Ta4 Si15 As1'
_cell_volume   627.31986449
_cell_formula_units_Z   1
loop_
 _symmetry_equiv_pos_site_id
 _symmetry_equiv_pos_as_xyz
  1  'x, y, z'
loop_
 _atom_site_type_symbol
 _atom_site_label
 _atom_site_symmetry_multiplicity
 _atom_site_fract_x
 _atom_site_fract_y
 _atom_site_fract_z
 _atom_site_occupancy
  Hf  Hf0  1  0.497261  0.153335  0.531301  1
  Hf  Hf1  1  0.500152  0.843738  0.029770  1
  Hf  Hf2  1  0.652865  0.000398  0.282461  1
  Hf  Hf3  1  0.342148  0.995326  0.778984  1
  Hf  Hf4  1  0.846709  0.506589  0.968683  1
  Hf  Hf5  1  0.154471  0.497958  0.468842  1
  Hf  Hf6  1  0.001778  0.655022  0.718908  1
  Hf  Hf7  1  0.004093  0.349101  0.222050  1
  Hf  Hf8  1  0.497141  0.353978  0.124741  1
  Hf  Hf9  1  0.502268  0.646107  0.625726  1
  Hf  Hf10  1  0.852107  0.003297  0.875859  1
  Hf  Hf11  1  0.146898  0.997882  0.375881  1
  Hf  Hf12  1  0.646690  0.501950  0.374120  1
  Hf  Hf13  1  0.353127  0.499088  0.873677  1
  Hf  Hf14  1  0.004950  0.852003  0.125340  1
  Hf  Hf15  1  0.997507  0.145977  0.624390  1
  Ta  Ta16  1  0.674985  0.325308  0.750035  1
  Ta  Ta17  1  0.326075  0.673900  0.250078  1
  Ta  Ta18  1  0.825176  0.825156  0.500052  1
  Ta  Ta19  1  0.178117  0.174956  0.999417  1
  Si  Si20  1  0.202971  0.853990  0.572211  1
  Si  Si21  1  0.646238  0.702942  0.821579  1
  Si  Si22  1  0.355686  0.296847  0.322088  1
  Si  Si23  1  0.853446  0.202359  0.428075  1
  Si  Si24  1  0.144300  0.797803  0.927746  1
  Si  Si25  1  0.702804  0.646439  0.178096  1
  Si  Si26  1  0.296591  0.353892  0.677740  1
  Si  Si27  1  0.537934  0.194041  0.929411  1
  Si  Si28  1  0.452724  0.802114  0.435129  1
  Si  Si29  1  0.697077  0.953510  0.684767  1
  Si  Si30  1  0.303854  0.046229  0.185046  1
  Si  Si31  1  0.803069  0.453595  0.565297  1
  Si  Si32  1  0.197355  0.546179  0.065035  1
  Si  Si33  1  0.953167  0.698046  0.316110  1
  Si  Si34  1  0.046885  0.303081  0.814954  1
  As  As35  1  0.801382  0.147866  0.076403  1
