# generated using pymatgen
data_Li2TbDy3(ScSi2)4
_symmetry_space_group_name_H-M   'P 1'
_cell_length_a   6.90101527
_cell_length_b   7.40767168
_cell_length_c   14.08570626
_cell_angle_alpha   90.04335163
_cell_angle_beta   90.02159325
_cell_angle_gamma   89.97661061
_symmetry_Int_Tables_number   1
_chemical_formula_structural   Li2TbDy3(ScSi2)4
_chemical_formula_sum   'Li4 Tb2 Dy6 Sc8 Si16'
_cell_volume   720.06740109
_cell_formula_units_Z   2
loop_
 _symmetry_equiv_pos_site_id
 _symmetry_equiv_pos_as_xyz
  1  'x, y, z'
loop_
 _atom_site_type_symbol
 _atom_site_label
 _atom_site_symmetry_multiplicity
 _atom_site_fract_x
 _atom_site_fract_y
 _atom_site_fract_z
 _atom_site_occupancy
  Li  Li0  1  0.159224  0.505133  0.749979  1
  Li  Li1  1  0.840776  0.494867  0.250021  1
  Li  Li2  1  0.340855  0.005151  0.250022  1
  Li  Li3  1  0.659145  0.994849  0.749978  1
  Tb  Tb4  1  0.013725  0.181707  0.099238  1
  Tb  Tb5  1  0.986275  0.818293  0.900762  1
  Dy  Dy6  1  0.486228  0.681766  0.900745  1
  Dy  Dy7  1  0.986236  0.818170  0.599312  1
  Dy  Dy8  1  0.513772  0.318234  0.099255  1
  Dy  Dy9  1  0.013764  0.181830  0.400688  1
  Dy  Dy10  1  0.513772  0.318185  0.400748  1
  Dy  Dy11  1  0.486228  0.681815  0.599252  1
  Sc  Sc12  1  0.330274  0.179219  0.626427  1
  Sc  Sc13  1  0.669726  0.820781  0.373573  1
  Sc  Sc14  1  0.169775  0.679197  0.373563  1
  Sc  Sc15  1  0.669593  0.820737  0.126467  1
  Sc  Sc16  1  0.830225  0.320803  0.626437  1
  Sc  Sc17  1  0.330407  0.179263  0.873533  1
  Sc  Sc18  1  0.830156  0.320873  0.873522  1
  Sc  Sc19  1  0.169844  0.679127  0.126478  1
  Si  Si20  1  0.031638  0.104655  0.749864  1
  Si  Si21  1  0.968362  0.895345  0.250136  1
  Si  Si22  1  0.468482  0.604470  0.250024  1
  Si  Si23  1  0.531518  0.395530  0.749976  1
  Si  Si24  1  0.282320  0.881703  0.749843  1
  Si  Si25  1  0.717680  0.118297  0.250157  1
  Si  Si26  1  0.218121  0.381764  0.250131  1
  Si  Si27  1  0.781879  0.618236  0.749869  1
  Si  Si28  1  0.158100  0.463121  0.535305  1
  Si  Si29  1  0.841900  0.536879  0.464695  1
  Si  Si30  1  0.341912  0.963147  0.464690  1
  Si  Si31  1  0.841743  0.536889  0.035325  1
  Si  Si32  1  0.658088  0.036853  0.535310  1
  Si  Si33  1  0.158257  0.463111  0.964675  1
  Si  Si34  1  0.657585  0.037005  0.964770  1
  Si  Si35  1  0.342415  0.962995  0.035230  1
