# generated using pymatgen
data_Ta2V2GaC3
_symmetry_space_group_name_H-M   'P 1'
_cell_length_a   3.07417200
_cell_length_b   3.07417146
_cell_length_c   23.10349800
_cell_angle_alpha   90.00000000
_cell_angle_beta   90.00000000
_cell_angle_gamma   119.99998430
_symmetry_Int_Tables_number   1
_chemical_formula_structural   Ta2V2GaC3
_chemical_formula_sum   'Ta4 V4 Ga2 C6'
_cell_volume   189.08831366
_cell_formula_units_Z   2
loop_
 _symmetry_equiv_pos_site_id
 _symmetry_equiv_pos_as_xyz
  1  'x, y, z'
loop_
 _atom_site_type_symbol
 _atom_site_label
 _atom_site_symmetry_multiplicity
 _atom_site_fract_x
 _atom_site_fract_y
 _atom_site_fract_z
 _atom_site_occupancy
  Ta  Ta0  1  0.333333  0.666667  0.441205  1
  Ta  Ta1  1  0.666667  0.333333  0.558795  1
  Ta  Ta2  1  0.666667  0.333333  0.941205  1
  Ta  Ta3  1  0.333333  0.666667  0.058795  1
  V  V4  1  0.000000  0.000000  0.340028  1
  V  V5  1  0.000000  0.000000  0.659972  1
  V  V6  1  0.000000  0.000000  0.840028  1
  V  V7  1  0.000000  0.000000  0.159972  1
  Ga  Ga8  1  0.333333  0.666667  0.250000  1
  Ga  Ga9  1  0.666667  0.333333  0.750000  1
  C  C10  1  0.000000  0.000000  0.500000  1
  C  C11  1  0.000000  0.000000  0.000000  1
  C  C12  1  0.666667  0.333333  0.384027  1
  C  C13  1  0.333333  0.666667  0.615973  1
  C  C14  1  0.333333  0.666667  0.884027  1
  C  C15  1  0.666667  0.333333  0.115973  1
