# generated using pymatgen
data_Y5Fe12Co6NiP12
_symmetry_space_group_name_H-M   'P 1'
_cell_length_a   11.98662300
_cell_length_b   11.98662273
_cell_length_c   3.69099500
_cell_angle_alpha   90.00000000
_cell_angle_beta   90.00000000
_cell_angle_gamma   119.99999799
_symmetry_Int_Tables_number   1
_chemical_formula_structural   Y5Fe12Co6NiP12
_chemical_formula_sum   'Y5 Fe12 Co6 Ni1 P12'
_cell_volume   459.26968516
_cell_formula_units_Z   1
loop_
 _symmetry_equiv_pos_site_id
 _symmetry_equiv_pos_as_xyz
  1  'x, y, z'
loop_
 _atom_site_type_symbol
 _atom_site_label
 _atom_site_symmetry_multiplicity
 _atom_site_fract_x
 _atom_site_fract_y
 _atom_site_fract_z
 _atom_site_occupancy
  Y  Y0  1  0.333333  0.666667  0.500000  1
  Y  Y1  1  0.666667  0.333333  0.500000  1
  Y  Y2  1  0.000195  0.188880  0.000000  1
  Y  Y3  1  0.811120  0.811314  0.000000  1
  Y  Y4  1  0.188686  0.999805  0.000000  1
  Fe  Fe5  1  0.621970  0.822604  0.500000  1
  Fe  Fe6  1  0.177396  0.799366  0.500000  1
  Fe  Fe7  1  0.200634  0.378030  0.500000  1
  Fe  Fe8  1  0.378566  0.198422  0.500000  1
  Fe  Fe9  1  0.819856  0.621434  0.500000  1
  Fe  Fe10  1  0.801578  0.180144  0.500000  1
  Fe  Fe11  1  0.998478  0.554205  0.500000  1
  Fe  Fe12  1  0.445795  0.444274  0.500000  1
  Fe  Fe13  1  0.555726  0.001522  0.500000  1
  Fe  Fe14  1  0.516675  0.638727  0.000000  1
  Fe  Fe15  1  0.361273  0.877949  0.000000  1
  Fe  Fe16  1  0.122051  0.483325  0.000000  1
  Co  Co17  1  0.485383  0.123285  0.000000  1
  Co  Co18  1  0.637903  0.514617  0.000000  1
  Co  Co19  1  0.876715  0.362097  0.000000  1
  Co  Co20  1  0.999360  0.714599  0.000000  1
  Co  Co21  1  0.285401  0.284761  0.000000  1
  Co  Co22  1  0.715239  0.000640  0.000000  1
  Ni  Ni23  1  0.000000  0.000000  0.500000  1
  P  P24  1  0.002429  0.370371  0.500000  1
  P  P25  1  0.629629  0.632058  0.500000  1
  P  P26  1  0.367942  0.997571  0.500000  1
  P  P27  1  0.520779  0.832335  0.000000  1
  P  P28  1  0.167665  0.688444  0.000000  1
  P  P29  1  0.311556  0.479221  0.000000  1
  P  P30  1  0.478334  0.311175  0.000000  1
  P  P31  1  0.832840  0.521666  0.000000  1
  P  P32  1  0.688825  0.167160  0.000000  1
  P  P33  1  0.999527  0.814931  0.500000  1
  P  P34  1  0.185069  0.184596  0.500000  1
  P  P35  1  0.815404  0.000473  0.500000  1
