# generated using pymatgen
data_ZrHg3(TeBr3)2
_symmetry_space_group_name_H-M   'P 1'
_cell_length_a   8.13570900
_cell_length_b   7.21606368
_cell_length_c   14.25701432
_cell_angle_alpha   87.96557432
_cell_angle_beta   90.00000000
_cell_angle_gamma   90.00000000
_symmetry_Int_Tables_number   1
_chemical_formula_structural   ZrHg3(TeBr3)2
_chemical_formula_sum   'Zr2 Hg6 Te4 Br12'
_cell_volume   836.47028462
_cell_formula_units_Z   2
loop_
 _symmetry_equiv_pos_site_id
 _symmetry_equiv_pos_as_xyz
  1  'x, y, z'
loop_
 _atom_site_type_symbol
 _atom_site_label
 _atom_site_symmetry_multiplicity
 _atom_site_fract_x
 _atom_site_fract_y
 _atom_site_fract_z
 _atom_site_occupancy
  Zr  Zr0  1  0.500000  0.500000  0.500000  1
  Zr  Zr1  1  0.000000  0.500000  0.000000  1
  Hg  Hg2  1  0.292993  0.006513  0.739520  1
  Hg  Hg3  1  0.792993  0.993487  0.760480  1
  Hg  Hg4  1  0.207007  0.006513  0.239520  1
  Hg  Hg5  1  0.500000  0.000000  0.000000  1
  Hg  Hg6  1  0.707007  0.993487  0.260480  1
  Hg  Hg7  1  0.000000  0.000000  0.500000  1
  Te  Te8  1  0.463930  0.809718  0.169331  1
  Te  Te9  1  0.963930  0.190282  0.330669  1
  Te  Te10  1  0.036070  0.809718  0.669331  1
  Te  Te11  1  0.536070  0.190282  0.830669  1
  Br  Br12  1  0.347091  0.807847  0.440600  1
  Br  Br13  1  0.219567  0.360536  0.566516  1
  Br  Br14  1  0.050281  0.349055  0.835070  1
  Br  Br15  1  0.280433  0.360536  0.066516  1
  Br  Br16  1  0.780433  0.639464  0.433484  1
  Br  Br17  1  0.152909  0.807847  0.940600  1
  Br  Br18  1  0.449719  0.349055  0.335070  1
  Br  Br19  1  0.847091  0.192153  0.059400  1
  Br  Br20  1  0.949719  0.650945  0.164930  1
  Br  Br21  1  0.550281  0.650945  0.664930  1
  Br  Br22  1  0.652909  0.192153  0.559400  1
  Br  Br23  1  0.719567  0.639464  0.933484  1
