# generated using pymatgen
data_TbLu2As4Rh7
_symmetry_space_group_name_H-M   'P 1'
_cell_length_a   7.89322759
_cell_length_b   7.89322715
_cell_length_c   9.40016000
_cell_angle_alpha   56.82092052
_cell_angle_beta   56.82092262
_cell_angle_gamma   29.43569698
_symmetry_Int_Tables_number   1
_chemical_formula_structural   TbLu2As4Rh7
_chemical_formula_sum   'Tb1 Lu2 As4 Rh7'
_cell_volume   237.31511217
_cell_formula_units_Z   1
loop_
 _symmetry_equiv_pos_site_id
 _symmetry_equiv_pos_as_xyz
  1  'x, y, z'
loop_
 _atom_site_type_symbol
 _atom_site_label
 _atom_site_symmetry_multiplicity
 _atom_site_fract_x
 _atom_site_fract_y
 _atom_site_fract_z
 _atom_site_occupancy
  Tb  Tb0  1  0.000000  0.000000  0.000000  1
  Lu  Lu1  1  0.665758  0.665758  0.341672  1
  Lu  Lu2  1  0.334242  0.334242  0.658328  1
  As  As3  1  0.332311  0.332311  0.270417  1
  As  As4  1  0.667689  0.667689  0.729583  1
  As  As5  1  0.890259  0.890259  0.828003  1
  As  As6  1  0.109741  0.109741  0.171997  1
  Rh  Rh7  1  0.302227  0.302227  0.041292  1
  Rh  Rh8  1  0.697773  0.697773  0.958708  1
  Rh  Rh9  1  0.508990  0.508990  0.718298  1
  Rh  Rh10  1  0.833357  0.833357  0.428059  1
  Rh  Rh11  1  0.491010  0.491010  0.281702  1
  Rh  Rh12  1  0.166643  0.166643  0.571941  1
  Rh  Rh13  1  0.000000  0.000000  0.500000  1
