# generated using pymatgen
data_SmEr5Mn2(Co4P3)4
_symmetry_space_group_name_H-M   'P 1'
_cell_length_a   3.68968800
_cell_length_b   10.54961100
_cell_length_c   12.21154900
_cell_angle_alpha   90.00000000
_cell_angle_beta   90.00000000
_cell_angle_gamma   90.00000000
_symmetry_Int_Tables_number   1
_chemical_formula_structural   SmEr5Mn2(Co4P3)4
_chemical_formula_sum   'Sm1 Er5 Mn2 Co16 P12'
_cell_volume   475.33177416
_cell_formula_units_Z   1
loop_
 _symmetry_equiv_pos_site_id
 _symmetry_equiv_pos_as_xyz
  1  'x, y, z'
loop_
 _atom_site_type_symbol
 _atom_site_label
 _atom_site_symmetry_multiplicity
 _atom_site_fract_x
 _atom_site_fract_y
 _atom_site_fract_z
 _atom_site_occupancy
  Sm  Sm0  1  0.750000  0.250000  0.477106  1
  Er  Er1  1  0.250000  0.750000  0.522723  1
  Er  Er2  1  0.250000  0.931447  0.794971  1
  Er  Er3  1  0.250000  0.568553  0.794971  1
  Er  Er4  1  0.750000  0.068239  0.204472  1
  Er  Er5  1  0.750000  0.431761  0.204472  1
  Mn  Mn6  1  0.250000  0.250000  0.842304  1
  Mn  Mn7  1  0.750000  0.750000  0.159409  1
  Co  Co8  1  0.250000  0.250000  0.295060  1
  Co  Co9  1  0.750000  0.750000  0.703152  1
  Co  Co10  1  0.750000  0.250000  0.013290  1
  Co  Co11  1  0.250000  0.750000  0.986267  1
  Co  Co12  1  0.250000  0.417296  0.006080  1
  Co  Co13  1  0.250000  0.082704  0.006080  1
  Co  Co14  1  0.750000  0.583312  0.993878  1
  Co  Co15  1  0.750000  0.916688  0.993878  1
  Co  Co16  1  0.250000  0.455945  0.569976  1
  Co  Co17  1  0.250000  0.044055  0.569976  1
  Co  Co18  1  0.750000  0.548403  0.430120  1
  Co  Co19  1  0.750000  0.951597  0.430120  1
  Co  Co20  1  0.250000  0.870384  0.290277  1
  Co  Co21  1  0.250000  0.629616  0.290277  1
  Co  Co22  1  0.750000  0.128569  0.710211  1
  Co  Co23  1  0.750000  0.371431  0.710211  1
  P  P24  1  0.250000  0.250000  0.116781  1
  P  P25  1  0.750000  0.750000  0.882487  1
  P  P26  1  0.250000  0.250000  0.657287  1
  P  P27  1  0.750000  0.750000  0.346070  1
  P  P28  1  0.250000  0.440801  0.382395  1
  P  P29  1  0.250000  0.059199  0.382395  1
  P  P30  1  0.750000  0.562203  0.616517  1
  P  P31  1  0.750000  0.937797  0.616517  1
  P  P32  1  0.250000  0.902784  0.107495  1
  P  P33  1  0.250000  0.597216  0.107495  1
  P  P34  1  0.750000  0.096490  0.892643  1
  P  P35  1  0.750000  0.403510  0.892643  1
