# generated using pymatgen
data_Hf16Ni4MoRu2Rh
_symmetry_space_group_name_H-M   'P 1'
_cell_length_a   8.61454530
_cell_length_b   8.61454556
_cell_length_c   8.66148212
_cell_angle_alpha   60.20050242
_cell_angle_beta   60.20049625
_cell_angle_gamma   60.14096088
_symmetry_Int_Tables_number   1
_chemical_formula_structural   Hf16Ni4MoRu2Rh
_chemical_formula_sum   'Hf16 Ni4 Mo1 Ru2 Rh1'
_cell_volume   456.36757822
_cell_formula_units_Z   1
loop_
 _symmetry_equiv_pos_site_id
 _symmetry_equiv_pos_as_xyz
  1  'x, y, z'
loop_
 _atom_site_type_symbol
 _atom_site_label
 _atom_site_symmetry_multiplicity
 _atom_site_fract_x
 _atom_site_fract_y
 _atom_site_fract_z
 _atom_site_occupancy
  Hf  Hf0  1  0.685484  0.104485  0.105312  1
  Hf  Hf1  1  0.104485  0.685484  0.105312  1
  Hf  Hf2  1  0.107810  0.107810  0.676012  1
  Hf  Hf3  1  0.103874  0.103874  0.104610  1
  Hf  Hf4  1  0.315453  0.315453  0.690851  1
  Hf  Hf5  1  0.684472  0.684472  0.316337  1
  Hf  Hf6  1  0.315735  0.687445  0.316432  1
  Hf  Hf7  1  0.681691  0.314965  0.689053  1
  Hf  Hf8  1  0.687445  0.315735  0.316432  1
  Hf  Hf9  1  0.314965  0.681691  0.689053  1
  Hf  Hf10  1  0.950415  0.950415  0.549499  1
  Hf  Hf11  1  0.551335  0.551335  0.946723  1
  Hf  Hf12  1  0.951600  0.549713  0.948931  1
  Hf  Hf13  1  0.549279  0.949770  0.549630  1
  Hf  Hf14  1  0.549713  0.951600  0.948931  1
  Hf  Hf15  1  0.949770  0.549279  0.549630  1
  Ni  Ni16  1  0.320337  0.894529  0.889710  1
  Ni  Ni17  1  0.894529  0.320337  0.889710  1
  Ni  Ni18  1  0.891556  0.891556  0.323597  1
  Ni  Ni19  1  0.895064  0.895064  0.890842  1
  Mo  Mo20  1  0.332037  0.332037  0.002166  1
  Ru  Ru21  1  0.992592  0.335359  0.333898  1
  Ru  Ru22  1  0.335359  0.992592  0.333898  1
  Rh  Rh23  1  0.334997  0.334997  0.333428  1
