# generated using pymatgen
data_Tb20Ir4Ru3Rh5
_symmetry_space_group_name_H-M   'P 1'
_cell_length_a   10.90045192
_cell_length_b   10.89698183
_cell_length_c   6.43715825
_cell_angle_alpha   90.02011743
_cell_angle_beta   90.02509037
_cell_angle_gamma   89.89404595
_symmetry_Int_Tables_number   1
_chemical_formula_structural   Tb20Ir4Ru3Rh5
_chemical_formula_sum   'Tb20 Ir4 Ru3 Rh5'
_cell_volume   764.61727440
_cell_formula_units_Z   1
loop_
 _symmetry_equiv_pos_site_id
 _symmetry_equiv_pos_as_xyz
  1  'x, y, z'
loop_
 _atom_site_type_symbol
 _atom_site_label
 _atom_site_symmetry_multiplicity
 _atom_site_fract_x
 _atom_site_fract_y
 _atom_site_fract_z
 _atom_site_occupancy
  Tb  Tb0  1  0.294081  0.087861  0.378085  1
  Tb  Tb1  1  0.294626  0.912395  0.878172  1
  Tb  Tb2  1  0.705361  0.085696  0.878489  1
  Tb  Tb3  1  0.705592  0.911842  0.377762  1
  Tb  Tb4  1  0.585278  0.792923  0.879706  1
  Tb  Tb5  1  0.585345  0.206002  0.377766  1
  Tb  Tb6  1  0.414032  0.793436  0.378881  1
  Tb  Tb7  1  0.412875  0.206164  0.879999  1
  Tb  Tb8  1  0.208842  0.413539  0.622262  1
  Tb  Tb9  1  0.208046  0.586756  0.119770  1
  Tb  Tb10  1  0.792415  0.413762  0.120526  1
  Tb  Tb11  1  0.792036  0.588410  0.621935  1
  Tb  Tb12  1  0.911203  0.707296  0.120352  1
  Tb  Tb13  1  0.912953  0.292994  0.623731  1
  Tb  Tb14  1  0.088931  0.707012  0.623860  1
  Tb  Tb15  1  0.089086  0.292968  0.120712  1
  Tb  Tb16  1  0.999971  0.999972  0.498886  1
  Tb  Tb17  1  0.000099  0.999940  0.999024  1
  Tb  Tb18  1  0.499803  0.500150  0.998942  1
  Tb  Tb19  1  0.499815  0.500063  0.498726  1
  Ir  Ir20  1  0.653519  0.651605  0.249941  1
  Ir  Ir21  1  0.347389  0.347413  0.249735  1
  Ir  Ir22  1  0.346500  0.653126  0.749496  1
  Ir  Ir23  1  0.999529  0.499733  0.378635  1
  Ru  Ru24  1  0.500443  0.000643  0.123230  1
  Ru  Ru25  1  0.500418  0.000879  0.623180  1
  Ru  Ru26  1  0.999111  0.499525  0.879530  1
  Rh  Rh27  1  0.848207  0.152750  0.250036  1
  Rh  Rh28  1  0.848205  0.847862  0.749278  1
  Rh  Rh29  1  0.151670  0.152270  0.749795  1
  Rh  Rh30  1  0.151347  0.847712  0.250058  1
  Rh  Rh31  1  0.653272  0.347300  0.749494  1
