# generated using pymatgen
data_La3Gd5(Si3Ir)4
_symmetry_space_group_name_H-M   'P 1'
_cell_length_a   8.21950300
_cell_length_b   8.26170257
_cell_length_c   8.36820100
_cell_angle_alpha   90.00000000
_cell_angle_beta   90.00000000
_cell_angle_gamma   119.83118889
_symmetry_Int_Tables_number   1
_chemical_formula_structural   La3Gd5(Si3Ir)4
_chemical_formula_sum   'La3 Gd5 Si12 Ir4'
_cell_volume   492.96274174
_cell_formula_units_Z   1
loop_
 _symmetry_equiv_pos_site_id
 _symmetry_equiv_pos_as_xyz
  1  'x, y, z'
loop_
 _atom_site_type_symbol
 _atom_site_label
 _atom_site_symmetry_multiplicity
 _atom_site_fract_x
 _atom_site_fract_y
 _atom_site_fract_z
 _atom_site_occupancy
  La  La0  1  0.500162  0.000326  0.250000  1
  La  La1  1  0.000027  0.000054  0.750000  1
  La  La2  1  0.000539  0.001077  0.250000  1
  Gd  Gd3  1  0.499980  0.499604  0.750000  1
  Gd  Gd4  1  0.499672  0.500779  0.250000  1
  Gd  Gd5  1  0.999625  0.499604  0.750000  1
  Gd  Gd6  1  0.001105  0.500779  0.250000  1
  Gd  Gd7  1  0.499690  0.999378  0.750000  1
  Si  Si8  1  0.832832  0.168329  0.997751  1
  Si  Si9  1  0.167002  0.831525  0.996565  1
  Si  Si10  1  0.335499  0.168329  0.997751  1
  Si  Si11  1  0.167002  0.831525  0.503435  1
  Si  Si12  1  0.664523  0.831525  0.996565  1
  Si  Si13  1  0.832832  0.168329  0.502249  1
  Si  Si14  1  0.832397  0.664793  0.001314  1
  Si  Si15  1  0.664523  0.831525  0.503435  1
  Si  Si16  1  0.167473  0.334947  0.998962  1
  Si  Si17  1  0.335499  0.168329  0.502249  1
  Si  Si18  1  0.167473  0.334947  0.501038  1
  Si  Si19  1  0.832397  0.664793  0.498686  1
  Ir  Ir20  1  0.667837  0.335673  0.994348  1
  Ir  Ir21  1  0.332038  0.664076  0.997362  1
  Ir  Ir22  1  0.332038  0.664076  0.502638  1
  Ir  Ir23  1  0.667837  0.335673  0.505652  1
