# generated using pymatgen
data_Pr6Cd16Ag7Ge
_symmetry_space_group_name_H-M   'P 1'
_cell_length_a   9.94695053
_cell_length_b   9.94695052
_cell_length_c   9.94695100
_cell_angle_alpha   60.00000174
_cell_angle_beta   60.00000176
_cell_angle_gamma   59.99999732
_symmetry_Int_Tables_number   1
_chemical_formula_structural   Pr6Cd16Ag7Ge
_chemical_formula_sum   'Pr6 Cd16 Ag7 Ge1'
_cell_volume   695.91291944
_cell_formula_units_Z   1
loop_
 _symmetry_equiv_pos_site_id
 _symmetry_equiv_pos_as_xyz
  1  'x, y, z'
loop_
 _atom_site_type_symbol
 _atom_site_label
 _atom_site_symmetry_multiplicity
 _atom_site_fract_x
 _atom_site_fract_y
 _atom_site_fract_z
 _atom_site_occupancy
  Pr  Pr0  1  0.789276  0.789276  0.210724  1
  Pr  Pr1  1  0.210724  0.789276  0.210724  1
  Pr  Pr2  1  0.789276  0.210724  0.210724  1
  Pr  Pr3  1  0.210724  0.210724  0.789276  1
  Pr  Pr4  1  0.789276  0.210724  0.789276  1
  Pr  Pr5  1  0.210724  0.789276  0.789276  1
  Cd  Cd6  1  0.832555  0.832555  0.502335  1
  Cd  Cd7  1  0.832555  0.502335  0.832555  1
  Cd  Cd8  1  0.502335  0.832555  0.832555  1
  Cd  Cd9  1  0.832555  0.832555  0.832555  1
  Cd  Cd10  1  0.167445  0.167445  0.497665  1
  Cd  Cd11  1  0.167445  0.497665  0.167445  1
  Cd  Cd12  1  0.497665  0.167445  0.167445  1
  Cd  Cd13  1  0.167445  0.167445  0.167445  1
  Cd  Cd14  1  0.620677  0.620677  0.137969  1
  Cd  Cd15  1  0.620677  0.137969  0.620677  1
  Cd  Cd16  1  0.137969  0.620677  0.620677  1
  Cd  Cd17  1  0.620677  0.620677  0.620677  1
  Cd  Cd18  1  0.379323  0.379323  0.862031  1
  Cd  Cd19  1  0.379323  0.862031  0.379323  1
  Cd  Cd20  1  0.862031  0.379323  0.379323  1
  Cd  Cd21  1  0.379323  0.379323  0.379323  1
  Ag  Ag22  1  0.000000  0.000000  0.500000  1
  Ag  Ag23  1  0.500000  0.000000  0.500000  1
  Ag  Ag24  1  0.000000  0.500000  0.500000  1
  Ag  Ag25  1  0.500000  0.500000  0.000000  1
  Ag  Ag26  1  0.000000  0.500000  0.000000  1
  Ag  Ag27  1  0.500000  0.000000  0.000000  1
  Ag  Ag28  1  0.500000  0.500000  0.500000  1
  Ge  Ge29  1  0.000000  0.000000  0.000000  1
