# generated using pymatgen
data_Hf6Co5Sn6Au
_symmetry_space_group_name_H-M   'P 1'
_cell_length_a   7.12094100
_cell_length_b   7.12094179
_cell_length_c   7.35591400
_cell_angle_alpha   90.00000000
_cell_angle_beta   90.00000000
_cell_angle_gamma   119.99999171
_symmetry_Int_Tables_number   1
_chemical_formula_structural   Hf6Co5Sn6Au
_chemical_formula_sum   'Hf6 Co5 Sn6 Au1'
_cell_volume   323.02946189
_cell_formula_units_Z   1
loop_
 _symmetry_equiv_pos_site_id
 _symmetry_equiv_pos_as_xyz
  1  'x, y, z'
loop_
 _atom_site_type_symbol
 _atom_site_label
 _atom_site_symmetry_multiplicity
 _atom_site_fract_x
 _atom_site_fract_y
 _atom_site_fract_z
 _atom_site_occupancy
  Hf  Hf0  1  0.001242  0.397238  0.756427  1
  Hf  Hf1  1  0.602762  0.604005  0.756427  1
  Hf  Hf2  1  0.395995  0.998758  0.756427  1
  Hf  Hf3  1  0.968944  0.381815  0.239006  1
  Hf  Hf4  1  0.618185  0.587128  0.239006  1
  Hf  Hf5  1  0.412872  0.031056  0.239006  1
  Co  Co6  1  0.666667  0.333333  0.541285  1
  Co  Co7  1  0.333333  0.666667  0.038681  1
  Co  Co8  1  0.000000  0.000000  0.753915  1
  Co  Co9  1  0.000000  0.000000  0.249201  1
  Co  Co10  1  0.666667  0.333333  0.965349  1
  Sn  Sn11  1  0.265245  0.253261  0.502962  1
  Sn  Sn12  1  0.988016  0.734755  0.502962  1
  Sn  Sn13  1  0.008852  0.739285  0.999999  1
  Sn  Sn14  1  0.746739  0.011984  0.502962  1
  Sn  Sn15  1  0.730433  0.991148  0.999999  1
  Sn  Sn16  1  0.260715  0.269567  0.999999  1
  Au  Au17  1  0.333333  0.666667  0.456384  1
