# generated using pymatgen
data_NdSm(Dy3B10)2
_symmetry_space_group_name_H-M   'P 1'
_cell_length_a   7.11744027
_cell_length_b   7.11321673
_cell_length_c   7.14190600
_cell_angle_alpha   76.99150667
_cell_angle_beta   90.12621690
_cell_angle_gamma   89.98419796
_symmetry_Int_Tables_number   1
_chemical_formula_structural   NdSm(Dy3B10)2
_chemical_formula_sum   'Nd1 Sm1 Dy6 B20'
_cell_volume   352.29937867
_cell_formula_units_Z   1
loop_
 _symmetry_equiv_pos_site_id
 _symmetry_equiv_pos_as_xyz
  1  'x, y, z'
loop_
 _atom_site_type_symbol
 _atom_site_label
 _atom_site_symmetry_multiplicity
 _atom_site_fract_x
 _atom_site_fract_y
 _atom_site_fract_z
 _atom_site_occupancy
  Nd  Nd0  1  0.311568  0.221482  0.376726  1
  Sm  Sm1  1  0.809453  0.774380  0.125706  1
  Dy  Dy2  1  0.315149  0.754787  0.252972  1
  Dy  Dy3  1  0.815759  0.244473  0.246321  1
  Dy  Dy4  1  0.685348  0.243718  0.746029  1
  Dy  Dy5  1  0.184621  0.756497  0.754274  1
  Dy  Dy6  1  0.692844  0.765780  0.628479  1
  Dy  Dy7  1  0.192892  0.234547  0.871779  1
  B  B8  1  0.503104  0.314957  0.038040  1
  B  B9  1  0.002122  0.685070  0.461343  1
  B  B10  1  0.497158  0.686188  0.957958  1
  B  B11  1  0.996454  0.313888  0.542164  1
  B  B12  1  0.486956  0.926898  0.920926  1
  B  B13  1  0.985097  0.072895  0.578633  1
  B  B14  1  0.509356  0.075344  0.069755  1
  B  B15  1  0.006832  0.924066  0.429974  1
  B  B16  1  0.326973  0.497047  0.038897  1
  B  B17  1  0.826606  0.503315  0.460763  1
  B  B18  1  0.674059  0.503657  0.959486  1
  B  B19  1  0.173607  0.496835  0.540758  1
  B  B20  1  0.911138  0.498403  0.910823  1
  B  B21  1  0.411245  0.503064  0.588834  1
  B  B22  1  0.089832  0.501196  0.089233  1
  B  B23  1  0.590014  0.500502  0.410477  1
  B  B24  1  0.961919  0.496401  0.674783  1
  B  B25  1  0.462117  0.504082  0.825093  1
  B  B26  1  0.038427  0.502756  0.326851  1
  B  B27  1  0.539352  0.497775  0.172920  1
