# generated using pymatgen
data_Ca3MoO6
_symmetry_space_group_name_H-M   'P 1'
_cell_length_a   6.59394939
_cell_length_b   6.59394941
_cell_length_c   6.59394969
_cell_angle_alpha   91.56390128
_cell_angle_beta   91.56389701
_cell_angle_gamma   91.56390766
_symmetry_Int_Tables_number   1
_chemical_formula_structural   Ca3MoO6
_chemical_formula_sum   'Ca6 Mo2 O12'
_cell_volume   286.37970344
_cell_formula_units_Z   2
loop_
 _symmetry_equiv_pos_site_id
 _symmetry_equiv_pos_as_xyz
  1  'x, y, z'
loop_
 _atom_site_type_symbol
 _atom_site_label
 _atom_site_symmetry_multiplicity
 _atom_site_fract_x
 _atom_site_fract_y
 _atom_site_fract_z
 _atom_site_occupancy
  Ca  Ca0  1  0.933586  0.436991  0.747552  1
  Ca  Ca1  1  0.747552  0.933586  0.436991  1
  Ca  Ca2  1  0.563009  0.252448  0.066414  1
  Ca  Ca3  1  0.436991  0.747552  0.933586  1
  Ca  Ca4  1  0.252448  0.066414  0.563009  1
  Ca  Ca5  1  0.066414  0.563009  0.252448  1
  Mo  Mo6  1  0.000000  0.000000  0.000000  1
  Mo  Mo7  1  0.500000  0.500000  0.500000  1
  O  O8  1  0.937290  0.282795  0.068365  1
  O  O9  1  0.931635  0.062710  0.717205  1
  O  O10  1  0.782584  0.578367  0.452897  1
  O  O11  1  0.717205  0.931635  0.062710  1
  O  O12  1  0.578367  0.452897  0.782584  1
  O  O13  1  0.547103  0.217416  0.421633  1
  O  O14  1  0.452897  0.782584  0.578367  1
  O  O15  1  0.421633  0.547103  0.217416  1
  O  O16  1  0.282795  0.068365  0.937290  1
  O  O17  1  0.217416  0.421633  0.547103  1
  O  O18  1  0.068365  0.937290  0.282795  1
  O  O19  1  0.062710  0.717205  0.931635  1
