# generated using pymatgen
data_Y4Cu3Si2Pd25
_symmetry_space_group_name_H-M   'P 1'
_cell_length_a   8.83920839
_cell_length_b   8.83920839
_cell_length_c   7.08026389
_cell_angle_alpha   90.25402122
_cell_angle_beta   90.25402122
_cell_angle_gamma   90.84838343
_symmetry_Int_Tables_number   1
_chemical_formula_structural   Y4Cu3Si2Pd25
_chemical_formula_sum   'Y4 Cu3 Si2 Pd25'
_cell_volume   553.12070346
_cell_formula_units_Z   1
loop_
 _symmetry_equiv_pos_site_id
 _symmetry_equiv_pos_as_xyz
  1  'x, y, z'
loop_
 _atom_site_type_symbol
 _atom_site_label
 _atom_site_symmetry_multiplicity
 _atom_site_fract_x
 _atom_site_fract_y
 _atom_site_fract_z
 _atom_site_occupancy
  Y  Y0  1  0.503383  0.003383  0.930888  1
  Y  Y1  1  0.996617  0.496617  0.069112  1
  Y  Y2  1  0.001450  0.998550  0.500000  1
  Y  Y3  1  0.498550  0.501450  0.500000  1
  Cu  Cu4  1  0.250000  0.750000  0.000000  1
  Cu  Cu5  1  0.250000  0.250000  0.000000  1
  Cu  Cu6  1  0.750000  0.750000  0.000000  1
  Si  Si7  1  0.500587  0.000587  0.443784  1
  Si  Si8  1  0.999413  0.499413  0.556216  1
  Pd  Pd9  1  0.333195  0.833195  0.619631  1
  Pd  Pd10  1  0.333394  0.164644  0.615135  1
  Pd  Pd11  1  0.664644  0.833394  0.615135  1
  Pd  Pd12  1  0.666810  0.166810  0.619505  1
  Pd  Pd13  1  0.166805  0.666805  0.380369  1
  Pd  Pd14  1  0.166606  0.335356  0.384865  1
  Pd  Pd15  1  0.835356  0.666606  0.384865  1
  Pd  Pd16  1  0.833190  0.333190  0.380495  1
  Pd  Pd17  1  0.497509  0.769067  0.251779  1
  Pd  Pd18  1  0.497986  0.232706  0.253057  1
  Pd  Pd19  1  0.269067  0.997509  0.251779  1
  Pd  Pd20  1  0.732706  0.997986  0.253057  1
  Pd  Pd21  1  0.002491  0.730933  0.748221  1
  Pd  Pd22  1  0.002014  0.267294  0.746943  1
  Pd  Pd23  1  0.230933  0.502491  0.748221  1
  Pd  Pd24  1  0.767294  0.502014  0.746943  1
  Pd  Pd25  1  0.493797  0.347778  0.858188  1
  Pd  Pd26  1  0.499184  0.660281  0.863825  1
  Pd  Pd27  1  0.847778  0.993797  0.858188  1
  Pd  Pd28  1  0.160281  0.999184  0.863825  1
  Pd  Pd29  1  0.006203  0.152222  0.141812  1
  Pd  Pd30  1  0.000816  0.839719  0.136175  1
  Pd  Pd31  1  0.652222  0.506203  0.141812  1
  Pd  Pd32  1  0.339719  0.500816  0.136175  1
  Pd  Pd33  1  0.750000  0.250000  0.000000  1
