# generated using pymatgen
data_S27I
_symmetry_space_group_name_H-M   'P 1'
_cell_length_a   14.58229039
_cell_length_b   14.58229201
_cell_length_c   14.58229076
_cell_angle_alpha   117.29760762
_cell_angle_beta   117.29760970
_cell_angle_gamma   117.29760320
_symmetry_Int_Tables_number   1
_chemical_formula_structural   S27I
_chemical_formula_sum   'S27 I1'
_cell_volume   1301.26910849
_cell_formula_units_Z   1
loop_
 _symmetry_equiv_pos_site_id
 _symmetry_equiv_pos_as_xyz
  1  'x, y, z'
loop_
 _atom_site_type_symbol
 _atom_site_label
 _atom_site_symmetry_multiplicity
 _atom_site_fract_x
 _atom_site_fract_y
 _atom_site_fract_z
 _atom_site_occupancy
  S  S0  1  0.049273  0.653475  0.653475  1
  S  S1  1  0.653475  0.653475  0.049273  1
  S  S2  1  0.653475  0.049273  0.653475  1
  S  S3  1  0.209863  0.827308  0.692124  1
  S  S4  1  0.827308  0.692124  0.209863  1
  S  S5  1  0.692124  0.209863  0.827308  1
  S  S6  1  0.827308  0.209863  0.692124  1
  S  S7  1  0.209863  0.692124  0.827308  1
  S  S8  1  0.692124  0.827308  0.209863  1
  S  S9  1  0.130012  0.664696  0.473866  1
  S  S10  1  0.664696  0.473866  0.130012  1
  S  S11  1  0.473866  0.130012  0.664696  1
  S  S12  1  0.664696  0.130012  0.473866  1
  S  S13  1  0.130012  0.473866  0.664696  1
  S  S14  1  0.473866  0.664696  0.130012  1
  S  S15  1  0.325301  0.709597  0.574905  1
  S  S16  1  0.709597  0.574905  0.325301  1
  S  S17  1  0.574905  0.325301  0.709597  1
  S  S18  1  0.709597  0.325301  0.574905  1
  S  S19  1  0.325301  0.574905  0.709597  1
  S  S20  1  0.574905  0.709597  0.325301  1
  S  S21  1  0.212590  0.486715  0.486715  1
  S  S22  1  0.486715  0.486715  0.212590  1
  S  S23  1  0.486715  0.212590  0.486715  1
  S  S24  1  0.001972  0.919188  0.919188  1
  S  S25  1  0.919188  0.919188  0.001972  1
  S  S26  1  0.919188  0.001972  0.919188  1
  I  I27  1  0.449164  0.449164  0.449164  1
