# generated using pymatgen
data_Dy2As4O9
_symmetry_space_group_name_H-M   'P 1'
_cell_length_a   6.75693660
_cell_length_b   7.55768675
_cell_length_c   9.82088544
_cell_angle_alpha   94.97845901
_cell_angle_beta   104.20079867
_cell_angle_gamma   104.69414434
_symmetry_Int_Tables_number   1
_chemical_formula_structural   Dy2As4O9
_chemical_formula_sum   'Dy4 As8 O18'
_cell_volume   464.31862014
_cell_formula_units_Z   2
loop_
 _symmetry_equiv_pos_site_id
 _symmetry_equiv_pos_as_xyz
  1  'x, y, z'
loop_
 _atom_site_type_symbol
 _atom_site_label
 _atom_site_symmetry_multiplicity
 _atom_site_fract_x
 _atom_site_fract_y
 _atom_site_fract_z
 _atom_site_occupancy
  Dy  Dy0  1  0.244404  0.939318  0.615431  1
  Dy  Dy1  1  0.755596  0.060682  0.384569  1
  Dy  Dy2  1  0.721237  0.530336  0.409518  1
  Dy  Dy3  1  0.278763  0.469664  0.590482  1
  As  As4  1  0.681842  0.774709  0.077673  1
  As  As5  1  0.318158  0.225291  0.922327  1
  As  As6  1  0.171565  0.752851  0.912664  1
  As  As7  1  0.828435  0.247149  0.087336  1
  As  As8  1  0.744332  0.915606  0.709446  1
  As  As9  1  0.255668  0.084394  0.290554  1
  As  As10  1  0.809514  0.350733  0.701486  1
  As  As11  1  0.190486  0.649267  0.298514  1
  O  O12  1  0.722807  0.749555  0.258274  1
  O  O13  1  0.277193  0.250445  0.741726  1
  O  O14  1  0.316084  0.978655  0.870180  1
  O  O15  1  0.683916  0.021345  0.129820  1
  O  O16  1  0.607924  0.324278  0.985425  1
  O  O17  1  0.392076  0.675722  0.014575  1
  O  O18  1  0.128397  0.646713  0.737757  1
  O  O19  1  0.871603  0.353287  0.262243  1
  O  O20  1  0.846654  0.874538  0.559083  1
  O  O21  1  0.153346  0.125462  0.440917  1
  O  O22  1  0.483800  0.768634  0.666471  1
  O  O23  1  0.516200  0.231366  0.333529  1
  O  O24  1  0.372739  0.534022  0.379339  1
  O  O25  1  0.627261  0.465978  0.620661  1
  O  O26  1  0.089816  0.669759  0.453698  1
  O  O27  1  0.910184  0.330241  0.546302  1
  O  O28  1  0.376372  0.899251  0.359176  1
  O  O29  1  0.623628  0.100749  0.640824  1
