# generated using pymatgen
data_Al2(SeO3)3
_symmetry_space_group_name_H-M   'P 1'
_cell_length_a   7.85711200
_cell_length_b   7.85711149
_cell_length_c   7.23214900
_cell_angle_alpha   90.00000000
_cell_angle_beta   90.00000000
_cell_angle_gamma   119.99998758
_symmetry_Int_Tables_number   1
_chemical_formula_structural   Al2(SeO3)3
_chemical_formula_sum   'Al4 Se6 O18'
_cell_volume   386.65524926
_cell_formula_units_Z   2
loop_
 _symmetry_equiv_pos_site_id
 _symmetry_equiv_pos_as_xyz
  1  'x, y, z'
loop_
 _atom_site_type_symbol
 _atom_site_label
 _atom_site_symmetry_multiplicity
 _atom_site_fract_x
 _atom_site_fract_y
 _atom_site_fract_z
 _atom_site_occupancy
  Al  Al0  1  0.333333  0.666667  0.057065  1
  Al  Al1  1  0.666667  0.333333  0.557065  1
  Al  Al2  1  0.666667  0.333333  0.942935  1
  Al  Al3  1  0.333333  0.666667  0.442935  1
  Se  Se4  1  0.272902  0.313788  0.750000  1
  Se  Se5  1  0.313788  0.040886  0.250000  1
  Se  Se6  1  0.040886  0.727098  0.750000  1
  Se  Se7  1  0.959114  0.272902  0.250000  1
  Se  Se8  1  0.727098  0.686212  0.250000  1
  Se  Se9  1  0.686212  0.959114  0.750000  1
  O  O10  1  0.429120  0.184457  0.436599  1
  O  O11  1  0.244663  0.429120  0.936599  1
  O  O12  1  0.184457  0.755337  0.936599  1
  O  O13  1  0.815543  0.244663  0.436599  1
  O  O14  1  0.755337  0.570880  0.436599  1
  O  O15  1  0.570880  0.815543  0.936599  1
  O  O16  1  0.570880  0.815543  0.563401  1
  O  O17  1  0.755337  0.570880  0.063401  1
  O  O18  1  0.815543  0.244663  0.063401  1
  O  O19  1  0.184457  0.755337  0.563401  1
  O  O20  1  0.127764  0.530999  0.250000  1
  O  O21  1  0.596764  0.127764  0.750000  1
  O  O22  1  0.530999  0.403236  0.750000  1
  O  O23  1  0.469001  0.596764  0.250000  1
  O  O24  1  0.403236  0.872236  0.250000  1
  O  O25  1  0.872236  0.469001  0.750000  1
  O  O26  1  0.429120  0.184457  0.063401  1
  O  O27  1  0.244663  0.429120  0.563401  1
