# generated using pymatgen
data_Tm12Co6Ir
_symmetry_space_group_name_H-M   'P 1'
_cell_length_a   11.07104200
_cell_length_b   8.18901612
_cell_length_c   10.92519196
_cell_angle_alpha   54.98856793
_cell_angle_beta   90.00000000
_cell_angle_gamma   90.00000000
_symmetry_Int_Tables_number   1
_chemical_formula_structural   Tm12Co6Ir
_chemical_formula_sum   'Tm24 Co12 Ir2'
_cell_volume   811.24705230
_cell_formula_units_Z   2
loop_
 _symmetry_equiv_pos_site_id
 _symmetry_equiv_pos_as_xyz
  1  'x, y, z'
loop_
 _atom_site_type_symbol
 _atom_site_label
 _atom_site_symmetry_multiplicity
 _atom_site_fract_x
 _atom_site_fract_y
 _atom_site_fract_z
 _atom_site_occupancy
  Tm  Tm0  1  0.705569  0.235861  0.538719  1
  Tm  Tm1  1  0.205569  0.764139  0.961281  1
  Tm  Tm2  1  0.840815  0.502518  0.658485  1
  Tm  Tm3  1  0.340815  0.497482  0.841515  1
  Tm  Tm4  1  0.159185  0.497482  0.341515  1
  Tm  Tm5  1  0.659185  0.502518  0.158485  1
  Tm  Tm6  1  0.003703  0.841270  0.356045  1
  Tm  Tm7  1  0.503703  0.158730  0.143955  1
  Tm  Tm8  1  0.996297  0.158730  0.643955  1
  Tm  Tm9  1  0.496297  0.841270  0.856045  1
  Tm  Tm10  1  0.794431  0.235861  0.038719  1
  Tm  Tm11  1  0.294431  0.764139  0.461281  1
  Tm  Tm12  1  0.928484  0.769557  0.088347  1
  Tm  Tm13  1  0.428484  0.230443  0.411653  1
  Tm  Tm14  1  0.071516  0.230443  0.911653  1
  Tm  Tm15  1  0.571516  0.769557  0.588347  1
  Tm  Tm16  1  0.300308  0.244887  0.677257  1
  Tm  Tm17  1  0.800308  0.755113  0.822743  1
  Tm  Tm18  1  0.699692  0.755113  0.322743  1
  Tm  Tm19  1  0.199692  0.244887  0.177257  1
  Tm  Tm20  1  0.930215  0.262357  0.310180  1
  Tm  Tm21  1  0.430215  0.737643  0.189820  1
  Tm  Tm22  1  0.069785  0.737643  0.689820  1
  Tm  Tm23  1  0.569785  0.262357  0.810180  1
  Co  Co24  1  0.676594  0.908839  0.027168  1
  Co  Co25  1  0.176594  0.091161  0.472832  1
  Co  Co26  1  0.323406  0.091161  0.972832  1
  Co  Co27  1  0.823406  0.908839  0.527168  1
  Co  Co28  1  0.400728  0.493245  0.100115  1
  Co  Co29  1  0.900728  0.506755  0.399885  1
  Co  Co30  1  0.599272  0.506755  0.899885  1
  Co  Co31  1  0.099272  0.493245  0.600115  1
  Co  Co32  1  0.813276  0.099497  0.840863  1
  Co  Co33  1  0.313276  0.900503  0.659137  1
  Co  Co34  1  0.186724  0.900503  0.159137  1
  Co  Co35  1  0.686724  0.099497  0.340863  1
  Ir  Ir36  1  0.500000  0.500000  0.500000  1
  Ir  Ir37  1  0.000000  0.500000  0.000000  1
