# generated using pymatgen
data_K2AlNiF7
_symmetry_space_group_name_H-M   'P 1'
_cell_length_a   7.52461981
_cell_length_b   7.52461981
_cell_length_c   7.52461946
_cell_angle_alpha   120.43202693
_cell_angle_beta   116.68171920
_cell_angle_gamma   92.54764943
_symmetry_Int_Tables_number   1
_chemical_formula_structural   K2AlNiF7
_chemical_formula_sum   'K4 Al2 Ni2 F14'
_cell_volume   307.11028947
_cell_formula_units_Z   2
loop_
 _symmetry_equiv_pos_site_id
 _symmetry_equiv_pos_as_xyz
  1  'x, y, z'
loop_
 _atom_site_type_symbol
 _atom_site_label
 _atom_site_symmetry_multiplicity
 _atom_site_fract_x
 _atom_site_fract_y
 _atom_site_fract_z
 _atom_site_occupancy
  K  K0  1  0.000000  0.000000  0.000000  1
  K  K1  1  0.500000  0.500000  0.000000  1
  K  K2  1  0.500000  0.000000  0.000000  1
  K  K3  1  0.500000  0.500000  0.500000  1
  Al  Al4  1  0.500000  0.000000  0.500000  1
  Al  Al5  1  0.000000  0.500000  0.500000  1
  Ni  Ni6  1  0.000000  0.000000  0.500000  1
  Ni  Ni7  1  0.000000  0.500000  0.000000  1
  F  F8  1  0.380971  0.081763  0.299208  1
  F  F9  1  0.717445  0.418237  0.299208  1
  F  F10  1  0.686233  0.289935  0.752263  1
  F  F11  1  0.962327  0.210065  0.396298  1
  F  F12  1  0.962327  0.566029  0.752263  1
  F  F13  1  0.686233  0.933971  0.396298  1
  F  F14  1  0.313767  0.066029  0.603702  1
  F  F15  1  0.037673  0.433971  0.247737  1
  F  F16  1  0.037673  0.789935  0.603702  1
  F  F17  1  0.313767  0.710065  0.247737  1
  F  F18  1  0.892581  0.750000  0.142581  1
  F  F19  1  0.619029  0.918237  0.700792  1
  F  F20  1  0.282555  0.581763  0.700792  1
  F  F21  1  0.107419  0.250000  0.857419  1
