# generated using pymatgen
data_Dy19TmSn15Pb
_symmetry_space_group_name_H-M   'P 1'
_cell_length_a   8.03747182
_cell_length_b   8.17434002
_cell_length_c   15.47222300
_cell_angle_alpha   90.01072411
_cell_angle_beta   90.02585537
_cell_angle_gamma   89.95189086
_symmetry_Int_Tables_number   1
_chemical_formula_structural   Dy19TmSn15Pb
_chemical_formula_sum   'Dy19 Tm1 Sn15 Pb1'
_cell_volume   1016.54047043
_cell_formula_units_Z   1
loop_
 _symmetry_equiv_pos_site_id
 _symmetry_equiv_pos_as_xyz
  1  'x, y, z'
loop_
 _atom_site_type_symbol
 _atom_site_label
 _atom_site_symmetry_multiplicity
 _atom_site_fract_x
 _atom_site_fract_y
 _atom_site_fract_z
 _atom_site_occupancy
  Dy  Dy0  1  0.368063  0.835976  0.876437  1
  Dy  Dy1  1  0.868061  0.662443  0.622240  1
  Dy  Dy2  1  0.632477  0.162688  0.377688  1
  Dy  Dy3  1  0.131245  0.339937  0.122296  1
  Dy  Dy4  1  0.634106  0.162824  0.122712  1
  Dy  Dy5  1  0.132421  0.337592  0.378365  1
  Dy  Dy6  1  0.367497  0.837162  0.622615  1
  Dy  Dy7  1  0.868441  0.662423  0.877600  1
  Dy  Dy8  1  0.521828  0.322386  0.901838  1
  Dy  Dy9  1  0.020827  0.179379  0.597616  1
  Dy  Dy10  1  0.479700  0.679093  0.403111  1
  Dy  Dy11  1  0.976776  0.818726  0.097936  1
  Dy  Dy12  1  0.480385  0.676876  0.097357  1
  Dy  Dy13  1  0.979407  0.820694  0.402725  1
  Dy  Dy14  1  0.520417  0.321059  0.597435  1
  Dy  Dy15  1  0.019188  0.180702  0.901337  1
  Dy  Dy16  1  0.698760  0.997307  0.749860  1
  Dy  Dy17  1  0.800886  0.496959  0.250147  1
  Dy  Dy18  1  0.301294  0.003012  0.251494  1
  Tm  Tm19  1  0.199062  0.503603  0.750090  1
  Sn  Sn20  1  0.792676  0.462497  0.458656  1
  Sn  Sn21  1  0.707189  0.962977  0.541690  1
  Sn  Sn22  1  0.207713  0.536429  0.957341  1
  Sn  Sn23  1  0.707528  0.963233  0.958117  1
  Sn  Sn24  1  0.207365  0.536507  0.542648  1
  Sn  Sn25  1  0.292818  0.036826  0.458836  1
  Sn  Sn26  1  0.792469  0.462524  0.041268  1
  Sn  Sn27  1  0.564342  0.617151  0.749673  1
  Sn  Sn28  1  0.065235  0.881194  0.749916  1
  Sn  Sn29  1  0.434223  0.381399  0.250009  1
  Sn  Sn30  1  0.935616  0.118670  0.249839  1
  Sn  Sn31  1  0.329932  0.150242  0.750058  1
  Sn  Sn32  1  0.830432  0.352638  0.749683  1
  Sn  Sn33  1  0.669547  0.851636  0.250126  1
  Sn  Sn34  1  0.170263  0.648082  0.250183  1
  Pb  Pb35  1  0.291812  0.037157  0.041055  1
