# generated using pymatgen
data_Er3Sc2(Hg2Pt)2
_symmetry_space_group_name_H-M   'P 1'
_cell_length_a   3.51989000
_cell_length_b   7.86974100
_cell_length_c   17.80364000
_cell_angle_alpha   90.00000000
_cell_angle_beta   90.00000000
_cell_angle_gamma   90.00000000
_symmetry_Int_Tables_number   1
_chemical_formula_structural   Er3Sc2(Hg2Pt)2
_chemical_formula_sum   'Er6 Sc4 Hg8 Pt4'
_cell_volume   493.17191341
_cell_formula_units_Z   2
loop_
 _symmetry_equiv_pos_site_id
 _symmetry_equiv_pos_as_xyz
  1  'x, y, z'
loop_
 _atom_site_type_symbol
 _atom_site_label
 _atom_site_symmetry_multiplicity
 _atom_site_fract_x
 _atom_site_fract_y
 _atom_site_fract_z
 _atom_site_occupancy
  Er  Er0  1  0.000000  0.239621  0.215433  1
  Er  Er1  1  0.000000  0.760379  0.784567  1
  Er  Er2  1  0.000000  0.260379  0.715433  1
  Er  Er3  1  0.000000  0.739621  0.284567  1
  Er  Er4  1  0.000000  0.000000  0.000000  1
  Er  Er5  1  0.000000  0.500000  0.500000  1
  Sc  Sc6  1  0.000000  0.114197  0.415647  1
  Sc  Sc7  1  0.000000  0.885803  0.584353  1
  Sc  Sc8  1  0.000000  0.385803  0.915647  1
  Sc  Sc9  1  0.000000  0.614197  0.084353  1
  Hg  Hg10  1  0.500000  0.417693  0.353831  1
  Hg  Hg11  1  0.500000  0.582307  0.646169  1
  Hg  Hg12  1  0.500000  0.082307  0.853831  1
  Hg  Hg13  1  0.500000  0.917693  0.146169  1
  Hg  Hg14  1  0.500000  0.298282  0.058987  1
  Hg  Hg15  1  0.500000  0.701718  0.941013  1
  Hg  Hg16  1  0.500000  0.201718  0.558987  1
  Hg  Hg17  1  0.500000  0.798282  0.441013  1
  Pt  Pt18  1  0.500000  0.031574  0.307160  1
  Pt  Pt19  1  0.500000  0.968426  0.692840  1
  Pt  Pt20  1  0.500000  0.468426  0.807160  1
  Pt  Pt21  1  0.500000  0.531574  0.192840  1
