# generated using pymatgen
data_Er4Tm2InCoSi
_symmetry_space_group_name_H-M   'P 1'
_cell_length_a   8.38623464
_cell_length_b   8.38623437
_cell_length_c   8.38623552
_cell_angle_alpha   113.43298427
_cell_angle_beta   110.95757359
_cell_angle_gamma   104.16098914
_symmetry_Int_Tables_number   1
_chemical_formula_structural   Er4Tm2InCoSi
_chemical_formula_sum   'Er8 Tm4 In2 Co2 Si2'
_cell_volume   450.90274066
_cell_formula_units_Z   2
loop_
 _symmetry_equiv_pos_site_id
 _symmetry_equiv_pos_as_xyz
  1  'x, y, z'
loop_
 _atom_site_type_symbol
 _atom_site_label
 _atom_site_symmetry_multiplicity
 _atom_site_fract_x
 _atom_site_fract_y
 _atom_site_fract_z
 _atom_site_occupancy
  Er  Er0  1  0.443935  0.241978  0.201958  1
  Er  Er1  1  0.556065  0.758022  0.798042  1
  Er  Er2  1  0.040019  0.241978  0.798042  1
  Er  Er3  1  0.959981  0.758022  0.201958  1
  Er  Er4  1  0.187044  0.288540  0.475584  1
  Er  Er5  1  0.812956  0.711460  0.524416  1
  Er  Er6  1  0.187044  0.711460  0.898504  1
  Er  Er7  1  0.812956  0.288540  0.101496  1
  Tm  Tm8  1  0.305949  0.616890  0.310941  1
  Tm  Tm9  1  0.694051  0.383110  0.689059  1
  Tm  Tm10  1  0.305949  0.995008  0.689059  1
  Tm  Tm11  1  0.694051  0.004992  0.310941  1
  In  In12  1  0.500000  0.500000  0.000000  1
  In  In13  1  0.000000  0.000000  0.000000  1
  Co  Co14  1  0.108643  0.608643  0.500000  1
  Co  Co15  1  0.891357  0.391357  0.500000  1
  Si  Si16  1  0.360599  0.000000  0.360599  1
  Si  Si17  1  0.639401  0.000000  0.639401  1
