# generated using pymatgen
data_Ca4Al18Pd5Rh
_symmetry_space_group_name_H-M   'P 1'
_cell_length_a   7.65363345
_cell_length_b   7.65370215
_cell_length_c   9.56323244
_cell_angle_alpha   89.98285275
_cell_angle_beta   89.98265420
_cell_angle_gamma   119.49832559
_symmetry_Int_Tables_number   1
_chemical_formula_structural   Ca4Al18Pd5Rh
_chemical_formula_sum   'Ca4 Al18 Pd5 Rh1'
_cell_volume   487.58216017
_cell_formula_units_Z   1
loop_
 _symmetry_equiv_pos_site_id
 _symmetry_equiv_pos_as_xyz
  1  'x, y, z'
loop_
 _atom_site_type_symbol
 _atom_site_label
 _atom_site_symmetry_multiplicity
 _atom_site_fract_x
 _atom_site_fract_y
 _atom_site_fract_z
 _atom_site_occupancy
  Ca  Ca0  1  0.996146  0.672185  0.750744  1
  Ca  Ca1  1  0.005000  0.328505  0.249545  1
  Ca  Ca2  1  0.671489  0.994998  0.750453  1
  Ca  Ca3  1  0.327813  0.003849  0.249261  1
  Al  Al4  1  0.132943  0.133473  0.750816  1
  Al  Al5  1  0.866527  0.867058  0.249185  1
  Al  Al6  1  0.000964  0.335303  0.575665  1
  Al  Al7  1  0.998501  0.664783  0.423855  1
  Al  Al8  1  0.996191  0.660936  0.073920  1
  Al  Al9  1  0.339065  0.003811  0.926081  1
  Al  Al10  1  0.995958  0.334772  0.926052  1
  Al  Al11  1  0.665228  0.004041  0.073946  1
  Al  Al12  1  0.664697  0.999035  0.424336  1
  Al  Al13  1  0.335218  0.001501  0.576144  1
  Al  Al14  1  0.335640  0.332662  0.048236  1
  Al  Al15  1  0.667339  0.664358  0.951766  1
  Al  Al16  1  0.666156  0.666044  0.550831  1
  Al  Al17  1  0.333956  0.333846  0.449169  1
  Al  Al18  1  0.339524  0.544491  0.750835  1
  Al  Al19  1  0.660165  0.452654  0.246709  1
  Al  Al20  1  0.547349  0.339836  0.753290  1
  Al  Al21  1  0.455508  0.660478  0.249164  1
  Pd  Pd22  1  0.671006  0.328984  0.499998  1
  Pd  Pd23  1  0.328527  0.671481  0.500001  1
  Pd  Pd24  1  0.328669  0.671352  0.000001  1
  Pd  Pd25  1  0.999882  0.000120  0.499995  1
  Pd  Pd26  1  0.999940  0.000056  0.000000  1
  Rh  Rh27  1  0.670601  0.329391  0.000002  1
