# generated using pymatgen
data_Zr3Mn8CoP6
_symmetry_space_group_name_H-M   'P 1'
_cell_length_a   3.60139800
_cell_length_b   10.56811500
_cell_length_c   12.34315200
_cell_angle_alpha   90.00000000
_cell_angle_beta   90.00000000
_cell_angle_gamma   90.00000000
_symmetry_Int_Tables_number   1
_chemical_formula_structural   Zr3Mn8CoP6
_chemical_formula_sum   'Zr6 Mn16 Co2 P12'
_cell_volume   469.78021978
_cell_formula_units_Z   2
loop_
 _symmetry_equiv_pos_site_id
 _symmetry_equiv_pos_as_xyz
  1  'x, y, z'
loop_
 _atom_site_type_symbol
 _atom_site_label
 _atom_site_symmetry_multiplicity
 _atom_site_fract_x
 _atom_site_fract_y
 _atom_site_fract_z
 _atom_site_occupancy
  Zr  Zr0  1  0.000000  0.500000  0.532365  1
  Zr  Zr1  1  0.500000  0.000000  0.467635  1
  Zr  Zr2  1  0.500000  0.823011  0.208187  1
  Zr  Zr3  1  0.500000  0.176989  0.208187  1
  Zr  Zr4  1  0.000000  0.676989  0.791813  1
  Zr  Zr5  1  0.000000  0.323011  0.791813  1
  Mn  Mn6  1  0.500000  0.500000  0.167615  1
  Mn  Mn7  1  0.000000  0.000000  0.832385  1
  Mn  Mn8  1  0.000000  0.500000  0.990493  1
  Mn  Mn9  1  0.500000  0.000000  0.009507  1
  Mn  Mn10  1  0.500000  0.332618  0.997079  1
  Mn  Mn11  1  0.500000  0.667382  0.997079  1
  Mn  Mn12  1  0.000000  0.167382  0.002921  1
  Mn  Mn13  1  0.000000  0.832618  0.002921  1
  Mn  Mn14  1  0.500000  0.296797  0.433493  1
  Mn  Mn15  1  0.500000  0.703203  0.433493  1
  Mn  Mn16  1  0.000000  0.203203  0.566507  1
  Mn  Mn17  1  0.000000  0.796797  0.566507  1
  Mn  Mn18  1  0.500000  0.880130  0.699839  1
  Mn  Mn19  1  0.500000  0.119870  0.699839  1
  Mn  Mn20  1  0.000000  0.619870  0.300161  1
  Mn  Mn21  1  0.000000  0.380130  0.300161  1
  Co  Co22  1  0.500000  0.500000  0.704756  1
  Co  Co23  1  0.000000  0.000000  0.295244  1
  P  P24  1  0.500000  0.500000  0.876622  1
  P  P25  1  0.000000  0.000000  0.123378  1
  P  P26  1  0.500000  0.500000  0.363542  1
  P  P27  1  0.000000  0.000000  0.636458  1
  P  P28  1  0.500000  0.322167  0.620135  1
  P  P29  1  0.500000  0.677833  0.620135  1
  P  P30  1  0.000000  0.177833  0.379865  1
  P  P31  1  0.000000  0.822167  0.379865  1
  P  P32  1  0.500000  0.842627  0.881477  1
  P  P33  1  0.500000  0.157373  0.881477  1
  P  P34  1  0.000000  0.657373  0.118523  1
  P  P35  1  0.000000  0.342627  0.118523  1
