# generated using pymatgen
data_Ba5Fe2F16
_symmetry_space_group_name_H-M   'P 1'
_cell_length_a   7.91233800
_cell_length_b   7.91233811
_cell_length_c   15.37718200
_cell_angle_alpha   90.00000000
_cell_angle_beta   90.00000000
_cell_angle_gamma   117.93740338
_symmetry_Int_Tables_number   1
_chemical_formula_structural   Ba5Fe2F16
_chemical_formula_sum   'Ba10 Fe4 F32'
_cell_volume   850.49800634
_cell_formula_units_Z   2
loop_
 _symmetry_equiv_pos_site_id
 _symmetry_equiv_pos_as_xyz
  1  'x, y, z'
loop_
 _atom_site_type_symbol
 _atom_site_label
 _atom_site_symmetry_multiplicity
 _atom_site_fract_x
 _atom_site_fract_y
 _atom_site_fract_z
 _atom_site_occupancy
  Ba  Ba0  1  0.000000  0.000000  0.717404  1
  Ba  Ba1  1  0.000000  0.000000  0.282596  1
  Ba  Ba2  1  0.500000  0.500000  0.782596  1
  Ba  Ba3  1  0.500000  0.500000  0.217404  1
  Ba  Ba4  1  0.500000  0.500000  0.500000  1
  Ba  Ba5  1  0.000000  0.000000  0.000000  1
  Ba  Ba6  1  0.000000  0.500000  0.626784  1
  Ba  Ba7  1  0.500000  0.000000  0.373216  1
  Ba  Ba8  1  0.500000  0.000000  0.873216  1
  Ba  Ba9  1  0.000000  0.500000  0.126784  1
  Fe  Fe10  1  0.500000  0.000000  0.622115  1
  Fe  Fe11  1  0.000000  0.500000  0.377885  1
  Fe  Fe12  1  0.000000  0.500000  0.877885  1
  Fe  Fe13  1  0.500000  0.000000  0.122115  1
  F  F14  1  0.517688  0.181063  0.713428  1
  F  F15  1  0.482312  0.818937  0.713428  1
  F  F16  1  0.181063  0.517688  0.286572  1
  F  F17  1  0.818937  0.482312  0.286572  1
  F  F18  1  0.982312  0.318937  0.786572  1
  F  F19  1  0.017688  0.681063  0.786572  1
  F  F20  1  0.318937  0.982312  0.213428  1
  F  F21  1  0.681063  0.017688  0.213428  1
  F  F22  1  0.217167  0.882554  0.622998  1
  F  F23  1  0.782833  0.117446  0.622998  1
  F  F24  1  0.882554  0.217167  0.377002  1
  F  F25  1  0.117446  0.782833  0.377002  1
  F  F26  1  0.282833  0.617446  0.877002  1
  F  F27  1  0.717167  0.382554  0.877002  1
  F  F28  1  0.668837  0.001317  0.029302  1
  F  F29  1  0.331163  0.998683  0.029302  1
  F  F30  1  0.001317  0.668837  0.970698  1
  F  F31  1  0.998683  0.331163  0.970698  1
  F  F32  1  0.831163  0.498683  0.470698  1
  F  F33  1  0.168837  0.501317  0.470698  1
  F  F34  1  0.498683  0.831163  0.529302  1
  F  F35  1  0.501317  0.168837  0.529302  1
  F  F36  1  0.863890  0.757482  0.146697  1
  F  F37  1  0.136110  0.242518  0.146697  1
  F  F38  1  0.757482  0.863890  0.853303  1
  F  F39  1  0.242518  0.136110  0.853303  1
  F  F40  1  0.636110  0.742518  0.353303  1
  F  F41  1  0.363890  0.257482  0.353303  1
  F  F42  1  0.742518  0.636110  0.646697  1
  F  F43  1  0.257482  0.363890  0.646697  1
  F  F44  1  0.382554  0.717167  0.122998  1
  F  F45  1  0.617446  0.282833  0.122998  1
