# generated using pymatgen
data_CaHo3(Si4Tc3)2
_symmetry_space_group_name_H-M   'P 1'
_cell_length_a   6.79528636
_cell_length_b   6.70048708
_cell_length_c   6.78217732
_cell_angle_alpha   70.23869586
_cell_angle_beta   90.01263567
_cell_angle_gamma   89.82524817
_symmetry_Int_Tables_number   1
_chemical_formula_structural   CaHo3(Si4Tc3)2
_chemical_formula_sum   'Ca1 Ho3 Si8 Tc6'
_cell_volume   290.61695718
_cell_formula_units_Z   1
loop_
 _symmetry_equiv_pos_site_id
 _symmetry_equiv_pos_as_xyz
  1  'x, y, z'
loop_
 _atom_site_type_symbol
 _atom_site_label
 _atom_site_symmetry_multiplicity
 _atom_site_fract_x
 _atom_site_fract_y
 _atom_site_fract_z
 _atom_site_occupancy
  Ca  Ca0  1  0.667267  0.443410  0.186447  1
  Ho  Ho1  1  0.167941  0.058687  0.807422  1
  Ho  Ho2  1  0.332514  0.557852  0.808876  1
  Ho  Ho3  1  0.831354  0.941145  0.193088  1
  Si  Si4  1  0.450659  0.120612  0.103630  1
  Si  Si5  1  0.950082  0.378971  0.897133  1
  Si  Si6  1  0.549509  0.878664  0.898114  1
  Si  Si7  1  0.048406  0.620083  0.104167  1
  Si  Si8  1  0.857478  0.134564  0.509663  1
  Si  Si9  1  0.360390  0.368824  0.486108  1
  Si  Si10  1  0.140978  0.867611  0.488665  1
  Si  Si11  1  0.641605  0.629768  0.511405  1
  Tc  Tc12  1  0.499140  0.997260  0.502347  1
  Tc  Tc13  1  0.003483  0.499727  0.503703  1
  Tc  Tc14  1  0.153153  0.242020  0.238311  1
  Tc  Tc15  1  0.653538  0.255302  0.762427  1
  Tc  Tc16  1  0.848731  0.760159  0.760689  1
  Tc  Tc17  1  0.343774  0.745341  0.237804  1
