# generated using pymatgen
data_Y2ThIn2GaNi3
_symmetry_space_group_name_H-M   'P 1'
_cell_length_a   7.29961613
_cell_length_b   7.40455386
_cell_length_c   3.83940900
_cell_angle_alpha   90.00000000
_cell_angle_beta   90.00000000
_cell_angle_gamma   120.47670125
_symmetry_Int_Tables_number   1
_chemical_formula_structural   Y2ThIn2GaNi3
_chemical_formula_sum   'Y2 Th1 In2 Ga1 Ni3'
_cell_volume   178.84947271
_cell_formula_units_Z   1
loop_
 _symmetry_equiv_pos_site_id
 _symmetry_equiv_pos_as_xyz
  1  'x, y, z'
loop_
 _atom_site_type_symbol
 _atom_site_label
 _atom_site_symmetry_multiplicity
 _atom_site_fract_x
 _atom_site_fract_y
 _atom_site_fract_z
 _atom_site_occupancy
  Y  Y0  1  0.597223  0.006464  0.500000  1
  Y  Y1  1  0.402777  0.409242  0.500000  1
  Th  Th2  1  0.000000  0.567637  0.500000  1
  In  In3  1  0.255448  0.007158  0.000000  1
  In  In4  1  0.744552  0.751710  0.000000  1
  Ga  Ga5  1  0.000000  0.237222  0.000000  1
  Ni  Ni6  1  0.000000  0.017349  0.500000  1
  Ni  Ni7  1  0.685862  0.344540  0.000000  1
  Ni  Ni8  1  0.314138  0.658679  0.000000  1
