# generated using pymatgen
data_Dy10RuRhPb6
_symmetry_space_group_name_H-M   'P 1'
_cell_length_a   9.32534800
_cell_length_b   9.32534827
_cell_length_c   6.59415600
_cell_angle_alpha   90.00000000
_cell_angle_beta   90.00000000
_cell_angle_gamma   120.00000614
_symmetry_Int_Tables_number   1
_chemical_formula_structural   Dy10RuRhPb6
_chemical_formula_sum   'Dy10 Ru1 Rh1 Pb6'
_cell_volume   496.61511058
_cell_formula_units_Z   1
loop_
 _symmetry_equiv_pos_site_id
 _symmetry_equiv_pos_as_xyz
  1  'x, y, z'
loop_
 _atom_site_type_symbol
 _atom_site_label
 _atom_site_symmetry_multiplicity
 _atom_site_fract_x
 _atom_site_fract_y
 _atom_site_fract_z
 _atom_site_occupancy
  Dy  Dy0  1  0.240040  0.000000  0.252917  1
  Dy  Dy1  1  0.000000  0.759960  0.747083  1
  Dy  Dy2  1  0.000000  0.240040  0.252917  1
  Dy  Dy3  1  0.333333  0.666667  0.500000  1
  Dy  Dy4  1  0.759960  0.000000  0.747083  1
  Dy  Dy5  1  0.666667  0.333333  0.500000  1
  Dy  Dy6  1  0.240040  0.240040  0.747083  1
  Dy  Dy7  1  0.333333  0.666667  0.000000  1
  Dy  Dy8  1  0.666667  0.333333  0.000000  1
  Dy  Dy9  1  0.759960  0.759960  0.252917  1
  Ru  Ru10  1  0.000000  0.000000  0.500000  1
  Rh  Rh11  1  0.000000  0.000000  0.000000  1
  Pb  Pb12  1  0.597660  0.000000  0.249525  1
  Pb  Pb13  1  0.402340  0.000000  0.750475  1
  Pb  Pb14  1  0.000000  0.597660  0.249525  1
  Pb  Pb15  1  0.597660  0.597660  0.750475  1
  Pb  Pb16  1  0.402340  0.402340  0.249525  1
  Pb  Pb17  1  0.000000  0.402340  0.750475  1
