# generated using pymatgen
data_Nd3Ni9As5P
_symmetry_space_group_name_H-M   'P 1'
_cell_length_a   3.95911900
_cell_length_b   10.88753000
_cell_length_c   12.77692800
_cell_angle_alpha   90.00000000
_cell_angle_beta   90.00000000
_cell_angle_gamma   90.00000000
_symmetry_Int_Tables_number   1
_chemical_formula_structural   Nd3Ni9As5P
_chemical_formula_sum   'Nd6 Ni18 As10 P2'
_cell_volume   550.74982496
_cell_formula_units_Z   2
loop_
 _symmetry_equiv_pos_site_id
 _symmetry_equiv_pos_as_xyz
  1  'x, y, z'
loop_
 _atom_site_type_symbol
 _atom_site_label
 _atom_site_symmetry_multiplicity
 _atom_site_fract_x
 _atom_site_fract_y
 _atom_site_fract_z
 _atom_site_occupancy
  Nd  Nd0  1  0.000000  0.500000  0.521121  1
  Nd  Nd1  1  0.500000  0.000000  0.478879  1
  Nd  Nd2  1  0.500000  0.815678  0.203799  1
  Nd  Nd3  1  0.500000  0.184322  0.203799  1
  Nd  Nd4  1  0.000000  0.684322  0.796201  1
  Nd  Nd5  1  0.000000  0.315678  0.796201  1
  Ni  Ni6  1  0.500000  0.500000  0.151211  1
  Ni  Ni7  1  0.000000  0.000000  0.848789  1
  Ni  Ni8  1  0.500000  0.500000  0.706437  1
  Ni  Ni9  1  0.000000  0.000000  0.293563  1
  Ni  Ni10  1  0.000000  0.500000  0.972620  1
  Ni  Ni11  1  0.500000  0.000000  0.027380  1
  Ni  Ni12  1  0.500000  0.339999  0.992380  1
  Ni  Ni13  1  0.500000  0.660001  0.992380  1
  Ni  Ni14  1  0.000000  0.160001  0.007620  1
  Ni  Ni15  1  0.000000  0.839999  0.007620  1
  Ni  Ni16  1  0.500000  0.303324  0.423697  1
  Ni  Ni17  1  0.500000  0.696676  0.423697  1
  Ni  Ni18  1  0.000000  0.196676  0.576303  1
  Ni  Ni19  1  0.000000  0.803324  0.576303  1
  Ni  Ni20  1  0.500000  0.881429  0.710306  1
  Ni  Ni21  1  0.500000  0.118571  0.710306  1
  Ni  Ni22  1  0.000000  0.618571  0.289694  1
  Ni  Ni23  1  0.000000  0.381429  0.289694  1
  As  As24  1  0.500000  0.500000  0.338321  1
  As  As25  1  0.000000  0.000000  0.661679  1
  As  As26  1  0.500000  0.312431  0.612926  1
  As  As27  1  0.500000  0.687569  0.612926  1
  As  As28  1  0.000000  0.187569  0.387074  1
  As  As29  1  0.000000  0.812431  0.387074  1
  As  As30  1  0.500000  0.850720  0.896295  1
  As  As31  1  0.500000  0.149280  0.896295  1
  As  As32  1  0.000000  0.649280  0.103705  1
  As  As33  1  0.000000  0.350720  0.103705  1
  P  P34  1  0.500000  0.500000  0.878289  1
  P  P35  1  0.000000  0.000000  0.121711  1
