# generated using pymatgen
data_LiPr3SnS7
_symmetry_space_group_name_H-M   'P 1'
_cell_length_a   10.24358800
_cell_length_b   10.24521953
_cell_length_c   6.08834200
_cell_angle_alpha   90.00000000
_cell_angle_beta   90.00000000
_cell_angle_gamma   119.99850561
_symmetry_Int_Tables_number   1
_chemical_formula_structural   LiPr3SnS7
_chemical_formula_sum   'Li2 Pr6 Sn2 S14'
_cell_volume   553.36231944
_cell_formula_units_Z   2
loop_
 _symmetry_equiv_pos_site_id
 _symmetry_equiv_pos_as_xyz
  1  'x, y, z'
loop_
 _atom_site_type_symbol
 _atom_site_label
 _atom_site_symmetry_multiplicity
 _atom_site_fract_x
 _atom_site_fract_y
 _atom_site_fract_z
 _atom_site_occupancy
  Li  Li0  1  0.000000  0.999999  0.495658  1
  Li  Li1  1  0.000000  0.000001  0.995657  1
  Pr  Pr2  1  0.642474  0.779136  0.221715  1
  Pr  Pr3  1  0.220888  0.863354  0.221735  1
  Pr  Pr4  1  0.136670  0.357504  0.221732  1
  Pr  Pr5  1  0.357527  0.220865  0.721714  1
  Pr  Pr6  1  0.779112  0.136645  0.721734  1
  Pr  Pr7  1  0.863329  0.642495  0.721733  1
  Sn  Sn8  1  0.666618  0.333286  0.149869  1
  Sn  Sn9  1  0.333382  0.666714  0.649870  1
  S  S10  1  0.514461  0.089104  0.979241  1
  S  S11  1  0.910951  0.425387  0.979236  1
  S  S12  1  0.574681  0.485615  0.979212  1
  S  S13  1  0.333340  0.666661  0.039762  1
  S  S14  1  0.850865  0.096507  0.268619  1
  S  S15  1  0.245629  0.149206  0.268611  1
  S  S16  1  0.903527  0.754344  0.268614  1
  S  S17  1  0.485538  0.910895  0.479240  1
  S  S18  1  0.425320  0.514385  0.479212  1
  S  S19  1  0.089048  0.574613  0.479236  1
  S  S20  1  0.666659  0.333339  0.539763  1
  S  S21  1  0.096472  0.245656  0.768613  1
  S  S22  1  0.754371  0.850794  0.768610  1
  S  S23  1  0.149135  0.903493  0.768618  1
