# generated using pymatgen
data_Ta19Ti5P8
_symmetry_space_group_name_H-M   'P 1'
_cell_length_a   10.15064885
_cell_length_b   10.17344080
_cell_length_c   5.03433282
_cell_angle_alpha   90.02876124
_cell_angle_beta   90.05928986
_cell_angle_gamma   89.96484387
_symmetry_Int_Tables_number   1
_chemical_formula_structural   Ta19Ti5P8
_chemical_formula_sum   'Ta19 Ti5 P8'
_cell_volume   519.88013291
_cell_formula_units_Z   1
loop_
 _symmetry_equiv_pos_site_id
 _symmetry_equiv_pos_as_xyz
  1  'x, y, z'
loop_
 _atom_site_type_symbol
 _atom_site_label
 _atom_site_symmetry_multiplicity
 _atom_site_fract_x
 _atom_site_fract_y
 _atom_site_fract_z
 _atom_site_occupancy
  Ta  Ta0  1  0.906414  0.593782  0.500029  1
  Ta  Ta1  1  0.905088  0.408345  0.997800  1
  Ta  Ta2  1  0.594585  0.092477  0.502542  1
  Ta  Ta3  1  0.798075  0.302583  0.498551  1
  Ta  Ta4  1  0.094316  0.407893  0.502204  1
  Ta  Ta5  1  0.093016  0.594018  0.999446  1
  Ta  Ta6  1  0.200673  0.302303  0.999114  1
  Ta  Ta7  1  0.301709  0.797762  0.000938  1
  Ta  Ta8  1  0.299737  0.199364  0.498661  1
  Ta  Ta9  1  0.701539  0.197536  0.999992  1
  Ta  Ta10  1  0.593353  0.905555  0.999025  1
  Ta  Ta11  1  0.699764  0.799505  0.500536  1
  Ta  Ta12  1  0.000461  0.145669  0.250114  1
  Ta  Ta13  1  0.198466  0.700431  0.501966  1
  Ta  Ta14  1  0.406649  0.093433  0.999412  1
  Ta  Ta15  1  0.500415  0.354440  0.248973  1
  Ta  Ta16  1  0.408119  0.904470  0.498630  1
  Ta  Ta17  1  0.799990  0.700259  0.000529  1
  Ta  Ta18  1  0.145057  0.000018  0.751195  1
  Ti  Ti19  1  0.500216  0.646392  0.250913  1
  Ti  Ti20  1  0.854299  0.000467  0.749264  1
  Ti  Ti21  1  0.644405  0.499483  0.750670  1
  Ti  Ti22  1  0.000850  0.853834  0.250465  1
  Ti  Ti23  1  0.355380  0.499745  0.749263  1
  P  P24  1  0.997403  0.795538  0.749577  1
  P  P25  1  0.500426  0.295671  0.749802  1
  P  P26  1  0.206235  0.996905  0.250547  1
  P  P27  1  0.795477  0.996887  0.249493  1
  P  P28  1  0.997451  0.206359  0.750390  1
  P  P29  1  0.703772  0.503175  0.250681  1
  P  P30  1  0.296053  0.503151  0.249171  1
  P  P31  1  0.500606  0.702551  0.750107  1
