# generated using pymatgen
data_HfMg3(B6Os)2
_symmetry_space_group_name_H-M   'P 1'
_cell_length_a   8.86360069
_cell_length_b   11.10634965
_cell_length_c   3.48869800
_cell_angle_alpha   90.00000000
_cell_angle_beta   90.00000000
_cell_angle_gamma   90.10467390
_symmetry_Int_Tables_number   1
_chemical_formula_structural   HfMg3(B6Os)2
_chemical_formula_sum   'Hf2 Mg6 B24 Os4'
_cell_volume   343.43470186
_cell_formula_units_Z   2
loop_
 _symmetry_equiv_pos_site_id
 _symmetry_equiv_pos_as_xyz
  1  'x, y, z'
loop_
 _atom_site_type_symbol
 _atom_site_label
 _atom_site_symmetry_multiplicity
 _atom_site_fract_x
 _atom_site_fract_y
 _atom_site_fract_z
 _atom_site_occupancy
  Hf  Hf0  1  0.055979  0.872156  0.000000  1
  Hf  Hf1  1  0.677594  0.918572  0.000000  1
  Mg  Mg2  1  0.319084  0.091842  0.000000  1
  Mg  Mg3  1  0.946692  0.130345  0.000000  1
  Mg  Mg4  1  0.443569  0.371569  0.000000  1
  Mg  Mg5  1  0.827897  0.409542  0.000000  1
  Mg  Mg6  1  0.174664  0.581697  0.000000  1
  Mg  Mg7  1  0.554375  0.623098  0.000000  1
  B  B8  1  0.098313  0.028730  0.499999  1
  B  B9  1  0.554812  0.064658  0.499999  1
  B  B10  1  0.754025  0.080293  0.499999  1
  B  B11  1  0.130147  0.183920  0.499999  1
  B  B12  1  0.478039  0.211553  0.499999  1
  B  B13  1  0.795765  0.237316  0.499999  1
  B  B14  1  0.294987  0.261929  0.499999  1
  B  B15  1  0.979669  0.287962  0.499999  1
  B  B16  1  0.629591  0.317357  0.499999  1
  B  B17  1  0.257067  0.420495  0.499999  1
  B  B18  1  0.053542  0.435983  0.499999  1
  B  B19  1  0.593719  0.473038  0.499999  1
  B  B20  1  0.408850  0.524114  0.499999  1
  B  B21  1  0.944574  0.564588  0.499999  1
  B  B22  1  0.744315  0.577654  0.499999  1
  B  B23  1  0.372103  0.678882  0.499999  1
  B  B24  1  0.019143  0.711396  0.499999  1
  B  B25  1  0.702981  0.737479  0.499999  1
  B  B26  1  0.207268  0.762523  0.499999  1
  B  B27  1  0.520488  0.787951  0.499999  1
  B  B28  1  0.867488  0.818688  0.499999  1
  B  B29  1  0.248203  0.922093  0.499999  1
  B  B30  1  0.446754  0.935640  0.499999  1
  B  B31  1  0.900020  0.974165  0.499999  1
  Os  Os32  1  0.639343  0.178171  0.000000  1
  Os  Os33  1  0.139509  0.325236  0.000000  1
  Os  Os34  1  0.855908  0.680996  0.000000  1
  Os  Os35  1  0.363512  0.818360  0.000000  1
