# generated using pymatgen
data_Nb3Si2Tc2BW
_symmetry_space_group_name_H-M   'P 1'
_cell_length_a   6.79049700
_cell_length_b   6.76949014
_cell_length_c   3.25424800
_cell_angle_alpha   90.00000000
_cell_angle_beta   90.00000000
_cell_angle_gamma   120.10270028
_symmetry_Int_Tables_number   1
_chemical_formula_structural   Nb3Si2Tc2BW
_chemical_formula_sum   'Nb3 Si2 Tc2 B1 W1'
_cell_volume   129.41613570
_cell_formula_units_Z   1
loop_
 _symmetry_equiv_pos_site_id
 _symmetry_equiv_pos_as_xyz
  1  'x, y, z'
loop_
 _atom_site_type_symbol
 _atom_site_label
 _atom_site_symmetry_multiplicity
 _atom_site_fract_x
 _atom_site_fract_y
 _atom_site_fract_z
 _atom_site_occupancy
  Nb  Nb0  1  0.394265  0.000000  0.500000  1
  Nb  Nb1  1  0.995490  0.390056  0.500000  1
  Nb  Nb2  1  0.605433  0.609944  0.500000  1
  Si  Si3  1  0.329526  0.663459  0.000000  1
  Si  Si4  1  0.666068  0.336541  0.000000  1
  Tc  Tc5  1  0.001539  0.758412  0.000000  1
  Tc  Tc6  1  0.243127  0.241588  0.000000  1
  B  B7  1  0.004346  0.000000  0.500000  1
  W  W8  1  0.760207  0.000000  0.000000  1
