# generated using pymatgen
data_Sc9Tc3Mo
_symmetry_space_group_name_H-M   'P 1'
_cell_length_a   8.65616300
_cell_length_b   8.65616307
_cell_length_c   8.31158800
_cell_angle_alpha   90.00000000
_cell_angle_beta   90.00000000
_cell_angle_gamma   119.99998828
_symmetry_Int_Tables_number   1
_chemical_formula_structural   Sc9Tc3Mo
_chemical_formula_sum   'Sc18 Tc6 Mo2'
_cell_volume   539.34361951
_cell_formula_units_Z   2
loop_
 _symmetry_equiv_pos_site_id
 _symmetry_equiv_pos_as_xyz
  1  'x, y, z'
loop_
 _atom_site_type_symbol
 _atom_site_label
 _atom_site_symmetry_multiplicity
 _atom_site_fract_x
 _atom_site_fract_y
 _atom_site_fract_z
 _atom_site_occupancy
  Sc  Sc0  1  0.401266  0.200633  0.054988  1
  Sc  Sc1  1  0.799367  0.200633  0.054988  1
  Sc  Sc2  1  0.799366  0.598733  0.054988  1
  Sc  Sc3  1  0.095670  0.547835  0.250000  1
  Sc  Sc4  1  0.452165  0.547835  0.250000  1
  Sc  Sc5  1  0.452165  0.904331  0.250000  1
  Sc  Sc6  1  0.401266  0.200633  0.445012  1
  Sc  Sc7  1  0.799367  0.200633  0.445012  1
  Sc  Sc8  1  0.799366  0.598733  0.445012  1
  Sc  Sc9  1  0.200633  0.401267  0.554989  1
  Sc  Sc10  1  0.200632  0.799367  0.554989  1
  Sc  Sc11  1  0.598734  0.799367  0.554989  1
  Sc  Sc12  1  0.547834  0.095669  0.750001  1
  Sc  Sc13  1  0.547835  0.452165  0.750001  1
  Sc  Sc14  1  0.904331  0.452165  0.750001  1
  Sc  Sc15  1  0.200633  0.401267  0.945011  1
  Sc  Sc16  1  0.200632  0.799367  0.945011  1
  Sc  Sc17  1  0.598734  0.799367  0.945011  1
  Tc  Tc18  1  0.109979  0.219957  0.250000  1
  Tc  Tc19  1  0.109978  0.890021  0.250000  1
  Tc  Tc20  1  0.780044  0.890021  0.250000  1
  Tc  Tc21  1  0.219957  0.109979  0.750001  1
  Tc  Tc22  1  0.890021  0.109979  0.750001  1
  Tc  Tc23  1  0.890020  0.780043  0.750001  1
  Mo  Mo24  1  0.000000  0.000000  0.000000  1
  Mo  Mo25  1  0.000000  0.000000  0.500000  1
