# generated using pymatgen
data_TbNdDy2(Mo2O7)2
_symmetry_space_group_name_H-M   'P 1'
_cell_length_a   7.46495690
_cell_length_b   7.37625728
_cell_length_c   7.37625773
_cell_angle_alpha   59.65382682
_cell_angle_beta   60.27396783
_cell_angle_gamma   60.27395739
_symmetry_Int_Tables_number   1
_chemical_formula_structural   TbNdDy2(Mo2O7)2
_chemical_formula_sum   'Tb1 Nd1 Dy2 Mo4 O14'
_cell_volume   287.61540083
_cell_formula_units_Z   1
loop_
 _symmetry_equiv_pos_site_id
 _symmetry_equiv_pos_as_xyz
  1  'x, y, z'
loop_
 _atom_site_type_symbol
 _atom_site_label
 _atom_site_symmetry_multiplicity
 _atom_site_fract_x
 _atom_site_fract_y
 _atom_site_fract_z
 _atom_site_occupancy
  Tb  Tb0  1  0.125000  0.125000  0.125000  1
  Nd  Nd1  1  0.625000  0.125000  0.125000  1
  Dy  Dy2  1  0.125000  0.625000  0.125000  1
  Dy  Dy3  1  0.125000  0.125000  0.625000  1
  Mo  Mo4  1  0.125000  0.625000  0.625000  1
  Mo  Mo5  1  0.625000  0.125000  0.625000  1
  Mo  Mo6  1  0.625000  0.625000  0.125000  1
  Mo  Mo7  1  0.625000  0.625000  0.625000  1
  O  O8  1  0.715220  0.707117  0.287461  1
  O  O9  1  0.286301  0.288401  0.708532  1
  O  O10  1  0.715220  0.287461  0.707117  1
  O  O11  1  0.286301  0.708532  0.288401  1
  O  O12  1  0.285521  0.717640  0.717640  1
  O  O13  1  0.724282  0.286999  0.286999  1
  O  O14  1  0.534780  0.542883  0.962539  1
  O  O15  1  0.963699  0.961599  0.541468  1
  O  O16  1  0.534780  0.962539  0.542883  1
  O  O17  1  0.963699  0.541468  0.961599  1
  O  O18  1  0.964479  0.532360  0.532360  1
  O  O19  1  0.525718  0.963001  0.963001  1
  O  O20  1  0.244417  0.251667  0.251667  1
  O  O21  1  0.005583  0.998333  0.998333  1
