# generated using pymatgen
data_ErTm3(ZnIr)4
_symmetry_space_group_name_H-M   'P 1'
_cell_length_a   4.00372000
_cell_length_b   6.96101580
_cell_length_c   8.08412454
_cell_angle_alpha   89.95435272
_cell_angle_beta   90.00000000
_cell_angle_gamma   90.00000000
_symmetry_Int_Tables_number   1
_chemical_formula_structural   ErTm3(ZnIr)4
_chemical_formula_sum   'Er1 Tm3 Zn4 Ir4'
_cell_volume   225.30414134
_cell_formula_units_Z   1
loop_
 _symmetry_equiv_pos_site_id
 _symmetry_equiv_pos_as_xyz
  1  'x, y, z'
loop_
 _atom_site_type_symbol
 _atom_site_label
 _atom_site_symmetry_multiplicity
 _atom_site_fract_x
 _atom_site_fract_y
 _atom_site_fract_z
 _atom_site_occupancy
  Er  Er0  1  0.750000  0.463127  0.818456  1
  Tm  Tm1  1  0.250000  0.036941  0.318836  1
  Tm  Tm2  1  0.250000  0.537149  0.181592  1
  Tm  Tm3  1  0.750000  0.962686  0.680994  1
  Zn  Zn4  1  0.250000  0.637708  0.565796  1
  Zn  Zn5  1  0.250000  0.137454  0.934137  1
  Zn  Zn6  1  0.750000  0.362400  0.433804  1
  Zn  Zn7  1  0.750000  0.862822  0.066315  1
  Ir  Ir8  1  0.250000  0.255985  0.623207  1
  Ir  Ir9  1  0.250000  0.757852  0.876359  1
  Ir  Ir10  1  0.750000  0.742934  0.376169  1
  Ir  Ir11  1  0.750000  0.242945  0.124334  1
