# generated using pymatgen
data_Nd5DyAl24ZnOs7
_symmetry_space_group_name_H-M   'P 1'
_cell_length_a   8.93930709
_cell_length_b   8.93930682
_cell_length_c   9.64396127
_cell_angle_alpha   90.10655787
_cell_angle_beta   89.89344359
_cell_angle_gamma   120.06414612
_symmetry_Int_Tables_number   1
_chemical_formula_structural   Nd5DyAl24ZnOs7
_chemical_formula_sum   'Nd5 Dy1 Al24 Zn1 Os7'
_cell_volume   666.97830342
_cell_formula_units_Z   1
loop_
 _symmetry_equiv_pos_site_id
 _symmetry_equiv_pos_as_xyz
  1  'x, y, z'
loop_
 _atom_site_type_symbol
 _atom_site_label
 _atom_site_symmetry_multiplicity
 _atom_site_fract_x
 _atom_site_fract_y
 _atom_site_fract_z
 _atom_site_occupancy
  Nd  Nd0  1  0.191379  0.382031  0.246067  1
  Nd  Nd1  1  0.808669  0.617746  0.753481  1
  Nd  Nd2  1  0.617969  0.808621  0.246067  1
  Nd  Nd3  1  0.382254  0.191331  0.753481  1
  Nd  Nd4  1  0.192527  0.807473  0.255052  1
  Dy  Dy5  1  0.805205  0.194795  0.744749  1
  Al  Al6  1  0.328962  0.671038  0.013393  1
  Al  Al7  1  0.671827  0.328173  0.983295  1
  Al  Al8  1  0.666552  0.333448  0.514463  1
  Al  Al9  1  0.334323  0.665677  0.488070  1
  Al  Al10  1  0.160836  0.325490  0.572692  1
  Al  Al11  1  0.837037  0.673028  0.428989  1
  Al  Al12  1  0.674510  0.839164  0.572692  1
  Al  Al13  1  0.849725  0.676457  0.079592  1
  Al  Al14  1  0.326972  0.162963  0.428989  1
  Al  Al15  1  0.147661  0.321430  0.918568  1
  Al  Al16  1  0.163023  0.836977  0.575886  1
  Al  Al17  1  0.323543  0.150275  0.079592  1
  Al  Al18  1  0.837265  0.162735  0.427307  1
  Al  Al19  1  0.678570  0.852339  0.918568  1
  Al  Al20  1  0.836664  0.163336  0.071682  1
  Al  Al21  1  0.163437  0.836563  0.925465  1
  Al  Al22  1  0.563427  0.122845  0.249148  1
  Al  Al23  1  0.439894  0.879430  0.750714  1
  Al  Al24  1  0.877155  0.436573  0.249148  1
  Al  Al25  1  0.120570  0.560106  0.750714  1
  Al  Al26  1  0.565464  0.434536  0.256835  1
  Al  Al27  1  0.434500  0.565500  0.743896  1
  Al  Al28  1  0.999123  0.000877  0.250695  1
  Al  Al29  1  0.998235  0.001765  0.749461  1
  Zn  Zn30  1  0.500204  0.499796  0.000044  1
  Os  Os31  1  0.501343  0.000559  0.998986  1
  Os  Os32  1  0.999441  0.498657  0.998986  1
  Os  Os33  1  0.501554  0.000693  0.501150  1
  Os  Os34  1  0.999307  0.498446  0.501150  1
  Os  Os35  1  0.500379  0.499621  0.500732  1
  Os  Os36  1  0.000258  0.999742  0.999808  1
  Os  Os37  1  0.000238  0.999762  0.500395  1
