# generated using pymatgen
data_La2Ta3Si7Pt9
_symmetry_space_group_name_H-M   'P 1'
_cell_length_a   9.97082400
_cell_length_b   9.97082274
_cell_length_c   4.05581900
_cell_angle_alpha   90.00000000
_cell_angle_beta   90.00000000
_cell_angle_gamma   119.99999755
_symmetry_Int_Tables_number   1
_chemical_formula_structural   La2Ta3Si7Pt9
_chemical_formula_sum   'La2 Ta3 Si7 Pt9'
_cell_volume   349.19760271
_cell_formula_units_Z   1
loop_
 _symmetry_equiv_pos_site_id
 _symmetry_equiv_pos_as_xyz
  1  'x, y, z'
loop_
 _atom_site_type_symbol
 _atom_site_label
 _atom_site_symmetry_multiplicity
 _atom_site_fract_x
 _atom_site_fract_y
 _atom_site_fract_z
 _atom_site_occupancy
  La  La0  1  0.000000  0.000000  0.000000  1
  La  La1  1  0.333333  0.666667  0.500000  1
  Ta  Ta2  1  0.879456  0.453450  0.500000  1
  Ta  Ta3  1  0.573995  0.120544  0.500000  1
  Ta  Ta4  1  0.546550  0.426005  0.500000  1
  Si  Si5  1  0.260040  0.217742  0.500000  1
  Si  Si6  1  0.782258  0.042299  0.500000  1
  Si  Si7  1  0.957701  0.739960  0.500000  1
  Si  Si8  1  0.556975  0.635607  0.000000  1
  Si  Si9  1  0.364393  0.921367  0.000000  1
  Si  Si10  1  0.078633  0.443025  0.000000  1
  Si  Si11  1  0.666667  0.333333  0.000000  1
  Pt  Pt12  1  0.230957  0.945402  0.500000  1
  Pt  Pt13  1  0.054598  0.285556  0.500000  1
  Pt  Pt14  1  0.714444  0.769043  0.500000  1
  Pt  Pt15  1  0.305955  0.405038  0.000000  1
  Pt  Pt16  1  0.594962  0.900917  0.000000  1
  Pt  Pt17  1  0.099083  0.694045  0.000000  1
  Pt  Pt18  1  0.391338  0.176800  0.000000  1
  Pt  Pt19  1  0.823200  0.214538  0.000000  1
  Pt  Pt20  1  0.785462  0.608662  0.000000  1
