# generated using pymatgen
data_Sm11Tm(SiI3)4
_symmetry_space_group_name_H-M   'P 1'
_cell_length_a   10.65466597
_cell_length_b   10.65466615
_cell_length_c   10.66045809
_cell_angle_alpha   109.46040756
_cell_angle_beta   109.46040823
_cell_angle_gamma   109.49090341
_symmetry_Int_Tables_number   1
_chemical_formula_structural   Sm11Tm(SiI3)4
_chemical_formula_sum   'Sm11 Tm1 Si4 I12'
_cell_volume   931.63123989
_cell_formula_units_Z   1
loop_
 _symmetry_equiv_pos_site_id
 _symmetry_equiv_pos_as_xyz
  1  'x, y, z'
loop_
 _atom_site_type_symbol
 _atom_site_label
 _atom_site_symmetry_multiplicity
 _atom_site_fract_x
 _atom_site_fract_y
 _atom_site_fract_z
 _atom_site_occupancy
  Sm  Sm0  1  0.464529  0.482265  0.232622  1
  Sm  Sm1  1  0.752442  0.231863  0.269764  1
  Sm  Sm2  1  0.748177  0.016845  0.480803  1
  Sm  Sm3  1  0.232310  0.464001  0.481006  1
  Sm  Sm4  1  0.268137  0.747558  0.230236  1
  Sm  Sm5  1  0.035999  0.267690  0.018994  1
  Sm  Sm6  1  0.017735  0.035471  0.267378  1
  Sm  Sm7  1  0.483155  0.751823  0.019197  1
  Sm  Sm8  1  0.482200  0.232091  0.464234  1
  Sm  Sm9  1  0.018691  0.481309  0.750000  1
  Sm  Sm10  1  0.267909  0.017800  0.035766  1
  Tm  Tm11  1  0.229120  0.270880  0.750000  1
  Si  Si12  1  0.250335  0.249665  0.250000  1
  Si  Si13  1  0.499643  0.000357  0.250000  1
  Si  Si14  1  0.003359  0.249337  0.502955  1
  Si  Si15  1  0.250663  0.496641  0.997045  1
  I  I16  1  0.250284  0.757664  0.742432  1
  I  I17  1  0.509141  0.501353  0.757774  1
  I  I18  1  0.984355  0.741239  0.991573  1
  I  I19  1  0.742336  0.249716  0.757568  1
  I  I20  1  0.998647  0.990859  0.742226  1
  I  I21  1  0.250187  0.997520  0.512413  1
  I  I22  1  0.758761  0.515645  0.508427  1
  I  I23  1  0.502480  0.249813  0.987587  1
  I  I24  1  0.757913  0.742087  0.250000  1
  I  I25  1  0.741701  0.992121  0.983937  1
  I  I26  1  0.991909  0.508091  0.250000  1
  I  I27  1  0.507879  0.758299  0.516063  1
