# generated using pymatgen
data_Eu8VSi(PN6)2
_symmetry_space_group_name_H-M   'P 1'
_cell_length_a   6.02167808
_cell_length_b   6.02167847
_cell_length_c   11.83484919
_cell_angle_alpha   89.51900244
_cell_angle_beta   90.48099907
_cell_angle_gamma   126.26943393
_symmetry_Int_Tables_number   1
_chemical_formula_structural   Eu8VSi(PN6)2
_chemical_formula_sum   'Eu8 V1 Si1 P2 N12'
_cell_volume   345.97529312
_cell_formula_units_Z   1
loop_
 _symmetry_equiv_pos_site_id
 _symmetry_equiv_pos_as_xyz
  1  'x, y, z'
loop_
 _atom_site_type_symbol
 _atom_site_label
 _atom_site_symmetry_multiplicity
 _atom_site_fract_x
 _atom_site_fract_y
 _atom_site_fract_z
 _atom_site_occupancy
  Eu  Eu0  1  0.054087  0.945913  0.855265  1
  Eu  Eu1  1  0.947561  0.052439  0.139717  1
  Eu  Eu2  1  0.442754  0.557246  0.362581  1
  Eu  Eu3  1  0.552634  0.447366  0.643824  1
  Eu  Eu4  1  0.639215  0.360785  0.075293  1
  Eu  Eu5  1  0.362880  0.637120  0.921302  1
  Eu  Eu6  1  0.861168  0.138832  0.580452  1
  Eu  Eu7  1  0.143268  0.856732  0.428339  1
  V  V8  1  0.757466  0.242534  0.333250  1
  Si  Si9  1  0.239864  0.760136  0.667430  1
  P  P10  1  0.741822  0.258178  0.834706  1
  P  P11  1  0.258664  0.741336  0.158598  1
  N  N12  1  0.590357  0.409643  0.863309  1
  N  N13  1  0.410106  0.589894  0.134655  1
  N  N14  1  0.920644  0.079356  0.368047  1
  N  N15  1  0.080498  0.919502  0.637284  1
  N  N16  1  0.532647  0.978569  0.755302  1
  N  N17  1  0.985298  0.542782  0.240641  1
  N  N18  1  0.457218  0.014702  0.240641  1
  N  N19  1  0.021431  0.467353  0.755302  1
  N  N20  1  0.836099  0.163901  0.946146  1
  N  N21  1  0.164764  0.835236  0.048115  1
  N  N22  1  0.658453  0.341547  0.456185  1
  N  N23  1  0.341100  0.658900  0.553617  1
