# generated using pymatgen
data_Nd5AlSn2
_symmetry_space_group_name_H-M   'P 1'
_cell_length_a   9.37804052
_cell_length_b   9.37804058
_cell_length_c   9.37804069
_cell_angle_alpha   96.16870668
_cell_angle_beta   96.16870494
_cell_angle_gamma   141.72876560
_symmetry_Int_Tables_number   1
_chemical_formula_structural   Nd5AlSn2
_chemical_formula_sum   'Nd10 Al2 Sn4'
_cell_volume   482.62708759
_cell_formula_units_Z   2
loop_
 _symmetry_equiv_pos_site_id
 _symmetry_equiv_pos_as_xyz
  1  'x, y, z'
loop_
 _atom_site_type_symbol
 _atom_site_label
 _atom_site_symmetry_multiplicity
 _atom_site_fract_x
 _atom_site_fract_y
 _atom_site_fract_z
 _atom_site_occupancy
  Nd  Nd0  1  0.213843  0.916674  0.130517  1
  Nd  Nd1  1  0.416674  0.713843  0.130517  1
  Nd  Nd2  1  0.083326  0.213843  0.297170  1
  Nd  Nd3  1  0.713843  0.583326  0.297170  1
  Nd  Nd4  1  0.749999  0.249999  0.500000  1
  Nd  Nd5  1  0.249999  0.749999  0.500000  1
  Nd  Nd6  1  0.286157  0.416674  0.702830  1
  Nd  Nd7  1  0.916674  0.786157  0.702830  1
  Nd  Nd8  1  0.786157  0.083326  0.869483  1
  Nd  Nd9  1  0.583325  0.286157  0.869482  1
  Al  Al10  1  0.249999  0.249999  0.000000  1
  Al  Al11  1  0.749999  0.749999  0.000000  1
  Sn  Sn12  1  0.839922  0.339922  0.179844  1
  Sn  Sn13  1  0.339922  0.160078  0.499999  1
  Sn  Sn14  1  0.660078  0.839922  0.499999  1
  Sn  Sn15  1  0.160078  0.660078  0.820156  1
