# generated using pymatgen
data_Lu10Co3Os
_symmetry_space_group_name_H-M   'P 1'
_cell_length_a   8.19787307
_cell_length_b   8.26312792
_cell_length_c   6.95762566
_cell_angle_alpha   83.68967021
_cell_angle_beta   83.68159277
_cell_angle_gamma   44.33082353
_symmetry_Int_Tables_number   1
_chemical_formula_structural   Lu10Co3Os
_chemical_formula_sum   'Lu10 Co3 Os1'
_cell_volume   327.02074343
_cell_formula_units_Z   1
loop_
 _symmetry_equiv_pos_site_id
 _symmetry_equiv_pos_as_xyz
  1  'x, y, z'
loop_
 _atom_site_type_symbol
 _atom_site_label
 _atom_site_symmetry_multiplicity
 _atom_site_fract_x
 _atom_site_fract_y
 _atom_site_fract_z
 _atom_site_occupancy
  Lu  Lu0  1  0.425272  0.571217  0.757101  1
  Lu  Lu1  1  0.352538  0.209576  0.319491  1
  Lu  Lu2  1  0.202211  0.985253  0.078302  1
  Lu  Lu3  1  0.799452  0.014430  0.910998  1
  Lu  Lu4  1  0.970005  0.216531  0.588120  1
  Lu  Lu5  1  0.651581  0.786764  0.685611  1
  Lu  Lu6  1  0.215731  0.350325  0.818557  1
  Lu  Lu7  1  0.787097  0.649491  0.180628  1
  Lu  Lu8  1  0.022828  0.800282  0.411592  1
  Lu  Lu9  1  0.575733  0.421636  0.246644  1
  Co  Co10  1  0.173237  0.601857  0.074595  1
  Co  Co11  1  0.825914  0.396122  0.925966  1
  Co  Co12  1  0.608708  0.173575  0.574434  1
  Os  Os13  1  0.389693  0.822943  0.427966  1
