# generated using pymatgen
data_Eu5TlPt2
_symmetry_space_group_name_H-M   'P 1'
_cell_length_a   9.33622074
_cell_length_b   9.33622107
_cell_length_c   9.33622000
_cell_angle_alpha   128.74516142
_cell_angle_beta   128.74516303
_cell_angle_gamma   75.42096342
_symmetry_Int_Tables_number   1
_chemical_formula_structural   Eu5TlPt2
_chemical_formula_sum   'Eu10 Tl2 Pt4'
_cell_volume   481.74586254
_cell_formula_units_Z   2
loop_
 _symmetry_equiv_pos_site_id
 _symmetry_equiv_pos_as_xyz
  1  'x, y, z'
loop_
 _atom_site_type_symbol
 _atom_site_label
 _atom_site_symmetry_multiplicity
 _atom_site_fract_x
 _atom_site_fract_y
 _atom_site_fract_z
 _atom_site_occupancy
  Eu  Eu0  1  0.000000  0.000000  0.000000  1
  Eu  Eu1  1  0.500000  0.500000  0.000000  1
  Eu  Eu2  1  0.798051  0.298051  0.827863  1
  Eu  Eu3  1  0.201949  0.701949  0.172137  1
  Eu  Eu4  1  0.470188  0.970188  0.172137  1
  Eu  Eu5  1  0.298051  0.470188  0.500000  1
  Eu  Eu6  1  0.029812  0.201949  0.500000  1
  Eu  Eu7  1  0.529812  0.029812  0.827863  1
  Eu  Eu8  1  0.701949  0.529812  0.500000  1
  Eu  Eu9  1  0.970188  0.798051  0.500000  1
  Tl  Tl10  1  0.250000  0.250000  0.000000  1
  Tl  Tl11  1  0.750000  0.750000  0.000000  1
  Pt  Pt12  1  0.133149  0.633149  0.766298  1
  Pt  Pt13  1  0.866851  0.366851  0.233702  1
  Pt  Pt14  1  0.633149  0.866851  0.500000  1
  Pt  Pt15  1  0.366851  0.133149  0.500000  1
