# generated using pymatgen
data_Tb2LuSn3Ir2Rh
_symmetry_space_group_name_H-M   'P 1'
_cell_length_a   7.62763164
_cell_length_b   7.67155680
_cell_length_c   3.75525300
_cell_angle_alpha   90.00000000
_cell_angle_beta   90.00000000
_cell_angle_gamma   120.19068433
_symmetry_Int_Tables_number   1
_chemical_formula_structural   Tb2LuSn3Ir2Rh
_chemical_formula_sum   'Tb2 Lu1 Sn3 Ir2 Rh1'
_cell_volume   189.93515629
_cell_formula_units_Z   1
loop_
 _symmetry_equiv_pos_site_id
 _symmetry_equiv_pos_as_xyz
  1  'x, y, z'
loop_
 _atom_site_type_symbol
 _atom_site_label
 _atom_site_symmetry_multiplicity
 _atom_site_fract_x
 _atom_site_fract_y
 _atom_site_fract_z
 _atom_site_occupancy
  Tb  Tb0  1  0.403906  0.403418  0.500000  1
  Tb  Tb1  1  0.596094  0.999513  0.500000  1
  Lu  Lu2  1  0.000000  0.596687  0.500000  1
  Sn  Sn3  1  0.736668  0.734064  0.000000  1
  Sn  Sn4  1  0.263332  0.997396  0.000000  1
  Sn  Sn5  1  0.000000  0.266783  0.000000  1
  Ir  Ir6  1  0.672148  0.337810  0.000000  1
  Ir  Ir7  1  0.327852  0.665663  0.000000  1
  Rh  Rh8  1  0.000000  0.998667  0.500000  1
