# generated using pymatgen
data_Zr10CuSnGePb5
_symmetry_space_group_name_H-M   'P 1'
_cell_length_a   8.80612502
_cell_length_b   8.79611656
_cell_length_c   5.96234732
_cell_angle_alpha   90.03778714
_cell_angle_beta   89.98112590
_cell_angle_gamma   119.96240735
_symmetry_Int_Tables_number   1
_chemical_formula_structural   Zr10CuSnGePb5
_chemical_formula_sum   'Zr10 Cu1 Sn1 Ge1 Pb5'
_cell_volume   400.11793666
_cell_formula_units_Z   1
loop_
 _symmetry_equiv_pos_site_id
 _symmetry_equiv_pos_as_xyz
  1  'x, y, z'
loop_
 _atom_site_type_symbol
 _atom_site_label
 _atom_site_symmetry_multiplicity
 _atom_site_fract_x
 _atom_site_fract_y
 _atom_site_fract_z
 _atom_site_occupancy
  Zr  Zr0  1  0.669603  0.333994  0.501224  1
  Zr  Zr1  1  0.330397  0.664393  0.501224  1
  Zr  Zr2  1  0.330264  0.663994  0.998575  1
  Zr  Zr3  1  0.669736  0.333729  0.998575  1
  Zr  Zr4  1  0.742161  0.741991  0.249408  1
  Zr  Zr5  1  0.257839  0.999830  0.249408  1
  Zr  Zr6  1  0.000000  0.258853  0.247813  1
  Zr  Zr7  1  0.255614  0.260244  0.751234  1
  Zr  Zr8  1  0.744386  0.004630  0.751234  1
  Zr  Zr9  1  0.000000  0.738494  0.751117  1
  Cu  Cu10  1  0.000000  0.999516  0.999311  1
  Sn  Sn11  1  0.000000  0.390099  0.752081  1
  Ge  Ge12  1  0.000000  0.999275  0.500852  1
  Pb  Pb13  1  0.390474  0.389054  0.247989  1
  Pb  Pb14  1  0.609526  0.998580  0.247989  1
  Pb  Pb15  1  0.000000  0.610604  0.248116  1
  Pb  Pb16  1  0.611293  0.612007  0.751925  1
  Pb  Pb17  1  0.388707  0.000714  0.751925  1
