# generated using pymatgen
data_TbNdSi7Pd12
_symmetry_space_group_name_H-M   'P 1'
_cell_length_a   10.00042400
_cell_length_b   10.00042293
_cell_length_c   3.90954700
_cell_angle_alpha   90.00000000
_cell_angle_beta   90.00000000
_cell_angle_gamma   120.00000353
_symmetry_Int_Tables_number   1
_chemical_formula_structural   TbNdSi7Pd12
_chemical_formula_sum   'Tb1 Nd1 Si7 Pd12'
_cell_volume   338.60536565
_cell_formula_units_Z   1
loop_
 _symmetry_equiv_pos_site_id
 _symmetry_equiv_pos_as_xyz
  1  'x, y, z'
loop_
 _atom_site_type_symbol
 _atom_site_label
 _atom_site_symmetry_multiplicity
 _atom_site_fract_x
 _atom_site_fract_y
 _atom_site_fract_z
 _atom_site_occupancy
  Tb  Tb0  1  0.666667  0.333333  0.248059  1
  Nd  Nd1  1  0.000000  0.000000  0.750025  1
  Si  Si2  1  0.333333  0.666667  0.467298  1
  Si  Si3  1  0.738032  0.782423  0.249336  1
  Si  Si4  1  0.044390  0.261968  0.249336  1
  Si  Si5  1  0.217577  0.955610  0.249336  1
  Si  Si6  1  0.925775  0.549418  0.749099  1
  Si  Si7  1  0.623644  0.074225  0.749099  1
  Si  Si8  1  0.450582  0.376356  0.749099  1
  Pd  Pd9  1  0.773550  0.047330  0.248121  1
  Pd  Pd10  1  0.273780  0.226450  0.248121  1
  Pd  Pd11  1  0.952670  0.726220  0.248121  1
  Pd  Pd12  1  0.891211  0.286688  0.750514  1
  Pd  Pd13  1  0.395477  0.108789  0.750514  1
  Pd  Pd14  1  0.713312  0.604523  0.750514  1
  Pd  Pd15  1  0.481075  0.553759  0.249231  1
  Pd  Pd16  1  0.072683  0.518925  0.249231  1
  Pd  Pd17  1  0.446241  0.927317  0.249231  1
  Pd  Pd18  1  0.188672  0.775759  0.749077  1
  Pd  Pd19  1  0.587087  0.811328  0.749077  1
  Pd  Pd20  1  0.224241  0.412913  0.749077  1
