# generated using pymatgen
data_Sr3C3BrCl
_symmetry_space_group_name_H-M   'P 1'
_cell_length_a   7.64435253
_cell_length_b   7.64435183
_cell_length_c   12.01663400
_cell_angle_alpha   90.00000000
_cell_angle_beta   90.00000000
_cell_angle_gamma   148.61418953
_symmetry_Int_Tables_number   1
_chemical_formula_structural   Sr3C3BrCl
_chemical_formula_sum   'Sr6 C6 Br2 Cl2'
_cell_volume   365.70736593
_cell_formula_units_Z   2
loop_
 _symmetry_equiv_pos_site_id
 _symmetry_equiv_pos_as_xyz
  1  'x, y, z'
loop_
 _atom_site_type_symbol
 _atom_site_label
 _atom_site_symmetry_multiplicity
 _atom_site_fract_x
 _atom_site_fract_y
 _atom_site_fract_z
 _atom_site_occupancy
  Sr  Sr0  1  0.660527  0.339473  0.566113  1
  Sr  Sr1  1  0.339473  0.660527  0.433887  1
  Sr  Sr2  1  0.339473  0.660527  0.066113  1
  Sr  Sr3  1  0.660527  0.339473  0.933887  1
  Sr  Sr4  1  0.117612  0.882388  0.250000  1
  Sr  Sr5  1  0.882388  0.117612  0.750000  1
  C  C6  1  0.269965  0.730035  0.638887  1
  C  C7  1  0.730035  0.269965  0.361113  1
  C  C8  1  0.730035  0.269965  0.138887  1
  C  C9  1  0.269965  0.730035  0.861113  1
  C  C10  1  0.737727  0.262273  0.250000  1
  C  C11  1  0.262273  0.737727  0.750000  1
  Br  Br12  1  0.000000  0.000000  0.000000  1
  Br  Br13  1  0.000000  0.000000  0.500000  1
  Cl  Cl14  1  0.528419  0.471581  0.750000  1
  Cl  Cl15  1  0.471581  0.528419  0.250000  1
