# generated using pymatgen
data_Dy3Ho2In2(HgPd)2
_symmetry_space_group_name_H-M   'P 1'
_cell_length_a   3.62567000
_cell_length_b   8.01832200
_cell_length_c   18.28637300
_cell_angle_alpha   90.00000000
_cell_angle_beta   90.00000000
_cell_angle_gamma   90.00000000
_symmetry_Int_Tables_number   1
_chemical_formula_structural   Dy3Ho2In2(HgPd)2
_chemical_formula_sum   'Dy6 Ho4 In4 Hg4 Pd4'
_cell_volume   531.61758705
_cell_formula_units_Z   2
loop_
 _symmetry_equiv_pos_site_id
 _symmetry_equiv_pos_as_xyz
  1  'x, y, z'
loop_
 _atom_site_type_symbol
 _atom_site_label
 _atom_site_symmetry_multiplicity
 _atom_site_fract_x
 _atom_site_fract_y
 _atom_site_fract_z
 _atom_site_occupancy
  Dy  Dy0  1  0.000000  0.500000  0.500000  1
  Dy  Dy1  1  0.000000  0.000000  0.000000  1
  Dy  Dy2  1  0.000000  0.743674  0.284681  1
  Dy  Dy3  1  0.000000  0.256326  0.715319  1
  Dy  Dy4  1  0.000000  0.756326  0.784681  1
  Dy  Dy5  1  0.000000  0.243674  0.215319  1
  Ho  Ho6  1  0.000000  0.609142  0.083693  1
  Ho  Ho7  1  0.000000  0.390858  0.916307  1
  Ho  Ho8  1  0.000000  0.890858  0.583693  1
  Ho  Ho9  1  0.000000  0.109142  0.416307  1
  In  In10  1  0.500000  0.582059  0.649523  1
  In  In11  1  0.500000  0.417941  0.350477  1
  In  In12  1  0.500000  0.917941  0.149523  1
  In  In13  1  0.500000  0.082059  0.850477  1
  Hg  Hg14  1  0.500000  0.711342  0.933924  1
  Hg  Hg15  1  0.500000  0.288658  0.066076  1
  Hg  Hg16  1  0.500000  0.788658  0.433924  1
  Hg  Hg17  1  0.500000  0.211342  0.566076  1
  Pd  Pd18  1  0.500000  0.531394  0.197566  1
  Pd  Pd19  1  0.500000  0.468606  0.802434  1
  Pd  Pd20  1  0.500000  0.968606  0.697566  1
  Pd  Pd21  1  0.500000  0.031394  0.302434  1
