# generated using pymatgen
data_SnBi3PbI3
_symmetry_space_group_name_H-M   'P 1'
_cell_length_a   23.46971161
_cell_length_b   23.46971268
_cell_length_c   6.92605900
_cell_angle_alpha   79.61058442
_cell_angle_beta   79.61058394
_cell_angle_gamma   14.48439377
_symmetry_Int_Tables_number   1
_chemical_formula_structural   SnBi3PbI3
_chemical_formula_sum   'Sn3 Bi9 Pb3 I9'
_cell_volume   938.31017242
_cell_formula_units_Z   3
loop_
 _symmetry_equiv_pos_site_id
 _symmetry_equiv_pos_as_xyz
  1  'x, y, z'
loop_
 _atom_site_type_symbol
 _atom_site_label
 _atom_site_symmetry_multiplicity
 _atom_site_fract_x
 _atom_site_fract_y
 _atom_site_fract_z
 _atom_site_occupancy
  Sn  Sn0  1  0.934708  0.934708  0.174891  1
  Sn  Sn1  1  0.473312  0.473312  0.663268  1
  Sn  Sn2  1  0.615745  0.615745  0.554957  1
  Bi  Bi3  1  0.082032  0.082032  0.077783  1
  Bi  Bi4  1  0.744661  0.744661  0.947176  1
  Bi  Bi5  1  0.236658  0.236658  0.468899  1
  Bi  Bi6  1  0.241836  0.241836  0.943728  1
  Bi  Bi7  1  0.737552  0.737552  0.487368  1
  Bi  Bi8  1  0.876147  0.876147  0.973450  1
  Bi  Bi9  1  0.298835  0.298835  0.185277  1
  Bi  Bi10  1  0.181923  0.181923  0.248877  1
  Bi  Bi11  1  0.669875  0.669875  0.780179  1
  Pb  Pb12  1  0.800456  0.800456  0.180419  1
  Pb  Pb13  1  0.168547  0.168547  0.789007  1
  Pb  Pb14  1  0.679862  0.679862  0.254093  1
  I  I15  1  0.107475  0.107475  0.550109  1
  I  I16  1  0.584904  0.584904  0.074456  1
  I  I17  1  0.880089  0.880089  0.486718  1
  I  I18  1  0.373592  0.373592  0.965125  1
  I  I19  1  0.441791  0.441791  0.179861  1
  I  I20  1  0.969315  0.969315  0.662815  1
  I  I21  1  0.534997  0.534997  0.629498  1
  I  I22  1  0.020182  0.020182  0.116585  1
  I  I23  1  0.313594  0.313594  0.605464  1
