# generated using pymatgen
data_Dy13Y3(ZnIn3)2
_symmetry_space_group_name_H-M   'P 1'
_cell_length_a   10.66110100
_cell_length_b   10.66110109
_cell_length_c   6.77824700
_cell_angle_alpha   90.00002687
_cell_angle_beta   89.99996775
_cell_angle_gamma   119.99997180
_symmetry_Int_Tables_number   1
_chemical_formula_structural   Dy13Y3(ZnIn3)2
_chemical_formula_sum   'Dy13 Y3 Zn2 In6'
_cell_volume   667.19420387
_cell_formula_units_Z   1
loop_
 _symmetry_equiv_pos_site_id
 _symmetry_equiv_pos_as_xyz
  1  'x, y, z'
loop_
 _atom_site_type_symbol
 _atom_site_label
 _atom_site_symmetry_multiplicity
 _atom_site_fract_x
 _atom_site_fract_y
 _atom_site_fract_z
 _atom_site_occupancy
  Dy  Dy0  1  0.479050  0.520950  0.477468  1
  Dy  Dy1  1  0.041899  0.520950  0.477468  1
  Dy  Dy2  1  0.479050  0.958101  0.477468  1
  Dy  Dy3  1  0.520290  0.479710  0.977897  1
  Dy  Dy4  1  0.959422  0.479710  0.977897  1
  Dy  Dy5  1  0.520290  0.040578  0.977897  1
  Dy  Dy6  1  0.827031  0.172969  0.259908  1
  Dy  Dy7  1  0.345938  0.172969  0.259908  1
  Dy  Dy8  1  0.827031  0.654063  0.259908  1
  Dy  Dy9  1  0.172940  0.827060  0.759644  1
  Dy  Dy10  1  0.654120  0.827060  0.759644  1
  Dy  Dy11  1  0.172940  0.345880  0.759644  1
  Dy  Dy12  1  0.333333  0.666667  0.132136  1
  Y  Y13  1  0.666667  0.333333  0.631734  1
  Y  Y14  1  0.000000  0.000000  0.496440  1
  Y  Y15  1  0.000000  0.000000  0.996999  1
  Zn  Zn16  1  0.333333  0.666667  0.695530  1
  Zn  Zn17  1  0.666667  0.333333  0.192918  1
  In  In18  1  0.164619  0.835381  0.245552  1
  In  In19  1  0.670762  0.835381  0.245552  1
  In  In20  1  0.164619  0.329238  0.245551  1
  In  In21  1  0.835294  0.164706  0.745797  1
  In  In22  1  0.329412  0.164706  0.745797  1
  In  In23  1  0.835294  0.670588  0.745797  1
