# generated using pymatgen
data_TbLu2(AlNi2)3
_symmetry_space_group_name_H-M   'P 1'
_cell_length_a   5.17161400
_cell_length_b   5.17161341
_cell_length_c   15.78793600
_cell_angle_alpha   90.00000000
_cell_angle_beta   90.00000000
_cell_angle_gamma   119.99999097
_symmetry_Int_Tables_number   1
_chemical_formula_structural   TbLu2(AlNi2)3
_chemical_formula_sum   'Tb2 Lu4 Al6 Ni12'
_cell_volume   365.68587356
_cell_formula_units_Z   2
loop_
 _symmetry_equiv_pos_site_id
 _symmetry_equiv_pos_as_xyz
  1  'x, y, z'
loop_
 _atom_site_type_symbol
 _atom_site_label
 _atom_site_symmetry_multiplicity
 _atom_site_fract_x
 _atom_site_fract_y
 _atom_site_fract_z
 _atom_site_occupancy
  Tb  Tb0  1  0.333333  0.666667  0.750000  1
  Tb  Tb1  1  0.666667  0.333333  0.250000  1
  Lu  Lu2  1  0.333333  0.666667  0.541386  1
  Lu  Lu3  1  0.666667  0.333333  0.458614  1
  Lu  Lu4  1  0.666667  0.333333  0.041386  1
  Lu  Lu5  1  0.333333  0.666667  0.958614  1
  Al  Al6  1  0.000000  0.000000  0.250000  1
  Al  Al7  1  0.000000  0.000000  0.750000  1
  Al  Al8  1  0.333333  0.666667  0.250000  1
  Al  Al9  1  0.666667  0.333333  0.750000  1
  Al  Al10  1  0.000000  0.000000  0.000000  1
  Al  Al11  1  0.000000  0.000000  0.500000  1
  Ni  Ni12  1  0.168284  0.336566  0.124589  1
  Ni  Ni13  1  0.831716  0.663434  0.875411  1
  Ni  Ni14  1  0.663434  0.831716  0.124589  1
  Ni  Ni15  1  0.831716  0.663434  0.624589  1
  Ni  Ni16  1  0.336566  0.168284  0.875411  1
  Ni  Ni17  1  0.168284  0.336566  0.375411  1
  Ni  Ni18  1  0.168284  0.831716  0.124589  1
  Ni  Ni19  1  0.336566  0.168284  0.624589  1
  Ni  Ni20  1  0.831716  0.168284  0.875411  1
  Ni  Ni21  1  0.663434  0.831716  0.375411  1
  Ni  Ni22  1  0.831716  0.168284  0.624589  1
  Ni  Ni23  1  0.168284  0.831716  0.375411  1
