# generated using pymatgen
data_CsCa(FeP)4
_symmetry_space_group_name_H-M   'P 1'
_cell_length_a   3.83751200
_cell_length_b   3.83751200
_cell_length_c   11.92920900
_cell_angle_alpha   90.00000000
_cell_angle_beta   90.00000000
_cell_angle_gamma   90.00000000
_symmetry_Int_Tables_number   1
_chemical_formula_structural   CsCa(FeP)4
_chemical_formula_sum   'Cs1 Ca1 Fe4 P4'
_cell_volume   175.67547666
_cell_formula_units_Z   1
loop_
 _symmetry_equiv_pos_site_id
 _symmetry_equiv_pos_as_xyz
  1  'x, y, z'
loop_
 _atom_site_type_symbol
 _atom_site_label
 _atom_site_symmetry_multiplicity
 _atom_site_fract_x
 _atom_site_fract_y
 _atom_site_fract_z
 _atom_site_occupancy
  Cs  Cs0  1  0.500000  0.500000  0.500000  1
  Ca  Ca1  1  0.000000  0.000000  0.000000  1
  Fe  Fe2  1  0.500000  0.000000  0.796355  1
  Fe  Fe3  1  0.000000  0.500000  0.796355  1
  Fe  Fe4  1  0.500000  0.000000  0.203645  1
  Fe  Fe5  1  0.000000  0.500000  0.203645  1
  P  P6  1  0.000000  0.000000  0.705669  1
  P  P7  1  0.000000  0.000000  0.294331  1
  P  P8  1  0.500000  0.500000  0.885451  1
  P  P9  1  0.500000  0.500000  0.114549  1
