# generated using pymatgen
data_Th5InBi2As
_symmetry_space_group_name_H-M   'P 1'
_cell_length_a   9.58622300
_cell_length_b   9.59289916
_cell_length_c   6.69089600
_cell_angle_alpha   90.00000000
_cell_angle_beta   90.00000000
_cell_angle_gamma   119.97697746
_symmetry_Int_Tables_number   1
_chemical_formula_structural   Th5InBi2As
_chemical_formula_sum   'Th10 In2 Bi4 As2'
_cell_volume   532.98259034
_cell_formula_units_Z   2
loop_
 _symmetry_equiv_pos_site_id
 _symmetry_equiv_pos_as_xyz
  1  'x, y, z'
loop_
 _atom_site_type_symbol
 _atom_site_label
 _atom_site_symmetry_multiplicity
 _atom_site_fract_x
 _atom_site_fract_y
 _atom_site_fract_z
 _atom_site_occupancy
  Th  Th0  1  0.999067  0.741992  0.750000  1
  Th  Th1  1  0.257074  0.258008  0.750000  1
  Th  Th2  1  0.331523  0.664140  0.495992  1
  Th  Th3  1  0.667385  0.335860  0.495992  1
  Th  Th4  1  0.744645  0.740351  0.250000  1
  Th  Th5  1  0.743626  0.000000  0.750000  1
  Th  Th6  1  0.004294  0.259649  0.250000  1
  Th  Th7  1  0.254680  0.000000  0.250000  1
  Th  Th8  1  0.331523  0.664140  0.004008  1
  Th  Th9  1  0.667385  0.335860  0.004008  1
  In  In10  1  0.389784  0.388926  0.250000  1
  In  In11  1  0.000859  0.611074  0.250000  1
  Bi  Bi12  1  0.607848  0.607632  0.750000  1
  Bi  Bi13  1  0.000216  0.392368  0.750000  1
  Bi  Bi14  1  0.390709  0.000000  0.750000  1
  Bi  Bi15  1  0.610760  0.000000  0.250000  1
  As  As16  1  0.999313  0.000000  0.999469  1
  As  As17  1  0.999313  0.000000  0.500531  1
