# generated using pymatgen
data_TbNd2PaIn2Ir3
_symmetry_space_group_name_H-M   'P 1'
_cell_length_a   7.58386151
_cell_length_b   7.43774930
_cell_length_c   4.28422700
_cell_angle_alpha   90.00000000
_cell_angle_beta   90.00000000
_cell_angle_gamma   119.36469930
_symmetry_Int_Tables_number   1
_chemical_formula_structural   TbNd2PaIn2Ir3
_chemical_formula_sum   'Tb1 Nd2 Pa1 In2 Ir3'
_cell_volume   210.61040209
_cell_formula_units_Z   1
loop_
 _symmetry_equiv_pos_site_id
 _symmetry_equiv_pos_as_xyz
  1  'x, y, z'
loop_
 _atom_site_type_symbol
 _atom_site_label
 _atom_site_symmetry_multiplicity
 _atom_site_fract_x
 _atom_site_fract_y
 _atom_site_fract_z
 _atom_site_occupancy
  Tb  Tb0  1  0.000000  0.624197  0.000000  1
  Nd  Nd1  1  0.432743  0.407039  0.000000  1
  Nd  Nd2  1  0.567257  0.974296  0.000000  1
  Pa  Pa3  1  0.000000  0.266155  0.500000  1
  In  In4  1  0.748400  0.747539  0.500000  1
  In  In5  1  0.251600  0.999139  0.500000  1
  Ir  Ir6  1  0.000000  0.019227  0.000000  1
  Ir  Ir7  1  0.309919  0.636163  0.500000  1
  Ir  Ir8  1  0.690081  0.326243  0.500000  1
