# generated using pymatgen
data_Dy2Er2B12IrRh
_symmetry_space_group_name_H-M   'P 1'
_cell_length_a   3.64188400
_cell_length_b   9.15936342
_cell_length_c   11.50585403
_cell_angle_alpha   90.08323548
_cell_angle_beta   90.00000000
_cell_angle_gamma   90.00000000
_symmetry_Int_Tables_number   1
_chemical_formula_structural   Dy2Er2B12IrRh
_chemical_formula_sum   'Dy4 Er4 B24 Ir2 Rh2'
_cell_volume   383.80426942
_cell_formula_units_Z   2
loop_
 _symmetry_equiv_pos_site_id
 _symmetry_equiv_pos_as_xyz
  1  'x, y, z'
loop_
 _atom_site_type_symbol
 _atom_site_label
 _atom_site_symmetry_multiplicity
 _atom_site_fract_x
 _atom_site_fract_y
 _atom_site_fract_z
 _atom_site_occupancy
  Dy  Dy0  1  0.500000  0.323258  0.413866  1
  Dy  Dy1  1  0.500000  0.676742  0.586134  1
  Dy  Dy2  1  0.500000  0.178420  0.912873  1
  Dy  Dy3  1  0.500000  0.821580  0.087127  1
  Er  Er4  1  0.500000  0.445282  0.126417  1
  Er  Er5  1  0.500000  0.554718  0.873583  1
  Er  Er6  1  0.500000  0.056366  0.625837  1
  Er  Er7  1  0.500000  0.943634  0.374163  1
  B  B8  1  0.000000  0.109370  0.470158  1
  B  B9  1  0.000000  0.890630  0.529842  1
  B  B10  1  0.000000  0.390795  0.970413  1
  B  B11  1  0.000000  0.609205  0.029587  1
  B  B12  1  0.000000  0.132382  0.315978  1
  B  B13  1  0.000000  0.867618  0.684022  1
  B  B14  1  0.000000  0.367008  0.816100  1
  B  B15  1  0.000000  0.632992  0.183900  1
  B  B16  1  0.000000  0.054070  0.066349  1
  B  B17  1  0.000000  0.945930  0.933651  1
  B  B18  1  0.000000  0.446230  0.565872  1
  B  B19  1  0.000000  0.553770  0.434128  1
  B  B20  1  0.000000  0.483013  0.286811  1
  B  B21  1  0.000000  0.516987  0.713189  1
  B  B22  1  0.000000  0.017352  0.786429  1
  B  B23  1  0.000000  0.982648  0.213571  1
  B  B24  1  0.000000  0.250422  0.079726  1
  B  B25  1  0.000000  0.749578  0.920274  1
  B  B26  1  0.000000  0.250538  0.579652  1
  B  B27  1  0.000000  0.749462  0.420348  1
  B  B28  1  0.000000  0.294074  0.234853  1
  B  B29  1  0.000000  0.705926  0.765147  1
  B  B30  1  0.000000  0.206009  0.735235  1
  B  B31  1  0.000000  0.793991  0.264765  1
  Ir  Ir32  1  0.500000  0.139034  0.178534  1
  Ir  Ir33  1  0.500000  0.860966  0.821466  1
  Rh  Rh34  1  0.500000  0.360053  0.680067  1
  Rh  Rh35  1  0.500000  0.639947  0.319933  1
