# generated using pymatgen
data_TbThCS
_symmetry_space_group_name_H-M   'P 1'
_cell_length_a   6.85060521
_cell_length_b   6.85060529
_cell_length_c   6.85060558
_cell_angle_alpha   32.36104637
_cell_angle_beta   32.36104380
_cell_angle_gamma   32.36104200
_symmetry_Int_Tables_number   1
_chemical_formula_structural   TbThCS
_chemical_formula_sum   'Tb1 Th1 C1 S1'
_cell_volume   81.88549334
_cell_formula_units_Z   1
loop_
 _symmetry_equiv_pos_site_id
 _symmetry_equiv_pos_as_xyz
  1  'x, y, z'
loop_
 _atom_site_type_symbol
 _atom_site_label
 _atom_site_symmetry_multiplicity
 _atom_site_fract_x
 _atom_site_fract_y
 _atom_site_fract_z
 _atom_site_occupancy
  Tb  Tb0  1  0.260097  0.260097  0.260097  1
  Th  Th1  1  0.736298  0.736298  0.736298  1
  C  C2  1  0.000707  0.000707  0.000707  1
  S  S3  1  0.502899  0.502899  0.502899  1
