# generated using pymatgen
data_BaSnPRh2
_symmetry_space_group_name_H-M   'P 1'
_cell_length_a   7.38926198
_cell_length_b   7.38926215
_cell_length_c   7.38926198
_cell_angle_alpha   147.51998479
_cell_angle_beta   147.51998690
_cell_angle_gamma   46.59446992
_symmetry_Int_Tables_number   1
_chemical_formula_structural   BaSnPRh2
_chemical_formula_sum   'Ba1 Sn1 P1 Rh2'
_cell_volume   115.92887043
_cell_formula_units_Z   1
loop_
 _symmetry_equiv_pos_site_id
 _symmetry_equiv_pos_as_xyz
  1  'x, y, z'
loop_
 _atom_site_type_symbol
 _atom_site_label
 _atom_site_symmetry_multiplicity
 _atom_site_fract_x
 _atom_site_fract_y
 _atom_site_fract_z
 _atom_site_occupancy
  Ba  Ba0  1  0.980813  0.980813  0.000000  1
  Sn  Sn1  1  0.641656  0.641656  0.000000  1
  P  P2  1  0.344417  0.344417  0.000000  1
  Rh  Rh3  1  0.766558  0.266558  0.500000  1
  Rh  Rh4  1  0.266558  0.766558  0.500000  1
