# generated using pymatgen
data_MgCdCo4(AsO4)4
_symmetry_space_group_name_H-M   'P 1'
_cell_length_a   5.32810688
_cell_length_b   8.06465891
_cell_length_c   8.81647506
_cell_angle_alpha   90.15728431
_cell_angle_beta   90.12960341
_cell_angle_gamma   95.80765302
_symmetry_Int_Tables_number   1
_chemical_formula_structural   MgCdCo4(AsO4)4
_chemical_formula_sum   'Mg1 Cd1 Co4 As4 O16'
_cell_volume   376.89118246
_cell_formula_units_Z   1
loop_
 _symmetry_equiv_pos_site_id
 _symmetry_equiv_pos_as_xyz
  1  'x, y, z'
loop_
 _atom_site_type_symbol
 _atom_site_label
 _atom_site_symmetry_multiplicity
 _atom_site_fract_x
 _atom_site_fract_y
 _atom_site_fract_z
 _atom_site_occupancy
  Mg  Mg0  1  0.999998  0.500000  0.499998  1
  Cd  Cd1  1  0.499998  0.999999  0.000000  1
  Co  Co2  1  0.916065  0.393490  0.858546  1
  Co  Co3  1  0.083939  0.606510  0.141453  1
  Co  Co4  1  0.399714  0.890748  0.633278  1
  Co  Co5  1  0.600285  0.109254  0.366722  1
  As  As6  1  0.463727  0.306576  0.692366  1
  As  As7  1  0.955521  0.792570  0.794723  1
  As  As8  1  0.536276  0.693424  0.307634  1
  As  As9  1  0.044473  0.207430  0.205278  1
  O  O10  1  0.454475  0.134533  0.573848  1
  O  O11  1  0.956245  0.633541  0.926445  1
  O  O12  1  0.545526  0.865467  0.426152  1
  O  O13  1  0.043757  0.366460  0.073555  1
  O  O14  1  0.578797  0.254447  0.868790  1
  O  O15  1  0.075802  0.730889  0.622945  1
  O  O16  1  0.421207  0.745552  0.131210  1
  O  O17  1  0.924198  0.269112  0.377055  1
  O  O18  1  0.169149  0.376062  0.692276  1
  O  O19  1  0.658127  0.856110  0.792250  1
  O  O20  1  0.830856  0.623941  0.307724  1
  O  O21  1  0.341867  0.143886  0.207751  1
  O  O22  1  0.692788  0.460003  0.640452  1
  O  O23  1  0.174355  0.958226  0.836071  1
  O  O24  1  0.307217  0.539995  0.359548  1
  O  O25  1  0.825637  0.041778  0.163930  1
