# generated using pymatgen
data_CeThRe4(SiC)2
_symmetry_space_group_name_H-M   'P 1'
_cell_length_a   5.87645138
_cell_length_b   5.87645153
_cell_length_c   7.32735000
_cell_angle_alpha   90.00000000
_cell_angle_beta   90.00000000
_cell_angle_gamma   139.98124197
_symmetry_Int_Tables_number   1
_chemical_formula_structural   CeThRe4(SiC)2
_chemical_formula_sum   'Ce1 Th1 Re4 Si2 C2'
_cell_volume   162.70995702
_cell_formula_units_Z   1
loop_
 _symmetry_equiv_pos_site_id
 _symmetry_equiv_pos_as_xyz
  1  'x, y, z'
loop_
 _atom_site_type_symbol
 _atom_site_label
 _atom_site_symmetry_multiplicity
 _atom_site_fract_x
 _atom_site_fract_y
 _atom_site_fract_z
 _atom_site_occupancy
  Ce  Ce0  1  0.545221  0.454779  0.250000  1
  Th  Th1  1  0.454930  0.545070  0.750000  1
  Re  Re2  1  0.826738  0.173262  0.062360  1
  Re  Re3  1  0.173192  0.826808  0.938749  1
  Re  Re4  1  0.173192  0.826808  0.561251  1
  Re  Re5  1  0.826738  0.173262  0.437640  1
  Si  Si6  1  0.265996  0.734004  0.250000  1
  Si  Si7  1  0.733994  0.266006  0.750000  1
  C  C8  1  0.999999  0.000001  0.000614  1
  C  C9  1  0.999999  0.000001  0.499386  1
