# generated using pymatgen
data_Zr4TiAl3Tc4
_symmetry_space_group_name_H-M   'P 1'
_cell_length_a   5.25856525
_cell_length_b   5.25856401
_cell_length_c   8.77660000
_cell_angle_alpha   90.00000000
_cell_angle_beta   90.00000000
_cell_angle_gamma   120.65417347
_symmetry_Int_Tables_number   1
_chemical_formula_structural   Zr4TiAl3Tc4
_chemical_formula_sum   'Zr4 Ti1 Al3 Tc4'
_cell_volume   208.78083958
_cell_formula_units_Z   1
loop_
 _symmetry_equiv_pos_site_id
 _symmetry_equiv_pos_as_xyz
  1  'x, y, z'
loop_
 _atom_site_type_symbol
 _atom_site_label
 _atom_site_symmetry_multiplicity
 _atom_site_fract_x
 _atom_site_fract_y
 _atom_site_fract_z
 _atom_site_occupancy
  Zr  Zr0  1  0.334011  0.665989  0.439121  1
  Zr  Zr1  1  0.666914  0.333086  0.934590  1
  Zr  Zr2  1  0.666914  0.333086  0.565410  1
  Zr  Zr3  1  0.334011  0.665989  0.060879  1
  Ti  Ti4  1  0.826863  0.173137  0.250000  1
  Al  Al5  1  0.998566  0.001434  0.998253  1
  Al  Al6  1  0.998566  0.001434  0.501747  1
  Al  Al7  1  0.170915  0.829085  0.750000  1
  Tc  Tc8  1  0.172473  0.337223  0.750000  1
  Tc  Tc9  1  0.337987  0.169997  0.250000  1
  Tc  Tc10  1  0.662777  0.827527  0.750000  1
  Tc  Tc11  1  0.830003  0.662013  0.250000  1
