# generated using pymatgen
data_Dy3ErAl18(OsRh2)2
_symmetry_space_group_name_H-M   'P 1'
_cell_length_a   7.51761718
_cell_length_b   7.51990064
_cell_length_c   9.49827200
_cell_angle_alpha   90.00000000
_cell_angle_beta   90.00000000
_cell_angle_gamma   118.51408895
_symmetry_Int_Tables_number   1
_chemical_formula_structural   Dy3ErAl18(OsRh2)2
_chemical_formula_sum   'Dy3 Er1 Al18 Os2 Rh4'
_cell_volume   471.82116204
_cell_formula_units_Z   1
loop_
 _symmetry_equiv_pos_site_id
 _symmetry_equiv_pos_as_xyz
  1  'x, y, z'
loop_
 _atom_site_type_symbol
 _atom_site_label
 _atom_site_symmetry_multiplicity
 _atom_site_fract_x
 _atom_site_fract_y
 _atom_site_fract_z
 _atom_site_occupancy
  Dy  Dy0  1  0.994284  0.680594  0.750000  1
  Dy  Dy1  1  0.006874  0.319664  0.250000  1
  Dy  Dy2  1  0.680561  0.994252  0.750000  1
  Er  Er3  1  0.319355  0.006819  0.250000  1
  Al  Al4  1  0.134605  0.134389  0.750000  1
  Al  Al5  1  0.866193  0.865901  0.250000  1
  Al  Al6  1  0.002768  0.337881  0.574399  1
  Al  Al7  1  0.997403  0.662350  0.425226  1
  Al  Al8  1  0.997403  0.662350  0.074774  1
  Al  Al9  1  0.337824  0.002574  0.926196  1
  Al  Al10  1  0.002768  0.337881  0.925601  1
  Al  Al11  1  0.661506  0.996918  0.074857  1
  Al  Al12  1  0.661506  0.996918  0.425143  1
  Al  Al13  1  0.337824  0.002574  0.573804  1
  Al  Al14  1  0.332104  0.331717  0.045945  1
  Al  Al15  1  0.668031  0.668065  0.954974  1
  Al  Al16  1  0.668031  0.668065  0.545026  1
  Al  Al17  1  0.332104  0.331717  0.454055  1
  Al  Al18  1  0.340795  0.553777  0.750000  1
  Al  Al19  1  0.658656  0.445870  0.250000  1
  Al  Al20  1  0.553493  0.340578  0.750000  1
  Al  Al21  1  0.446389  0.659895  0.250000  1
  Os  Os22  1  0.000301  0.000135  0.499552  1
  Os  Os23  1  0.000301  0.000135  0.000448  1
  Rh  Rh24  1  0.671247  0.328220  0.499880  1
  Rh  Rh25  1  0.328214  0.671270  0.499899  1
  Rh  Rh26  1  0.328214  0.671270  0.000101  1
  Rh  Rh27  1  0.671247  0.328220  0.000120  1
