# generated using pymatgen
data_Ho16Al4Ru3Rh
_symmetry_space_group_name_H-M   'P 1'
_cell_length_a   9.47565936
_cell_length_b   9.47566078
_cell_length_c   9.45535867
_cell_angle_alpha   59.92894815
_cell_angle_beta   59.92894438
_cell_angle_gamma   59.99999684
_symmetry_Int_Tables_number   1
_chemical_formula_structural   Ho16Al4Ru3Rh
_chemical_formula_sum   'Ho16 Al4 Ru3 Rh1'
_cell_volume   599.67326315
_cell_formula_units_Z   1
loop_
 _symmetry_equiv_pos_site_id
 _symmetry_equiv_pos_as_xyz
  1  'x, y, z'
loop_
 _atom_site_type_symbol
 _atom_site_label
 _atom_site_symmetry_multiplicity
 _atom_site_fract_x
 _atom_site_fract_y
 _atom_site_fract_z
 _atom_site_occupancy
  Ho  Ho0  1  0.187645  0.187645  0.810505  1
  Ho  Ho1  1  0.601891  0.601891  0.194325  1
  Ho  Ho2  1  0.444226  0.056348  0.443077  1
  Ho  Ho3  1  0.443768  0.443768  0.058031  1
  Ho  Ho4  1  0.814206  0.187645  0.810505  1
  Ho  Ho5  1  0.188745  0.811650  0.187955  1
  Ho  Ho6  1  0.443768  0.054433  0.058031  1
  Ho  Ho7  1  0.187645  0.814206  0.810505  1
  Ho  Ho8  1  0.054433  0.443768  0.058031  1
  Ho  Ho9  1  0.811650  0.811650  0.187955  1
  Ho  Ho10  1  0.192765  0.602662  0.601910  1
  Ho  Ho11  1  0.056348  0.444226  0.443077  1
  Ho  Ho12  1  0.056348  0.056348  0.443077  1
  Ho  Ho13  1  0.811650  0.188745  0.187955  1
  Ho  Ho14  1  0.602662  0.192765  0.601910  1
  Ho  Ho15  1  0.602662  0.602662  0.601910  1
  Al  Al16  1  0.827208  0.827208  0.827075  1
  Al  Al17  1  0.827311  0.827311  0.518070  1
  Al  Al18  1  0.518508  0.827208  0.827075  1
  Al  Al19  1  0.827208  0.518508  0.827075  1
  Ru  Ru20  1  0.391337  0.824839  0.392485  1
  Ru  Ru21  1  0.391337  0.391337  0.392485  1
  Ru  Ru22  1  0.824839  0.391337  0.392485  1
  Rh  Rh23  1  0.391838  0.391838  0.824488  1
