# generated using pymatgen
data_CeSmSn5Rh3
_symmetry_space_group_name_H-M   'P 1'
_cell_length_a   13.58980708
_cell_length_b   13.58980670
_cell_length_c   7.29872900
_cell_angle_alpha   90.00000000
_cell_angle_beta   90.00000000
_cell_angle_gamma   160.99369124
_symmetry_Int_Tables_number   1
_chemical_formula_structural   CeSmSn5Rh3
_chemical_formula_sum   'Ce2 Sm2 Sn10 Rh6'
_cell_volume   438.98995285
_cell_formula_units_Z   2
loop_
 _symmetry_equiv_pos_site_id
 _symmetry_equiv_pos_as_xyz
  1  'x, y, z'
loop_
 _atom_site_type_symbol
 _atom_site_label
 _atom_site_symmetry_multiplicity
 _atom_site_fract_x
 _atom_site_fract_y
 _atom_site_fract_z
 _atom_site_occupancy
  Ce  Ce0  1  0.475292  0.524708  0.764593  1
  Ce  Ce1  1  0.524708  0.475292  0.264593  1
  Sm  Sm2  1  0.173179  0.826821  0.747039  1
  Sm  Sm3  1  0.826821  0.173179  0.247039  1
  Sn  Sn4  1  0.879076  0.120924  0.766947  1
  Sn  Sn5  1  0.120924  0.879076  0.266947  1
  Sn  Sn6  1  0.703925  0.296075  0.451547  1
  Sn  Sn7  1  0.296075  0.703925  0.951547  1
  Sn  Sn8  1  0.596955  0.403045  0.886074  1
  Sn  Sn9  1  0.403045  0.596955  0.386074  1
  Sn  Sn10  1  0.951765  0.048235  0.102744  1
  Sn  Sn11  1  0.048235  0.951765  0.602744  1
  Sn  Sn12  1  0.289621  0.710379  0.524126  1
  Sn  Sn13  1  0.710379  0.289621  0.024126  1
  Rh  Rh14  1  0.050840  0.949160  0.982205  1
  Rh  Rh15  1  0.949160  0.050840  0.482205  1
  Rh  Rh16  1  0.777328  0.222672  0.735949  1
  Rh  Rh17  1  0.222672  0.777328  0.235949  1
  Rh  Rh18  1  0.396005  0.603995  0.010776  1
  Rh  Rh19  1  0.603995  0.396005  0.510776  1
