# generated using pymatgen
data_HfZrV2SiP
_symmetry_space_group_name_H-M   'P 1'
_cell_length_a   3.50379400
_cell_length_b   6.71945200
_cell_length_c   8.01622600
_cell_angle_alpha   90.00000000
_cell_angle_beta   90.00000000
_cell_angle_gamma   90.00000000
_symmetry_Int_Tables_number   1
_chemical_formula_structural   HfZrV2SiP
_chemical_formula_sum   'Hf2 Zr2 V4 Si2 P2'
_cell_volume   188.73062286
_cell_formula_units_Z   2
loop_
 _symmetry_equiv_pos_site_id
 _symmetry_equiv_pos_as_xyz
  1  'x, y, z'
loop_
 _atom_site_type_symbol
 _atom_site_label
 _atom_site_symmetry_multiplicity
 _atom_site_fract_x
 _atom_site_fract_y
 _atom_site_fract_z
 _atom_site_occupancy
  Hf  Hf0  1  0.750000  0.955935  0.166351  1
  Hf  Hf1  1  0.750000  0.455935  0.333649  1
  Zr  Zr2  1  0.250000  0.040095  0.829660  1
  Zr  Zr3  1  0.250000  0.540095  0.670340  1
  V  V4  1  0.250000  0.128914  0.444939  1
  V  V5  1  0.250000  0.628914  0.055061  1
  V  V6  1  0.750000  0.874791  0.560378  1
  V  V7  1  0.750000  0.374791  0.939622  1
  Si  Si8  1  0.250000  0.760778  0.363899  1
  Si  Si9  1  0.250000  0.260778  0.136101  1
  P  P10  1  0.750000  0.239488  0.635339  1
  P  P11  1  0.750000  0.739488  0.864661  1
