# generated using pymatgen
data_Cs2NbO2F3
_symmetry_space_group_name_H-M   'P 1'
_cell_length_a   6.30420100
_cell_length_b   8.16923000
_cell_length_c   13.05725200
_cell_angle_alpha   90.00000000
_cell_angle_beta   90.00000000
_cell_angle_gamma   90.00000000
_symmetry_Int_Tables_number   1
_chemical_formula_structural   Cs2NbO2F3
_chemical_formula_sum   'Cs8 Nb4 O8 F12'
_cell_volume   672.45458795
_cell_formula_units_Z   4
loop_
 _symmetry_equiv_pos_site_id
 _symmetry_equiv_pos_as_xyz
  1  'x, y, z'
loop_
 _atom_site_type_symbol
 _atom_site_label
 _atom_site_symmetry_multiplicity
 _atom_site_fract_x
 _atom_site_fract_y
 _atom_site_fract_z
 _atom_site_occupancy
  Cs  Cs0  1  0.250000  0.472630  0.275477  1
  Cs  Cs1  1  0.750000  0.527370  0.724523  1
  Cs  Cs2  1  0.250000  0.972630  0.224523  1
  Cs  Cs3  1  0.750000  0.027370  0.775477  1
  Cs  Cs4  1  0.250000  0.170430  0.586008  1
  Cs  Cs5  1  0.750000  0.829570  0.413992  1
  Cs  Cs6  1  0.250000  0.670430  0.913992  1
  Cs  Cs7  1  0.750000  0.329570  0.086008  1
  Nb  Nb8  1  0.250000  0.186870  0.932275  1
  Nb  Nb9  1  0.750000  0.813130  0.067725  1
  Nb  Nb10  1  0.250000  0.686870  0.567725  1
  Nb  Nb11  1  0.750000  0.313130  0.432275  1
  O  O12  1  0.471239  0.810937  0.608626  1
  O  O13  1  0.971239  0.189063  0.391374  1
  O  O14  1  0.528761  0.689063  0.108626  1
  O  O15  1  0.471239  0.310937  0.891374  1
  O  O16  1  0.971239  0.689063  0.108626  1
  O  O17  1  0.028761  0.810937  0.608626  1
  O  O18  1  0.528761  0.189063  0.391374  1
  O  O19  1  0.028761  0.310937  0.891374  1
  F  F20  1  0.750000  0.478789  0.317511  1
  F  F21  1  0.500000  0.000000  0.000000  1
  F  F22  1  0.000000  0.500000  0.500000  1
  F  F23  1  0.500000  0.500000  0.500000  1
  F  F24  1  0.250000  0.521211  0.682489  1
  F  F25  1  0.750000  0.978789  0.182489  1
  F  F26  1  0.250000  0.021211  0.817511  1
  F  F27  1  0.750000  0.243176  0.582915  1
  F  F28  1  0.250000  0.256824  0.082915  1
  F  F29  1  0.750000  0.743176  0.917085  1
  F  F30  1  0.000000  0.000000  0.000000  1
  F  F31  1  0.250000  0.756824  0.417085  1
