# generated using pymatgen
data_Y3ErTi4Al4O20
_symmetry_space_group_name_H-M   'P 1'
_cell_length_a   5.70277700
_cell_length_b   7.42511805
_cell_length_c   8.46388821
_cell_angle_alpha   89.93882252
_cell_angle_beta   90.00000000
_cell_angle_gamma   90.00000000
_symmetry_Int_Tables_number   1
_chemical_formula_structural   Y3ErTi4Al4O20
_chemical_formula_sum   'Y3 Er1 Ti4 Al4 O20'
_cell_volume   358.39292151
_cell_formula_units_Z   1
loop_
 _symmetry_equiv_pos_site_id
 _symmetry_equiv_pos_as_xyz
  1  'x, y, z'
loop_
 _atom_site_type_symbol
 _atom_site_label
 _atom_site_symmetry_multiplicity
 _atom_site_fract_x
 _atom_site_fract_y
 _atom_site_fract_z
 _atom_site_occupancy
  Y  Y0  1  0.000000  0.640936  0.669759  1
  Y  Y1  1  0.000000  0.857836  0.170341  1
  Y  Y2  1  0.000000  0.141864  0.829559  1
  Er  Er3  1  0.000000  0.356693  0.329817  1
  Ti  Ti4  1  0.500000  0.124338  0.146414  1
  Ti  Ti5  1  0.500000  0.876368  0.854224  1
  Ti  Ti6  1  0.500000  0.623040  0.353659  1
  Ti  Ti7  1  0.500000  0.376094  0.645551  1
  Al  Al8  1  0.242800  0.499721  0.000497  1
  Al  Al9  1  0.756957  0.000640  0.499801  1
  Al  Al10  1  0.757200  0.499721  0.000497  1
  Al  Al11  1  0.243043  0.000640  0.499801  1
  O  O12  1  0.000000  0.340033  0.060140  1
  O  O13  1  0.000000  0.659609  0.941886  1
  O  O14  1  0.000000  0.840767  0.441662  1
  O  O15  1  0.000000  0.161043  0.557354  1
  O  O16  1  0.500000  0.350105  0.071186  1
  O  O17  1  0.500000  0.650020  0.928760  1
  O  O18  1  0.500000  0.850305  0.427474  1
  O  O19  1  0.500000  0.149719  0.571667  1
  O  O20  1  0.250110  0.110853  0.294396  1
  O  O21  1  0.250966  0.892300  0.705912  1
  O  O22  1  0.749501  0.606968  0.206365  1
  O  O23  1  0.748939  0.392209  0.794150  1
  O  O24  1  0.749034  0.892300  0.705912  1
  O  O25  1  0.749890  0.110853  0.294396  1
  O  O26  1  0.251061  0.392209  0.794150  1
  O  O27  1  0.250499  0.606968  0.206365  1
  O  O28  1  0.277168  0.999999  0.000461  1
  O  O29  1  0.723846  0.497924  0.498691  1
  O  O30  1  0.722832  0.999999  0.000461  1
  O  O31  1  0.276154  0.497924  0.498691  1
