# generated using pymatgen
data_CeDy4(MnB3)2
_symmetry_space_group_name_H-M   'P 1'
_cell_length_a   5.44089446
_cell_length_b   5.44089390
_cell_length_c   8.07894282
_cell_angle_alpha   70.32204097
_cell_angle_beta   70.32205736
_cell_angle_gamma   59.99998289
_symmetry_Int_Tables_number   1
_chemical_formula_structural   CeDy4(MnB3)2
_chemical_formula_sum   'Ce1 Dy4 Mn2 B6'
_cell_volume   190.82359440
_cell_formula_units_Z   1
loop_
 _symmetry_equiv_pos_site_id
 _symmetry_equiv_pos_as_xyz
  1  'x, y, z'
loop_
 _atom_site_type_symbol
 _atom_site_label
 _atom_site_symmetry_multiplicity
 _atom_site_fract_x
 _atom_site_fract_y
 _atom_site_fract_z
 _atom_site_occupancy
  Ce  Ce0  1  0.000000  0.000000  0.000000  1
  Dy  Dy1  1  0.251986  0.251986  0.244041  1
  Dy  Dy2  1  0.748014  0.748014  0.755959  1
  Dy  Dy3  1  0.415305  0.415305  0.754087  1
  Dy  Dy4  1  0.584695  0.584695  0.245913  1
  Mn  Mn5  1  0.110014  0.110014  0.669959  1
  Mn  Mn6  1  0.889986  0.889986  0.330041  1
  B  B7  1  0.166326  0.833674  0.500000  1
  B  B8  1  0.833674  0.500000  0.500000  1
  B  B9  1  0.500000  0.166326  0.500000  1
  B  B10  1  0.166326  0.500000  0.500000  1
  B  B11  1  0.500000  0.833674  0.500000  1
  B  B12  1  0.833674  0.166326  0.500000  1
