# generated using pymatgen
data_La4Al3Zn5
_symmetry_space_group_name_H-M   'P 1'
_cell_length_a   7.77073325
_cell_length_b   4.68784200
_cell_length_c   7.59769600
_cell_angle_alpha   90.00000000
_cell_angle_beta   90.85564860
_cell_angle_gamma   90.00000000
_symmetry_Int_Tables_number   1
_chemical_formula_structural   La4Al3Zn5
_chemical_formula_sum   'La4 Al3 Zn5'
_cell_volume   276.73777774
_cell_formula_units_Z   1
loop_
 _symmetry_equiv_pos_site_id
 _symmetry_equiv_pos_as_xyz
  1  'x, y, z'
loop_
 _atom_site_type_symbol
 _atom_site_label
 _atom_site_symmetry_multiplicity
 _atom_site_fract_x
 _atom_site_fract_y
 _atom_site_fract_z
 _atom_site_occupancy
  La  La0  1  0.000848  0.250000  0.293979  1
  La  La1  1  0.508944  0.250000  0.204668  1
  La  La2  1  0.991947  0.750000  0.702818  1
  La  La3  1  0.497314  0.750000  0.801765  1
  Al  Al4  1  0.687637  0.250000  0.590691  1
  Al  Al5  1  0.189085  0.250000  0.911241  1
  Al  Al6  1  0.309415  0.750000  0.409240  1
  Zn  Zn7  1  0.812433  0.750000  0.086959  1
  Zn  Zn8  1  0.314073  0.250000  0.585156  1
  Zn  Zn9  1  0.814960  0.250000  0.914795  1
  Zn  Zn10  1  0.685059  0.750000  0.415043  1
  Zn  Zn11  1  0.188284  0.750000  0.083646  1
