# generated using pymatgen
data_Ho5Si4Ni4P8Ru15
_symmetry_space_group_name_H-M   'P 1'
_cell_length_a   12.52769770
_cell_length_b   12.47159945
_cell_length_c   3.87112300
_cell_angle_alpha   90.00000000
_cell_angle_beta   90.00000000
_cell_angle_gamma   119.49019876
_symmetry_Int_Tables_number   1
_chemical_formula_structural   Ho5Si4Ni4P8Ru15
_chemical_formula_sum   'Ho5 Si4 Ni4 P8 Ru15'
_cell_volume   526.46461925
_cell_formula_units_Z   1
loop_
 _symmetry_equiv_pos_site_id
 _symmetry_equiv_pos_as_xyz
  1  'x, y, z'
loop_
 _atom_site_type_symbol
 _atom_site_label
 _atom_site_symmetry_multiplicity
 _atom_site_fract_x
 _atom_site_fract_y
 _atom_site_fract_z
 _atom_site_occupancy
  Ho  Ho0  1  0.997376  0.815173  0.500000  1
  Ho  Ho1  1  0.185567  0.184463  0.500000  1
  Ho  Ho2  1  0.816075  0.003727  0.500000  1
  Ho  Ho3  1  0.666635  0.334480  0.000000  1
  Ho  Ho4  1  0.338428  0.666997  0.000000  1
  Si  Si5  1  0.683621  0.527207  0.500000  1
  Si  Si6  1  0.474887  0.158235  0.500000  1
  Si  Si7  1  0.837608  0.315331  0.500000  1
  Si  Si8  1  0.315733  0.836482  0.500000  1
  Ni  Ni9  1  0.273751  0.997333  0.500000  1
  Ni  Ni10  1  0.001801  0.000154  0.000000  1
  Ni  Ni11  1  0.631521  0.807708  0.000000  1
  Ni  Ni12  1  0.717260  0.730614  0.500000  1
  P  P13  1  0.168455  0.478257  0.500000  1
  P  P14  1  0.823264  0.829884  0.000000  1
  P  P15  1  0.176482  0.997925  0.000000  1
  P  P16  1  0.996934  0.626437  0.000000  1
  P  P17  1  0.374496  0.371679  0.000000  1
  P  P18  1  0.626970  0.998260  0.000000  1
  P  P19  1  0.522450  0.684194  0.500000  1
  P  P20  1  0.002945  0.177280  0.000000  1
  Ru  Ru21  1  0.005195  0.279153  0.500000  1
  Ru  Ru22  1  0.367879  0.174162  0.000000  1
  Ru  Ru23  1  0.806762  0.637722  0.000000  1
  Ru  Ru24  1  0.818186  0.185660  0.000000  1
  Ru  Ru25  1  0.185261  0.376010  0.000000  1
  Ru  Ru26  1  0.187460  0.818050  0.000000  1
  Ru  Ru27  1  0.875851  0.522092  0.500000  1
  Ru  Ru28  1  0.640104  0.120492  0.500000  1
  Ru  Ru29  1  0.481917  0.358473  0.500000  1
  Ru  Ru30  1  0.362666  0.487566  0.500000  1
  Ru  Ru31  1  0.126310  0.636794  0.500000  1
  Ru  Ru32  1  0.520814  0.869717  0.500000  1
  Ru  Ru33  1  0.994670  0.439336  0.000000  1
  Ru  Ru34  1  0.557364  0.561305  0.000000  1
  Ru  Ru35  1  0.437305  0.991646  0.000000  1
