# generated using pymatgen
data_Y6Er10Cd4Ir3Os
_symmetry_space_group_name_H-M   'P 1'
_cell_length_a   9.64396832
_cell_length_b   9.64383321
_cell_length_c   9.64423902
_cell_angle_alpha   59.44113169
_cell_angle_beta   59.43905449
_cell_angle_gamma   59.44034043
_symmetry_Int_Tables_number   1
_chemical_formula_structural   Y6Er10Cd4Ir3Os
_chemical_formula_sum   'Y6 Er10 Cd4 Ir3 Os1'
_cell_volume   626.16891578
_cell_formula_units_Z   1
loop_
 _symmetry_equiv_pos_site_id
 _symmetry_equiv_pos_as_xyz
  1  'x, y, z'
loop_
 _atom_site_type_symbol
 _atom_site_label
 _atom_site_symmetry_multiplicity
 _atom_site_fract_x
 _atom_site_fract_y
 _atom_site_fract_z
 _atom_site_occupancy
  Y  Y0  1  0.939082  0.561016  0.560998  1
  Y  Y1  1  0.557423  0.939427  0.939412  1
  Y  Y2  1  0.561002  0.939103  0.561018  1
  Y  Y3  1  0.939416  0.557474  0.939391  1
  Y  Y4  1  0.560962  0.561003  0.939090  1
  Y  Y5  1  0.939387  0.939377  0.557472  1
  Er  Er6  1  0.348991  0.349063  0.348995  1
  Er  Er7  1  0.348179  0.348240  0.958158  1
  Er  Er8  1  0.348226  0.958144  0.348208  1
  Er  Er9  1  0.958148  0.348246  0.348197  1
  Er  Er10  1  0.811624  0.188640  0.188624  1
  Er  Er11  1  0.186923  0.809887  0.809978  1
  Er  Er12  1  0.188648  0.811594  0.188625  1
  Er  Er13  1  0.809950  0.186924  0.809925  1
  Er  Er14  1  0.188626  0.188636  0.811628  1
  Er  Er15  1  0.809996  0.809896  0.186905  1
  Cd  Cd16  1  0.579518  0.579526  0.579529  1
  Cd  Cd17  1  0.580242  0.580246  0.257480  1
  Cd  Cd18  1  0.580269  0.257474  0.580232  1
  Cd  Cd19  1  0.257458  0.580274  0.580245  1
  Ir  Ir20  1  0.143272  0.143243  0.577553  1
  Ir  Ir21  1  0.143282  0.577537  0.143272  1
  Ir  Ir22  1  0.577552  0.143252  0.143252  1
  Os  Os23  1  0.141826  0.141780  0.141812  1
