# generated using pymatgen
data_Tb4NdCd3InPd2
_symmetry_space_group_name_H-M   'P 1'
_cell_length_a   8.15602339
_cell_length_b   18.59026417
_cell_length_c   3.63218100
_cell_angle_alpha   90.00000000
_cell_angle_beta   90.00000000
_cell_angle_gamma   89.56584216
_symmetry_Int_Tables_number   1
_chemical_formula_structural   Tb4NdCd3InPd2
_chemical_formula_sum   'Tb8 Nd2 Cd6 In2 Pd4'
_cell_volume   550.70502287
_cell_formula_units_Z   2
loop_
 _symmetry_equiv_pos_site_id
 _symmetry_equiv_pos_as_xyz
  1  'x, y, z'
loop_
 _atom_site_type_symbol
 _atom_site_label
 _atom_site_symmetry_multiplicity
 _atom_site_fract_x
 _atom_site_fract_y
 _atom_site_fract_z
 _atom_site_occupancy
  Tb  Tb0  1  0.742343  0.281138  0.000000  1
  Tb  Tb1  1  0.257657  0.718862  0.000000  1
  Tb  Tb2  1  0.754695  0.779598  0.000000  1
  Tb  Tb3  1  0.245305  0.220402  0.000000  1
  Tb  Tb4  1  0.617626  0.084710  0.000000  1
  Tb  Tb5  1  0.382374  0.915290  0.000000  1
  Tb  Tb6  1  0.883787  0.584651  0.000000  1
  Tb  Tb7  1  0.116213  0.415349  0.000000  1
  Nd  Nd8  1  0.500000  0.500000  0.000000  1
  Nd  Nd9  1  0.000000  0.000000  0.000000  1
  Cd  Cd10  1  0.707317  0.929662  0.500000  1
  Cd  Cd11  1  0.292683  0.070338  0.500000  1
  Cd  Cd12  1  0.792699  0.430602  0.500000  1
  Cd  Cd13  1  0.207301  0.569398  0.500000  1
  Cd  Cd14  1  0.575732  0.649794  0.500000  1
  Cd  Cd15  1  0.424268  0.350206  0.500000  1
  In  In16  1  0.927079  0.151156  0.500000  1
  In  In17  1  0.072921  0.848844  0.500000  1
  Pd  Pd18  1  0.527974  0.195859  0.500000  1
  Pd  Pd19  1  0.472026  0.804141  0.500000  1
  Pd  Pd20  1  0.973323  0.696427  0.500000  1
  Pd  Pd21  1  0.026677  0.303573  0.500000  1
