# generated using pymatgen
data_Tb16Y4Si15Pd
_symmetry_space_group_name_H-M   'P 1'
_cell_length_a   7.48600240
_cell_length_b   7.72538422
_cell_length_c   14.73018500
_cell_angle_alpha   90.15109035
_cell_angle_beta   90.50640744
_cell_angle_gamma   90.17684080
_symmetry_Int_Tables_number   1
_chemical_formula_structural   Tb16Y4Si15Pd
_chemical_formula_sum   'Tb16 Y4 Si15 Pd1'
_cell_volume   851.83930972
_cell_formula_units_Z   1
loop_
 _symmetry_equiv_pos_site_id
 _symmetry_equiv_pos_as_xyz
  1  'x, y, z'
loop_
 _atom_site_type_symbol
 _atom_site_label
 _atom_site_symmetry_multiplicity
 _atom_site_fract_x
 _atom_site_fract_y
 _atom_site_fract_z
 _atom_site_occupancy
  Tb  Tb0  1  0.680671  0.169888  0.620529  1
  Tb  Tb1  1  0.183334  0.321871  0.877267  1
  Tb  Tb2  1  0.318264  0.819471  0.121208  1
  Tb  Tb3  1  0.821088  0.681970  0.379535  1
  Tb  Tb4  1  0.321884  0.825488  0.378383  1
  Tb  Tb5  1  0.817295  0.679900  0.122008  1
  Tb  Tb6  1  0.681231  0.179677  0.877749  1
  Tb  Tb7  1  0.178440  0.320768  0.623201  1
  Tb  Tb8  1  0.525332  0.680695  0.600240  1
  Tb  Tb9  1  0.028958  0.816529  0.901229  1
  Tb  Tb10  1  0.469846  0.317108  0.098972  1
  Tb  Tb11  1  0.974528  0.180948  0.399305  1
  Tb  Tb12  1  0.471717  0.318652  0.400369  1
  Tb  Tb13  1  0.969629  0.183115  0.098579  1
  Tb  Tb14  1  0.531173  0.683249  0.900071  1
  Tb  Tb15  1  0.026212  0.817204  0.600531  1
  Y  Y16  1  0.851325  0.508052  0.749736  1
  Y  Y17  1  0.350390  0.989142  0.748527  1
  Y  Y18  1  0.149510  0.488935  0.250561  1
  Y  Y19  1  0.651904  0.011563  0.252470  1
  Si  Si20  1  0.144083  0.527742  0.040133  1
  Si  Si21  1  0.354060  0.029320  0.959933  1
  Si  Si22  1  0.851719  0.471785  0.541520  1
  Si  Si23  1  0.344498  0.028005  0.542189  1
  Si  Si24  1  0.855931  0.471543  0.959255  1
  Si  Si25  1  0.643905  0.971347  0.039187  1
  Si  Si26  1  0.147634  0.530564  0.461077  1
  Si  Si27  1  0.478608  0.394575  0.750011  1
  Si  Si28  1  0.976019  0.103506  0.752121  1
  Si  Si29  1  0.523225  0.606194  0.248582  1
  Si  Si30  1  0.026197  0.895451  0.247185  1
  Si  Si31  1  0.734502  0.871526  0.751977  1
  Si  Si32  1  0.234002  0.627083  0.751220  1
  Si  Si33  1  0.266877  0.126312  0.246895  1
  Si  Si34  1  0.765838  0.375382  0.248645  1
  Pd  Pd35  1  0.650169  0.975438  0.459598  1
