# generated using pymatgen
data_Y7Ho(PBr6)2
_symmetry_space_group_name_H-M   'P 1'
_cell_length_a   3.99750800
_cell_length_b   13.16373073
_cell_length_c   13.92894400
_cell_angle_alpha   90.01911204
_cell_angle_beta   90.00000000
_cell_angle_gamma   90.00000000
_symmetry_Int_Tables_number   1
_chemical_formula_structural   Y7Ho(PBr6)2
_chemical_formula_sum   'Y7 Ho1 P2 Br12'
_cell_volume   732.97050671
_cell_formula_units_Z   1
loop_
 _symmetry_equiv_pos_site_id
 _symmetry_equiv_pos_as_xyz
  1  'x, y, z'
loop_
 _atom_site_type_symbol
 _atom_site_label
 _atom_site_symmetry_multiplicity
 _atom_site_fract_x
 _atom_site_fract_y
 _atom_site_fract_z
 _atom_site_occupancy
  Y  Y0  1  0.500000  0.117971  0.343722  1
  Y  Y1  1  0.500000  0.881979  0.656376  1
  Y  Y2  1  0.500000  0.617721  0.155948  1
  Y  Y3  1  0.500000  0.382303  0.843998  1
  Y  Y4  1  0.000000  0.114483  0.576890  1
  Y  Y5  1  0.000000  0.885563  0.423086  1
  Y  Y6  1  0.000000  0.613768  0.923545  1
  Ho  Ho7  1  0.000000  0.386181  0.076326  1
  P  P8  1  0.500000  0.999983  0.500051  1
  P  P9  1  0.500000  0.499178  0.000537  1
  Br  Br10  1  0.500000  0.247059  0.163267  1
  Br  Br11  1  0.500000  0.754428  0.836043  1
  Br  Br12  1  0.500000  0.745126  0.335768  1
  Br  Br13  1  0.500000  0.254740  0.664331  1
  Br  Br14  1  0.000000  0.256955  0.414259  1
  Br  Br15  1  0.000000  0.743074  0.585639  1
  Br  Br16  1  0.000000  0.756728  0.085720  1
  Br  Br17  1  0.000000  0.243792  0.915526  1
  Br  Br18  1  0.000000  0.001279  0.242745  1
  Br  Br19  1  0.000000  0.998890  0.757217  1
  Br  Br20  1  0.000000  0.500072  0.256067  1
  Br  Br21  1  0.000000  0.498727  0.742941  1
