# generated using pymatgen
data_Tb4Ga18(PdRh)3
_symmetry_space_group_name_H-M   'P 1'
_cell_length_a   7.63510420
_cell_length_b   7.63510333
_cell_length_c   9.54020528
_cell_angle_alpha   89.98649074
_cell_angle_beta   89.98648901
_cell_angle_gamma   119.92086150
_symmetry_Int_Tables_number   1
_chemical_formula_structural   Tb4Ga18(PdRh)3
_chemical_formula_sum   'Tb4 Ga18 Pd3 Rh3'
_cell_volume   482.01878899
_cell_formula_units_Z   1
loop_
 _symmetry_equiv_pos_site_id
 _symmetry_equiv_pos_as_xyz
  1  'x, y, z'
loop_
 _atom_site_type_symbol
 _atom_site_label
 _atom_site_symmetry_multiplicity
 _atom_site_fract_x
 _atom_site_fract_y
 _atom_site_fract_z
 _atom_site_occupancy
  Tb  Tb0  1  0.997782  0.668202  0.249764  1
  Tb  Tb1  1  0.003620  0.332913  0.750359  1
  Tb  Tb2  1  0.667087  0.996380  0.249641  1
  Tb  Tb3  1  0.331798  0.002218  0.750236  1
  Ga  Ga4  1  0.124738  0.125781  0.250485  1
  Ga  Ga5  1  0.874219  0.875262  0.749515  1
  Ga  Ga6  1  0.999756  0.330953  0.080366  1
  Ga  Ga7  1  0.000045  0.669082  0.919115  1
  Ga  Ga8  1  0.997691  0.665933  0.578840  1
  Ga  Ga9  1  0.334067  0.002309  0.421160  1
  Ga  Ga10  1  0.995372  0.330639  0.421631  1
  Ga  Ga11  1  0.669361  0.004628  0.578369  1
  Ga  Ga12  1  0.669047  0.000244  0.919634  1
  Ga  Ga13  1  0.330918  0.999955  0.080885  1
  Ga  Ga14  1  0.331789  0.328913  0.564392  1
  Ga  Ga15  1  0.671087  0.668211  0.435608  1
  Ga  Ga16  1  0.670041  0.669913  0.066775  1
  Ga  Ga17  1  0.330087  0.329959  0.933225  1
  Ga  Ga18  1  0.339336  0.543117  0.250627  1
  Ga  Ga19  1  0.660350  0.454441  0.747179  1
  Ga  Ga20  1  0.545559  0.339650  0.252821  1
  Ga  Ga21  1  0.456883  0.660664  0.749373  1
  Pd  Pd22  1  0.671327  0.328673  0.000000  1
  Pd  Pd23  1  0.328527  0.671473  0.000000  1
  Pd  Pd24  1  0.328245  0.671755  0.500000  1
  Rh  Rh25  1  0.671364  0.328636  0.500000  1
  Rh  Rh26  1  0.000039  0.999961  0.000000  1
  Rh  Rh27  1  0.999862  0.000138  0.500000  1
