# generated using pymatgen
data_Pa8Re(B8Mo)3
_symmetry_space_group_name_H-M   'P 1'
_cell_length_a   3.74678000
_cell_length_b   9.38355113
_cell_length_c   11.52113933
_cell_angle_alpha   89.99590721
_cell_angle_beta   90.00000000
_cell_angle_gamma   90.00000000
_symmetry_Int_Tables_number   1
_chemical_formula_structural   Pa8Re(B8Mo)3
_chemical_formula_sum   'Pa8 Re1 B24 Mo3'
_cell_volume   405.06138737
_cell_formula_units_Z   1
loop_
 _symmetry_equiv_pos_site_id
 _symmetry_equiv_pos_as_xyz
  1  'x, y, z'
loop_
 _atom_site_type_symbol
 _atom_site_label
 _atom_site_symmetry_multiplicity
 _atom_site_fract_x
 _atom_site_fract_y
 _atom_site_fract_z
 _atom_site_occupancy
  Pa  Pa0  1  0.000000  0.334431  0.407943  1
  Pa  Pa1  1  0.000000  0.664607  0.591004  1
  Pa  Pa2  1  0.000000  0.834573  0.092649  1
  Pa  Pa3  1  0.000000  0.166010  0.908542  1
  Pa  Pa4  1  0.000000  0.952708  0.387244  1
  Pa  Pa5  1  0.000000  0.048272  0.612356  1
  Pa  Pa6  1  0.000000  0.452923  0.113017  1
  Pa  Pa7  1  0.000000  0.546236  0.887114  1
  Re  Re8  1  0.000000  0.855739  0.820516  1
  B  B9  1  0.500000  0.550558  0.432551  1
  B  B10  1  0.500000  0.449614  0.567617  1
  B  B11  1  0.500000  0.049959  0.067199  1
  B  B12  1  0.500000  0.949297  0.931784  1
  B  B13  1  0.500000  0.742081  0.424142  1
  B  B14  1  0.500000  0.257874  0.576261  1
  B  B15  1  0.500000  0.241983  0.076041  1
  B  B16  1  0.500000  0.757831  0.923077  1
  B  B17  1  0.500000  0.801173  0.273760  1
  B  B18  1  0.500000  0.198387  0.726565  1
  B  B19  1  0.500000  0.300986  0.226084  1
  B  B20  1  0.500000  0.699587  0.774001  1
  B  B21  1  0.500000  0.645485  0.188360  1
  B  B22  1  0.500000  0.354730  0.811709  1
  B  B23  1  0.500000  0.144964  0.311317  1
  B  B24  1  0.500000  0.855411  0.689044  1
  B  B25  1  0.500000  0.987611  0.217508  1
  B  B26  1  0.500000  0.011453  0.782821  1
  B  B27  1  0.500000  0.487948  0.282350  1
  B  B28  1  0.500000  0.512782  0.717606  1
  B  B29  1  0.500000  0.644382  0.039432  1
  B  B30  1  0.500000  0.356351  0.960226  1
  B  B31  1  0.500000  0.143604  0.460073  1
  B  B32  1  0.500000  0.856291  0.540560  1
  Mo  Mo33  1  0.000000  0.644549  0.320362  1
  Mo  Mo34  1  0.000000  0.355564  0.679954  1
  Mo  Mo35  1  0.000000  0.144051  0.179213  1
