# generated using pymatgen
data_Dy3Ag(Rh2O7)2
_symmetry_space_group_name_H-M   'P 1'
_cell_length_a   7.30883389
_cell_length_b   7.30883257
_cell_length_c   7.13752960
_cell_angle_alpha   59.20284553
_cell_angle_beta   59.20284966
_cell_angle_gamma   60.00000213
_symmetry_Int_Tables_number   1
_chemical_formula_structural   Dy3Ag(Rh2O7)2
_chemical_formula_sum   'Dy3 Ag1 Rh4 O14'
_cell_volume   266.31141347
_cell_formula_units_Z   1
loop_
 _symmetry_equiv_pos_site_id
 _symmetry_equiv_pos_as_xyz
  1  'x, y, z'
loop_
 _atom_site_type_symbol
 _atom_site_label
 _atom_site_symmetry_multiplicity
 _atom_site_fract_x
 _atom_site_fract_y
 _atom_site_fract_z
 _atom_site_occupancy
  Dy  Dy0  1  0.125000  0.625000  0.125000  1
  Dy  Dy1  1  0.625000  0.125000  0.125000  1
  Dy  Dy2  1  0.125000  0.125000  0.125000  1
  Ag  Ag3  1  0.125000  0.125000  0.625000  1
  Rh  Rh4  1  0.625000  0.625000  0.625000  1
  Rh  Rh5  1  0.125000  0.625000  0.625000  1
  Rh  Rh6  1  0.625000  0.125000  0.625000  1
  Rh  Rh7  1  0.625000  0.625000  0.125000  1
  O  O8  1  0.297529  0.695231  0.709711  1
  O  O9  1  0.536614  0.961072  0.965701  1
  O  O10  1  0.695231  0.297529  0.709711  1
  O  O11  1  0.297529  0.297529  0.709711  1
  O  O12  1  0.713386  0.713386  0.284299  1
  O  O13  1  0.003115  0.003115  0.990654  1
  O  O14  1  0.288928  0.713386  0.284299  1
  O  O15  1  0.961072  0.536614  0.965701  1
  O  O16  1  0.952471  0.952471  0.540289  1
  O  O17  1  0.536614  0.536614  0.965701  1
  O  O18  1  0.246885  0.246885  0.259346  1
  O  O19  1  0.554769  0.952471  0.540289  1
  O  O20  1  0.713386  0.288928  0.284299  1
  O  O21  1  0.952471  0.554769  0.540289  1
