# generated using pymatgen
data_Tb4Sn3Sb3Rh7
_symmetry_space_group_name_H-M   'P 1'
_cell_length_a   7.62157201
_cell_length_b   7.63053950
_cell_length_c   7.63053866
_cell_angle_alpha   109.49501049
_cell_angle_beta   109.44741789
_cell_angle_gamma   109.44741993
_symmetry_Int_Tables_number   1
_chemical_formula_structural   Tb4Sn3Sb3Rh7
_chemical_formula_sum   'Tb4 Sn3 Sb3 Rh7'
_cell_volume   341.71229318
_cell_formula_units_Z   1
loop_
 _symmetry_equiv_pos_site_id
 _symmetry_equiv_pos_as_xyz
  1  'x, y, z'
loop_
 _atom_site_type_symbol
 _atom_site_label
 _atom_site_symmetry_multiplicity
 _atom_site_fract_x
 _atom_site_fract_y
 _atom_site_fract_z
 _atom_site_occupancy
  Tb  Tb0  1  0.487459  0.000000  0.000000  1
  Tb  Tb1  1  0.997764  0.502753  0.000000  1
  Tb  Tb2  1  0.997764  0.000000  0.502753  1
  Tb  Tb3  1  0.495011  0.497247  0.497247  1
  Sn  Sn4  1  0.992954  0.307568  0.307568  1
  Sn  Sn5  1  0.685386  0.000000  0.692432  1
  Sn  Sn6  1  0.685386  0.692432  0.000000  1
  Sb  Sb7  1  0.995122  0.674228  0.674228  1
  Sb  Sb8  1  0.320894  0.000000  0.325772  1
  Sb  Sb9  1  0.320894  0.325772  0.000000  1
  Rh  Rh10  1  0.017044  0.000000  0.000000  1
  Rh  Rh11  1  0.502865  0.753250  0.253185  1
  Rh  Rh12  1  0.749615  0.499935  0.246750  1
  Rh  Rh13  1  0.249680  0.746815  0.500065  1
  Rh  Rh14  1  0.249680  0.500065  0.746815  1
  Rh  Rh15  1  0.502865  0.253185  0.753250  1
  Rh  Rh16  1  0.749615  0.246750  0.499935  1
