# generated using pymatgen
data_Eu2Sc3Sn4
_symmetry_space_group_name_H-M   'P 1'
_cell_length_a   7.86495900
_cell_length_b   8.14926000
_cell_length_c   15.19063200
_cell_angle_alpha   90.00000000
_cell_angle_beta   90.00000000
_cell_angle_gamma   90.00000000
_symmetry_Int_Tables_number   1
_chemical_formula_structural   Eu2Sc3Sn4
_chemical_formula_sum   'Eu8 Sc12 Sn16'
_cell_volume   973.62222706
_cell_formula_units_Z   4
loop_
 _symmetry_equiv_pos_site_id
 _symmetry_equiv_pos_as_xyz
  1  'x, y, z'
loop_
 _atom_site_type_symbol
 _atom_site_label
 _atom_site_symmetry_multiplicity
 _atom_site_fract_x
 _atom_site_fract_y
 _atom_site_fract_z
 _atom_site_occupancy
  Eu  Eu0  1  0.995634  0.175792  0.092674  1
  Eu  Eu1  1  0.004366  0.824208  0.907326  1
  Eu  Eu2  1  0.504366  0.675792  0.907326  1
  Eu  Eu3  1  0.004366  0.824208  0.592674  1
  Eu  Eu4  1  0.495634  0.324208  0.092674  1
  Eu  Eu5  1  0.995634  0.175792  0.407326  1
  Eu  Eu6  1  0.495634  0.324208  0.407326  1
  Eu  Eu7  1  0.504366  0.675792  0.592674  1
  Sc  Sc8  1  0.165397  0.497370  0.750000  1
  Sc  Sc9  1  0.834603  0.502630  0.250000  1
  Sc  Sc10  1  0.334603  0.997370  0.250000  1
  Sc  Sc11  1  0.665397  0.002630  0.750000  1
  Sc  Sc12  1  0.333364  0.160885  0.626366  1
  Sc  Sc13  1  0.666636  0.839115  0.373634  1
  Sc  Sc14  1  0.166636  0.660885  0.373634  1
  Sc  Sc15  1  0.666636  0.839115  0.126366  1
  Sc  Sc16  1  0.833364  0.339115  0.626366  1
  Sc  Sc17  1  0.333364  0.160885  0.873634  1
  Sc  Sc18  1  0.833364  0.339115  0.873634  1
  Sc  Sc19  1  0.166636  0.660885  0.126366  1
  Sn  Sn20  1  0.027635  0.127532  0.750000  1
  Sn  Sn21  1  0.972365  0.872468  0.250000  1
  Sn  Sn22  1  0.472365  0.627532  0.250000  1
  Sn  Sn23  1  0.527635  0.372468  0.750000  1
  Sn  Sn24  1  0.303926  0.860086  0.750000  1
  Sn  Sn25  1  0.696074  0.139914  0.250000  1
  Sn  Sn26  1  0.196074  0.360086  0.250000  1
  Sn  Sn27  1  0.803926  0.639914  0.750000  1
  Sn  Sn28  1  0.169727  0.456667  0.543874  1
  Sn  Sn29  1  0.830273  0.543333  0.456126  1
  Sn  Sn30  1  0.330273  0.956667  0.456126  1
  Sn  Sn31  1  0.830273  0.543333  0.043874  1
  Sn  Sn32  1  0.669727  0.043333  0.543874  1
  Sn  Sn33  1  0.169727  0.456667  0.956126  1
  Sn  Sn34  1  0.669727  0.043333  0.956126  1
  Sn  Sn35  1  0.330273  0.956667  0.043874  1
