# generated using pymatgen
data_Rb3YbIr2O9
_symmetry_space_group_name_H-M   'P 1'
_cell_length_a   6.13049379
_cell_length_b   6.13049269
_cell_length_c   14.79206100
_cell_angle_alpha   89.89248319
_cell_angle_beta   89.89249255
_cell_angle_gamma   120.02689340
_symmetry_Int_Tables_number   1
_chemical_formula_structural   Rb3YbIr2O9
_chemical_formula_sum   'Rb6 Yb2 Ir4 O18'
_cell_volume   481.31493770
_cell_formula_units_Z   2
loop_
 _symmetry_equiv_pos_site_id
 _symmetry_equiv_pos_as_xyz
  1  'x, y, z'
loop_
 _atom_site_type_symbol
 _atom_site_label
 _atom_site_symmetry_multiplicity
 _atom_site_fract_x
 _atom_site_fract_y
 _atom_site_fract_z
 _atom_site_occupancy
  Rb  Rb0  1  0.334217  0.668311  0.902348  1
  Rb  Rb1  1  0.331689  0.665783  0.597652  1
  Rb  Rb2  1  0.665783  0.331689  0.097652  1
  Rb  Rb3  1  0.668311  0.334217  0.402348  1
  Rb  Rb4  1  0.999542  0.000458  0.750000  1
  Rb  Rb5  1  0.000458  0.999542  0.250000  1
  Yb  Yb6  1  0.000000  0.000000  0.500000  1
  Yb  Yb7  1  0.000000  0.000000  0.000000  1
  Ir  Ir8  1  0.668513  0.335616  0.847520  1
  Ir  Ir9  1  0.664384  0.331487  0.652480  1
  Ir  Ir10  1  0.335616  0.668513  0.347520  1
  Ir  Ir11  1  0.331487  0.664384  0.152480  1
  O  O12  1  0.821891  0.641063  0.911757  1
  O  O13  1  0.358937  0.178109  0.588243  1
  O  O14  1  0.178109  0.358937  0.088243  1
  O  O15  1  0.641063  0.821891  0.411757  1
  O  O16  1  0.821720  0.184913  0.913016  1
  O  O17  1  0.815087  0.178280  0.586984  1
  O  O18  1  0.178280  0.815087  0.086984  1
  O  O19  1  0.184913  0.821720  0.413016  1
  O  O20  1  0.365876  0.184965  0.914099  1
  O  O21  1  0.815035  0.634124  0.585901  1
  O  O22  1  0.634124  0.815035  0.085901  1
  O  O23  1  0.184965  0.365876  0.414099  1
  O  O24  1  0.465691  0.534309  0.250000  1
  O  O25  1  0.534309  0.465691  0.750000  1
  O  O26  1  0.465819  0.930816  0.248970  1
  O  O27  1  0.069184  0.534181  0.251030  1
  O  O28  1  0.534181  0.069184  0.751030  1
  O  O29  1  0.930816  0.465819  0.748970  1
