# generated using pymatgen
data_La2Te2W2O13
_symmetry_space_group_name_H-M   'P 1'
_cell_length_a   6.83479801
_cell_length_b   7.01758104
_cell_length_c   11.85737683
_cell_angle_alpha   90.56364824
_cell_angle_beta   98.52810275
_cell_angle_gamma   93.27426277
_symmetry_Int_Tables_number   1
_chemical_formula_structural   La2Te2W2O13
_chemical_formula_sum   'La4 Te4 W4 O26'
_cell_volume   561.42132782
_cell_formula_units_Z   2
loop_
 _symmetry_equiv_pos_site_id
 _symmetry_equiv_pos_as_xyz
  1  'x, y, z'
loop_
 _atom_site_type_symbol
 _atom_site_label
 _atom_site_symmetry_multiplicity
 _atom_site_fract_x
 _atom_site_fract_y
 _atom_site_fract_z
 _atom_site_occupancy
  La  La0  1  0.232139  0.128825  0.119789  1
  La  La1  1  0.634862  0.369192  0.368467  1
  La  La2  1  0.365138  0.630807  0.631533  1
  La  La3  1  0.767861  0.871174  0.880211  1
  Te  Te4  1  0.750883  0.387093  0.051569  1
  Te  Te5  1  0.173708  0.178160  0.443570  1
  Te  Te6  1  0.826292  0.821840  0.556430  1
  Te  Te7  1  0.249117  0.612907  0.948431  1
  W  W8  1  0.754153  0.878527  0.187074  1
  W  W9  1  0.108620  0.620263  0.295995  1
  W  W10  1  0.891380  0.379737  0.704005  1
  W  W11  1  0.245846  0.121472  0.812926  1
  O  O12  1  0.724538  0.665555  0.049160  1
  O  O13  1  0.839209  0.043707  0.070762  1
  O  O14  1  0.006917  0.413112  0.145782  1
  O  O15  1  0.489524  0.895108  0.149227  1
  O  O16  1  0.579998  0.319360  0.157522  1
  O  O17  1  0.072994  0.826898  0.194320  1
  O  O18  1  0.343683  0.535948  0.274582  1
  O  O19  1  0.801328  0.649865  0.280828  1
  O  O20  1  0.799100  0.042293  0.310153  1
  O  O21  1  0.320245  0.139649  0.322823  1
  O  O22  1  0.015524  0.385445  0.378774  1
  O  O23  1  0.177290  0.750630  0.431051  1
  O  O24  1  0.616829  0.657868  0.484649  1
  O  O25  1  0.383171  0.342133  0.515351  1
  O  O26  1  0.822710  0.249369  0.568949  1
  O  O27  1  0.984476  0.614555  0.621226  1
  O  O28  1  0.679755  0.860352  0.677177  1
  O  O29  1  0.200900  0.957708  0.689847  1
  O  O30  1  0.198672  0.350135  0.719172  1
  O  O31  1  0.656317  0.464052  0.725418  1
  O  O32  1  0.927006  0.173102  0.805680  1
  O  O33  1  0.420002  0.680639  0.842478  1
  O  O34  1  0.510476  0.104893  0.850773  1
  O  O35  1  0.993082  0.586888  0.854218  1
  O  O36  1  0.160791  0.956293  0.929238  1
  O  O37  1  0.275462  0.334445  0.950840  1
