# generated using pymatgen
data_Lu20(Ir3Rh)3
_symmetry_space_group_name_H-M   'P 1'
_cell_length_a   10.66653906
_cell_length_b   10.66781801
_cell_length_c   6.28987100
_cell_angle_alpha   89.99765292
_cell_angle_beta   89.99416650
_cell_angle_gamma   90.00158955
_symmetry_Int_Tables_number   1
_chemical_formula_structural   Lu20(Ir3Rh)3
_chemical_formula_sum   'Lu20 Ir9 Rh3'
_cell_volume   715.71622376
_cell_formula_units_Z   1
loop_
 _symmetry_equiv_pos_site_id
 _symmetry_equiv_pos_as_xyz
  1  'x, y, z'
loop_
 _atom_site_type_symbol
 _atom_site_label
 _atom_site_symmetry_multiplicity
 _atom_site_fract_x
 _atom_site_fract_y
 _atom_site_fract_z
 _atom_site_occupancy
  Lu  Lu0  1  0.791032  0.411782  0.123011  1
  Lu  Lu1  1  0.791347  0.587963  0.620626  1
  Lu  Lu2  1  0.911905  0.708995  0.122984  1
  Lu  Lu3  1  0.912156  0.291337  0.620616  1
  Lu  Lu4  1  0.088127  0.708656  0.620662  1
  Lu  Lu5  1  0.088364  0.291017  0.123001  1
  Lu  Lu6  1  0.290970  0.087621  0.378400  1
  Lu  Lu7  1  0.290911  0.912091  0.878133  1
  Lu  Lu8  1  0.709097  0.087916  0.878080  1
  Lu  Lu9  1  0.709033  0.912335  0.378369  1
  Lu  Lu10  1  0.587869  0.790866  0.878071  1
  Lu  Lu11  1  0.587612  0.209046  0.378371  1
  Lu  Lu12  1  0.412250  0.790832  0.378427  1
  Lu  Lu13  1  0.411971  0.209212  0.878116  1
  Lu  Lu14  1  0.208648  0.412108  0.620444  1
  Lu  Lu15  1  0.208989  0.588114  0.122962  1
  Lu  Lu16  1  0.000067  0.999956  0.500083  1
  Lu  Lu17  1  0.000070  0.000047  0.999857  1
  Lu  Lu18  1  0.499880  0.500026  0.000043  1
  Lu  Lu19  1  0.499874  0.499955  0.500247  1
  Ir  Ir20  1  0.845641  0.153156  0.250023  1
  Ir  Ir21  1  0.845938  0.846376  0.750192  1
  Ir  Ir22  1  0.154021  0.153644  0.750086  1
  Ir  Ir23  1  0.154296  0.846817  0.249875  1
  Ir  Ir24  1  0.653612  0.345911  0.750221  1
  Ir  Ir25  1  0.653123  0.654341  0.249987  1
  Ir  Ir26  1  0.346811  0.345578  0.249862  1
  Ir  Ir27  1  0.346302  0.654080  0.750152  1
  Ir  Ir28  1  0.999733  0.500038  0.375162  1
  Rh  Rh29  1  0.500072  0.000018  0.123513  1
  Rh  Rh30  1  0.500074  0.999969  0.623669  1
  Rh  Rh31  1  0.000204  0.500202  0.876757  1
