# generated using pymatgen
data_Zr6MnBiTe
_symmetry_space_group_name_H-M   'P 1'
_cell_length_a   3.66794300
_cell_length_b   7.90793150
_cell_length_c   7.90793100
_cell_angle_alpha   119.99999374
_cell_angle_beta   90.00000000
_cell_angle_gamma   90.00000000
_symmetry_Int_Tables_number   1
_chemical_formula_structural   Zr6MnBiTe
_chemical_formula_sum   'Zr6 Mn1 Bi1 Te1'
_cell_volume   198.64562613
_cell_formula_units_Z   1
loop_
 _symmetry_equiv_pos_site_id
 _symmetry_equiv_pos_as_xyz
  1  'x, y, z'
loop_
 _atom_site_type_symbol
 _atom_site_label
 _atom_site_symmetry_multiplicity
 _atom_site_fract_x
 _atom_site_fract_y
 _atom_site_fract_z
 _atom_site_occupancy
  Zr  Zr0  1  0.500000  0.761050  0.762459  1
  Zr  Zr1  1  0.500000  0.001409  0.238950  1
  Zr  Zr2  1  0.500000  0.237541  0.998591  1
  Zr  Zr3  1  0.000000  0.393741  0.402300  1
  Zr  Zr4  1  0.000000  0.008559  0.606259  1
  Zr  Zr5  1  0.000000  0.597700  0.991441  1
  Mn  Mn6  1  0.000000  0.000000  0.000000  1
  Bi  Bi7  1  0.500000  0.666667  0.333333  1
  Te  Te8  1  0.500000  0.333333  0.666667  1
