# generated using pymatgen
data_Li2Y3ZnIr2Pd
_symmetry_space_group_name_H-M   'P 1'
_cell_length_a   7.13211016
_cell_length_b   7.13211014
_cell_length_c   3.97734800
_cell_angle_alpha   90.00000000
_cell_angle_beta   90.00000000
_cell_angle_gamma   119.84837216
_symmetry_Int_Tables_number   1
_chemical_formula_structural   Li2Y3ZnIr2Pd
_chemical_formula_sum   'Li2 Y3 Zn1 Ir2 Pd1'
_cell_volume   175.47766276
_cell_formula_units_Z   1
loop_
 _symmetry_equiv_pos_site_id
 _symmetry_equiv_pos_as_xyz
  1  'x, y, z'
loop_
 _atom_site_type_symbol
 _atom_site_label
 _atom_site_symmetry_multiplicity
 _atom_site_fract_x
 _atom_site_fract_y
 _atom_site_fract_z
 _atom_site_occupancy
  Li  Li0  1  0.240306  0.998899  0.500000  1
  Li  Li1  1  0.998899  0.240306  0.500000  1
  Y  Y2  1  0.584912  0.997971  0.000000  1
  Y  Y3  1  0.997971  0.584912  0.000000  1
  Y  Y4  1  0.417823  0.417823  0.000000  1
  Zn  Zn5  1  0.756707  0.756707  0.500000  1
  Ir  Ir6  1  0.337864  0.668257  0.500000  1
  Ir  Ir7  1  0.668257  0.337864  0.500000  1
  Pd  Pd8  1  0.997261  0.997261  0.000000  1
