# generated using pymatgen
data_Ti2Cu2Re
_symmetry_space_group_name_H-M   'P 1'
_cell_length_a   3.15878147
_cell_length_b   3.15878167
_cell_length_c   7.47653188
_cell_angle_alpha   102.19540281
_cell_angle_beta   102.19539819
_cell_angle_gamma   89.99999646
_symmetry_Int_Tables_number   1
_chemical_formula_structural   Ti2Cu2Re
_chemical_formula_sum   'Ti2 Cu2 Re1'
_cell_volume   71.19327413
_cell_formula_units_Z   1
loop_
 _symmetry_equiv_pos_site_id
 _symmetry_equiv_pos_as_xyz
  1  'x, y, z'
loop_
 _atom_site_type_symbol
 _atom_site_label
 _atom_site_symmetry_multiplicity
 _atom_site_fract_x
 _atom_site_fract_y
 _atom_site_fract_z
 _atom_site_occupancy
  Ti  Ti0  1  0.604076  0.604076  0.208155  1
  Ti  Ti1  1  0.395922  0.395922  0.791844  1
  Cu  Cu2  1  0.206077  0.206077  0.412154  1
  Cu  Cu3  1  0.793922  0.793922  0.587847  1
  Re  Re4  1  0.000000  0.000000  0.000000  1
