# generated using pymatgen
data_Gd3MgGa4Pd
_symmetry_space_group_name_H-M   'P 1'
_cell_length_a   7.07668100
_cell_length_b   6.97549341
_cell_length_c   4.36010900
_cell_angle_alpha   90.00000000
_cell_angle_beta   90.00000000
_cell_angle_gamma   120.48103597
_symmetry_Int_Tables_number   1
_chemical_formula_structural   Gd3MgGa4Pd
_chemical_formula_sum   'Gd3 Mg1 Ga4 Pd1'
_cell_volume   185.48420256
_cell_formula_units_Z   1
loop_
 _symmetry_equiv_pos_site_id
 _symmetry_equiv_pos_as_xyz
  1  'x, y, z'
loop_
 _atom_site_type_symbol
 _atom_site_label
 _atom_site_symmetry_multiplicity
 _atom_site_fract_x
 _atom_site_fract_y
 _atom_site_fract_z
 _atom_site_occupancy
  Gd  Gd0  1  0.588263  0.000000  0.000000  1
  Gd  Gd1  1  0.421093  0.419043  0.000000  1
  Gd  Gd2  1  0.002049  0.580957  0.000000  1
  Mg  Mg3  1  0.228952  0.000000  0.500000  1
  Ga  Ga4  1  0.001341  0.241645  0.500000  1
  Ga  Ga5  1  0.672325  0.335211  0.500000  1
  Ga  Ga6  1  0.337115  0.664789  0.500000  1
  Ga  Ga7  1  0.759697  0.758356  0.500000  1
  Pd  Pd8  1  0.989163  0.000000  0.000000  1
