# generated using pymatgen
data_CsRb3MnHgI8
_symmetry_space_group_name_H-M   'P 1'
_cell_length_a   8.52059000
_cell_length_b   8.32458607
_cell_length_c   10.47430800
_cell_angle_alpha   71.61876107
_cell_angle_beta   90.00000000
_cell_angle_gamma   90.00000000
_symmetry_Int_Tables_number   1
_chemical_formula_structural   CsRb3MnHgI8
_chemical_formula_sum   'Cs1 Rb3 Mn1 Hg1 I8'
_cell_volume   705.04104944
_cell_formula_units_Z   1
loop_
 _symmetry_equiv_pos_site_id
 _symmetry_equiv_pos_as_xyz
  1  'x, y, z'
loop_
 _atom_site_type_symbol
 _atom_site_label
 _atom_site_symmetry_multiplicity
 _atom_site_fract_x
 _atom_site_fract_y
 _atom_site_fract_z
 _atom_site_occupancy
  Cs  Cs0  1  0.750000  0.733821  0.068577  1
  Rb  Rb1  1  0.750000  0.779408  0.553465  1
  Rb  Rb2  1  0.250000  0.248543  0.935691  1
  Rb  Rb3  1  0.250000  0.224309  0.446320  1
  Mn  Mn4  1  0.750000  0.217761  0.698288  1
  Hg  Hg5  1  0.250000  0.779077  0.302960  1
  I  I6  1  0.993094  0.013866  0.242514  1
  I  I7  1  0.750000  0.406128  0.864160  1
  I  I8  1  0.250000  0.590980  0.579917  1
  I  I9  1  0.750000  0.398392  0.435826  1
  I  I10  1  0.506906  0.013866  0.242514  1
  I  I11  1  0.250000  0.582822  0.124591  1
  I  I12  1  0.500219  0.005513  0.752590  1
  I  I13  1  0.999781  0.005513  0.752590  1
