# generated using pymatgen
data_Er8Lu2Zn3Bi2Au
_symmetry_space_group_name_H-M   'P 1'
_cell_length_a   8.58473855
_cell_length_b   8.58473861
_cell_length_c   8.58478297
_cell_angle_alpha   124.12065033
_cell_angle_beta   124.12064783
_cell_angle_gamma   82.99935189
_symmetry_Int_Tables_number   1
_chemical_formula_structural   Er8Lu2Zn3Bi2Au
_chemical_formula_sum   'Er8 Lu2 Zn3 Bi2 Au1'
_cell_volume   416.10050135
_cell_formula_units_Z   1
loop_
 _symmetry_equiv_pos_site_id
 _symmetry_equiv_pos_as_xyz
  1  'x, y, z'
loop_
 _atom_site_type_symbol
 _atom_site_label
 _atom_site_symmetry_multiplicity
 _atom_site_fract_x
 _atom_site_fract_y
 _atom_site_fract_z
 _atom_site_occupancy
  Er  Er0  1  0.510468  0.011709  0.805721  1
  Er  Er1  1  0.204745  0.705985  0.194279  1
  Er  Er2  1  0.011778  0.205314  0.500000  1
  Er  Er3  1  0.705800  0.511515  0.500000  1
  Er  Er4  1  0.488291  0.989532  0.194279  1
  Er  Er5  1  0.794015  0.295255  0.805721  1
  Er  Er6  1  0.988485  0.794200  0.500000  1
  Er  Er7  1  0.294686  0.488222  0.500000  1
  Lu  Lu8  1  0.499642  0.499462  0.999104  1
  Lu  Lu9  1  0.000538  0.000358  0.000896  1
  Zn  Zn10  1  0.138036  0.639693  0.777728  1
  Zn  Zn11  1  0.860307  0.361964  0.222272  1
  Zn  Zn12  1  0.639984  0.860016  0.500000  1
  Bi  Bi13  1  0.249419  0.250581  0.000000  1
  Bi  Bi14  1  0.749419  0.750581  0.000000  1
  Au  Au15  1  0.364388  0.135612  0.500000  1
