# generated using pymatgen
data_Nd3ZnAg2Pd3
_symmetry_space_group_name_H-M   'P 1'
_cell_length_a   7.62977051
_cell_length_b   7.53970109
_cell_length_c   3.97150600
_cell_angle_alpha   90.00000000
_cell_angle_beta   90.00000000
_cell_angle_gamma   119.61025653
_symmetry_Int_Tables_number   1
_chemical_formula_structural   Nd3ZnAg2Pd3
_chemical_formula_sum   'Nd3 Zn1 Ag2 Pd3'
_cell_volume   198.62948099
_cell_formula_units_Z   1
loop_
 _symmetry_equiv_pos_site_id
 _symmetry_equiv_pos_as_xyz
  1  'x, y, z'
loop_
 _atom_site_type_symbol
 _atom_site_label
 _atom_site_symmetry_multiplicity
 _atom_site_fract_x
 _atom_site_fract_y
 _atom_site_fract_z
 _atom_site_occupancy
  Nd  Nd0  1  0.401472  0.398281  0.000000  1
  Nd  Nd1  1  0.598528  0.996809  0.000000  1
  Nd  Nd2  1  0.000000  0.597692  0.000000  1
  Zn  Zn3  1  0.000000  0.256943  0.500000  1
  Ag  Ag4  1  0.751858  0.746838  0.500000  1
  Ag  Ag5  1  0.248142  0.994980  0.500000  1
  Pd  Pd6  1  0.000000  0.028132  0.000000  1
  Pd  Pd7  1  0.674006  0.327166  0.500000  1
  Pd  Pd8  1  0.325994  0.653160  0.500000  1
