# generated using pymatgen
data_PrGeO
_symmetry_space_group_name_H-M   'P 1'
_cell_length_a   4.02211910
_cell_length_b   4.02211820
_cell_length_c   9.03497800
_cell_angle_alpha   102.63759074
_cell_angle_beta   102.63758786
_cell_angle_gamma   60.08501943
_symmetry_Int_Tables_number   1
_chemical_formula_structural   PrGeO
_chemical_formula_sum   'Pr2 Ge2 O2'
_cell_volume   122.57602235
_cell_formula_units_Z   2
loop_
 _symmetry_equiv_pos_site_id
 _symmetry_equiv_pos_as_xyz
  1  'x, y, z'
loop_
 _atom_site_type_symbol
 _atom_site_label
 _atom_site_symmetry_multiplicity
 _atom_site_fract_x
 _atom_site_fract_y
 _atom_site_fract_z
 _atom_site_occupancy
  Pr  Pr0  1  0.222986  0.222986  0.673314  1
  Pr  Pr1  1  0.777014  0.777014  0.326686  1
  Ge  Ge2  1  0.354337  0.354337  0.063267  1
  Ge  Ge3  1  0.645663  0.645663  0.936733  1
  O  O4  1  0.867295  0.867295  0.605579  1
  O  O5  1  0.132705  0.132705  0.394421  1
