# generated using pymatgen
data_Th4Zn2PdAu5
_symmetry_space_group_name_H-M   'P 1'
_cell_length_a   4.72187900
_cell_length_b   6.99030007
_cell_length_c   8.17455514
_cell_angle_alpha   89.20158134
_cell_angle_beta   90.00000000
_cell_angle_gamma   90.00000000
_symmetry_Int_Tables_number   1
_chemical_formula_structural   Th4Zn2PdAu5
_chemical_formula_sum   'Th4 Zn2 Pd1 Au5'
_cell_volume   269.79421460
_cell_formula_units_Z   1
loop_
 _symmetry_equiv_pos_site_id
 _symmetry_equiv_pos_as_xyz
  1  'x, y, z'
loop_
 _atom_site_type_symbol
 _atom_site_label
 _atom_site_symmetry_multiplicity
 _atom_site_fract_x
 _atom_site_fract_y
 _atom_site_fract_z
 _atom_site_occupancy
  Th  Th0  1  0.500000  0.509534  0.774023  1
  Th  Th1  1  0.500000  0.992100  0.747679  1
  Th  Th2  1  0.000000  0.497073  0.223621  1
  Th  Th3  1  0.000000  0.002663  0.254997  1
  Zn  Zn4  1  0.500000  0.721240  0.422767  1
  Zn  Zn5  1  0.000000  0.279801  0.577204  1
  Pd  Pd6  1  0.000000  0.764587  0.911979  1
  Au  Au7  1  0.500000  0.762904  0.100294  1
  Au  Au8  1  0.500000  0.268938  0.433765  1
  Au  Au9  1  0.000000  0.233678  0.897245  1
  Au  Au10  1  0.000000  0.732437  0.568812  1
  Au  Au11  1  0.500000  0.235045  0.087613  1
