# generated using pymatgen
data_LiGaFeF6
_symmetry_space_group_name_H-M   'P 1'
_cell_length_a   8.74865800
_cell_length_b   8.74865743
_cell_length_c   4.69968000
_cell_angle_alpha   90.00000000
_cell_angle_beta   90.00000000
_cell_angle_gamma   119.99999458
_symmetry_Int_Tables_number   1
_chemical_formula_structural   LiGaFeF6
_chemical_formula_sum   'Li3 Ga3 Fe3 F18'
_cell_volume   311.51703049
_cell_formula_units_Z   3
loop_
 _symmetry_equiv_pos_site_id
 _symmetry_equiv_pos_as_xyz
  1  'x, y, z'
loop_
 _atom_site_type_symbol
 _atom_site_label
 _atom_site_symmetry_multiplicity
 _atom_site_fract_x
 _atom_site_fract_y
 _atom_site_fract_z
 _atom_site_occupancy
  Li  Li0  1  0.297896  0.000000  0.500000  1
  Li  Li1  1  0.000000  0.297896  0.500000  1
  Li  Li2  1  0.702104  0.702104  0.500000  1
  Ga  Ga3  1  0.000000  0.000000  0.000000  1
  Ga  Ga4  1  0.333333  0.666667  0.505314  1
  Ga  Ga5  1  0.666667  0.333333  0.494686  1
  Fe  Fe6  1  0.642349  0.000000  0.000000  1
  Fe  Fe7  1  0.000000  0.642349  0.000000  1
  Fe  Fe8  1  0.357651  0.357651  0.000000  1
  F  F9  1  0.099839  0.888053  0.773290  1
  F  F10  1  0.111947  0.211786  0.773290  1
  F  F11  1  0.788214  0.900161  0.773290  1
  F  F12  1  0.211786  0.111947  0.226710  1
  F  F13  1  0.900161  0.788214  0.226710  1
  F  F14  1  0.888053  0.099839  0.226710  1
  F  F15  1  0.458040  0.581437  0.729905  1
  F  F16  1  0.418563  0.876603  0.729905  1
  F  F17  1  0.123397  0.541960  0.729905  1
  F  F18  1  0.876603  0.418563  0.270095  1
  F  F19  1  0.541960  0.123397  0.270095  1
  F  F20  1  0.581437  0.458040  0.270095  1
  F  F21  1  0.216627  0.761160  0.273395  1
  F  F22  1  0.238840  0.455467  0.273395  1
  F  F23  1  0.544533  0.783373  0.273395  1
  F  F24  1  0.455467  0.238840  0.726605  1
  F  F25  1  0.783373  0.544533  0.726605  1
  F  F26  1  0.761160  0.216627  0.726605  1
