# generated using pymatgen
data_SbAs(P2O7)2
_symmetry_space_group_name_H-M   'P 1'
_cell_length_a   8.39748508
_cell_length_b   4.90589576
_cell_length_c   7.10361490
_cell_angle_alpha   73.20602361
_cell_angle_beta   91.23085438
_cell_angle_gamma   90.17604291
_symmetry_Int_Tables_number   1
_chemical_formula_structural   SbAs(P2O7)2
_chemical_formula_sum   'Sb1 As1 P4 O14'
_cell_volume   280.10128691
_cell_formula_units_Z   1
loop_
 _symmetry_equiv_pos_site_id
 _symmetry_equiv_pos_as_xyz
  1  'x, y, z'
loop_
 _atom_site_type_symbol
 _atom_site_label
 _atom_site_symmetry_multiplicity
 _atom_site_fract_x
 _atom_site_fract_y
 _atom_site_fract_z
 _atom_site_occupancy
  Sb  Sb0  1  0.047912  0.219667  0.282971  1
  As  As1  1  0.553593  0.772137  0.721868  1
  P  P2  1  0.868068  0.609229  0.525066  1
  P  P3  1  0.262842  0.782955  0.096663  1
  P  P4  1  0.793252  0.221058  0.898641  1
  P  P5  1  0.372180  0.387531  0.476094  1
  O  O6  1  0.771121  0.959071  0.832254  1
  O  O7  1  0.336179  0.876358  0.900703  1
  O  O8  1  0.998463  0.839538  0.471428  1
  O  O9  1  0.698179  0.722575  0.512046  1
  O  O10  1  0.382461  0.576325  0.613272  1
  O  O11  1  0.644143  0.389206  0.911443  1
  O  O12  1  0.914932  0.434971  0.744555  1
  O  O13  1  0.388053  0.588156  0.251958  1
  O  O14  1  0.107494  0.600320  0.103881  1
  O  O15  1  0.874682  0.406091  0.392749  1
  O  O16  1  0.196179  0.272232  0.491732  1
  O  O17  1  0.498111  0.161544  0.501160  1
  O  O18  1  0.892010  0.139166  0.096454  1
  O  O19  1  0.223359  0.041870  0.175062  1
