# generated using pymatgen
data_Tc6PdPt7
_symmetry_space_group_name_H-M   'P 1'
_cell_length_a   7.43098822
_cell_length_b   7.43086444
_cell_length_c   4.42759900
_cell_angle_alpha   90.00000000
_cell_angle_beta   90.00000000
_cell_angle_gamma   60.02544064
_symmetry_Int_Tables_number   1
_chemical_formula_structural   Tc6PdPt7
_chemical_formula_sum   'Tc6 Pd1 Pt7'
_cell_volume   211.78544075
_cell_formula_units_Z   1
loop_
 _symmetry_equiv_pos_site_id
 _symmetry_equiv_pos_as_xyz
  1  'x, y, z'
loop_
 _atom_site_type_symbol
 _atom_site_label
 _atom_site_symmetry_multiplicity
 _atom_site_fract_x
 _atom_site_fract_y
 _atom_site_fract_z
 _atom_site_occupancy
  Tc  Tc0  1  0.702434  0.440857  0.000000  1
  Tc  Tc1  1  0.297934  0.570880  0.000000  1
  Tc  Tc2  1  0.428266  0.845250  0.000000  1
  Tc  Tc3  1  0.525045  0.394313  0.500000  1
  Tc  Tc4  1  0.651963  0.668243  0.500000  1
  Tc  Tc5  1  0.251393  0.794710  0.500000  1
  Pd  Pd6  1  0.809615  0.952487  0.500000  1
  Pt  Pt7  1  0.571605  0.151475  0.000000  1
  Pt  Pt8  1  0.142723  0.285558  0.000000  1
  Pt  Pt9  1  0.848373  0.714548  0.000000  1
  Pt  Pt10  1  0.008901  0.991025  0.000000  1
  Pt  Pt11  1  0.382094  0.085651  0.500000  1
  Pt  Pt12  1  0.942529  0.246704  0.500000  1
  Pt  Pt13  1  0.103686  0.524864  0.500000  1
