# generated using pymatgen
data_Yb2Dy(HoIr)2
_symmetry_space_group_name_H-M   'P 1'
_cell_length_a   6.51619408
_cell_length_b   7.26938930
_cell_length_c   8.47515156
_cell_angle_alpha   97.01977636
_cell_angle_beta   112.60832362
_cell_angle_gamma   89.99999979
_symmetry_Int_Tables_number   1
_chemical_formula_structural   Yb2Dy(HoIr)2
_chemical_formula_sum   'Yb4 Dy2 Ho4 Ir4'
_cell_volume   367.34515597
_cell_formula_units_Z   2
loop_
 _symmetry_equiv_pos_site_id
 _symmetry_equiv_pos_as_xyz
  1  'x, y, z'
loop_
 _atom_site_type_symbol
 _atom_site_label
 _atom_site_symmetry_multiplicity
 _atom_site_fract_x
 _atom_site_fract_y
 _atom_site_fract_z
 _atom_site_occupancy
  Yb  Yb0  1  0.973732  0.921014  0.182797  1
  Yb  Yb1  1  0.790936  0.578986  0.817203  1
  Yb  Yb2  1  0.026306  0.079204  0.817224  1
  Yb  Yb3  1  0.209082  0.420796  0.182776  1
  Dy  Dy4  1  0.650726  0.817986  0.439864  1
  Dy  Dy5  1  0.210861  0.682014  0.560136  1
  Ho  Ho6  1  0.349438  0.182100  0.560261  1
  Ho  Ho7  1  0.789178  0.317900  0.439739  1
  Ho  Ho8  1  0.431391  0.750000  0.000000  1
  Ho  Ho9  1  0.568700  0.250000  0.000000  1
  Ir  Ir10  1  0.815036  0.571985  0.226171  1
  Ir  Ir11  1  0.588865  0.928015  0.773829  1
  Ir  Ir12  1  0.184656  0.427475  0.773561  1
  Ir  Ir13  1  0.411095  0.072525  0.226439  1
