# generated using pymatgen
data_CsHo10(C2Br9)2
_symmetry_space_group_name_H-M   'P 1'
_cell_length_a   10.62093878
_cell_length_b   10.71055750
_cell_length_c   10.86432570
_cell_angle_alpha   113.32258243
_cell_angle_beta   87.53659517
_cell_angle_gamma   118.69469434
_symmetry_Int_Tables_number   1
_chemical_formula_structural   CsHo10(C2Br9)2
_chemical_formula_sum   'Cs1 Ho10 C4 Br18'
_cell_volume   978.78128575
_cell_formula_units_Z   1
loop_
 _symmetry_equiv_pos_site_id
 _symmetry_equiv_pos_as_xyz
  1  'x, y, z'
loop_
 _atom_site_type_symbol
 _atom_site_label
 _atom_site_symmetry_multiplicity
 _atom_site_fract_x
 _atom_site_fract_y
 _atom_site_fract_z
 _atom_site_occupancy
  Cs  Cs0  1  0.500000  0.000000  0.500000  1
  Ho  Ho1  1  0.664664  0.718869  0.704225  1
  Ho  Ho2  1  0.282410  0.361968  0.010944  1
  Ho  Ho3  1  0.091994  0.403786  0.298188  1
  Ho  Ho4  1  0.959303  0.033786  0.330840  1
  Ho  Ho5  1  0.908006  0.596214  0.701812  1
  Ho  Ho6  1  0.112006  0.941502  0.001079  1
  Ho  Ho7  1  0.040697  0.966214  0.669160  1
  Ho  Ho8  1  0.335336  0.281131  0.295775  1
  Ho  Ho9  1  0.717590  0.638032  0.989056  1
  Ho  Ho10  1  0.887994  0.058498  0.998921  1
  C  C11  1  0.156405  0.225880  0.121564  1
  C  C12  1  0.843595  0.774120  0.878436  1
  C  C13  1  0.923415  0.854106  0.797678  1
  C  C14  1  0.076585  0.145894  0.202322  1
  Br  Br15  1  0.450724  0.530725  0.832877  1
  Br  Br16  1  0.385288  0.040336  0.159270  1
  Br  Br17  1  0.778022  0.856837  0.501601  1
  Br  Br18  1  0.836858  0.311890  0.154209  1
  Br  Br19  1  0.549276  0.469275  0.167123  1
  Br  Br20  1  0.221978  0.143163  0.498399  1
  Br  Br21  1  0.316037  0.097390  0.829061  1
  Br  Br22  1  0.683963  0.902610  0.170939  1
  Br  Br23  1  0.974555  0.757818  0.171094  1
  Br  Br24  1  0.934138  0.300690  0.500490  1
  Br  Br25  1  0.025445  0.242182  0.828906  1
  Br  Br26  1  0.065862  0.699310  0.499510  1
  Br  Br27  1  0.259876  0.620668  0.184128  1
  Br  Br28  1  0.740124  0.379332  0.815872  1
  Br  Br29  1  0.641533  0.435624  0.501389  1
  Br  Br30  1  0.163142  0.688110  0.845791  1
  Br  Br31  1  0.614712  0.959664  0.840730  1
  Br  Br32  1  0.358467  0.564376  0.498611  1
