# generated using pymatgen
data_DyY2In3AgPdRh
_symmetry_space_group_name_H-M   'P 1'
_cell_length_a   7.81737500
_cell_length_b   7.82034012
_cell_length_c   3.80805400
_cell_angle_alpha   90.00000000
_cell_angle_beta   90.00000000
_cell_angle_gamma   120.08574403
_symmetry_Int_Tables_number   1
_chemical_formula_structural   DyY2In3AgPdRh
_chemical_formula_sum   'Dy1 Y2 In3 Ag1 Pd1 Rh1'
_cell_volume   201.43940603
_cell_formula_units_Z   1
loop_
 _symmetry_equiv_pos_site_id
 _symmetry_equiv_pos_as_xyz
  1  'x, y, z'
loop_
 _atom_site_type_symbol
 _atom_site_label
 _atom_site_symmetry_multiplicity
 _atom_site_fract_x
 _atom_site_fract_y
 _atom_site_fract_z
 _atom_site_occupancy
  Dy  Dy0  1  0.971832  0.581322  0.500000  1
  Y  Y1  1  0.416493  0.390243  0.500000  1
  Y  Y2  1  0.609896  0.027172  0.500000  1
  In  In3  1  0.004758  0.264512  0.000000  1
  In  In4  1  0.261432  0.995669  0.000000  1
  In  In5  1  0.733605  0.739874  0.000000  1
  Ag  Ag6  1  0.331897  0.666449  0.000000  1
  Pd  Pd7  1  0.000431  0.998566  0.500000  1
  Rh  Rh8  1  0.669653  0.336194  0.000000  1
