# generated using pymatgen
data_Lu4Sc4B24Mo3Ir
_symmetry_space_group_name_H-M   'P 1'
_cell_length_a   3.51485700
_cell_length_b   9.05161268
_cell_length_c   11.41306412
_cell_angle_alpha   90.06981479
_cell_angle_beta   90.00000000
_cell_angle_gamma   90.00000000
_symmetry_Int_Tables_number   1
_chemical_formula_structural   Lu4Sc4B24Mo3Ir
_chemical_formula_sum   'Lu4 Sc4 B24 Mo3 Ir1'
_cell_volume   363.10778274
_cell_formula_units_Z   1
loop_
 _symmetry_equiv_pos_site_id
 _symmetry_equiv_pos_as_xyz
  1  'x, y, z'
loop_
 _atom_site_type_symbol
 _atom_site_label
 _atom_site_symmetry_multiplicity
 _atom_site_fract_x
 _atom_site_fract_y
 _atom_site_fract_z
 _atom_site_occupancy
  Lu  Lu0  1  0.500000  0.317701  0.415072  1
  Lu  Lu1  1  0.500000  0.680273  0.588503  1
  Lu  Lu2  1  0.500000  0.179152  0.912805  1
  Lu  Lu3  1  0.500000  0.822417  0.083323  1
  Sc  Sc4  1  0.500000  0.443297  0.127216  1
  Sc  Sc5  1  0.500000  0.555370  0.872674  1
  Sc  Sc6  1  0.500000  0.054124  0.627209  1
  Sc  Sc7  1  0.500000  0.945521  0.371890  1
  B  B8  1  0.000000  0.095918  0.473221  1
  B  B9  1  0.000000  0.900530  0.525518  1
  B  B10  1  0.000000  0.402788  0.973909  1
  B  B11  1  0.000000  0.597985  0.028341  1
  B  B12  1  0.000000  0.129662  0.320061  1
  B  B13  1  0.000000  0.869807  0.680250  1
  B  B14  1  0.000000  0.371082  0.818759  1
  B  B15  1  0.000000  0.630064  0.182207  1
  B  B16  1  0.000000  0.052658  0.065580  1
  B  B17  1  0.000000  0.948276  0.935398  1
  B  B18  1  0.000000  0.448581  0.563297  1
  B  B19  1  0.000000  0.555533  0.433578  1
  B  B20  1  0.000000  0.482211  0.286785  1
  B  B21  1  0.000000  0.522049  0.713716  1
  B  B22  1  0.000000  0.022146  0.785354  1
  B  B23  1  0.000000  0.977433  0.214185  1
  B  B24  1  0.000000  0.255657  0.079086  1
  B  B25  1  0.000000  0.744343  0.922177  1
  B  B26  1  0.000000  0.243372  0.578075  1
  B  B27  1  0.000000  0.753213  0.419767  1
  B  B28  1  0.000000  0.298368  0.237512  1
  B  B29  1  0.000000  0.702360  0.763995  1
  B  B30  1  0.000000  0.203300  0.736062  1
  B  B31  1  0.000000  0.793863  0.264336  1
  Mo  Mo32  1  0.500000  0.141023  0.182600  1
  Mo  Mo33  1  0.500000  0.859387  0.819190  1
  Mo  Mo34  1  0.500000  0.360145  0.679215  1
  Ir  Ir35  1  0.500000  0.640389  0.319134  1
