# generated using pymatgen
data_Tb4Dy3Y(ReB6)4
_symmetry_space_group_name_H-M   'P 1'
_cell_length_a   3.69027800
_cell_length_b   9.18954400
_cell_length_c   11.58267200
_cell_angle_alpha   89.99970196
_cell_angle_beta   90.00000000
_cell_angle_gamma   90.00000000
_symmetry_Int_Tables_number   1
_chemical_formula_structural   Tb4Dy3Y(ReB6)4
_chemical_formula_sum   'Tb4 Dy3 Y1 Re4 B24'
_cell_volume   392.79124916
_cell_formula_units_Z   1
loop_
 _symmetry_equiv_pos_site_id
 _symmetry_equiv_pos_as_xyz
  1  'x, y, z'
loop_
 _atom_site_type_symbol
 _atom_site_label
 _atom_site_symmetry_multiplicity
 _atom_site_fract_x
 _atom_site_fract_y
 _atom_site_fract_z
 _atom_site_occupancy
  Tb  Tb0  1  0.000000  0.823462  0.085998  1
  Tb  Tb1  1  0.000000  0.176548  0.914035  1
  Tb  Tb2  1  0.000000  0.323510  0.413982  1
  Tb  Tb3  1  0.000000  0.676463  0.585996  1
  Dy  Dy4  1  0.000000  0.442681  0.130038  1
  Dy  Dy5  1  0.000000  0.557341  0.870000  1
  Dy  Dy6  1  0.000000  0.942635  0.369903  1
  Y  Y7  1  0.000000  0.057249  0.629874  1
  Re  Re8  1  0.000000  0.138186  0.179256  1
  Re  Re9  1  0.000000  0.861728  0.820869  1
  Re  Re10  1  0.000000  0.638178  0.320762  1
  Re  Re11  1  0.000000  0.362016  0.679267  1
  B  B12  1  0.500000  0.053212  0.067377  1
  B  B13  1  0.500000  0.946780  0.932648  1
  B  B14  1  0.500000  0.553222  0.432633  1
  B  B15  1  0.500000  0.446796  0.567360  1
  B  B16  1  0.500000  0.248643  0.081848  1
  B  B17  1  0.500000  0.751344  0.918161  1
  B  B18  1  0.500000  0.748624  0.418126  1
  B  B19  1  0.500000  0.251443  0.581761  1
  B  B20  1  0.500000  0.291408  0.234401  1
  B  B21  1  0.500000  0.708571  0.765607  1
  B  B22  1  0.500000  0.791391  0.265591  1
  B  B23  1  0.500000  0.208643  0.734530  1
  B  B24  1  0.500000  0.130531  0.314058  1
  B  B25  1  0.500000  0.869335  0.685889  1
  B  B26  1  0.500000  0.630535  0.185915  1
  B  B27  1  0.500000  0.369487  0.814106  1
  B  B28  1  0.500000  0.482311  0.288024  1
  B  B29  1  0.500000  0.517727  0.711985  1
  B  B30  1  0.500000  0.982304  0.211972  1
  B  B31  1  0.500000  0.017749  0.788158  1
  B  B32  1  0.500000  0.099974  0.471905  1
  B  B33  1  0.500000  0.899959  0.527943  1
  B  B34  1  0.500000  0.599911  0.028012  1
  B  B35  1  0.500000  0.400100  0.972007  1
