# generated using pymatgen
data_Al(VSe2)4
_symmetry_space_group_name_H-M   'P 1'
_cell_length_a   7.23896942
_cell_length_b   7.23896978
_cell_length_c   7.23897060
_cell_angle_alpha   60.02658152
_cell_angle_beta   60.02658065
_cell_angle_gamma   60.02658477
_symmetry_Int_Tables_number   1
_chemical_formula_structural   Al(VSe2)4
_chemical_formula_sum   'Al1 V4 Se8'
_cell_volume   268.39655775
_cell_formula_units_Z   1
loop_
 _symmetry_equiv_pos_site_id
 _symmetry_equiv_pos_as_xyz
  1  'x, y, z'
loop_
 _atom_site_type_symbol
 _atom_site_label
 _atom_site_symmetry_multiplicity
 _atom_site_fract_x
 _atom_site_fract_y
 _atom_site_fract_z
 _atom_site_occupancy
  Al  Al0  1  0.999931  0.999931  0.999931  1
  V  V1  1  0.603559  0.188990  0.603559  1
  V  V2  1  0.188990  0.603559  0.603559  1
  V  V3  1  0.603559  0.603559  0.188990  1
  V  V4  1  0.603863  0.603863  0.603863  1
  Se  Se5  1  0.368513  0.368513  0.368513  1
  Se  Se6  1  0.368867  0.893703  0.368867  1
  Se  Se7  1  0.893703  0.368867  0.368867  1
  Se  Se8  1  0.368867  0.368867  0.893703  1
  Se  Se9  1  0.863368  0.863368  0.863368  1
  Se  Se10  1  0.863652  0.409477  0.863652  1
  Se  Se11  1  0.409477  0.863652  0.863652  1
  Se  Se12  1  0.863652  0.863652  0.409477  1
