# generated using pymatgen
data_Ho3AlSn2Pt3
_symmetry_space_group_name_H-M   'P 1'
_cell_length_a   7.58083731
_cell_length_b   7.49369864
_cell_length_c   3.84463800
_cell_angle_alpha   90.00000000
_cell_angle_beta   90.00000000
_cell_angle_gamma   119.62048706
_symmetry_Int_Tables_number   1
_chemical_formula_structural   Ho3AlSn2Pt3
_chemical_formula_sum   'Ho3 Al1 Sn2 Pt3'
_cell_volume   189.86619842
_cell_formula_units_Z   1
loop_
 _symmetry_equiv_pos_site_id
 _symmetry_equiv_pos_as_xyz
  1  'x, y, z'
loop_
 _atom_site_type_symbol
 _atom_site_label
 _atom_site_symmetry_multiplicity
 _atom_site_fract_x
 _atom_site_fract_y
 _atom_site_fract_z
 _atom_site_occupancy
  Ho  Ho0  1  0.396945  0.404097  0.500000  1
  Ho  Ho1  1  0.603055  0.007151  0.500000  1
  Ho  Ho2  1  0.000000  0.588060  0.500000  1
  Al  Al3  1  0.000000  0.258074  0.000000  1
  Sn  Sn4  1  0.739045  0.740816  0.000000  1
  Sn  Sn5  1  0.260955  0.001771  0.000000  1
  Pt  Pt6  1  0.679406  0.329469  0.000000  1
  Pt  Pt7  1  0.000000  0.020500  0.500000  1
  Pt  Pt8  1  0.320594  0.650063  0.000000  1
