# generated using pymatgen
data_Cs12K5Rb(TlAs4)2
_symmetry_space_group_name_H-M   'P 1'
_cell_length_a   10.70334307
_cell_length_b   10.77274601
_cell_length_c   11.43711200
_cell_angle_alpha   90.00000000
_cell_angle_beta   90.00000000
_cell_angle_gamma   119.77440705
_symmetry_Int_Tables_number   1
_chemical_formula_structural   Cs12K5Rb(TlAs4)2
_chemical_formula_sum   'Cs12 K5 Rb1 Tl2 As8'
_cell_volume   1144.65771366
_cell_formula_units_Z   1
loop_
 _symmetry_equiv_pos_site_id
 _symmetry_equiv_pos_as_xyz
  1  'x, y, z'
loop_
 _atom_site_type_symbol
 _atom_site_label
 _atom_site_symmetry_multiplicity
 _atom_site_fract_x
 _atom_site_fract_y
 _atom_site_fract_z
 _atom_site_occupancy
  Cs  Cs0  1  0.208617  0.417238  0.549838  1
  Cs  Cs1  1  0.791607  0.206968  0.046192  1
  Cs  Cs2  1  0.415351  0.206965  0.046208  1
  Cs  Cs3  1  0.585573  0.792984  0.547792  1
  Cs  Cs4  1  0.207416  0.792978  0.547778  1
  Cs  Cs5  1  0.792242  0.584480  0.452389  1
  Cs  Cs6  1  0.791607  0.206968  0.453808  1
  Cs  Cs7  1  0.792242  0.584480  0.047611  1
  Cs  Cs8  1  0.415351  0.206965  0.453792  1
  Cs  Cs9  1  0.585573  0.792984  0.952208  1
  Cs  Cs10  1  0.208617  0.417238  0.950162  1
  Cs  Cs11  1  0.207416  0.792978  0.952222  1
  K  K12  1  0.878619  0.120134  0.750000  1
  K  K13  1  0.241515  0.120134  0.750000  1
  K  K14  1  0.756114  0.877687  0.250000  1
  K  K15  1  0.121581  0.877695  0.250000  1
  K  K16  1  0.877571  0.755160  0.750000  1
  Rb  Rb17  1  0.120686  0.241347  0.250000  1
  Tl  Tl18  1  0.333869  0.667768  0.250000  1
  Tl  Tl19  1  0.666948  0.333870  0.750000  1
  As  As20  1  0.484942  0.525182  0.250000  1
  As  As21  1  0.959957  0.478374  0.750000  1
  As  As22  1  0.520899  0.041781  0.750000  1
  As  As23  1  0.480189  0.960387  0.250000  1
  As  As24  1  0.040271  0.525207  0.250000  1
  As  As25  1  0.518404  0.478399  0.750000  1
  As  As26  1  0.998413  0.996823  0.997086  1
  As  As27  1  0.998413  0.996823  0.502914  1
