# generated using pymatgen
data_CsNbCu2Se3S
_symmetry_space_group_name_H-M   'P 1'
_cell_length_a   10.52962341
_cell_length_b   10.52962367
_cell_length_c   7.89363292
_cell_angle_alpha   89.91899996
_cell_angle_beta   89.91899562
_cell_angle_gamma   148.48073790
_symmetry_Int_Tables_number   1
_chemical_formula_structural   CsNbCu2Se3S
_chemical_formula_sum   'Cs2 Nb2 Cu4 Se6 S2'
_cell_volume   457.53044766
_cell_formula_units_Z   2
loop_
 _symmetry_equiv_pos_site_id
 _symmetry_equiv_pos_as_xyz
  1  'x, y, z'
loop_
 _atom_site_type_symbol
 _atom_site_label
 _atom_site_symmetry_multiplicity
 _atom_site_fract_x
 _atom_site_fract_y
 _atom_site_fract_z
 _atom_site_occupancy
  Cs  Cs0  1  0.170787  0.534092  0.748019  1
  Cs  Cs1  1  0.534092  0.170787  0.248019  1
  Nb  Nb2  1  0.707869  0.503365  0.751443  1
  Nb  Nb3  1  0.503365  0.707869  0.251443  1
  Cu  Cu4  1  0.623223  0.626626  0.501463  1
  Cu  Cu5  1  0.001576  0.201290  0.256468  1
  Cu  Cu6  1  0.201290  0.001576  0.756468  1
  Cu  Cu7  1  0.626626  0.623223  0.001463  1
  Se  Se8  1  0.756042  0.956205  0.998820  1
  Se  Se9  1  0.362229  0.358892  0.752473  1
  Se  Se10  1  0.358892  0.362229  0.252473  1
  Se  Se11  1  0.956205  0.756042  0.498820  1
  Se  Se12  1  0.549204  0.152019  0.754121  1
  Se  Se13  1  0.152019  0.549204  0.254121  1
  S  S14  1  0.941878  0.746503  0.987193  1
  S  S15  1  0.746503  0.941878  0.487193  1
