# generated using pymatgen
data_HgTePtO6
_symmetry_space_group_name_H-M   'P 1'
_cell_length_a   5.30661301
_cell_length_b   5.30685059
_cell_length_c   5.03518200
_cell_angle_alpha   89.99789285
_cell_angle_beta   90.00202705
_cell_angle_gamma   119.99931814
_symmetry_Int_Tables_number   1
_chemical_formula_structural   HgTePtO6
_chemical_formula_sum   'Hg1 Te1 Pt1 O6'
_cell_volume   122.80132878
_cell_formula_units_Z   1
loop_
 _symmetry_equiv_pos_site_id
 _symmetry_equiv_pos_as_xyz
  1  'x, y, z'
loop_
 _atom_site_type_symbol
 _atom_site_label
 _atom_site_symmetry_multiplicity
 _atom_site_fract_x
 _atom_site_fract_y
 _atom_site_fract_z
 _atom_site_occupancy
  Hg  Hg0  1  0.000003  0.000002  0.000000  1
  Te  Te1  1  0.666677  0.333351  0.499998  1
  Pt  Pt2  1  0.333339  0.666642  0.499997  1
  O  O3  1  0.636052  0.006642  0.283502  1
  O  O4  1  0.370607  0.363946  0.283514  1
  O  O5  1  0.993346  0.629392  0.283518  1
  O  O6  1  0.370597  0.006661  0.716502  1
  O  O7  1  0.993336  0.363952  0.716480  1
  O  O8  1  0.636044  0.629410  0.716489  1
