# generated using pymatgen
data_RbH9Ru
_symmetry_space_group_name_H-M   'P 1'
_cell_length_a   7.44649600
_cell_length_b   7.44649589
_cell_length_c   7.93242100
_cell_angle_alpha   90.00000000
_cell_angle_beta   90.00000000
_cell_angle_gamma   120.00000938
_symmetry_Int_Tables_number   1
_chemical_formula_structural   RbH9Ru
_chemical_formula_sum   'Rb3 H27 Ru3'
_cell_volume   380.92568826
_cell_formula_units_Z   3
loop_
 _symmetry_equiv_pos_site_id
 _symmetry_equiv_pos_as_xyz
  1  'x, y, z'
loop_
 _atom_site_type_symbol
 _atom_site_label
 _atom_site_symmetry_multiplicity
 _atom_site_fract_x
 _atom_site_fract_y
 _atom_site_fract_z
 _atom_site_occupancy
  Rb  Rb0  1  0.666667  0.333333  0.509717  1
  Rb  Rb1  1  0.333333  0.666667  0.183564  1
  Rb  Rb2  1  0.000000  0.000000  0.800978  1
  H  H3  1  0.450910  0.116184  0.011669  1
  H  H4  1  0.665273  0.549090  0.011669  1
  H  H5  1  0.883816  0.334727  0.011669  1
  H  H6  1  0.647694  0.166486  0.154046  1
  H  H7  1  0.518791  0.352306  0.154046  1
  H  H8  1  0.833514  0.481209  0.154046  1
  H  H9  1  0.687607  0.184739  0.868823  1
  H  H10  1  0.497132  0.312393  0.868823  1
  H  H11  1  0.815261  0.502868  0.868823  1
  H  H12  1  0.103396  0.465882  0.686870  1
  H  H13  1  0.362485  0.896604  0.686870  1
  H  H14  1  0.534118  0.637515  0.686870  1
  H  H15  1  0.225846  0.019941  0.296771  1
  H  H16  1  0.794095  0.774154  0.296771  1
  H  H17  1  0.980059  0.205905  0.296771  1
  H  H18  1  0.304269  0.497218  0.827868  1
  H  H19  1  0.192949  0.695731  0.827868  1
  H  H20  1  0.502782  0.807051  0.827868  1
  H  H21  1  0.027224  0.859091  0.157126  1
  H  H22  1  0.831867  0.972776  0.157126  1
  H  H23  1  0.140909  0.168133  0.157126  1
  H  H24  1  0.319446  0.501102  0.540863  1
  H  H25  1  0.181656  0.680554  0.540863  1
  H  H26  1  0.498898  0.818344  0.540863  1
  H  H27  1  0.001797  0.840215  0.443470  1
  H  H28  1  0.838418  0.998203  0.443470  1
  H  H29  1  0.159785  0.161582  0.443470  1
  Ru  Ru30  1  0.666667  0.333333  0.010936  1
  Ru  Ru31  1  0.333333  0.666667  0.683936  1
  Ru  Ru32  1  0.000000  0.000000  0.301361  1
