# generated using pymatgen
data_HfU3As6Ru7
_symmetry_space_group_name_H-M   'P 1'
_cell_length_a   7.18351035
_cell_length_b   7.18351019
_cell_length_c   7.18351061
_cell_angle_alpha   109.67238617
_cell_angle_beta   109.67238776
_cell_angle_gamma   109.67237637
_symmetry_Int_Tables_number   1
_chemical_formula_structural   HfU3As6Ru7
_chemical_formula_sum   'Hf1 U3 As6 Ru7'
_cell_volume   283.21160717
_cell_formula_units_Z   1
loop_
 _symmetry_equiv_pos_site_id
 _symmetry_equiv_pos_as_xyz
  1  'x, y, z'
loop_
 _atom_site_type_symbol
 _atom_site_label
 _atom_site_symmetry_multiplicity
 _atom_site_fract_x
 _atom_site_fract_y
 _atom_site_fract_z
 _atom_site_occupancy
  Hf  Hf0  1  0.500000  0.500000  0.500000  1
  U  U1  1  0.000000  0.000000  0.500000  1
  U  U2  1  0.500000  0.000000  0.000000  1
  U  U3  1  0.000000  0.500000  0.000000  1
  As  As4  1  0.311106  0.005980  0.311106  1
  As  As5  1  0.005980  0.311106  0.311106  1
  As  As6  1  0.994020  0.688894  0.688894  1
  As  As7  1  0.311106  0.311106  0.005980  1
  As  As8  1  0.688894  0.688894  0.994020  1
  As  As9  1  0.688894  0.994020  0.688894  1
  Ru  Ru10  1  0.748778  0.500000  0.251222  1
  Ru  Ru11  1  0.500000  0.748778  0.251222  1
  Ru  Ru12  1  0.500000  0.251222  0.748778  1
  Ru  Ru13  1  0.748778  0.251222  0.500000  1
  Ru  Ru14  1  0.251222  0.748778  0.500000  1
  Ru  Ru15  1  0.251222  0.500000  0.748778  1
  Ru  Ru16  1  0.000000  0.000000  0.000000  1
