# generated using pymatgen
data_RbPr6(CBr6)2
_symmetry_space_group_name_H-M   'P 1'
_cell_length_a   9.26273556
_cell_length_b   9.23136306
_cell_length_c   9.77777453
_cell_angle_alpha   71.74169783
_cell_angle_beta   70.37516168
_cell_angle_gamma   72.36765469
_symmetry_Int_Tables_number   1
_chemical_formula_structural   RbPr6(CBr6)2
_chemical_formula_sum   'Rb1 Pr6 C2 Br12'
_cell_volume   729.36889212
_cell_formula_units_Z   1
loop_
 _symmetry_equiv_pos_site_id
 _symmetry_equiv_pos_as_xyz
  1  'x, y, z'
loop_
 _atom_site_type_symbol
 _atom_site_label
 _atom_site_symmetry_multiplicity
 _atom_site_fract_x
 _atom_site_fract_y
 _atom_site_fract_z
 _atom_site_occupancy
  Rb  Rb0  1  0.000000  0.500000  0.999999  1
  Pr  Pr1  1  0.476931  0.116355  0.180034  1
  Pr  Pr2  1  0.784198  0.032089  0.404823  1
  Pr  Pr3  1  0.595656  0.718085  0.475408  1
  Pr  Pr4  1  0.404344  0.281915  0.524591  1
  Pr  Pr5  1  0.215802  0.967911  0.595176  1
  Pr  Pr6  1  0.523070  0.883645  0.819966  1
  C  C7  1  0.494148  0.025361  0.425661  1
  C  C8  1  0.505853  0.974639  0.574339  1
  Br  Br9  1  0.800620  0.161193  0.081059  1
  Br  Br10  1  0.588600  0.780086  0.143619  1
  Br  Br11  1  0.350945  0.434073  0.222333  1
  Br  Br12  1  0.137312  0.071279  0.292977  1
  Br  Br13  1  0.926758  0.719330  0.353504  1
  Br  Br14  1  0.717748  0.366328  0.428963  1
  Br  Br15  1  0.282252  0.633671  0.571037  1
  Br  Br16  1  0.073242  0.280669  0.646498  1
  Br  Br17  1  0.862688  0.928721  0.707023  1
  Br  Br18  1  0.649055  0.565927  0.777667  1
  Br  Br19  1  0.411401  0.219913  0.856382  1
  Br  Br20  1  0.199381  0.838807  0.918940  1
