# generated using pymatgen
data_Ce3PrHo6(Al2Ru3)2
_symmetry_space_group_name_H-M   'P 1'
_cell_length_a   8.43389943
_cell_length_b   8.44350697
_cell_length_c   8.46795375
_cell_angle_alpha   110.24606548
_cell_angle_beta   110.36134541
_cell_angle_gamma   109.87053066
_symmetry_Int_Tables_number   1
_chemical_formula_structural   Ce3PrHo6(Al2Ru3)2
_chemical_formula_sum   'Ce3 Pr1 Ho6 Al4 Ru6'
_cell_volume   451.98378769
_cell_formula_units_Z   1
loop_
 _symmetry_equiv_pos_site_id
 _symmetry_equiv_pos_as_xyz
  1  'x, y, z'
loop_
 _atom_site_type_symbol
 _atom_site_label
 _atom_site_symmetry_multiplicity
 _atom_site_fract_x
 _atom_site_fract_y
 _atom_site_fract_z
 _atom_site_occupancy
  Ce  Ce0  1  0.252735  0.201306  0.945428  1
  Ce  Ce1  1  0.943856  0.252515  0.199265  1
  Ce  Ce2  1  0.198864  0.944924  0.252846  1
  Pr  Pr3  1  0.505127  0.995262  0.723267  1
  Ho  Ho4  1  0.781376  0.779458  0.780337  1
  Ho  Ho5  1  0.313623  0.565694  0.752559  1
  Ho  Ho6  1  0.754163  0.317452  0.567431  1
  Ho  Ho7  1  0.566891  0.749099  0.310319  1
  Ho  Ho8  1  0.721916  0.510467  0.996177  1
  Ho  Ho9  1  0.991381  0.718706  0.505368  1
  Al  Al10  1  0.414177  0.412737  0.410792  1
  Al  Al11  1  0.093454  0.498160  0.001518  1
  Al  Al12  1  0.000859  0.092050  0.496271  1
  Al  Al13  1  0.498955  0.002611  0.100623  1
  Ru  Ru14  1  0.906035  0.119803  0.753144  1
  Ru  Ru15  1  0.752347  0.898529  0.118530  1
  Ru  Ru16  1  0.119583  0.754031  0.903118  1
  Ru  Ru17  1  0.219829  0.590128  0.362902  1
  Ru  Ru18  1  0.366450  0.229387  0.595219  1
  Ru  Ru19  1  0.598379  0.367683  0.224887  1
