# generated using pymatgen
data_Pr3Pd5
_symmetry_space_group_name_H-M   'P 1'
_cell_length_a   6.00272644
_cell_length_b   6.00272729
_cell_length_c   10.09701000
_cell_angle_alpha   90.00000000
_cell_angle_beta   90.00000000
_cell_angle_gamma   104.25777361
_symmetry_Int_Tables_number   1
_chemical_formula_structural   Pr3Pd5
_chemical_formula_sum   'Pr6 Pd10'
_cell_volume   352.61618208
_cell_formula_units_Z   2
loop_
 _symmetry_equiv_pos_site_id
 _symmetry_equiv_pos_as_xyz
  1  'x, y, z'
loop_
 _atom_site_type_symbol
 _atom_site_label
 _atom_site_symmetry_multiplicity
 _atom_site_fract_x
 _atom_site_fract_y
 _atom_site_fract_z
 _atom_site_occupancy
  Pr  Pr0  1  0.798302  0.201698  0.000000  1
  Pr  Pr1  1  0.201698  0.798302  0.500000  1
  Pr  Pr2  1  0.201698  0.798302  0.000000  1
  Pr  Pr3  1  0.626466  0.626466  0.250000  1
  Pr  Pr4  1  0.373534  0.373534  0.750000  1
  Pr  Pr5  1  0.798302  0.201698  0.500000  1
  Pd  Pd6  1  0.932245  0.494355  0.750000  1
  Pd  Pd7  1  0.067755  0.505645  0.250000  1
  Pd  Pd8  1  0.683191  0.683191  0.550911  1
  Pd  Pd9  1  0.967363  0.967363  0.750000  1
  Pd  Pd10  1  0.316809  0.316809  0.050911  1
  Pd  Pd11  1  0.494355  0.932245  0.750000  1
  Pd  Pd12  1  0.505645  0.067755  0.250000  1
  Pd  Pd13  1  0.032637  0.032637  0.250000  1
  Pd  Pd14  1  0.683191  0.683191  0.949089  1
  Pd  Pd15  1  0.316809  0.316809  0.449089  1
