# generated using pymatgen
data_TbHoLu(AgGe)3
_symmetry_space_group_name_H-M   'P 1'
_cell_length_a   7.16162505
_cell_length_b   7.16847400
_cell_length_c   4.17620900
_cell_angle_alpha   90.00000000
_cell_angle_beta   90.00000000
_cell_angle_gamma   119.78052672
_symmetry_Int_Tables_number   1
_chemical_formula_structural   TbHoLu(AgGe)3
_chemical_formula_sum   'Tb1 Ho1 Lu1 Ag3 Ge3'
_cell_volume   186.08329021
_cell_formula_units_Z   1
loop_
 _symmetry_equiv_pos_site_id
 _symmetry_equiv_pos_as_xyz
  1  'x, y, z'
loop_
 _atom_site_type_symbol
 _atom_site_label
 _atom_site_symmetry_multiplicity
 _atom_site_fract_x
 _atom_site_fract_y
 _atom_site_fract_z
 _atom_site_occupancy
  Tb  Tb0  1  0.584669  0.999565  0.000000  1
  Ho  Ho1  1  0.999426  0.584811  0.000000  1
  Lu  Lu2  1  0.414103  0.414237  0.000000  1
  Ag  Ag3  1  0.252820  0.000744  0.500000  1
  Ag  Ag4  1  0.001065  0.253517  0.500000  1
  Ag  Ag5  1  0.746151  0.745813  0.500000  1
  Ge  Ge6  1  0.333608  0.664203  0.500000  1
  Ge  Ge7  1  0.665464  0.335083  0.500000  1
  Ge  Ge8  1  0.002693  0.002026  0.000000  1
