# generated using pymatgen
data_Ho2Zr3Si7Pt9
_symmetry_space_group_name_H-M   'P 1'
_cell_length_a   10.03786100
_cell_length_b   10.03786157
_cell_length_c   4.02412000
_cell_angle_alpha   90.00000000
_cell_angle_beta   90.00000000
_cell_angle_gamma   120.00000140
_symmetry_Int_Tables_number   1
_chemical_formula_structural   Ho2Zr3Si7Pt9
_chemical_formula_sum   'Ho2 Zr3 Si7 Pt9'
_cell_volume   351.14292973
_cell_formula_units_Z   1
loop_
 _symmetry_equiv_pos_site_id
 _symmetry_equiv_pos_as_xyz
  1  'x, y, z'
loop_
 _atom_site_type_symbol
 _atom_site_label
 _atom_site_symmetry_multiplicity
 _atom_site_fract_x
 _atom_site_fract_y
 _atom_site_fract_z
 _atom_site_occupancy
  Ho  Ho0  1  0.000000  0.000000  0.000000  1
  Ho  Ho1  1  0.333333  0.666667  0.500000  1
  Zr  Zr2  1  0.892621  0.456985  0.500000  1
  Zr  Zr3  1  0.564364  0.107379  0.500000  1
  Zr  Zr4  1  0.543015  0.435636  0.500000  1
  Si  Si5  1  0.246653  0.196680  0.500000  1
  Si  Si6  1  0.803320  0.049973  0.500000  1
  Si  Si7  1  0.950027  0.753347  0.500000  1
  Si  Si8  1  0.557306  0.646793  0.000000  1
  Si  Si9  1  0.353207  0.910512  0.000000  1
  Si  Si10  1  0.089488  0.442694  0.000000  1
  Si  Si11  1  0.666667  0.333333  0.000000  1
  Pt  Pt12  1  0.217787  0.937125  0.500000  1
  Pt  Pt13  1  0.062875  0.280663  0.500000  1
  Pt  Pt14  1  0.719337  0.782213  0.500000  1
  Pt  Pt15  1  0.312493  0.413899  0.000000  1
  Pt  Pt16  1  0.586101  0.898595  0.000000  1
  Pt  Pt17  1  0.101405  0.687507  0.000000  1
  Pt  Pt18  1  0.383145  0.172362  0.000000  1
  Pt  Pt19  1  0.827638  0.210784  0.000000  1
  Pt  Pt20  1  0.789216  0.616855  0.000000  1
