# generated using pymatgen
data_Yb3AgGe3
_symmetry_space_group_name_H-M   'P 1'
_cell_length_a   5.75649254
_cell_length_b   5.75649268
_cell_length_c   14.25312100
_cell_angle_alpha   109.44236147
_cell_angle_beta   109.44236196
_cell_angle_gamma   45.75175494
_symmetry_Int_Tables_number   1
_chemical_formula_structural   Yb3AgGe3
_chemical_formula_sum   'Yb6 Ag2 Ge6'
_cell_volume   315.47521568
_cell_formula_units_Z   2
loop_
 _symmetry_equiv_pos_site_id
 _symmetry_equiv_pos_as_xyz
  1  'x, y, z'
loop_
 _atom_site_type_symbol
 _atom_site_label
 _atom_site_symmetry_multiplicity
 _atom_site_fract_x
 _atom_site_fract_y
 _atom_site_fract_z
 _atom_site_occupancy
  Yb  Yb0  1  0.399443  0.399443  0.076071  1
  Yb  Yb1  1  0.740080  0.740080  0.225012  1
  Yb  Yb2  1  0.541573  0.541573  0.381738  1
  Yb  Yb3  1  0.458428  0.458428  0.618262  1
  Yb  Yb4  1  0.259920  0.259920  0.774988  1
  Yb  Yb5  1  0.600557  0.600557  0.923929  1
  Ag  Ag6  1  0.248504  0.248504  0.390652  1
  Ag  Ag7  1  0.751496  0.751496  0.609348  1
  Ge  Ge8  1  0.110118  0.110118  0.075169  1
  Ge  Ge9  1  0.027838  0.027838  0.224771  1
  Ge  Ge10  1  0.876825  0.876825  0.455251  1
  Ge  Ge11  1  0.123174  0.123174  0.544749  1
  Ge  Ge12  1  0.972162  0.972162  0.775228  1
  Ge  Ge13  1  0.889882  0.889882  0.924831  1
