# generated using pymatgen
data_Nd4DyRh2
_symmetry_space_group_name_H-M   'P 1'
_cell_length_a   6.60206705
_cell_length_b   7.20942990
_cell_length_c   9.04563053
_cell_angle_alpha   96.79914311
_cell_angle_beta   111.40335923
_cell_angle_gamma   90.00000071
_symmetry_Int_Tables_number   1
_chemical_formula_structural   Nd4DyRh2
_chemical_formula_sum   'Nd8 Dy2 Rh4'
_cell_volume   397.59930332
_cell_formula_units_Z   2
loop_
 _symmetry_equiv_pos_site_id
 _symmetry_equiv_pos_as_xyz
  1  'x, y, z'
loop_
 _atom_site_type_symbol
 _atom_site_label
 _atom_site_symmetry_multiplicity
 _atom_site_fract_x
 _atom_site_fract_y
 _atom_site_fract_z
 _atom_site_occupancy
  Nd  Nd0  1  0.795694  0.077774  0.813830  1
  Nd  Nd1  1  0.981865  0.422226  0.186170  1
  Nd  Nd2  1  0.204306  0.922226  0.186170  1
  Nd  Nd3  1  0.018135  0.577774  0.813830  1
  Nd  Nd4  1  0.214572  0.188881  0.571320  1
  Nd  Nd5  1  0.643252  0.311119  0.428680  1
  Nd  Nd6  1  0.785428  0.811119  0.428680  1
  Nd  Nd7  1  0.356748  0.688881  0.571320  1
  Dy  Dy8  1  0.433078  0.250000  0.000000  1
  Dy  Dy9  1  0.566922  0.750000  0.000000  1
  Rh  Rh10  1  0.592330  0.429521  0.786036  1
  Rh  Rh11  1  0.806293  0.070479  0.213964  1
  Rh  Rh12  1  0.407670  0.570479  0.213964  1
  Rh  Rh13  1  0.193707  0.929521  0.786036  1
