# generated using pymatgen
data_KTb2YF10
_symmetry_space_group_name_H-M   'P 1'
_cell_length_a   8.29638947
_cell_length_b   8.29639015
_cell_length_c   8.29620500
_cell_angle_alpha   60.00073424
_cell_angle_beta   60.00073153
_cell_angle_gamma   59.99817768
_symmetry_Int_Tables_number   1
_chemical_formula_structural   KTb2YF10
_chemical_formula_sum   'K2 Tb4 Y2 F20'
_cell_volume   403.77702596
_cell_formula_units_Z   2
loop_
 _symmetry_equiv_pos_site_id
 _symmetry_equiv_pos_as_xyz
  1  'x, y, z'
loop_
 _atom_site_type_symbol
 _atom_site_label
 _atom_site_symmetry_multiplicity
 _atom_site_fract_x
 _atom_site_fract_y
 _atom_site_fract_z
 _atom_site_occupancy
  K  K0  1  0.750000  0.750000  0.749996  1
  K  K1  1  0.250000  0.250000  0.249996  1
  Tb  Tb2  1  0.759699  0.759699  0.240337  1
  Tb  Tb3  1  0.240260  0.759740  0.240297  1
  Tb  Tb4  1  0.759740  0.240260  0.240297  1
  Tb  Tb5  1  0.240301  0.240301  0.759735  1
  Y  Y6  1  0.759493  0.240507  0.759516  1
  Y  Y7  1  0.240507  0.759493  0.759516  1
  F  F8  1  0.888343  0.888343  0.334961  1
  F  F9  1  0.888277  0.334912  0.888266  1
  F  F10  1  0.334912  0.888277  0.888266  1
  F  F11  1  0.888468  0.888468  0.888201  1
  F  F12  1  0.111532  0.111532  0.665138  1
  F  F13  1  0.111723  0.665088  0.111455  1
  F  F14  1  0.665088  0.111723  0.111455  1
  F  F15  1  0.111657  0.111657  0.111646  1
  F  F16  1  0.500000  0.500000  0.829994  1
  F  F17  1  0.169956  0.500269  0.830033  1
  F  F18  1  0.500269  0.169956  0.830033  1
  F  F19  1  0.169977  0.830023  0.500270  1
  F  F20  1  0.499731  0.830044  0.500257  1
  F  F21  1  0.500012  0.830062  0.169927  1
  F  F22  1  0.830023  0.169977  0.500270  1
  F  F23  1  0.830062  0.500012  0.169927  1
  F  F24  1  0.830044  0.499731  0.500257  1
  F  F25  1  0.500000  0.500000  0.169948  1
  F  F26  1  0.499988  0.169938  0.500001  1
  F  F27  1  0.169938  0.499988  0.500001  1
