# generated using pymatgen
data_Tb5Gd13(ThSn8)2
_symmetry_space_group_name_H-M   'P 1'
_cell_length_a   8.23837497
_cell_length_b   8.35913568
_cell_length_c   15.77701000
_cell_angle_alpha   90.01117932
_cell_angle_beta   90.21678681
_cell_angle_gamma   89.96541242
_symmetry_Int_Tables_number   1
_chemical_formula_structural   Tb5Gd13(ThSn8)2
_chemical_formula_sum   'Tb5 Gd13 Th2 Sn16'
_cell_volume   1086.48674992
_cell_formula_units_Z   1
loop_
 _symmetry_equiv_pos_site_id
 _symmetry_equiv_pos_as_xyz
  1  'x, y, z'
loop_
 _atom_site_type_symbol
 _atom_site_label
 _atom_site_symmetry_multiplicity
 _atom_site_fract_x
 _atom_site_fract_y
 _atom_site_fract_z
 _atom_site_occupancy
  Tb  Tb0  1  0.979666  0.821471  0.096842  1
  Tb  Tb1  1  0.478191  0.679089  0.098341  1
  Tb  Tb2  1  0.978229  0.821185  0.401550  1
  Tb  Tb3  1  0.521289  0.321533  0.598772  1
  Tb  Tb4  1  0.021807  0.179079  0.901163  1
  Gd  Gd5  1  0.367253  0.836822  0.878312  1
  Gd  Gd6  1  0.865876  0.662562  0.622115  1
  Gd  Gd7  1  0.633548  0.163084  0.377286  1
  Gd  Gd8  1  0.131987  0.336925  0.121834  1
  Gd  Gd9  1  0.632686  0.163361  0.121438  1
  Gd  Gd10  1  0.133605  0.336343  0.377523  1
  Gd  Gd11  1  0.366536  0.836339  0.622377  1
  Gd  Gd12  1  0.867660  0.663298  0.878712  1
  Gd  Gd13  1  0.521128  0.321486  0.902867  1
  Gd  Gd14  1  0.197825  0.501426  0.751117  1
  Gd  Gd15  1  0.697812  0.997431  0.751663  1
  Gd  Gd16  1  0.802587  0.497548  0.248608  1
  Gd  Gd17  1  0.302472  0.001379  0.249081  1
  Th  Th18  1  0.018102  0.180470  0.598546  1
  Th  Th19  1  0.482254  0.680632  0.402749  1
  Sn  Sn20  1  0.291406  0.035017  0.042332  1
  Sn  Sn21  1  0.793718  0.462216  0.458409  1
  Sn  Sn22  1  0.705819  0.961501  0.540266  1
  Sn  Sn23  1  0.207887  0.535942  0.958518  1
  Sn  Sn24  1  0.709359  0.965209  0.958285  1
  Sn  Sn25  1  0.207959  0.534341  0.541708  1
  Sn  Sn26  1  0.291941  0.033616  0.457347  1
  Sn  Sn27  1  0.791618  0.466070  0.042599  1
  Sn  Sn28  1  0.565733  0.617183  0.750196  1
  Sn  Sn29  1  0.065897  0.882989  0.749414  1
  Sn  Sn30  1  0.434027  0.384294  0.250999  1
  Sn  Sn31  1  0.934702  0.116407  0.249281  1
  Sn  Sn32  1  0.329039  0.147029  0.749756  1
  Sn  Sn33  1  0.826006  0.355157  0.751414  1
  Sn  Sn34  1  0.673357  0.854735  0.248614  1
  Sn  Sn35  1  0.171015  0.646835  0.249972  1
