# generated using pymatgen
data_La8Al5Ga3
_symmetry_space_group_name_H-M   'P 1'
_cell_length_a   6.05205727
_cell_length_b   11.99311171
_cell_length_c   5.79709600
_cell_angle_alpha   90.00000000
_cell_angle_beta   90.00000000
_cell_angle_gamma   90.10377366
_symmetry_Int_Tables_number   1
_chemical_formula_structural   La8Al5Ga3
_chemical_formula_sum   'La8 Al5 Ga3'
_cell_volume   420.76992269
_cell_formula_units_Z   1
loop_
 _symmetry_equiv_pos_site_id
 _symmetry_equiv_pos_as_xyz
  1  'x, y, z'
loop_
 _atom_site_type_symbol
 _atom_site_label
 _atom_site_symmetry_multiplicity
 _atom_site_fract_x
 _atom_site_fract_y
 _atom_site_fract_z
 _atom_site_occupancy
  La  La0  1  0.166913  0.491581  0.750000  1
  La  La1  1  0.833211  0.508635  0.250000  1
  La  La2  1  0.166482  0.009244  0.250000  1
  La  La3  1  0.832080  0.993285  0.750000  1
  La  La4  1  0.409880  0.165284  0.750000  1
  La  La5  1  0.590953  0.835105  0.250000  1
  La  La6  1  0.409806  0.336279  0.250000  1
  La  La7  1  0.591580  0.662807  0.750000  1
  Al  Al8  1  0.925413  0.250605  0.499737  1
  Al  Al9  1  0.074533  0.749073  0.000551  1
  Al  Al10  1  0.074533  0.749073  0.499449  1
  Al  Al11  1  0.925413  0.250605  0.000263  1
  Al  Al12  1  0.330303  0.896833  0.750000  1
  Ga  Ga13  1  0.669042  0.398228  0.750000  1
  Ga  Ga14  1  0.331534  0.601112  0.250000  1
  Ga  Ga15  1  0.668325  0.102250  0.250000  1
