# generated using pymatgen
data_Pr3SiAuSe7
_symmetry_space_group_name_H-M   'P 1'
_cell_length_a   10.79106700
_cell_length_b   10.79109043
_cell_length_c   6.12569200
_cell_angle_alpha   90.00000000
_cell_angle_beta   90.00000000
_cell_angle_gamma   119.99990914
_symmetry_Int_Tables_number   1
_chemical_formula_structural   Pr3SiAuSe7
_chemical_formula_sum   'Pr6 Si2 Au2 Se14'
_cell_volume   617.75448457
_cell_formula_units_Z   2
loop_
 _symmetry_equiv_pos_site_id
 _symmetry_equiv_pos_as_xyz
  1  'x, y, z'
loop_
 _atom_site_type_symbol
 _atom_site_label
 _atom_site_symmetry_multiplicity
 _atom_site_fract_x
 _atom_site_fract_y
 _atom_site_fract_z
 _atom_site_occupancy
  Pr  Pr0  1  0.122255  0.355195  0.252381  1
  Pr  Pr1  1  0.644805  0.767059  0.252381  1
  Pr  Pr2  1  0.232939  0.877745  0.252383  1
  Pr  Pr3  1  0.767060  0.122255  0.752384  1
  Pr  Pr4  1  0.355195  0.232940  0.752382  1
  Pr  Pr5  1  0.877745  0.644805  0.752382  1
  Si  Si6  1  0.666664  0.333333  0.164020  1
  Si  Si7  1  0.333335  0.666667  0.664021  1
  Au  Au8  1  0.999999  0.999999  0.282325  1
  Au  Au9  1  0.000001  0.000001  0.782326  1
  Se  Se10  1  0.889924  0.411889  0.012681  1
  Se  Se11  1  0.521964  0.110074  0.012679  1
  Se  Se12  1  0.588107  0.478036  0.012675  1
  Se  Se13  1  0.333334  0.666667  0.034705  1
  Se  Se14  1  0.908327  0.730479  0.266590  1
  Se  Se15  1  0.822155  0.091674  0.266591  1
  Se  Se16  1  0.269519  0.177846  0.266590  1
  Se  Se17  1  0.110077  0.588111  0.512680  1
  Se  Se18  1  0.411893  0.521964  0.512674  1
  Se  Se19  1  0.478036  0.889926  0.512680  1
  Se  Se20  1  0.666666  0.333333  0.534704  1
  Se  Se21  1  0.091673  0.269520  0.766589  1
  Se  Se22  1  0.730481  0.822154  0.766590  1
  Se  Se23  1  0.177845  0.908326  0.766591  1
