# generated using pymatgen
data_YbSm(Si7Ir3)2
_symmetry_space_group_name_H-M   'P 1'
_cell_length_a   8.02097550
_cell_length_b   8.02097548
_cell_length_c   8.02097500
_cell_angle_alpha   56.77518177
_cell_angle_beta   56.77518187
_cell_angle_gamma   56.77518541
_symmetry_Int_Tables_number   1
_chemical_formula_structural   YbSm(Si7Ir3)2
_chemical_formula_sum   'Yb1 Sm1 Si14 Ir6'
_cell_volume   337.73158125
_cell_formula_units_Z   1
loop_
 _symmetry_equiv_pos_site_id
 _symmetry_equiv_pos_as_xyz
  1  'x, y, z'
loop_
 _atom_site_type_symbol
 _atom_site_label
 _atom_site_symmetry_multiplicity
 _atom_site_fract_x
 _atom_site_fract_y
 _atom_site_fract_z
 _atom_site_occupancy
  Yb  Yb0  1  0.000000  0.000000  0.000000  1
  Sm  Sm1  1  0.500000  0.500000  0.500000  1
  Si  Si2  1  0.749961  0.749961  0.749961  1
  Si  Si3  1  0.250039  0.250039  0.250039  1
  Si  Si4  1  0.852374  0.064560  0.673549  1
  Si  Si5  1  0.673549  0.852374  0.064560  1
  Si  Si6  1  0.064560  0.673549  0.852374  1
  Si  Si7  1  0.651175  0.828229  0.433747  1
  Si  Si8  1  0.433747  0.651175  0.828229  1
  Si  Si9  1  0.828229  0.433747  0.651175  1
  Si  Si10  1  0.171771  0.566253  0.348825  1
  Si  Si11  1  0.566253  0.348825  0.171771  1
  Si  Si12  1  0.348825  0.171771  0.566253  1
  Si  Si13  1  0.935440  0.326451  0.147626  1
  Si  Si14  1  0.326451  0.147626  0.935440  1
  Si  Si15  1  0.147626  0.935440  0.326451  1
  Ir  Ir16  1  0.070596  0.430424  0.749607  1
  Ir  Ir17  1  0.250393  0.929404  0.569576  1
  Ir  Ir18  1  0.569576  0.250393  0.929404  1
  Ir  Ir19  1  0.929404  0.569576  0.250393  1
  Ir  Ir20  1  0.430424  0.749607  0.070596  1
  Ir  Ir21  1  0.749607  0.070596  0.430424  1
