# generated using pymatgen
data_Mo12PdPt7N4
_symmetry_space_group_name_H-M   'P 1'
_cell_length_a   6.90157092
_cell_length_b   6.90157092
_cell_length_c   6.90157092
_cell_angle_alpha   89.93961308
_cell_angle_beta   89.93961308
_cell_angle_gamma   89.93961308
_symmetry_Int_Tables_number   1
_chemical_formula_structural   Mo12PdPt7N4
_chemical_formula_sum   'Mo12 Pd1 Pt7 N4'
_cell_volume   328.73287760
_cell_formula_units_Z   1
loop_
 _symmetry_equiv_pos_site_id
 _symmetry_equiv_pos_as_xyz
  1  'x, y, z'
loop_
 _atom_site_type_symbol
 _atom_site_label
 _atom_site_symmetry_multiplicity
 _atom_site_fract_x
 _atom_site_fract_y
 _atom_site_fract_z
 _atom_site_occupancy
  Mo  Mo0  1  0.799490  0.050184  0.125215  1
  Mo  Mo1  1  0.050184  0.125215  0.799490  1
  Mo  Mo2  1  0.549916  0.374994  0.199609  1
  Mo  Mo3  1  0.875356  0.298004  0.448928  1
  Mo  Mo4  1  0.125215  0.799490  0.050184  1
  Mo  Mo5  1  0.199609  0.549916  0.374994  1
  Mo  Mo6  1  0.298004  0.448928  0.875356  1
  Mo  Mo7  1  0.448928  0.875356  0.298004  1
  Mo  Mo8  1  0.625827  0.700731  0.951097  1
  Mo  Mo9  1  0.951097  0.625827  0.700731  1
  Mo  Mo10  1  0.374994  0.199609  0.549916  1
  Mo  Mo11  1  0.700731  0.951097  0.625827  1
  Pd  Pd12  1  0.556354  0.556354  0.556354  1
  Pt  Pt13  1  0.193330  0.193330  0.193330  1
  Pt  Pt14  1  0.443435  0.057497  0.941903  1
  Pt  Pt15  1  0.941903  0.443435  0.057497  1
  Pt  Pt16  1  0.057497  0.941903  0.443435  1
  Pt  Pt17  1  0.308948  0.805706  0.692837  1
  Pt  Pt18  1  0.692837  0.308948  0.805706  1
  Pt  Pt19  1  0.805706  0.692837  0.308948  1
  N  N20  1  0.875255  0.875255  0.875255  1
  N  N21  1  0.125569  0.374856  0.624957  1
  N  N22  1  0.624957  0.125569  0.374856  1
  N  N23  1  0.374856  0.624957  0.125569  1
