# generated using pymatgen
data_Ca2MnH7
_symmetry_space_group_name_H-M   'P 1'
_cell_length_a   5.17937778
_cell_length_b   5.05269391
_cell_length_c   7.24116802
_cell_angle_alpha   44.51023385
_cell_angle_beta   46.47855378
_cell_angle_gamma   60.62898746
_symmetry_Int_Tables_number   1
_chemical_formula_structural   Ca2MnH7
_chemical_formula_sum   'Ca2 Mn1 H7'
_cell_volume   96.32909860
_cell_formula_units_Z   1
loop_
 _symmetry_equiv_pos_site_id
 _symmetry_equiv_pos_as_xyz
  1  'x, y, z'
loop_
 _atom_site_type_symbol
 _atom_site_label
 _atom_site_symmetry_multiplicity
 _atom_site_fract_x
 _atom_site_fract_y
 _atom_site_fract_z
 _atom_site_occupancy
  Ca  Ca0  1  0.287076  0.375161  0.902425  1
  Ca  Ca1  1  0.282559  0.372613  0.405746  1
  Mn  Mn2  1  0.785432  0.887403  0.146844  1
  H  H3  1  0.778418  0.257717  0.078524  1
  H  H4  1  0.791519  0.274077  0.849588  1
  H  H5  1  0.341225  0.886138  0.366744  1
  H  H6  1  0.779945  0.800528  0.972332  1
  H  H7  1  0.228988  0.887855  0.928158  1
  H  H8  1  0.786131  0.423071  0.374477  1
  H  H9  1  0.790293  0.788335  0.411446  1
