# generated using pymatgen
data_Hf8MnCo2Pt
_symmetry_space_group_name_H-M   'P 1'
_cell_length_a   8.56650162
_cell_length_b   8.56650071
_cell_length_c   8.55112700
_cell_angle_alpha   60.05934431
_cell_angle_beta   60.05934782
_cell_angle_gamma   60.19083024
_symmetry_Int_Tables_number   1
_chemical_formula_structural   Hf8MnCo2Pt
_chemical_formula_sum   'Hf16 Mn2 Co4 Pt2'
_cell_volume   444.76218408
_cell_formula_units_Z   2
loop_
 _symmetry_equiv_pos_site_id
 _symmetry_equiv_pos_as_xyz
  1  'x, y, z'
loop_
 _atom_site_type_symbol
 _atom_site_label
 _atom_site_symmetry_multiplicity
 _atom_site_fract_x
 _atom_site_fract_y
 _atom_site_fract_z
 _atom_site_occupancy
  Hf  Hf0  1  0.065519  0.645725  0.644379  1
  Hf  Hf1  1  0.645725  0.065519  0.644379  1
  Hf  Hf2  1  0.647217  0.647217  0.060965  1
  Hf  Hf3  1  0.647217  0.647217  0.644603  1
  Hf  Hf4  1  0.794397  0.794397  0.205603  1
  Hf  Hf5  1  0.197458  0.197458  0.802542  1
  Hf  Hf6  1  0.805077  0.197129  0.800348  1
  Hf  Hf7  1  0.197129  0.805077  0.197446  1
  Hf  Hf8  1  0.197129  0.805077  0.800348  1
  Hf  Hf9  1  0.805077  0.197129  0.197446  1
  Hf  Hf10  1  0.436380  0.436380  0.063620  1
  Hf  Hf11  1  0.062781  0.062781  0.437219  1
  Hf  Hf12  1  0.434575  0.054060  0.436704  1
  Hf  Hf13  1  0.054060  0.434575  0.074661  1
  Hf  Hf14  1  0.054060  0.434575  0.436704  1
  Hf  Hf15  1  0.434575  0.054060  0.074661  1
  Mn  Mn16  1  0.755405  0.420602  0.411997  1
  Mn  Mn17  1  0.420602  0.755405  0.411997  1
  Co  Co18  1  0.425246  0.860509  0.857123  1
  Co  Co19  1  0.860509  0.425246  0.857123  1
  Co  Co20  1  0.859094  0.859094  0.427030  1
  Co  Co21  1  0.859094  0.859094  0.854783  1
  Pt  Pt22  1  0.420839  0.420839  0.747557  1
  Pt  Pt23  1  0.420839  0.420839  0.410765  1
