# generated using pymatgen
data_TbDyB6Ir2Rh7
_symmetry_space_group_name_H-M   'P 1'
_cell_length_a   5.61326002
_cell_length_b   5.61326019
_cell_length_c   8.60777400
_cell_angle_alpha   90.00000000
_cell_angle_beta   90.00000000
_cell_angle_gamma   119.79393552
_symmetry_Int_Tables_number   1
_chemical_formula_structural   TbDyB6Ir2Rh7
_chemical_formula_sum   'Tb1 Dy1 B6 Ir2 Rh7'
_cell_volume   235.36932874
_cell_formula_units_Z   1
loop_
 _symmetry_equiv_pos_site_id
 _symmetry_equiv_pos_as_xyz
  1  'x, y, z'
loop_
 _atom_site_type_symbol
 _atom_site_label
 _atom_site_symmetry_multiplicity
 _atom_site_fract_x
 _atom_site_fract_y
 _atom_site_fract_z
 _atom_site_occupancy
  Tb  Tb0  1  0.000000  0.000000  0.703967  1
  Dy  Dy1  1  0.000000  0.000000  0.296005  1
  B  B2  1  0.666834  0.333166  0.000075  1
  B  B3  1  0.333166  0.666834  0.000075  1
  B  B4  1  0.667545  0.332455  0.667920  1
  B  B5  1  0.332455  0.667545  0.667920  1
  B  B6  1  0.332460  0.667540  0.332001  1
  B  B7  1  0.667540  0.332460  0.332001  1
  Ir  Ir8  1  0.500000  0.000000  0.499894  1
  Ir  Ir9  1  0.000000  0.500000  0.499894  1
  Rh  Rh10  1  0.500000  0.500000  0.836144  1
  Rh  Rh11  1  0.500000  0.000000  0.836660  1
  Rh  Rh12  1  0.000000  0.500000  0.836660  1
  Rh  Rh13  1  0.500000  0.500000  0.163984  1
  Rh  Rh14  1  0.500000  0.000000  0.163446  1
  Rh  Rh15  1  0.000000  0.500000  0.163446  1
  Rh  Rh16  1  0.500000  0.500000  0.499907  1
