# generated using pymatgen
data_Re2P4Ru
_symmetry_space_group_name_H-M   'P 1'
_cell_length_a   6.27094089
_cell_length_b   6.27094052
_cell_length_c   6.05958566
_cell_angle_alpha   66.48842029
_cell_angle_beta   66.48842395
_cell_angle_gamma   28.00528801
_symmetry_Int_Tables_number   1
_chemical_formula_structural   Re2P4Ru
_chemical_formula_sum   'Re2 P4 Ru1'
_cell_volume   101.99561453
_cell_formula_units_Z   1
loop_
 _symmetry_equiv_pos_site_id
 _symmetry_equiv_pos_as_xyz
  1  'x, y, z'
loop_
 _atom_site_type_symbol
 _atom_site_label
 _atom_site_symmetry_multiplicity
 _atom_site_fract_x
 _atom_site_fract_y
 _atom_site_fract_z
 _atom_site_occupancy
  Re  Re0  1  0.735244  0.735244  0.318304  1
  Re  Re1  1  0.264756  0.264756  0.681696  1
  P  P2  1  0.917846  0.917846  0.438027  1
  P  P3  1  0.082154  0.082154  0.561973  1
  P  P4  1  0.650816  0.650816  0.021253  1
  P  P5  1  0.349184  0.349184  0.978747  1
  Ru  Ru6  1  0.000000  0.000000  0.000000  1
