# generated using pymatgen
data_Tl3Ru(SO4)6
_symmetry_space_group_name_H-M   'P 1'
_cell_length_a   8.67139033
_cell_length_b   8.67065480
_cell_length_c   9.36287300
_cell_angle_alpha   62.39810595
_cell_angle_beta   62.42953451
_cell_angle_gamma   60.04712107
_symmetry_Int_Tables_number   1
_chemical_formula_structural   Tl3Ru(SO4)6
_chemical_formula_sum   'Tl3 Ru1 S6 O24'
_cell_volume   515.36671138
_cell_formula_units_Z   1
loop_
 _symmetry_equiv_pos_site_id
 _symmetry_equiv_pos_as_xyz
  1  'x, y, z'
loop_
 _atom_site_type_symbol
 _atom_site_label
 _atom_site_symmetry_multiplicity
 _atom_site_fract_x
 _atom_site_fract_y
 _atom_site_fract_z
 _atom_site_occupancy
  Tl  Tl0  1  0.642476  0.641963  0.073606  1
  Tl  Tl1  1  0.353595  0.353486  0.939151  1
  Tl  Tl2  1  0.153333  0.153672  0.540295  1
  Ru  Ru3  1  0.842367  0.842403  0.472586  1
  S  S4  1  0.746039  0.465670  0.744331  1
  S  S5  1  0.043256  0.746332  0.744704  1
  S  S6  1  0.561849  0.954103  0.254122  1
  S  S7  1  0.954570  0.230051  0.254079  1
  S  S8  1  0.229965  0.562141  0.253900  1
  S  S9  1  0.465786  0.043346  0.744274  1
  O  O10  1  0.921446  0.684995  0.918010  1
  O  O11  1  0.477323  0.921138  0.916985  1
  O  O12  1  0.668005  0.983353  0.322479  1
  O  O13  1  0.369145  0.968935  0.370957  1
  O  O14  1  0.000238  0.949707  0.698672  1
  O  O15  1  0.704574  0.659034  0.618689  1
  O  O16  1  0.683921  0.477400  0.916953  1
  O  O17  1  0.660550  0.763453  0.233719  1
  O  O18  1  0.949294  0.350914  0.699674  1
  O  O19  1  0.241283  0.636220  0.742860  1
  O  O20  1  0.636218  0.378538  0.743235  1
  O  O21  1  0.014926  0.704179  0.620753  1
  O  O22  1  0.969399  0.292483  0.369987  1
  O  O23  1  0.342229  0.661655  0.232488  1
  O  O24  1  0.764185  0.341971  0.233018  1
  O  O25  1  0.026456  0.667433  0.323169  1
  O  O26  1  0.379154  0.241317  0.742765  1
  O  O27  1  0.254935  0.557445  0.087334  1
  O  O28  1  0.291832  0.369437  0.370749  1
  O  O29  1  0.983456  0.026442  0.323924  1
  O  O30  1  0.659293  0.016582  0.618957  1
  O  O31  1  0.350991  0.999485  0.699434  1
  O  O32  1  0.557491  0.099719  0.087070  1
  O  O33  1  0.100421  0.254996  0.087072  1
