# generated using pymatgen
data_Tb3DySb6Ru2Rh5
_symmetry_space_group_name_H-M   'P 1'
_cell_length_a   7.59695475
_cell_length_b   7.59308334
_cell_length_c   7.59308261
_cell_angle_alpha   109.27135791
_cell_angle_beta   109.57559723
_cell_angle_gamma   109.57560001
_symmetry_Int_Tables_number   1
_chemical_formula_structural   Tb3DySb6Ru2Rh5
_chemical_formula_sum   'Tb3 Dy1 Sb6 Ru2 Rh5'
_cell_volume   337.13450772
_cell_formula_units_Z   1
loop_
 _symmetry_equiv_pos_site_id
 _symmetry_equiv_pos_as_xyz
  1  'x, y, z'
loop_
 _atom_site_type_symbol
 _atom_site_label
 _atom_site_symmetry_multiplicity
 _atom_site_fract_x
 _atom_site_fract_y
 _atom_site_fract_z
 _atom_site_occupancy
  Tb  Tb0  1  0.001676  0.500834  0.000844  1
  Tb  Tb1  1  0.998324  0.999156  0.499166  1
  Tb  Tb2  1  0.500000  0.500841  0.499159  1
  Dy  Dy3  1  0.500000  0.999143  0.000857  1
  Sb  Sb4  1  0.999756  0.315029  0.315024  1
  Sb  Sb5  1  0.684232  0.998947  0.683388  1
  Sb  Sb6  1  0.684211  0.685514  0.001062  1
  Sb  Sb7  1  0.000244  0.684976  0.684971  1
  Sb  Sb8  1  0.315789  0.998938  0.314486  1
  Sb  Sb9  1  0.315768  0.316612  0.001053  1
  Ru  Ru10  1  0.000000  0.000000  0.000000  1
  Ru  Ru11  1  0.500000  0.750132  0.249868  1
  Rh  Rh12  1  0.750522  0.499640  0.250394  1
  Rh  Rh13  1  0.249478  0.749606  0.500360  1
  Rh  Rh14  1  0.249481  0.500119  0.749362  1
  Rh  Rh15  1  0.500000  0.249875  0.750125  1
  Rh  Rh16  1  0.750519  0.250638  0.499881  1
