# generated using pymatgen
data_Na20HfTi(SiAs6)2
_symmetry_space_group_name_H-M   'P 1'
_cell_length_a   7.56499270
_cell_length_b   8.36160194
_cell_length_c   15.88150241
_cell_angle_alpha   58.99200743
_cell_angle_beta   90.00061744
_cell_angle_gamma   89.93912596
_symmetry_Int_Tables_number   1
_chemical_formula_structural   Na20HfTi(SiAs6)2
_chemical_formula_sum   'Na20 Hf1 Ti1 Si2 As12'
_cell_volume   861.03030572
_cell_formula_units_Z   1
loop_
 _symmetry_equiv_pos_site_id
 _symmetry_equiv_pos_as_xyz
  1  'x, y, z'
loop_
 _atom_site_type_symbol
 _atom_site_label
 _atom_site_symmetry_multiplicity
 _atom_site_fract_x
 _atom_site_fract_y
 _atom_site_fract_z
 _atom_site_occupancy
  Na  Na0  1  0.514487  0.559720  0.754379  1
  Na  Na1  1  0.013347  0.439346  0.746880  1
  Na  Na2  1  0.487670  0.441560  0.236706  1
  Na  Na3  1  0.990324  0.558363  0.258361  1
  Na  Na4  1  0.975849  0.255763  0.582278  1
  Na  Na5  1  0.474230  0.740410  0.919934  1
  Na  Na6  1  0.031504  0.759699  0.416089  1
  Na  Na7  1  0.532562  0.245356  0.083146  1
  Na  Na8  1  0.479457  0.073888  0.591196  1
  Na  Na9  1  0.980688  0.919238  0.911227  1
  Na  Na10  1  0.515128  0.922216  0.410462  1
  Na  Na11  1  0.014476  0.083181  0.088861  1
  Na  Na12  1  0.339641  0.158799  0.916956  1
  Na  Na13  1  0.841769  0.839900  0.584662  1
  Na  Na14  1  0.660316  0.848899  0.079447  1
  Na  Na15  1  0.160738  0.150421  0.419223  1
  Na  Na16  1  0.153104  0.832635  0.741229  1
  Na  Na17  1  0.653334  0.164289  0.760656  1
  Na  Na18  1  0.848905  0.167217  0.256599  1
  Na  Na19  1  0.345835  0.837553  0.240536  1
  Hf  Hf20  1  0.633795  0.510886  0.420313  1
  Ti  Ti21  1  0.132895  0.489407  0.078734  1
  Si  Si22  1  0.866590  0.513400  0.918951  1
  Si  Si23  1  0.365356  0.486130  0.582514  1
  As  As24  1  0.243463  0.756000  0.580153  1
  As  As25  1  0.743813  0.244785  0.919914  1
  As  As26  1  0.760782  0.220515  0.422425  1
  As  As27  1  0.257449  0.768200  0.077740  1
  As  As28  1  0.271142  0.194269  0.720981  1
  As  As29  1  0.770814  0.804973  0.779968  1
  As  As30  1  0.735688  0.821254  0.268441  1
  As  As31  1  0.232169  0.191336  0.224890  1
  As  As32  1  0.190252  0.477884  0.926429  1
  As  As33  1  0.691380  0.521851  0.578750  1
  As  As34  1  0.800946  0.522722  0.066898  1
  As  As35  1  0.290101  0.477936  0.434074  1
