# generated using pymatgen
data_Na4Ni3PdO8
_symmetry_space_group_name_H-M   'P 1'
_cell_length_a   6.35212661
_cell_length_b   6.35212716
_cell_length_c   6.35212700
_cell_angle_alpha   57.59788408
_cell_angle_beta   57.59788095
_cell_angle_gamma   57.59789137
_symmetry_Int_Tables_number   1
_chemical_formula_structural   Na4Ni3PdO8
_chemical_formula_sum   'Na4 Ni3 Pd1 O8'
_cell_volume   171.22749928
_cell_formula_units_Z   1
loop_
 _symmetry_equiv_pos_site_id
 _symmetry_equiv_pos_as_xyz
  1  'x, y, z'
loop_
 _atom_site_type_symbol
 _atom_site_label
 _atom_site_symmetry_multiplicity
 _atom_site_fract_x
 _atom_site_fract_y
 _atom_site_fract_z
 _atom_site_occupancy
  Na  Na0  1  0.500000  0.500000  0.000000  1
  Na  Na1  1  0.000000  0.500000  0.500000  1
  Na  Na2  1  0.000000  0.000000  0.000000  1
  Na  Na3  1  0.500000  0.000000  0.500000  1
  Ni  Ni4  1  0.000000  0.000000  0.500000  1
  Ni  Ni5  1  0.500000  0.000000  0.000000  1
  Ni  Ni6  1  0.000000  0.500000  0.000000  1
  Pd  Pd7  1  0.500000  0.500000  0.500000  1
  O  O8  1  0.268801  0.268801  0.756370  1
  O  O9  1  0.731199  0.731199  0.243630  1
  O  O10  1  0.756370  0.268801  0.268801  1
  O  O11  1  0.243630  0.731199  0.731199  1
  O  O12  1  0.227699  0.227699  0.227699  1
  O  O13  1  0.772301  0.772301  0.772301  1
  O  O14  1  0.268801  0.756370  0.268801  1
  O  O15  1  0.731199  0.243630  0.731199  1
