# generated using pymatgen
data_Ho4Ga4IrPd3
_symmetry_space_group_name_H-M   'P 1'
_cell_length_a   4.44826000
_cell_length_b   6.88389725
_cell_length_c   7.65696949
_cell_angle_alpha   90.22385281
_cell_angle_beta   90.00000000
_cell_angle_gamma   90.00000000
_symmetry_Int_Tables_number   1
_chemical_formula_structural   Ho4Ga4IrPd3
_chemical_formula_sum   'Ho4 Ga4 Ir1 Pd3'
_cell_volume   234.46506614
_cell_formula_units_Z   1
loop_
 _symmetry_equiv_pos_site_id
 _symmetry_equiv_pos_as_xyz
  1  'x, y, z'
loop_
 _atom_site_type_symbol
 _atom_site_label
 _atom_site_symmetry_multiplicity
 _atom_site_fract_x
 _atom_site_fract_y
 _atom_site_fract_z
 _atom_site_occupancy
  Ho  Ho0  1  0.250000  0.016821  0.801112  1
  Ho  Ho1  1  0.250000  0.520037  0.694316  1
  Ho  Ho2  1  0.750000  0.982207  0.203246  1
  Ho  Ho3  1  0.750000  0.492259  0.301596  1
  Ga  Ga4  1  0.250000  0.170593  0.424274  1
  Ga  Ga5  1  0.250000  0.680651  0.076267  1
  Ga  Ga6  1  0.750000  0.821659  0.574918  1
  Ga  Ga7  1  0.750000  0.322697  0.925369  1
  Ir  Ir8  1  0.250000  0.773505  0.403016  1
  Pd  Pd9  1  0.250000  0.281788  0.096540  1
  Pd  Pd10  1  0.750000  0.218410  0.596436  1
  Pd  Pd11  1  0.750000  0.719373  0.902910  1
