# generated using pymatgen
data_Nb16AlFe(NiTe8)2
_symmetry_space_group_name_H-M   'P 1'
_cell_length_a   4.87012300
_cell_length_b   10.85006508
_cell_length_c   18.86796600
_cell_angle_alpha   89.95794340
_cell_angle_beta   90.00000000
_cell_angle_gamma   90.00000000
_symmetry_Int_Tables_number   1
_chemical_formula_structural   Nb16AlFe(NiTe8)2
_chemical_formula_sum   'Nb16 Al1 Fe1 Ni2 Te16'
_cell_volume   997.00478157
_cell_formula_units_Z   1
loop_
 _symmetry_equiv_pos_site_id
 _symmetry_equiv_pos_as_xyz
  1  'x, y, z'
loop_
 _atom_site_type_symbol
 _atom_site_label
 _atom_site_symmetry_multiplicity
 _atom_site_fract_x
 _atom_site_fract_y
 _atom_site_fract_z
 _atom_site_occupancy
  Nb  Nb0  1  0.500797  0.566108  0.379815  1
  Nb  Nb1  1  0.500797  0.433892  0.620185  1
  Nb  Nb2  1  0.501466  0.064935  0.117445  1
  Nb  Nb3  1  0.501466  0.935065  0.882555  1
  Nb  Nb4  1  0.497889  0.710254  0.537700  1
  Nb  Nb5  1  0.497889  0.289746  0.462300  1
  Nb  Nb6  1  0.502097  0.205791  0.963072  1
  Nb  Nb7  1  0.502097  0.794209  0.036928  1
  Nb  Nb8  1  0.000989  0.695146  0.441257  1
  Nb  Nb9  1  0.000989  0.304854  0.558743  1
  Nb  Nb10  1  0.997926  0.191339  0.057390  1
  Nb  Nb11  1  0.997926  0.808661  0.942610  1
  Nb  Nb12  1  0.000327  0.398506  0.388328  1
  Nb  Nb13  1  0.000327  0.601494  0.611672  1
  Nb  Nb14  1  0.998988  0.900388  0.109148  1
  Nb  Nb15  1  0.998988  0.099612  0.890852  1
  Al  Al16  1  0.249788  0.500000  0.500000  1
  Fe  Fe17  1  0.250037  0.000000  0.000000  1
  Ni  Ni18  1  0.748982  0.000000  0.000000  1
  Ni  Ni19  1  0.749596  0.500000  0.500000  1
  Te  Te20  1  0.993753  0.850686  0.563232  1
  Te  Te21  1  0.993753  0.149314  0.436768  1
  Te  Te22  1  0.000314  0.350435  0.936489  1
  Te  Te23  1  0.000314  0.649565  0.063511  1
  Te  Te24  1  0.505906  0.330900  0.313316  1
  Te  Te25  1  0.505906  0.669100  0.686684  1
  Te  Te26  1  0.500369  0.831174  0.186274  1
  Te  Te27  1  0.500369  0.168826  0.813726  1
  Te  Te28  1  0.505882  0.826374  0.402040  1
  Te  Te29  1  0.505882  0.173626  0.597960  1
  Te  Te30  1  0.499737  0.326344  0.097638  1
  Te  Te31  1  0.499737  0.673656  0.902362  1
  Te  Te32  1  0.994478  0.609578  0.298594  1
  Te  Te33  1  0.994478  0.390422  0.701406  1
  Te  Te34  1  0.999883  0.109176  0.200869  1
  Te  Te35  1  0.999883  0.890824  0.799131  1
