# generated using pymatgen
data_Ca20Si11Sn
_symmetry_space_group_name_H-M   'P 1'
_cell_length_a   7.68809200
_cell_length_b   7.68809200
_cell_length_c   14.82718500
_cell_angle_alpha   90.00000000
_cell_angle_beta   90.00000000
_cell_angle_gamma   90.00000000
_symmetry_Int_Tables_number   1
_chemical_formula_structural   Ca20Si11Sn
_chemical_formula_sum   'Ca20 Si11 Sn1'
_cell_volume   876.38684452
_cell_formula_units_Z   1
loop_
 _symmetry_equiv_pos_site_id
 _symmetry_equiv_pos_as_xyz
  1  'x, y, z'
loop_
 _atom_site_type_symbol
 _atom_site_label
 _atom_site_symmetry_multiplicity
 _atom_site_fract_x
 _atom_site_fract_y
 _atom_site_fract_z
 _atom_site_occupancy
  Ca  Ca0  1  0.325773  0.684774  0.113752  1
  Ca  Ca1  1  0.184774  0.174227  0.113752  1
  Ca  Ca2  1  0.500000  0.000000  0.733680  1
  Ca  Ca3  1  0.320184  0.679590  0.391534  1
  Ca  Ca4  1  0.670204  0.689213  0.886512  1
  Ca  Ca5  1  0.179590  0.179816  0.391534  1
  Ca  Ca6  1  0.679816  0.320410  0.391534  1
  Ca  Ca7  1  0.174424  0.815672  0.608358  1
  Ca  Ca8  1  0.329796  0.310787  0.886512  1
  Ca  Ca9  1  0.189213  0.829796  0.886512  1
  Ca  Ca10  1  0.500000  0.000000  0.257060  1
  Ca  Ca11  1  0.825576  0.184328  0.608358  1
  Ca  Ca12  1  0.315672  0.325576  0.608358  1
  Ca  Ca13  1  0.820410  0.820184  0.391534  1
  Ca  Ca14  1  0.810787  0.170204  0.886512  1
  Ca  Ca15  1  0.815226  0.825773  0.113752  1
  Ca  Ca16  1  0.000000  0.500000  0.252934  1
  Ca  Ca17  1  0.000000  0.500000  0.754386  1
  Ca  Ca18  1  0.674227  0.315226  0.113752  1
  Ca  Ca19  1  0.684328  0.674424  0.608358  1
  Si  Si20  1  0.112486  0.112308  0.747069  1
  Si  Si21  1  0.387692  0.612486  0.747069  1
  Si  Si22  1  0.612533  0.612144  0.253038  1
  Si  Si23  1  0.500000  0.000000  0.002670  1
  Si  Si24  1  0.112144  0.887467  0.253038  1
  Si  Si25  1  0.612308  0.387514  0.747069  1
  Si  Si26  1  0.887514  0.887692  0.747069  1
  Si  Si27  1  0.387467  0.387856  0.253038  1
  Si  Si28  1  0.887856  0.112533  0.253038  1
  Si  Si29  1  0.500000  0.000000  0.500715  1
  Si  Si30  1  0.000000  0.500000  0.498684  1
  Sn  Sn31  1  0.000000  0.500000  0.998822  1
