# generated using pymatgen
data_Tb5Tm5Si5As
_symmetry_space_group_name_H-M   'P 1'
_cell_length_a   8.42197032
_cell_length_b   8.43488806
_cell_length_c   6.26488200
_cell_angle_alpha   90.00000000
_cell_angle_beta   90.00000000
_cell_angle_gamma   120.12812657
_symmetry_Int_Tables_number   1
_chemical_formula_structural   Tb5Tm5Si5As
_chemical_formula_sum   'Tb5 Tm5 Si5 As1'
_cell_volume   384.92347258
_cell_formula_units_Z   1
loop_
 _symmetry_equiv_pos_site_id
 _symmetry_equiv_pos_as_xyz
  1  'x, y, z'
loop_
 _atom_site_type_symbol
 _atom_site_label
 _atom_site_symmetry_multiplicity
 _atom_site_fract_x
 _atom_site_fract_y
 _atom_site_fract_z
 _atom_site_occupancy
  Tb  Tb0  1  0.757622  0.757075  0.250000  1
  Tb  Tb1  1  0.243402  0.996100  0.250000  1
  Tb  Tb2  1  0.996607  0.245148  0.250000  1
  Tb  Tb3  1  0.244301  0.244155  0.750000  1
  Tb  Tb4  1  0.755370  0.000252  0.750000  1
  Tm  Tm5  1  0.669030  0.333239  0.501625  1
  Tm  Tm6  1  0.332684  0.668893  0.501642  1
  Tm  Tm7  1  0.332684  0.668893  0.998358  1
  Tm  Tm8  1  0.669030  0.333239  0.998375  1
  Tm  Tm9  1  0.000384  0.754131  0.750000  1
  Si  Si10  1  0.604671  0.999489  0.250000  1
  Si  Si11  1  0.999747  0.604594  0.250000  1
  Si  Si12  1  0.608243  0.606514  0.750000  1
  Si  Si13  1  0.392792  0.999206  0.750000  1
  Si  Si14  1  0.000879  0.396710  0.750000  1
  As  As15  1  0.392553  0.392362  0.250000  1
