# generated using pymatgen
data_TmLu3Al17GaIr6
_symmetry_space_group_name_H-M   'P 1'
_cell_length_a   7.52059950
_cell_length_b   7.52125016
_cell_length_c   9.43712700
_cell_angle_alpha   90.00000000
_cell_angle_beta   90.00000000
_cell_angle_gamma   119.48655727
_symmetry_Int_Tables_number   1
_chemical_formula_structural   TmLu3Al17GaIr6
_chemical_formula_sum   'Tm1 Lu3 Al17 Ga1 Ir6'
_cell_volume   464.66151497
_cell_formula_units_Z   1
loop_
 _symmetry_equiv_pos_site_id
 _symmetry_equiv_pos_as_xyz
  1  'x, y, z'
loop_
 _atom_site_type_symbol
 _atom_site_label
 _atom_site_symmetry_multiplicity
 _atom_site_fract_x
 _atom_site_fract_y
 _atom_site_fract_z
 _atom_site_occupancy
  Tm  Tm0  1  0.994146  0.674124  0.250000  1
  Lu  Lu1  1  0.004610  0.327958  0.750000  1
  Lu  Lu2  1  0.674154  0.993998  0.250000  1
  Lu  Lu3  1  0.328046  0.004717  0.750000  1
  Al  Al4  1  0.870597  0.870666  0.750000  1
  Al  Al5  1  0.000867  0.335247  0.073887  1
  Al  Al6  1  0.999320  0.664455  0.924691  1
  Al  Al7  1  0.999320  0.664455  0.575309  1
  Al  Al8  1  0.335790  0.001090  0.426118  1
  Al  Al9  1  0.000867  0.335247  0.426113  1
  Al  Al10  1  0.664490  0.999325  0.574973  1
  Al  Al11  1  0.664490  0.999325  0.925027  1
  Al  Al12  1  0.335790  0.001090  0.073882  1
  Al  Al13  1  0.332707  0.332718  0.556021  1
  Al  Al14  1  0.665974  0.666211  0.447304  1
  Al  Al15  1  0.665974  0.666211  0.052696  1
  Al  Al16  1  0.332707  0.332718  0.943979  1
  Al  Al17  1  0.338910  0.550080  0.250000  1
  Al  Al18  1  0.660800  0.450433  0.750000  1
  Al  Al19  1  0.549791  0.338273  0.250000  1
  Al  Al20  1  0.450534  0.660922  0.750000  1
  Ga  Ga21  1  0.133084  0.133303  0.250000  1
  Ir  Ir22  1  0.671763  0.327450  0.000037  1
  Ir  Ir23  1  0.327646  0.671936  0.000099  1
  Ir  Ir24  1  0.327646  0.671936  0.499901  1
  Ir  Ir25  1  0.671763  0.327450  0.499963  1
  Ir  Ir26  1  0.999106  0.999330  0.997508  1
  Ir  Ir27  1  0.999106  0.999330  0.502492  1
