# generated using pymatgen
data_Dy7Er9In4Pt3Rh
_symmetry_space_group_name_H-M   'P 1'
_cell_length_a   9.65182035
_cell_length_b   9.65879983
_cell_length_c   9.66504544
_cell_angle_alpha   60.19751376
_cell_angle_beta   60.15769918
_cell_angle_gamma   60.08947200
_symmetry_Int_Tables_number   1
_chemical_formula_structural   Dy7Er9In4Pt3Rh
_chemical_formula_sum   'Dy7 Er9 In4 Pt3 Rh1'
_cell_volume   639.25809414
_cell_formula_units_Z   1
loop_
 _symmetry_equiv_pos_site_id
 _symmetry_equiv_pos_as_xyz
  1  'x, y, z'
loop_
 _atom_site_type_symbol
 _atom_site_label
 _atom_site_symmetry_multiplicity
 _atom_site_fract_x
 _atom_site_fract_y
 _atom_site_fract_z
 _atom_site_occupancy
  Dy  Dy0  1  0.189943  0.190777  0.808581  1
  Dy  Dy1  1  0.439376  0.061890  0.062022  1
  Dy  Dy2  1  0.437422  0.064297  0.436409  1
  Dy  Dy3  1  0.061745  0.439048  0.062534  1
  Dy  Dy4  1  0.651247  0.052237  0.650130  1
  Dy  Dy5  1  0.185994  0.810386  0.810805  1
  Dy  Dy6  1  0.061612  0.062252  0.438817  1
  Er  Er7  1  0.808291  0.190516  0.190246  1
  Er  Er8  1  0.810290  0.810618  0.186761  1
  Er  Er9  1  0.650432  0.650154  0.052269  1
  Er  Er10  1  0.649753  0.649079  0.649157  1
  Er  Er11  1  0.063490  0.437889  0.437010  1
  Er  Er12  1  0.051441  0.651003  0.650111  1
  Er  Er13  1  0.810221  0.186555  0.810934  1
  Er  Er14  1  0.437721  0.437536  0.063720  1
  Er  Er15  1  0.190481  0.807857  0.190963  1
  In  In16  1  0.417256  0.748394  0.416920  1
  In  In17  1  0.417088  0.417180  0.748970  1
  In  In18  1  0.749075  0.417249  0.416819  1
  In  In19  1  0.416040  0.416740  0.415567  1
  Pt  Pt20  1  0.856516  0.428528  0.857713  1
  Pt  Pt21  1  0.858564  0.856728  0.426832  1
  Pt  Pt22  1  0.428709  0.855770  0.858698  1
  Rh  Rh23  1  0.857296  0.857320  0.858014  1
