# generated using pymatgen
data_Y4Ho8Tc3Ir
_symmetry_space_group_name_H-M   'P 1'
_cell_length_a   6.28588205
_cell_length_b   7.44414801
_cell_length_c   9.10261300
_cell_angle_alpha   90.00000000
_cell_angle_beta   90.00000000
_cell_angle_gamma   90.01056554
_symmetry_Int_Tables_number   1
_chemical_formula_structural   Y4Ho8Tc3Ir
_chemical_formula_sum   'Y4 Ho8 Tc3 Ir1'
_cell_volume   425.93889387
_cell_formula_units_Z   1
loop_
 _symmetry_equiv_pos_site_id
 _symmetry_equiv_pos_as_xyz
  1  'x, y, z'
loop_
 _atom_site_type_symbol
 _atom_site_label
 _atom_site_symmetry_multiplicity
 _atom_site_fract_x
 _atom_site_fract_y
 _atom_site_fract_z
 _atom_site_occupancy
  Y  Y0  1  0.875826  0.540858  0.250000  1
  Y  Y1  1  0.623618  0.038451  0.250000  1
  Y  Y2  1  0.129820  0.458495  0.750000  1
  Y  Y3  1  0.371809  0.960570  0.750000  1
  Ho  Ho4  1  0.334587  0.675895  0.064304  1
  Ho  Ho5  1  0.161606  0.175760  0.436670  1
  Ho  Ho6  1  0.663926  0.323039  0.561489  1
  Ho  Ho7  1  0.836874  0.825083  0.938109  1
  Ho  Ho8  1  0.663926  0.323039  0.938511  1
  Ho  Ho9  1  0.836874  0.825083  0.561891  1
  Ho  Ho10  1  0.334587  0.675895  0.435696  1
  Ho  Ho11  1  0.161606  0.175760  0.063330  1
  Tc  Tc12  1  0.043803  0.884205  0.250000  1
  Tc  Tc13  1  0.458522  0.386985  0.250000  1
  Tc  Tc14  1  0.956925  0.115571  0.750000  1
  Ir  Ir15  1  0.545691  0.615313  0.750000  1
