# generated using pymatgen
data_Tb9Pr2In9Ni4
_symmetry_space_group_name_H-M   'P 1'
_cell_length_a   13.16448843
_cell_length_b   13.16448814
_cell_length_c   3.62975100
_cell_angle_alpha   90.00000000
_cell_angle_beta   90.00000000
_cell_angle_gamma   111.16982349
_symmetry_Int_Tables_number   1
_chemical_formula_structural   Tb9Pr2In9Ni4
_chemical_formula_sum   'Tb9 Pr2 In9 Ni4'
_cell_volume   586.59751735
_cell_formula_units_Z   1
loop_
 _symmetry_equiv_pos_site_id
 _symmetry_equiv_pos_as_xyz
  1  'x, y, z'
loop_
 _atom_site_type_symbol
 _atom_site_label
 _atom_site_symmetry_multiplicity
 _atom_site_fract_x
 _atom_site_fract_y
 _atom_site_fract_z
 _atom_site_occupancy
  Tb  Tb0  1  0.500000  0.500000  0.500000  1
  Tb  Tb1  1  0.814768  0.814768  0.500000  1
  Tb  Tb2  1  0.185232  0.185232  0.500000  1
  Tb  Tb3  1  0.577574  0.918955  0.500000  1
  Tb  Tb4  1  0.422426  0.081045  0.500000  1
  Tb  Tb5  1  0.918955  0.577574  0.500000  1
  Tb  Tb6  1  0.081045  0.422426  0.500000  1
  Tb  Tb7  1  0.125821  0.874179  0.500000  1
  Tb  Tb8  1  0.874179  0.125821  0.500000  1
  Pr  Pr9  1  0.341808  0.658192  0.500000  1
  Pr  Pr10  1  0.658192  0.341808  0.500000  1
  In  In11  1  0.337759  0.870149  0.000000  1
  In  In12  1  0.662241  0.129851  0.000000  1
  In  In13  1  0.870149  0.337759  0.000000  1
  In  In14  1  0.129851  0.662241  0.000000  1
  In  In15  1  0.582100  0.722110  0.000000  1
  In  In16  1  0.417900  0.277890  0.000000  1
  In  In17  1  0.722110  0.582100  0.000000  1
  In  In18  1  0.277890  0.417900  0.000000  1
  In  In19  1  0.000000  0.000000  0.000000  1
  Ni  Ni20  1  0.747688  0.951187  0.000000  1
  Ni  Ni21  1  0.252312  0.048813  0.000000  1
  Ni  Ni22  1  0.951187  0.747688  0.000000  1
  Ni  Ni23  1  0.048813  0.252312  0.000000  1
