# generated using pymatgen
data_Nb4GeB2W
_symmetry_space_group_name_H-M   'P 1'
_cell_length_a   7.34595488
_cell_length_b   7.34595529
_cell_length_c   7.34595521
_cell_angle_alpha   129.72330138
_cell_angle_beta   129.72330044
_cell_angle_gamma   73.84949918
_symmetry_Int_Tables_number   1
_chemical_formula_structural   Nb4GeB2W
_chemical_formula_sum   'Nb8 Ge2 B4 W2'
_cell_volume   228.75089857
_cell_formula_units_Z   2
loop_
 _symmetry_equiv_pos_site_id
 _symmetry_equiv_pos_as_xyz
  1  'x, y, z'
loop_
 _atom_site_type_symbol
 _atom_site_label
 _atom_site_symmetry_multiplicity
 _atom_site_fract_x
 _atom_site_fract_y
 _atom_site_fract_z
 _atom_site_occupancy
  Nb  Nb0  1  0.529863  0.696847  0.500000  1
  Nb  Nb1  1  0.196847  0.029863  0.500000  1
  Nb  Nb2  1  0.029863  0.529863  0.833016  1
  Nb  Nb3  1  0.696847  0.196847  0.166984  1
  Nb  Nb4  1  0.470137  0.303153  0.500000  1
  Nb  Nb5  1  0.803153  0.970137  0.500000  1
  Nb  Nb6  1  0.970137  0.470137  0.166984  1
  Nb  Nb7  1  0.303153  0.803153  0.833016  1
  Ge  Ge8  1  0.250000  0.250000  0.000000  1
  Ge  Ge9  1  0.750000  0.750000  0.000000  1
  B  B10  1  0.878368  0.621632  0.500000  1
  B  B11  1  0.121632  0.378368  0.500000  1
  B  B12  1  0.378368  0.878368  0.256737  1
  B  B13  1  0.621632  0.121632  0.743263  1
  W  W14  1  0.500000  0.500000  0.000000  1
  W  W15  1  0.000000  0.000000  0.000000  1
