# generated using pymatgen
data_Pr6Si5Ag3
_symmetry_space_group_name_H-M   'P 1'
_cell_length_a   5.99710405
_cell_length_b   5.99710394
_cell_length_c   14.27879736
_cell_angle_alpha   71.09886516
_cell_angle_beta   71.09886473
_cell_angle_gamma   44.57308013
_symmetry_Int_Tables_number   1
_chemical_formula_structural   Pr6Si5Ag3
_chemical_formula_sum   'Pr6 Si5 Ag3'
_cell_volume   337.60420940
_cell_formula_units_Z   1
loop_
 _symmetry_equiv_pos_site_id
 _symmetry_equiv_pos_as_xyz
  1  'x, y, z'
loop_
 _atom_site_type_symbol
 _atom_site_label
 _atom_site_symmetry_multiplicity
 _atom_site_fract_x
 _atom_site_fract_y
 _atom_site_fract_z
 _atom_site_occupancy
  Pr  Pr0  1  0.261462  0.261462  0.719409  1
  Pr  Pr1  1  0.744417  0.744417  0.279940  1
  Pr  Pr2  1  0.460319  0.460319  0.878826  1
  Pr  Pr3  1  0.535372  0.535372  0.122979  1
  Pr  Pr4  1  0.608129  0.608129  0.572587  1
  Pr  Pr5  1  0.396090  0.396090  0.423632  1
  Si  Si6  1  0.896200  0.896200  0.573556  1
  Si  Si7  1  0.104122  0.104122  0.424041  1
  Si  Si8  1  0.970623  0.970623  0.719374  1
  Si  Si9  1  0.035734  0.035734  0.275758  1
  Si  Si10  1  0.862127  0.862127  0.047623  1
  Ag  Ag11  1  0.763509  0.763509  0.892587  1
  Ag  Ag12  1  0.248874  0.248874  0.112284  1
  Ag  Ag13  1  0.113022  0.113022  0.957402  1
