# generated using pymatgen
data_BaNb6BiS12
_symmetry_space_group_name_H-M   'P 1'
_cell_length_a   5.86238700
_cell_length_b   5.86238669
_cell_length_c   15.10869400
_cell_angle_alpha   90.00000000
_cell_angle_beta   90.00000000
_cell_angle_gamma   119.99999610
_symmetry_Int_Tables_number   1
_chemical_formula_structural   BaNb6BiS12
_chemical_formula_sum   'Ba1 Nb6 Bi1 S12'
_cell_volume   449.68305258
_cell_formula_units_Z   1
loop_
 _symmetry_equiv_pos_site_id
 _symmetry_equiv_pos_as_xyz
  1  'x, y, z'
loop_
 _atom_site_type_symbol
 _atom_site_label
 _atom_site_symmetry_multiplicity
 _atom_site_fract_x
 _atom_site_fract_y
 _atom_site_fract_z
 _atom_site_occupancy
  Ba  Ba0  1  0.000000  0.000000  0.500000  1
  Nb  Nb1  1  0.000000  0.000000  0.762178  1
  Nb  Nb2  1  0.000000  0.000000  0.237822  1
  Nb  Nb3  1  0.333333  0.666667  0.236730  1
  Nb  Nb4  1  0.666667  0.333333  0.763270  1
  Nb  Nb5  1  0.666667  0.333333  0.236730  1
  Nb  Nb6  1  0.333333  0.666667  0.763270  1
  Bi  Bi7  1  0.000000  0.000000  0.000000  1
  S  S8  1  0.337838  0.000000  0.133672  1
  S  S9  1  0.000000  0.337838  0.133672  1
  S  S10  1  0.662162  0.662162  0.133672  1
  S  S11  1  0.337950  0.337950  0.659644  1
  S  S12  1  0.662050  0.662050  0.340356  1
  S  S13  1  0.662050  0.000000  0.659644  1
  S  S14  1  0.000000  0.662050  0.659644  1
  S  S15  1  0.000000  0.662162  0.866328  1
  S  S16  1  0.337838  0.337838  0.866328  1
  S  S17  1  0.000000  0.337950  0.340356  1
  S  S18  1  0.337950  0.000000  0.340356  1
  S  S19  1  0.662162  0.000000  0.866328  1
