# generated using pymatgen
data_Tm2Lu2Sn5GeIr7
_symmetry_space_group_name_H-M   'P 1'
_cell_length_a   7.49052575
_cell_length_b   7.49804746
_cell_length_c   7.49804857
_cell_angle_alpha   109.46416871
_cell_angle_beta   109.49510034
_cell_angle_gamma   109.49508469
_symmetry_Int_Tables_number   1
_chemical_formula_structural   Tm2Lu2Sn5GeIr7
_chemical_formula_sum   'Tm2 Lu2 Sn5 Ge1 Ir7'
_cell_volume   324.01754146
_cell_formula_units_Z   1
loop_
 _symmetry_equiv_pos_site_id
 _symmetry_equiv_pos_as_xyz
  1  'x, y, z'
loop_
 _atom_site_type_symbol
 _atom_site_label
 _atom_site_symmetry_multiplicity
 _atom_site_fract_x
 _atom_site_fract_y
 _atom_site_fract_z
 _atom_site_occupancy
  Tm  Tm0  1  0.464406  0.989996  0.989996  1
  Tm  Tm1  1  0.535594  0.525590  0.525590  1
  Lu  Lu2  1  0.000000  0.989370  0.526067  1
  Lu  Lu3  1  0.000000  0.526067  0.989370  1
  Sn  Sn4  1  0.688800  0.700542  0.012945  1
  Sn  Sn5  1  0.311200  0.011743  0.324145  1
  Sn  Sn6  1  0.000000  0.292885  0.292885  1
  Sn  Sn7  1  0.311200  0.324145  0.011743  1
  Sn  Sn8  1  0.688800  0.012945  0.700542  1
  Ge  Ge9  1  0.000000  0.661677  0.661677  1
  Ir  Ir10  1  0.754825  0.249808  0.496456  1
  Ir  Ir11  1  0.754825  0.496456  0.249808  1
  Ir  Ir12  1  0.500000  0.258290  0.758290  1
  Ir  Ir13  1  0.245175  0.494983  0.741631  1
  Ir  Ir14  1  0.245175  0.741631  0.494983  1
  Ir  Ir15  1  0.500000  0.758290  0.258290  1
  Ir  Ir16  1  0.000000  0.965584  0.965584  1
