# generated using pymatgen
data_NaV2(Sb6Pt)2
_symmetry_space_group_name_H-M   'P 1'
_cell_length_a   8.24290181
_cell_length_b   8.34845046
_cell_length_c   8.34845119
_cell_angle_alpha   110.03474088
_cell_angle_beta   109.41150493
_cell_angle_gamma   109.47997969
_symmetry_Int_Tables_number   1
_chemical_formula_structural   NaV2(Sb6Pt)2
_chemical_formula_sum   'Na1 V2 Sb12 Pt2'
_cell_volume   439.42067641
_cell_formula_units_Z   1
loop_
 _symmetry_equiv_pos_site_id
 _symmetry_equiv_pos_as_xyz
  1  'x, y, z'
loop_
 _atom_site_type_symbol
 _atom_site_label
 _atom_site_symmetry_multiplicity
 _atom_site_fract_x
 _atom_site_fract_y
 _atom_site_fract_z
 _atom_site_occupancy
  Na  Na0  1  0.000000  0.000000  0.000000  1
  V  V1  1  0.500000  0.000000  0.000000  1
  V  V2  1  0.500000  0.500000  0.500000  1
  Sb  Sb3  1  0.344526  0.191004  0.847604  1
  Sb  Sb4  1  0.655474  0.808996  0.152396  1
  Sb  Sb5  1  0.655474  0.503079  0.846477  1
  Sb  Sb6  1  0.344526  0.496921  0.153523  1
  Sb  Sb7  1  0.195465  0.849389  0.346076  1
  Sb  Sb8  1  0.804535  0.150611  0.653924  1
  Sb  Sb9  1  0.505597  0.844504  0.661092  1
  Sb  Sb10  1  0.494403  0.155496  0.338908  1
  Sb  Sb11  1  0.848192  0.345143  0.189949  1
  Sb  Sb12  1  0.151808  0.654857  0.810051  1
  Sb  Sb13  1  0.848192  0.658243  0.503050  1
  Sb  Sb14  1  0.151808  0.341757  0.496950  1
  Pt  Pt15  1  0.000000  0.000000  0.500000  1
  Pt  Pt16  1  0.000000  0.500000  0.000000  1
