# generated using pymatgen
data_NaLa5NdIrBr12
_symmetry_space_group_name_H-M   'P 1'
_cell_length_a   9.54068476
_cell_length_b   9.86604124
_cell_length_c   9.86197536
_cell_angle_alpha   107.73120010
_cell_angle_beta   107.25387440
_cell_angle_gamma   107.11025353
_symmetry_Int_Tables_number   1
_chemical_formula_structural   NaLa5NdIrBr12
_chemical_formula_sum   'Na1 La5 Nd1 Ir1 Br12'
_cell_volume   765.24423960
_cell_formula_units_Z   1
loop_
 _symmetry_equiv_pos_site_id
 _symmetry_equiv_pos_as_xyz
  1  'x, y, z'
loop_
 _atom_site_type_symbol
 _atom_site_label
 _atom_site_symmetry_multiplicity
 _atom_site_fract_x
 _atom_site_fract_y
 _atom_site_fract_z
 _atom_site_occupancy
  Na  Na0  1  0.499855  0.500038  0.499831  1
  La  La1  1  0.303545  0.028468  0.107289  1
  La  La2  1  0.030852  0.122238  0.331010  1
  La  La3  1  0.969749  0.879839  0.669635  1
  La  La4  1  0.696498  0.971827  0.892617  1
  La  La5  1  0.877789  0.669134  0.967889  1
  Nd  Nd6  1  0.120932  0.326189  0.032569  1
  Ir  Ir7  1  0.000231  0.000659  0.000218  1
  Br  Br8  1  0.214412  0.684099  0.071892  1
  Br  Br9  1  0.457936  0.372448  0.162065  1
  Br  Br10  1  0.679759  0.069807  0.212554  1
  Br  Br11  1  0.929401  0.789419  0.314643  1
  Br  Br12  1  0.158589  0.454187  0.366648  1
  Br  Br13  1  0.373607  0.162506  0.454091  1
  Br  Br14  1  0.626481  0.837713  0.546003  1
  Br  Br15  1  0.841439  0.545995  0.630527  1
  Br  Br16  1  0.071334  0.212581  0.687900  1
  Br  Br17  1  0.320310  0.930346  0.787448  1
  Br  Br18  1  0.538383  0.627942  0.836156  1
  Br  Br19  1  0.788902  0.314567  0.929018  1
