# generated using pymatgen
data_Dy10(IrAu)3
_symmetry_space_group_name_H-M   'P 1'
_cell_length_a   11.26872741
_cell_length_b   11.24020400
_cell_length_c   6.30070028
_cell_angle_alpha   90.00000000
_cell_angle_beta   89.75456481
_cell_angle_gamma   90.00000000
_symmetry_Int_Tables_number   1
_chemical_formula_structural   Dy10(IrAu)3
_chemical_formula_sum   'Dy20 Ir6 Au6'
_cell_volume   798.05698505
_cell_formula_units_Z   2
loop_
 _symmetry_equiv_pos_site_id
 _symmetry_equiv_pos_as_xyz
  1  'x, y, z'
loop_
 _atom_site_type_symbol
 _atom_site_label
 _atom_site_symmetry_multiplicity
 _atom_site_fract_x
 _atom_site_fract_y
 _atom_site_fract_z
 _atom_site_occupancy
  Dy  Dy0  1  0.300389  0.092212  0.364315  1
  Dy  Dy1  1  0.300389  0.907788  0.864315  1
  Dy  Dy2  1  0.697452  0.084067  0.857359  1
  Dy  Dy3  1  0.697452  0.915933  0.357359  1
  Dy  Dy4  1  0.576264  0.791767  0.861342  1
  Dy  Dy5  1  0.576264  0.208233  0.361342  1
  Dy  Dy6  1  0.409978  0.793268  0.374904  1
  Dy  Dy7  1  0.409978  0.206732  0.874904  1
  Dy  Dy8  1  0.212420  0.417234  0.625347  1
  Dy  Dy9  1  0.212420  0.582766  0.125347  1
  Dy  Dy10  1  0.799687  0.415105  0.138861  1
  Dy  Dy11  1  0.799687  0.584895  0.638861  1
  Dy  Dy12  1  0.919621  0.699999  0.140659  1
  Dy  Dy13  1  0.919621  0.300001  0.640659  1
  Dy  Dy14  1  0.096583  0.698033  0.638605  1
  Dy  Dy15  1  0.096583  0.301967  0.138605  1
  Dy  Dy16  1  0.999173  0.998878  0.500186  1
  Dy  Dy17  1  0.999173  0.001122  0.000186  1
  Dy  Dy18  1  0.491387  0.498345  0.998165  1
  Dy  Dy19  1  0.491387  0.501655  0.498165  1
  Ir  Ir20  1  0.346633  0.346042  0.249674  1
  Ir  Ir21  1  0.346633  0.653958  0.749674  1
  Ir  Ir22  1  0.499001  0.999028  0.111663  1
  Ir  Ir23  1  0.499001  0.000972  0.611663  1
  Ir  Ir24  1  0.999874  0.500334  0.889779  1
  Ir  Ir25  1  0.999874  0.499666  0.389779  1
  Au  Au26  1  0.841832  0.155137  0.251155  1
  Au  Au27  1  0.841832  0.844863  0.751155  1
  Au  Au28  1  0.154469  0.156024  0.749147  1
  Au  Au29  1  0.154469  0.843976  0.249147  1
  Au  Au30  1  0.655237  0.346575  0.748839  1
  Au  Au31  1  0.655237  0.653425  0.248839  1
