# generated using pymatgen
data_Y2Sc2Si7Pt9W
_symmetry_space_group_name_H-M   'P 1'
_cell_length_a   9.94056617
_cell_length_b   9.96056120
_cell_length_c   3.98641500
_cell_angle_alpha   90.00000000
_cell_angle_beta   90.00000000
_cell_angle_gamma   119.65218071
_symmetry_Int_Tables_number   1
_chemical_formula_structural   Y2Sc2Si7Pt9W
_chemical_formula_sum   'Y2 Sc2 Si7 Pt9 W1'
_cell_volume   343.02009634
_cell_formula_units_Z   1
loop_
 _symmetry_equiv_pos_site_id
 _symmetry_equiv_pos_as_xyz
  1  'x, y, z'
loop_
 _atom_site_type_symbol
 _atom_site_label
 _atom_site_symmetry_multiplicity
 _atom_site_fract_x
 _atom_site_fract_y
 _atom_site_fract_z
 _atom_site_occupancy
  Y  Y0  1  0.000965  0.995363  0.000000  1
  Y  Y1  1  0.331654  0.668320  0.500000  1
  Sc  Sc2  1  0.567292  0.110872  0.500000  1
  Sc  Sc3  1  0.547876  0.438730  0.500000  1
  Si  Si4  1  0.247015  0.202146  0.500000  1
  Si  Si5  1  0.804015  0.045918  0.500000  1
  Si  Si6  1  0.952132  0.733873  0.500000  1
  Si  Si7  1  0.552722  0.643178  0.000000  1
  Si  Si8  1  0.356236  0.913174  0.000000  1
  Si  Si9  1  0.079364  0.447717  0.000000  1
  Si  Si10  1  0.679791  0.338887  0.000000  1
  Pt  Pt11  1  0.219598  0.940416  0.500000  1
  Pt  Pt12  1  0.059230  0.286603  0.500000  1
  Pt  Pt13  1  0.718765  0.777010  0.500000  1
  Pt  Pt14  1  0.305833  0.410886  0.000000  1
  Pt  Pt15  1  0.588478  0.899689  0.000000  1
  Pt  Pt16  1  0.098285  0.693113  0.000000  1
  Pt  Pt17  1  0.393817  0.178060  0.000000  1
  Pt  Pt18  1  0.829387  0.207719  0.000000  1
  Pt  Pt19  1  0.784843  0.613495  0.000000  1
  W  W20  1  0.882699  0.454831  0.500000  1
