# generated using pymatgen
data_La2Cu2SbAsP2
_symmetry_space_group_name_H-M   'P 1'
_cell_length_a   3.99869300
_cell_length_b   3.99869300
_cell_length_c   10.35547100
_cell_angle_alpha   90.00000000
_cell_angle_beta   90.00000000
_cell_angle_gamma   90.00000000
_symmetry_Int_Tables_number   1
_chemical_formula_structural   La2Cu2SbAsP2
_chemical_formula_sum   'La2 Cu2 Sb1 As1 P2'
_cell_volume   165.57927688
_cell_formula_units_Z   1
loop_
 _symmetry_equiv_pos_site_id
 _symmetry_equiv_pos_as_xyz
  1  'x, y, z'
loop_
 _atom_site_type_symbol
 _atom_site_label
 _atom_site_symmetry_multiplicity
 _atom_site_fract_x
 _atom_site_fract_y
 _atom_site_fract_z
 _atom_site_occupancy
  La  La0  1  0.000000  0.500000  0.742358  1
  La  La1  1  0.500000  0.000000  0.257642  1
  Cu  Cu2  1  0.500000  0.500000  0.500000  1
  Cu  Cu3  1  0.000000  0.000000  0.500000  1
  Sb  Sb4  1  0.000000  0.000000  0.000000  1
  As  As5  1  0.500000  0.500000  0.000000  1
  P  P6  1  0.000000  0.500000  0.364647  1
  P  P7  1  0.500000  0.000000  0.635353  1
