# generated using pymatgen
data_Er4Fe3Os5
_symmetry_space_group_name_H-M   'P 1'
_cell_length_a   5.21970466
_cell_length_b   5.21537960
_cell_length_c   8.74594900
_cell_angle_alpha   90.00000000
_cell_angle_beta   90.00000000
_cell_angle_gamma   119.97260060
_symmetry_Int_Tables_number   1
_chemical_formula_structural   Er4Fe3Os5
_chemical_formula_sum   'Er4 Fe3 Os5'
_cell_volume   206.24777250
_cell_formula_units_Z   1
loop_
 _symmetry_equiv_pos_site_id
 _symmetry_equiv_pos_as_xyz
  1  'x, y, z'
loop_
 _atom_site_type_symbol
 _atom_site_label
 _atom_site_symmetry_multiplicity
 _atom_site_fract_x
 _atom_site_fract_y
 _atom_site_fract_z
 _atom_site_occupancy
  Er  Er0  1  0.330510  0.665256  0.436770  1
  Er  Er1  1  0.661481  0.330739  0.564371  1
  Er  Er2  1  0.661481  0.330739  0.935629  1
  Er  Er3  1  0.330510  0.665256  0.063230  1
  Fe  Fe4  1  0.175954  0.343358  0.750000  1
  Fe  Fe5  1  0.175954  0.832594  0.750000  1
  Fe  Fe6  1  0.339265  0.169633  0.250000  1
  Os  Os7  1  0.834811  0.660865  0.250000  1
  Os  Os8  1  0.664245  0.832122  0.750000  1
  Os  Os9  1  0.995490  0.997744  0.995126  1
  Os  Os10  1  0.834811  0.173946  0.250000  1
  Os  Os11  1  0.995490  0.997744  0.504874  1
