# generated using pymatgen
data_SmDy5Co2(P3Rh4)4
_symmetry_space_group_name_H-M   'P 1'
_cell_length_a   3.87356900
_cell_length_b   11.14231100
_cell_length_c   12.80951200
_cell_angle_alpha   90.00000000
_cell_angle_beta   90.00000000
_cell_angle_gamma   90.00000000
_symmetry_Int_Tables_number   1
_chemical_formula_structural   SmDy5Co2(P3Rh4)4
_chemical_formula_sum   'Sm1 Dy5 Co2 P12 Rh16'
_cell_volume   552.86507689
_cell_formula_units_Z   1
loop_
 _symmetry_equiv_pos_site_id
 _symmetry_equiv_pos_as_xyz
  1  'x, y, z'
loop_
 _atom_site_type_symbol
 _atom_site_label
 _atom_site_symmetry_multiplicity
 _atom_site_fract_x
 _atom_site_fract_y
 _atom_site_fract_z
 _atom_site_occupancy
  Sm  Sm0  1  0.000000  0.500000  0.522316  1
  Dy  Dy1  1  0.500000  0.000000  0.478014  1
  Dy  Dy2  1  0.500000  0.814986  0.201858  1
  Dy  Dy3  1  0.500000  0.185014  0.201858  1
  Dy  Dy4  1  0.000000  0.685347  0.798342  1
  Dy  Dy5  1  0.000000  0.314653  0.798342  1
  Co  Co6  1  0.000000  0.500000  0.979227  1
  Co  Co7  1  0.500000  0.000000  0.020860  1
  P  P8  1  0.500000  0.500000  0.882005  1
  P  P9  1  0.000000  0.000000  0.118719  1
  P  P10  1  0.500000  0.500000  0.349686  1
  P  P11  1  0.000000  0.000000  0.648236  1
  P  P12  1  0.500000  0.314587  0.620008  1
  P  P13  1  0.500000  0.685413  0.620008  1
  P  P14  1  0.000000  0.184228  0.380558  1
  P  P15  1  0.000000  0.815772  0.380558  1
  P  P16  1  0.500000  0.853456  0.896151  1
  P  P17  1  0.500000  0.146544  0.896151  1
  P  P18  1  0.000000  0.646634  0.103837  1
  P  P19  1  0.000000  0.353366  0.103837  1
  Rh  Rh20  1  0.500000  0.500000  0.167762  1
  Rh  Rh21  1  0.000000  0.000000  0.831404  1
  Rh  Rh22  1  0.500000  0.500000  0.704854  1
  Rh  Rh23  1  0.000000  0.000000  0.296862  1
  Rh  Rh24  1  0.500000  0.336526  0.993949  1
  Rh  Rh25  1  0.500000  0.663474  0.993949  1
  Rh  Rh26  1  0.000000  0.163263  0.005999  1
  Rh  Rh27  1  0.000000  0.836737  0.005999  1
  Rh  Rh28  1  0.500000  0.292416  0.429762  1
  Rh  Rh29  1  0.500000  0.707584  0.429762  1
  Rh  Rh30  1  0.000000  0.205282  0.569967  1
  Rh  Rh31  1  0.000000  0.794718  0.569967  1
  Rh  Rh32  1  0.500000  0.873637  0.712300  1
  Rh  Rh33  1  0.500000  0.126363  0.712300  1
  Rh  Rh34  1  0.000000  0.626778  0.287297  1
  Rh  Rh35  1  0.000000  0.373222  0.287297  1
