# generated using pymatgen
data_Dy20Bi8Ir3Os
_symmetry_space_group_name_H-M   'P 1'
_cell_length_a   7.99417410
_cell_length_b   9.03460600
_cell_length_c   12.53812716
_cell_angle_alpha   90.00000000
_cell_angle_beta   89.98171916
_cell_angle_gamma   90.00000000
_symmetry_Int_Tables_number   1
_chemical_formula_structural   Dy20Bi8Ir3Os
_chemical_formula_sum   'Dy20 Bi8 Ir3 Os1'
_cell_volume   905.55632432
_cell_formula_units_Z   1
loop_
 _symmetry_equiv_pos_site_id
 _symmetry_equiv_pos_as_xyz
  1  'x, y, z'
loop_
 _atom_site_type_symbol
 _atom_site_label
 _atom_site_symmetry_multiplicity
 _atom_site_fract_x
 _atom_site_fract_y
 _atom_site_fract_z
 _atom_site_occupancy
  Dy  Dy0  1  0.841366  0.750000  0.793398  1
  Dy  Dy1  1  0.159510  0.250000  0.206947  1
  Dy  Dy2  1  0.340037  0.250000  0.706591  1
  Dy  Dy3  1  0.660992  0.750000  0.292421  1
  Dy  Dy4  1  0.375610  0.750000  0.693271  1
  Dy  Dy5  1  0.624971  0.250000  0.306617  1
  Dy  Dy6  1  0.875596  0.250000  0.806061  1
  Dy  Dy7  1  0.123249  0.750000  0.193623  1
  Dy  Dy8  1  0.945568  0.750000  0.502366  1
  Dy  Dy9  1  0.053508  0.250000  0.497896  1
  Dy  Dy10  1  0.443940  0.250000  0.997398  1
  Dy  Dy11  1  0.556393  0.750000  0.002719  1
  Dy  Dy12  1  0.676080  0.043542  0.565741  1
  Dy  Dy13  1  0.324092  0.957180  0.434185  1
  Dy  Dy14  1  0.175501  0.955428  0.934918  1
  Dy  Dy15  1  0.324092  0.542820  0.434185  1
  Dy  Dy16  1  0.824906  0.041218  0.064964  1
  Dy  Dy17  1  0.676080  0.456458  0.565741  1
  Dy  Dy18  1  0.824906  0.458782  0.064964  1
  Dy  Dy19  1  0.175501  0.544572  0.934918  1
  Bi  Bi20  1  0.567749  0.491548  0.827148  1
  Bi  Bi21  1  0.431906  0.508328  0.173129  1
  Bi  Bi22  1  0.068201  0.508395  0.672952  1
  Bi  Bi23  1  0.431906  0.991672  0.173129  1
  Bi  Bi24  1  0.931917  0.491378  0.327281  1
  Bi  Bi25  1  0.567749  0.008452  0.827148  1
  Bi  Bi26  1  0.931917  0.008622  0.327281  1
  Bi  Bi27  1  0.068201  0.991605  0.672952  1
  Ir  Ir28  1  0.571909  0.750000  0.509555  1
  Ir  Ir29  1  0.428126  0.250000  0.489784  1
  Ir  Ir30  1  0.073564  0.250000  0.989530  1
  Os  Os31  1  0.924959  0.750000  0.011190  1
