# generated using pymatgen
data_K2TaFeSe4
_symmetry_space_group_name_H-M   'P 1'
_cell_length_a   14.10302318
_cell_length_b   12.63114054
_cell_length_c   7.48858435
_cell_angle_alpha   84.92661955
_cell_angle_beta   63.14146711
_cell_angle_gamma   31.93191847
_symmetry_Int_Tables_number   1
_chemical_formula_structural   K2TaFeSe4
_chemical_formula_sum   'K4 Ta2 Fe2 Se8'
_cell_volume   491.27806374
_cell_formula_units_Z   2
loop_
 _symmetry_equiv_pos_site_id
 _symmetry_equiv_pos_as_xyz
  1  'x, y, z'
loop_
 _atom_site_type_symbol
 _atom_site_label
 _atom_site_symmetry_multiplicity
 _atom_site_fract_x
 _atom_site_fract_y
 _atom_site_fract_z
 _atom_site_occupancy
  K  K0  1  0.820346  0.820346  0.179654  1
  K  K1  1  0.179654  0.179654  0.820346  1
  K  K2  1  0.429654  0.429654  0.070346  1
  K  K3  1  0.070346  0.070346  0.429654  1
  Ta  Ta4  1  0.000000  0.000000  0.000000  1
  Ta  Ta5  1  0.250000  0.250000  0.250000  1
  Fe  Fe6  1  0.750000  0.750000  0.750000  1
  Fe  Fe7  1  0.500000  0.500000  0.500000  1
  Se  Se8  1  0.157179  0.455224  0.545578  1
  Se  Se9  1  0.407981  0.704422  0.794776  1
  Se  Se10  1  0.704422  0.407981  0.092821  1
  Se  Se11  1  0.794776  0.092821  0.407981  1
  Se  Se12  1  0.545578  0.842019  0.157179  1
  Se  Se13  1  0.455224  0.157179  0.842019  1
  Se  Se14  1  0.092821  0.794776  0.704422  1
  Se  Se15  1  0.842019  0.545578  0.455224  1
