# generated using pymatgen
data_NdErRe7Si4Mo
_symmetry_space_group_name_H-M   'P 1'
_cell_length_a   7.72846670
_cell_length_b   7.15519578
_cell_length_c   4.18063200
_cell_angle_alpha   90.00000000
_cell_angle_beta   90.00000000
_cell_angle_gamma   90.59416266
_symmetry_Int_Tables_number   1
_chemical_formula_structural   NdErRe7Si4Mo
_chemical_formula_sum   'Nd1 Er1 Re7 Si4 Mo1'
_cell_volume   231.17105219
_cell_formula_units_Z   1
loop_
 _symmetry_equiv_pos_site_id
 _symmetry_equiv_pos_as_xyz
  1  'x, y, z'
loop_
 _atom_site_type_symbol
 _atom_site_label
 _atom_site_symmetry_multiplicity
 _atom_site_fract_x
 _atom_site_fract_y
 _atom_site_fract_z
 _atom_site_occupancy
  Nd  Nd0  1  0.000066  0.001257  0.500000  1
  Er  Er1  1  0.501093  0.499170  0.000000  1
  Re  Re2  1  0.604498  0.155835  0.500000  1
  Re  Re3  1  0.396753  0.842507  0.500000  1
  Re  Re4  1  0.891847  0.654753  0.000000  1
  Re  Re5  1  0.161095  0.580023  0.500000  1
  Re  Re6  1  0.834877  0.421374  0.500000  1
  Re  Re7  1  0.344910  0.082698  0.000000  1
  Re  Re8  1  0.657339  0.914948  0.000000  1
  Si  Si9  1  0.691748  0.721363  0.500000  1
  Si  Si10  1  0.309679  0.278267  0.500000  1
  Si  Si11  1  0.196958  0.773354  0.000000  1
  Si  Si12  1  0.801039  0.224952  0.000000  1
  Mo  Mo13  1  0.108098  0.349500  0.000000  1
