# generated using pymatgen
data_Cs3TmIrBr9
_symmetry_space_group_name_H-M   'P 1'
_cell_length_a   7.93450100
_cell_length_b   7.93450074
_cell_length_c   19.77447900
_cell_angle_alpha   90.00000000
_cell_angle_beta   90.00000000
_cell_angle_gamma   119.99998857
_symmetry_Int_Tables_number   1
_chemical_formula_structural   Cs3TmIrBr9
_chemical_formula_sum   'Cs6 Tm2 Ir2 Br18'
_cell_volume   1078.13949568
_cell_formula_units_Z   2
loop_
 _symmetry_equiv_pos_site_id
 _symmetry_equiv_pos_as_xyz
  1  'x, y, z'
loop_
 _atom_site_type_symbol
 _atom_site_label
 _atom_site_symmetry_multiplicity
 _atom_site_fract_x
 _atom_site_fract_y
 _atom_site_fract_z
 _atom_site_occupancy
  Cs  Cs0  1  0.333333  0.666667  0.068864  1
  Cs  Cs1  1  0.666667  0.333333  0.931136  1
  Cs  Cs2  1  0.666667  0.333333  0.570042  1
  Cs  Cs3  1  0.333333  0.666667  0.429958  1
  Cs  Cs4  1  0.000000  0.000000  0.253616  1
  Cs  Cs5  1  0.000000  0.000000  0.746384  1
  Tm  Tm6  1  0.666667  0.333333  0.162501  1
  Tm  Tm7  1  0.333333  0.666667  0.837499  1
  Ir  Ir8  1  0.333333  0.666667  0.668068  1
  Ir  Ir9  1  0.666667  0.333333  0.331932  1
  Br  Br10  1  0.184294  0.368588  0.595771  1
  Br  Br11  1  0.815706  0.631412  0.404229  1
  Br  Br12  1  0.631412  0.815706  0.595771  1
  Br  Br13  1  0.832164  0.664330  0.090456  1
  Br  Br14  1  0.368588  0.184294  0.404229  1
  Br  Br15  1  0.167836  0.335670  0.909544  1
  Br  Br16  1  0.184294  0.815706  0.595771  1
  Br  Br17  1  0.335670  0.167836  0.090456  1
  Br  Br18  1  0.815706  0.184294  0.404229  1
  Br  Br19  1  0.664330  0.832164  0.909544  1
  Br  Br20  1  0.832164  0.167836  0.090456  1
  Br  Br21  1  0.167836  0.832164  0.909544  1
  Br  Br22  1  0.512014  0.024029  0.258940  1
  Br  Br23  1  0.487986  0.975971  0.741060  1
  Br  Br24  1  0.975971  0.487986  0.258940  1
  Br  Br25  1  0.024029  0.512014  0.741060  1
  Br  Br26  1  0.512014  0.487986  0.258940  1
  Br  Br27  1  0.487986  0.512014  0.741060  1
