# generated using pymatgen
data_Tb5Dy3Re2(RuC4)2
_symmetry_space_group_name_H-M   'P 1'
_cell_length_a   5.13234900
_cell_length_b   6.54884331
_cell_length_c   9.85465146
_cell_angle_alpha   89.96484137
_cell_angle_beta   90.00000000
_cell_angle_gamma   90.00000000
_symmetry_Int_Tables_number   1
_chemical_formula_structural   Tb5Dy3Re2(RuC4)2
_chemical_formula_sum   'Tb5 Dy3 Re2 Ru2 C8'
_cell_volume   331.22412939
_cell_formula_units_Z   1
loop_
 _symmetry_equiv_pos_site_id
 _symmetry_equiv_pos_as_xyz
  1  'x, y, z'
loop_
 _atom_site_type_symbol
 _atom_site_label
 _atom_site_symmetry_multiplicity
 _atom_site_fract_x
 _atom_site_fract_y
 _atom_site_fract_z
 _atom_site_occupancy
  Tb  Tb0  1  0.250000  0.181939  0.943672  1
  Tb  Tb1  1  0.750000  0.468595  0.784892  1
  Tb  Tb2  1  0.250000  0.031375  0.285631  1
  Tb  Tb3  1  0.750000  0.970488  0.714043  1
  Tb  Tb4  1  0.250000  0.529393  0.214481  1
  Dy  Dy5  1  0.750000  0.823800  0.054723  1
  Dy  Dy6  1  0.250000  0.676036  0.554443  1
  Dy  Dy7  1  0.750000  0.319174  0.443226  1
  Re  Re8  1  0.750000  0.777441  0.364392  1
  Re  Re9  1  0.250000  0.722330  0.864451  1
  Ru  Ru10  1  0.750000  0.276960  0.135255  1
  Ru  Ru11  1  0.250000  0.223055  0.634577  1
  C  C12  1  0.750000  0.176349  0.950956  1
  C  C13  1  0.250000  0.821731  0.050167  1
  C  C14  1  0.750000  0.677197  0.550068  1
  C  C15  1  0.250000  0.324074  0.450469  1
  C  C16  1  0.750000  0.042785  0.260276  1
  C  C17  1  0.250000  0.457617  0.759558  1
  C  C18  1  0.750000  0.544347  0.242517  1
  C  C19  1  0.250000  0.955315  0.742205  1
