# generated using pymatgen
data_Er7Tm3(SiPb3)2
_symmetry_space_group_name_H-M   'P 1'
_cell_length_a   9.23956500
_cell_length_b   9.23956524
_cell_length_c   6.44532400
_cell_angle_alpha   90.00000000
_cell_angle_beta   90.00000000
_cell_angle_gamma   120.00000272
_symmetry_Int_Tables_number   1
_chemical_formula_structural   Er7Tm3(SiPb3)2
_chemical_formula_sum   'Er7 Tm3 Si2 Pb6'
_cell_volume   476.51703963
_cell_formula_units_Z   1
loop_
 _symmetry_equiv_pos_site_id
 _symmetry_equiv_pos_as_xyz
  1  'x, y, z'
loop_
 _atom_site_type_symbol
 _atom_site_label
 _atom_site_symmetry_multiplicity
 _atom_site_fract_x
 _atom_site_fract_y
 _atom_site_fract_z
 _atom_site_occupancy
  Er  Er0  1  0.666667  0.333333  0.500000  1
  Er  Er1  1  0.750320  0.750390  0.250132  1
  Er  Er2  1  0.249610  0.999929  0.250132  1
  Er  Er3  1  0.000071  0.249680  0.250132  1
  Er  Er4  1  0.249610  0.249680  0.749868  1
  Er  Er5  1  0.750320  0.999929  0.749868  1
  Er  Er6  1  0.000071  0.750390  0.749868  1
  Tm  Tm7  1  0.333333  0.666667  0.500000  1
  Tm  Tm8  1  0.333333  0.666667  0.000000  1
  Tm  Tm9  1  0.666667  0.333333  0.000000  1
  Si  Si10  1  0.000000  0.000000  0.500000  1
  Si  Si11  1  0.000000  0.000000  0.000000  1
  Pb  Pb12  1  0.392670  0.392780  0.249998  1
  Pb  Pb13  1  0.607220  0.999890  0.249998  1
  Pb  Pb14  1  0.000110  0.607330  0.249998  1
  Pb  Pb15  1  0.607220  0.607330  0.750002  1
  Pb  Pb16  1  0.392670  0.999890  0.750002  1
  Pb  Pb17  1  0.000110  0.392780  0.750002  1
