# generated using pymatgen
data_DyHoNp8O20
_symmetry_space_group_name_H-M   'P 1'
_cell_length_a   6.57529800
_cell_length_b   7.60916008
_cell_length_c   8.50637309
_cell_angle_alpha   102.98629454
_cell_angle_beta   97.33794348
_cell_angle_gamma   106.79857282
_symmetry_Int_Tables_number   1
_chemical_formula_structural   DyHoNp8O20
_chemical_formula_sum   'Dy1 Ho1 Np8 O20'
_cell_volume   388.45282945
_cell_formula_units_Z   1
loop_
 _symmetry_equiv_pos_site_id
 _symmetry_equiv_pos_as_xyz
  1  'x, y, z'
loop_
 _atom_site_type_symbol
 _atom_site_label
 _atom_site_symmetry_multiplicity
 _atom_site_fract_x
 _atom_site_fract_y
 _atom_site_fract_z
 _atom_site_occupancy
  Dy  Dy0  1  0.999020  0.998083  0.997802  1
  Ho  Ho1  1  0.800798  0.601672  0.601956  1
  Np  Np2  1  0.000506  0.500573  0.998857  1
  Np  Np3  1  0.600427  0.200439  0.200587  1
  Np  Np4  1  0.799195  0.099455  0.600977  1
  Np  Np5  1  0.602194  0.700298  0.200816  1
  Np  Np6  1  0.199879  0.399890  0.399719  1
  Np  Np7  1  0.399953  0.300051  0.799901  1
  Np  Np8  1  0.198181  0.899638  0.399397  1
  Np  Np9  1  0.399768  0.799850  0.799846  1
  O  O10  1  0.850645  0.319313  0.449414  1
  O  O11  1  0.644705  0.923857  0.054433  1
  O  O12  1  0.948996  0.769383  0.151820  1
  O  O13  1  0.851576  0.830181  0.448331  1
  O  O14  1  0.442683  0.521187  0.651200  1
  O  O15  1  0.649936  0.426130  0.049784  1
  O  O16  1  0.746018  0.369995  0.753010  1
  O  O17  1  0.253344  0.126007  0.254369  1
  O  O18  1  0.445656  0.025857  0.647682  1
  O  O19  1  0.948951  0.281317  0.151082  1
  O  O20  1  0.548656  0.973882  0.352080  1
  O  O21  1  0.057402  0.721204  0.850579  1
  O  O22  1  0.252044  0.626337  0.247843  1
  O  O23  1  0.741776  0.877665  0.748528  1
  O  O24  1  0.353992  0.573990  0.952063  1
  O  O25  1  0.053268  0.230555  0.847073  1
  O  O26  1  0.548058  0.474479  0.346176  1
  O  O27  1  0.149883  0.173725  0.550397  1
  O  O28  1  0.357731  0.078852  0.948648  1
  O  O29  1  0.154757  0.676138  0.545629  1
