# generated using pymatgen
data_DyEr11Zn2(InTc)2
_symmetry_space_group_name_H-M   'P 1'
_cell_length_a   8.57182830
_cell_length_b   8.56846697
_cell_length_c   8.57182700
_cell_angle_alpha   112.89404989
_cell_angle_beta   111.12265012
_cell_angle_gamma   104.52823783
_symmetry_Int_Tables_number   1
_chemical_formula_structural   DyEr11Zn2(InTc)2
_chemical_formula_sum   'Dy1 Er11 Zn2 In2 Tc2'
_cell_volume   481.75224986
_cell_formula_units_Z   1
loop_
 _symmetry_equiv_pos_site_id
 _symmetry_equiv_pos_as_xyz
  1  'x, y, z'
loop_
 _atom_site_type_symbol
 _atom_site_label
 _atom_site_symmetry_multiplicity
 _atom_site_fract_x
 _atom_site_fract_y
 _atom_site_fract_z
 _atom_site_occupancy
  Dy  Dy0  1  0.661024  0.975212  0.314187  1
  Er  Er1  1  0.437336  0.240296  0.198013  1
  Er  Er2  1  0.561997  0.759762  0.801321  1
  Er  Er3  1  0.042282  0.240296  0.802959  1
  Er  Er4  1  0.958442  0.759762  0.197768  1
  Er  Er5  1  0.190893  0.276273  0.466840  1
  Er  Er6  1  0.809570  0.723631  0.533795  1
  Er  Er7  1  0.189835  0.723631  0.914061  1
  Er  Er8  1  0.809433  0.276273  0.085380  1
  Er  Er9  1  0.339097  0.654705  0.315607  1
  Er  Er10  1  0.660678  0.345259  0.684581  1
  Er  Er11  1  0.339493  0.023882  0.684390  1
  Zn  Zn12  1  0.119347  0.619619  0.500271  1
  Zn  Zn13  1  0.881333  0.381826  0.500493  1
  In  In14  1  0.499881  0.499577  0.999695  1
  In  In15  1  0.999760  0.999813  0.000053  1
  Tc  Tc16  1  0.323964  0.000092  0.324459  1
  Tc  Tc17  1  0.675633  0.000092  0.676127  1
