# generated using pymatgen
data_Zr12Zn8Cu3PtN4
_symmetry_space_group_name_H-M   'P 1'
_cell_length_a   8.52328136
_cell_length_b   8.56766901
_cell_length_c   8.52328100
_cell_angle_alpha   60.17123060
_cell_angle_beta   59.99999753
_cell_angle_gamma   60.17122696
_symmetry_Int_Tables_number   1
_chemical_formula_structural   Zr12Zn8Cu3PtN4
_chemical_formula_sum   'Zr12 Zn8 Cu3 Pt1 N4'
_cell_volume   441.24569209
_cell_formula_units_Z   1
loop_
 _symmetry_equiv_pos_site_id
 _symmetry_equiv_pos_as_xyz
  1  'x, y, z'
loop_
 _atom_site_type_symbol
 _atom_site_label
 _atom_site_symmetry_multiplicity
 _atom_site_fract_x
 _atom_site_fract_y
 _atom_site_fract_z
 _atom_site_occupancy
  Zr  Zr0  1  0.810270  0.186489  0.192971  1
  Zr  Zr1  1  0.189549  0.810356  0.189549  1
  Zr  Zr2  1  0.810546  0.810356  0.189549  1
  Zr  Zr3  1  0.189549  0.810356  0.810546  1
  Zr  Zr4  1  0.810270  0.186489  0.810270  1
  Zr  Zr5  1  0.192971  0.186489  0.810270  1
  Zr  Zr6  1  0.439730  0.063511  0.057029  1
  Zr  Zr7  1  0.060451  0.439644  0.060451  1
  Zr  Zr8  1  0.439454  0.439644  0.060451  1
  Zr  Zr9  1  0.060451  0.439644  0.439454  1
  Zr  Zr10  1  0.439730  0.063511  0.439730  1
  Zr  Zr11  1  0.057029  0.063511  0.439730  1
  Zn  Zn12  1  0.417249  0.426053  0.739449  1
  Zn  Zn13  1  0.417249  0.426053  0.417249  1
  Zn  Zn14  1  0.739449  0.426053  0.417249  1
  Zn  Zn15  1  0.418814  0.743559  0.418814  1
  Zn  Zn16  1  0.832751  0.823947  0.510551  1
  Zn  Zn17  1  0.832751  0.823947  0.832751  1
  Zn  Zn18  1  0.510551  0.823947  0.832751  1
  Zn  Zn19  1  0.831186  0.506441  0.831186  1
  Cu  Cu20  1  0.625000  0.625000  0.125000  1
  Cu  Cu21  1  0.625000  0.625000  0.625000  1
  Cu  Cu22  1  0.125000  0.625000  0.625000  1
  Pt  Pt23  1  0.625000  0.125000  0.625000  1
  N  N24  1  0.125000  0.125000  0.625000  1
  N  N25  1  0.125000  0.125000  0.125000  1
  N  N26  1  0.625000  0.125000  0.125000  1
  N  N27  1  0.125000  0.625000  0.125000  1
