# generated using pymatgen
data_Sr2Cd3Pd2Pb
_symmetry_space_group_name_H-M   'P 1'
_cell_length_a   5.92137220
_cell_length_b   5.92137268
_cell_length_c   8.34924410
_cell_angle_alpha   89.98208819
_cell_angle_beta   90.01791376
_cell_angle_gamma   135.81836862
_symmetry_Int_Tables_number   1
_chemical_formula_structural   Sr2Cd3Pd2Pb
_chemical_formula_sum   'Sr2 Cd3 Pd2 Pb1'
_cell_volume   204.02543328
_cell_formula_units_Z   1
loop_
 _symmetry_equiv_pos_site_id
 _symmetry_equiv_pos_as_xyz
  1  'x, y, z'
loop_
 _atom_site_type_symbol
 _atom_site_label
 _atom_site_symmetry_multiplicity
 _atom_site_fract_x
 _atom_site_fract_y
 _atom_site_fract_z
 _atom_site_occupancy
  Sr  Sr0  1  0.936768  0.063232  0.241594  1
  Sr  Sr1  1  0.062002  0.937998  0.757518  1
  Cd  Cd2  1  0.352823  0.647177  0.561997  1
  Cd  Cd3  1  0.651873  0.348127  0.046654  1
  Cd  Cd4  1  0.350102  0.649898  0.946465  1
  Pd  Pd5  1  0.220913  0.779087  0.251201  1
  Pd  Pd6  1  0.778520  0.221480  0.748806  1
  Pb  Pb7  1  0.646998  0.353002  0.445765  1
