# generated using pymatgen
data_Y5Si5P7Ru5Rh14
_symmetry_space_group_name_H-M   'P 1'
_cell_length_a   12.74770100
_cell_length_b   12.71955797
_cell_length_c   3.94239700
_cell_angle_alpha   90.00000000
_cell_angle_beta   90.00000000
_cell_angle_gamma   120.21709469
_symmetry_Int_Tables_number   1
_chemical_formula_structural   Y5Si5P7Ru5Rh14
_chemical_formula_sum   'Y5 Si5 P7 Ru5 Rh14'
_cell_volume   552.38344433
_cell_formula_units_Z   1
loop_
 _symmetry_equiv_pos_site_id
 _symmetry_equiv_pos_as_xyz
  1  'x, y, z'
loop_
 _atom_site_type_symbol
 _atom_site_label
 _atom_site_symmetry_multiplicity
 _atom_site_fract_x
 _atom_site_fract_y
 _atom_site_fract_z
 _atom_site_occupancy
  Y  Y0  1  0.665768  0.331493  0.000000  1
  Y  Y1  1  0.333870  0.668141  0.000000  1
  Y  Y2  1  0.814248  0.003654  0.500000  1
  Y  Y3  1  0.182087  0.183721  0.500000  1
  Y  Y4  1  0.998430  0.814314  0.500000  1
  Si  Si5  1  0.630246  0.999707  0.000000  1
  Si  Si6  1  0.369575  0.368504  0.000000  1
  Si  Si7  1  0.998930  0.629237  0.000000  1
  Si  Si8  1  0.684975  0.523338  0.500000  1
  Si  Si9  1  0.837019  0.311870  0.500000  1
  P  P10  1  0.312103  0.831677  0.500000  1
  P  P11  1  0.521379  0.695277  0.500000  1
  P  P12  1  0.178843  0.996968  0.000000  1
  P  P13  1  0.817799  0.819992  0.000000  1
  P  P14  1  0.998023  0.181915  0.000000  1
  P  P15  1  0.476478  0.163461  0.500000  1
  P  P16  1  0.172684  0.480414  0.500000  1
  Ru  Ru17  1  0.508777  0.872654  0.500000  1
  Ru  Ru18  1  0.717930  0.723700  0.500000  1
  Ru  Ru19  1  0.007770  0.284433  0.500000  1
  Ru  Ru20  1  0.819944  0.192677  0.000000  1
  Ru  Ru21  1  0.280145  0.997279  0.500000  1
  Rh  Rh22  1  0.620227  0.802127  0.000000  1
  Rh  Rh23  1  0.185672  0.380818  0.000000  1
  Rh  Rh24  1  0.372497  0.177759  0.000000  1
  Rh  Rh25  1  0.194965  0.817414  0.000000  1
  Rh  Rh26  1  0.808434  0.628711  0.000000  1
  Rh  Rh27  1  0.872375  0.513555  0.500000  1
  Rh  Rh28  1  0.483731  0.354183  0.500000  1
  Rh  Rh29  1  0.635909  0.128076  0.500000  1
  Rh  Rh30  1  0.128643  0.636597  0.500000  1
  Rh  Rh31  1  0.367514  0.493073  0.500000  1
  Rh  Rh32  1  0.000393  0.000673  0.000000  1
  Rh  Rh33  1  0.446177  0.001232  0.000000  1
  Rh  Rh34  1  0.558871  0.547157  0.000000  1
  Rh  Rh35  1  0.997573  0.444198  0.000000  1
