# generated using pymatgen
data_Ce6SmLu(AlRu)8
_symmetry_space_group_name_H-M   'P 1'
_cell_length_a   4.01180603
_cell_length_b   7.29874664
_cell_length_c   15.92610520
_cell_angle_alpha   89.80205230
_cell_angle_beta   90.00677179
_cell_angle_gamma   90.00960235
_symmetry_Int_Tables_number   1
_chemical_formula_structural   Ce6SmLu(AlRu)8
_chemical_formula_sum   'Ce6 Sm1 Lu1 Al8 Ru8'
_cell_volume   466.33197474
_cell_formula_units_Z   1
loop_
 _symmetry_equiv_pos_site_id
 _symmetry_equiv_pos_as_xyz
  1  'x, y, z'
loop_
 _atom_site_type_symbol
 _atom_site_label
 _atom_site_symmetry_multiplicity
 _atom_site_fract_x
 _atom_site_fract_y
 _atom_site_fract_z
 _atom_site_occupancy
  Ce  Ce0  1  0.750012  0.819849  0.439628  1
  Ce  Ce1  1  0.749960  0.454545  0.283104  1
  Ce  Ce2  1  0.749961  0.331339  0.062059  1
  Ce  Ce3  1  0.250044  0.676607  0.937598  1
  Ce  Ce4  1  0.250047  0.049553  0.777603  1
  Ce  Ce5  1  0.250015  0.543998  0.717402  1
  Sm  Sm6  1  0.750000  0.958036  0.219278  1
  Lu  Lu7  1  0.249962  0.155462  0.559907  1
  Al  Al8  1  0.749974  0.484337  0.563558  1
  Al  Al9  1  0.750033  0.373178  0.848980  1
  Al  Al10  1  0.750031  0.010315  0.935442  1
  Al  Al11  1  0.749976  0.872554  0.647941  1
  Al  Al12  1  0.249984  0.483310  0.439922  1
  Al  Al13  1  0.249986  0.999801  0.064107  1
  Al  Al14  1  0.249976  0.637102  0.151106  1
  Al  Al15  1  0.250000  0.124299  0.348618  1
  Ru  Ru16  1  0.750061  0.753488  0.816753  1
  Ru  Ru17  1  0.250011  0.243692  0.937320  1
  Ru  Ru18  1  0.750030  0.260354  0.430547  1
  Ru  Ru19  1  0.250000  0.750734  0.327055  1
  Ru  Ru20  1  0.749972  0.765353  0.060510  1
  Ru  Ru21  1  0.749986  0.243954  0.687540  1
  Ru  Ru22  1  0.249994  0.277046  0.178473  1
  Ru  Ru23  1  0.249985  0.731096  0.565550  1
