# generated using pymatgen
data_Cs4Na2MgSnSb4
_symmetry_space_group_name_H-M   'P 1'
_cell_length_a   10.22870811
_cell_length_b   10.22870737
_cell_length_c   10.22870711
_cell_angle_alpha   136.99302422
_cell_angle_beta   61.84545124
_cell_angle_gamma   137.78091825
_symmetry_Int_Tables_number   1
_chemical_formula_structural   Cs4Na2MgSnSb4
_chemical_formula_sum   'Cs4 Na2 Mg1 Sn1 Sb4'
_cell_volume   484.80583540
_cell_formula_units_Z   1
loop_
 _symmetry_equiv_pos_site_id
 _symmetry_equiv_pos_as_xyz
  1  'x, y, z'
loop_
 _atom_site_type_symbol
 _atom_site_label
 _atom_site_symmetry_multiplicity
 _atom_site_fract_x
 _atom_site_fract_y
 _atom_site_fract_z
 _atom_site_occupancy
  Cs  Cs0  1  0.828440  0.236951  0.066159  1
  Cs  Cs1  1  0.671559  0.737719  0.408510  1
  Cs  Cs2  1  0.329208  0.263049  0.591489  1
  Cs  Cs3  1  0.170792  0.762282  0.933841  1
  Na  Na4  1  0.250000  0.250000  0.000000  1
  Na  Na5  1  0.750000  0.750000  0.000000  1
  Mg  Mg6  1  0.750000  0.250000  0.500000  1
  Sn  Sn7  1  0.250000  0.749999  0.500000  1
  Sb  Sb8  1  0.401688  0.778214  0.191259  1
  Sb  Sb9  1  0.098312  0.289573  0.376526  1
  Sb  Sb10  1  0.913046  0.721786  0.623473  1
  Sb  Sb11  1  0.586954  0.210427  0.808741  1
