# generated using pymatgen
data_AcSm2TaO7
_symmetry_space_group_name_H-M   'P 1'
_cell_length_a   6.63991900
_cell_length_b   6.63991874
_cell_length_c   7.72496000
_cell_angle_alpha   90.00000000
_cell_angle_beta   90.00000000
_cell_angle_gamma   109.08675720
_symmetry_Int_Tables_number   1
_chemical_formula_structural   AcSm2TaO7
_chemical_formula_sum   'Ac2 Sm4 Ta2 O14'
_cell_volume   321.85840954
_cell_formula_units_Z   2
loop_
 _symmetry_equiv_pos_site_id
 _symmetry_equiv_pos_as_xyz
  1  'x, y, z'
loop_
 _atom_site_type_symbol
 _atom_site_label
 _atom_site_symmetry_multiplicity
 _atom_site_fract_x
 _atom_site_fract_y
 _atom_site_fract_z
 _atom_site_occupancy
  Ac  Ac0  1  0.500000  0.500000  0.500000  1
  Ac  Ac1  1  0.500000  0.500000  0.000000  1
  Sm  Sm2  1  0.535110  0.999669  0.750000  1
  Sm  Sm3  1  0.999669  0.535110  0.250000  1
  Sm  Sm4  1  0.464890  0.000331  0.250000  1
  Sm  Sm5  1  0.000331  0.464890  0.750000  1
  Ta  Ta6  1  0.000000  0.000000  0.500000  1
  Ta  Ta7  1  0.000000  0.000000  0.000000  1
  O  O8  1  0.686340  0.935702  0.468891  1
  O  O9  1  0.935702  0.686340  0.531109  1
  O  O10  1  0.686340  0.935702  0.031109  1
  O  O11  1  0.935702  0.686340  0.968891  1
  O  O12  1  0.313660  0.064298  0.531109  1
  O  O13  1  0.064298  0.313660  0.468891  1
  O  O14  1  0.313660  0.064298  0.968891  1
  O  O15  1  0.064298  0.313660  0.031109  1
  O  O16  1  0.941305  0.058695  0.750000  1
  O  O17  1  0.058695  0.941305  0.250000  1
  O  O18  1  0.360271  0.639728  0.750000  1
  O  O19  1  0.639728  0.360271  0.250000  1
  O  O20  1  0.643921  0.356079  0.750000  1
  O  O21  1  0.356079  0.643921  0.250000  1
