# generated using pymatgen
data_La2Zn20NiRh
_symmetry_space_group_name_H-M   'P 1'
_cell_length_a   8.32558553
_cell_length_b   8.31657931
_cell_length_c   8.24784065
_cell_angle_alpha   100.19578479
_cell_angle_beta   99.01660317
_cell_angle_gamma   131.57121004
_symmetry_Int_Tables_number   1
_chemical_formula_structural   La2Zn20NiRh
_chemical_formula_sum   'La2 Zn20 Ni1 Rh1'
_cell_volume   390.25975082
_cell_formula_units_Z   1
loop_
 _symmetry_equiv_pos_site_id
 _symmetry_equiv_pos_as_xyz
  1  'x, y, z'
loop_
 _atom_site_type_symbol
 _atom_site_label
 _atom_site_symmetry_multiplicity
 _atom_site_fract_x
 _atom_site_fract_y
 _atom_site_fract_z
 _atom_site_occupancy
  La  La0  1  0.256491  0.751895  0.500924  1
  La  La1  1  0.993509  0.998105  0.999076  1
  Zn  Zn2  1  0.895744  0.568570  0.085384  1
  Zn  Zn3  1  0.625000  0.875000  0.250000  1
  Zn  Zn4  1  0.432721  0.506498  0.321198  1
  Zn  Zn5  1  0.490539  0.569854  0.673648  1
  Zn  Zn6  1  0.433746  0.108986  0.923948  1
  Zn  Zn7  1  0.759461  0.180146  0.826352  1
  Zn  Zn8  1  0.487440  0.816964  0.916605  1
  Zn  Zn9  1  0.506583  0.491716  0.004114  1
  Zn  Zn10  1  0.762560  0.933036  0.583395  1
  Zn  Zn11  1  0.743417  0.258284  0.495886  1
  Zn  Zn12  1  0.064921  0.653771  0.831414  1
  Zn  Zn13  1  0.125000  0.375000  0.750000  1
  Zn  Zn14  1  0.354256  0.181430  0.414616  1
  Zn  Zn15  1  0.816254  0.641014  0.576052  1
  Zn  Zn16  1  0.898650  0.809036  0.329681  1
  Zn  Zn17  1  0.185079  0.096229  0.668586  1
  Zn  Zn18  1  0.066719  0.237711  0.412932  1
  Zn  Zn19  1  0.351350  0.940964  0.170319  1
  Zn  Zn20  1  0.817279  0.243502  0.178802  1
  Zn  Zn21  1  0.183281  0.512289  0.087068  1
  Ni  Ni22  1  0.625000  0.375000  0.250000  1
  Rh  Rh23  1  0.625000  0.375000  0.750000  1
