# generated using pymatgen
data_LiLa4AgO8
_symmetry_space_group_name_H-M   'P 1'
_cell_length_a   5.78571200
_cell_length_b   6.88566877
_cell_length_c   6.88566823
_cell_angle_alpha   49.68298151
_cell_angle_beta   90.00000000
_cell_angle_gamma   90.00000000
_symmetry_Int_Tables_number   1
_chemical_formula_structural   LiLa4AgO8
_chemical_formula_sum   'Li1 La4 Ag1 O8'
_cell_volume   209.15840139
_cell_formula_units_Z   1
loop_
 _symmetry_equiv_pos_site_id
 _symmetry_equiv_pos_as_xyz
  1  'x, y, z'
loop_
 _atom_site_type_symbol
 _atom_site_label
 _atom_site_symmetry_multiplicity
 _atom_site_fract_x
 _atom_site_fract_y
 _atom_site_fract_z
 _atom_site_occupancy
  Li  Li0  1  0.000000  0.500001  0.500001  1
  La  La1  1  0.000000  0.149400  0.149400  1
  La  La2  1  0.000000  0.850600  0.850600  1
  La  La3  1  0.500000  0.350284  0.350284  1
  La  La4  1  0.500000  0.649716  0.649716  1
  Ag  Ag5  1  0.500000  0.000000  0.000000  1
  O  O6  1  0.249603  0.499999  0.000001  1
  O  O7  1  0.750396  0.000001  0.499999  1
  O  O8  1  0.750396  0.499999  0.000001  1
  O  O9  1  0.249603  0.000001  0.499999  1
  O  O10  1  0.250681  0.249442  0.750560  1
  O  O11  1  0.749318  0.750560  0.249442  1
  O  O12  1  0.250681  0.750560  0.249442  1
  O  O13  1  0.749318  0.249442  0.750560  1
