# generated using pymatgen
data_Dy2Tm3(TcO6)2
_symmetry_space_group_name_H-M   'P 1'
_cell_length_a   6.76232566
_cell_length_b   6.76232429
_cell_length_c   7.46252233
_cell_angle_alpha   73.96325585
_cell_angle_beta   73.96325218
_cell_angle_gamma   49.35172624
_symmetry_Int_Tables_number   1
_chemical_formula_structural   Dy2Tm3(TcO6)2
_chemical_formula_sum   'Dy2 Tm3 Tc2 O12'
_cell_volume   246.66187119
_cell_formula_units_Z   1
loop_
 _symmetry_equiv_pos_site_id
 _symmetry_equiv_pos_as_xyz
  1  'x, y, z'
loop_
 _atom_site_type_symbol
 _atom_site_label
 _atom_site_symmetry_multiplicity
 _atom_site_fract_x
 _atom_site_fract_y
 _atom_site_fract_z
 _atom_site_occupancy
  Dy  Dy0  1  0.804185  0.804185  0.357304  1
  Dy  Dy1  1  0.195815  0.195815  0.642696  1
  Tm  Tm2  1  0.184224  0.184224  0.176322  1
  Tm  Tm3  1  0.815776  0.815776  0.823678  1
  Tm  Tm4  1  0.500000  0.500000  0.500000  1
  Tc  Tc5  1  0.286019  0.713981  0.000000  1
  Tc  Tc6  1  0.713981  0.286019  0.000000  1
  O  O7  1  0.415586  0.916676  0.916316  1
  O  O8  1  0.083324  0.584414  0.083684  1
  O  O9  1  0.584414  0.083324  0.083684  1
  O  O10  1  0.916676  0.415586  0.916316  1
  O  O11  1  0.599751  0.095498  0.575656  1
  O  O12  1  0.904502  0.400249  0.424344  1
  O  O13  1  0.400249  0.904502  0.424344  1
  O  O14  1  0.000001  0.000001  0.821067  1
  O  O15  1  0.999999  0.999999  0.178933  1
  O  O16  1  0.498966  0.498966  0.793348  1
  O  O17  1  0.501034  0.501034  0.206652  1
  O  O18  1  0.095498  0.599751  0.575656  1
