# generated using pymatgen
data_Dy6Zr4Al12Os7
_symmetry_space_group_name_H-M   'P 1'
_cell_length_a   9.15660341
_cell_length_b   9.15660304
_cell_length_c   9.15660300
_cell_angle_alpha   59.99999654
_cell_angle_beta   59.99999788
_cell_angle_gamma   60.00000141
_symmetry_Int_Tables_number   1
_chemical_formula_structural   Dy6Zr4Al12Os7
_chemical_formula_sum   'Dy6 Zr4 Al12 Os7'
_cell_volume   542.86040350
_cell_formula_units_Z   1
loop_
 _symmetry_equiv_pos_site_id
 _symmetry_equiv_pos_as_xyz
  1  'x, y, z'
loop_
 _atom_site_type_symbol
 _atom_site_label
 _atom_site_symmetry_multiplicity
 _atom_site_fract_x
 _atom_site_fract_y
 _atom_site_fract_z
 _atom_site_occupancy
  Dy  Dy0  1  0.705242  0.705242  0.294758  1
  Dy  Dy1  1  0.294758  0.705242  0.294758  1
  Dy  Dy2  1  0.705242  0.294758  0.294758  1
  Dy  Dy3  1  0.294758  0.294758  0.705242  1
  Dy  Dy4  1  0.705242  0.294758  0.705242  1
  Dy  Dy5  1  0.294758  0.705242  0.705242  1
  Zr  Zr6  1  0.880165  0.880165  0.359503  1
  Zr  Zr7  1  0.880165  0.359503  0.880165  1
  Zr  Zr8  1  0.359503  0.880165  0.880165  1
  Zr  Zr9  1  0.880165  0.880165  0.880165  1
  Al  Al10  1  0.120446  0.120446  0.638664  1
  Al  Al11  1  0.120446  0.638664  0.120446  1
  Al  Al12  1  0.638664  0.120446  0.120446  1
  Al  Al13  1  0.120446  0.120446  0.120446  1
  Al  Al14  1  0.668073  0.668073  0.995782  1
  Al  Al15  1  0.668073  0.995782  0.668073  1
  Al  Al16  1  0.995782  0.668073  0.668073  1
  Al  Al17  1  0.668073  0.668073  0.668073  1
  Al  Al18  1  0.330637  0.330637  0.008088  1
  Al  Al19  1  0.330637  0.008088  0.330637  1
  Al  Al20  1  0.008088  0.330637  0.330637  1
  Al  Al21  1  0.330637  0.330637  0.330637  1
  Os  Os22  1  0.000000  0.000000  0.000000  1
  Os  Os23  1  0.000578  0.000578  0.499422  1
  Os  Os24  1  0.499422  0.000578  0.499422  1
  Os  Os25  1  0.000578  0.499422  0.499422  1
  Os  Os26  1  0.499422  0.499422  0.000578  1
  Os  Os27  1  0.000578  0.499422  0.000578  1
  Os  Os28  1  0.499422  0.000578  0.000578  1
