# generated using pymatgen
data_Th3Cu(Sb2Ir)2
_symmetry_space_group_name_H-M   'P 1'
_cell_length_a   8.53154127
_cell_length_b   8.53664501
_cell_length_c   8.53664364
_cell_angle_alpha   109.17603348
_cell_angle_beta   109.65997552
_cell_angle_gamma   109.65997234
_symmetry_Int_Tables_number   1
_chemical_formula_structural   Th3Cu(Sb2Ir)2
_chemical_formula_sum   'Th6 Cu2 Sb8 Ir4'
_cell_volume   478.11266353
_cell_formula_units_Z   2
loop_
 _symmetry_equiv_pos_site_id
 _symmetry_equiv_pos_as_xyz
  1  'x, y, z'
loop_
 _atom_site_type_symbol
 _atom_site_label
 _atom_site_symmetry_multiplicity
 _atom_site_fract_x
 _atom_site_fract_y
 _atom_site_fract_z
 _atom_site_occupancy
  Th  Th0  1  0.378381  0.256862  0.630942  1
  Th  Th1  1  0.745776  0.876818  0.117624  1
  Th  Th2  1  0.245776  0.617624  0.376818  1
  Th  Th3  1  0.625584  0.369536  0.247455  1
  Th  Th4  1  0.878381  0.130942  0.756862  1
  Th  Th5  1  0.125584  0.747455  0.869536  1
  Cu  Cu6  1  0.126269  0.874789  0.249421  1
  Cu  Cu7  1  0.626269  0.749421  0.374789  1
  Sb  Sb8  1  0.999313  0.325274  0.499702  1
  Sb  Sb9  1  0.833945  0.505384  0.001599  1
  Sb  Sb10  1  0.499313  0.999702  0.825274  1
  Sb  Sb11  1  0.667204  0.671765  0.666505  1
  Sb  Sb12  1  0.167204  0.166505  0.171765  1
  Sb  Sb13  1  0.333945  0.501599  0.005384  1
  Sb  Sb14  1  0.500543  0.995239  0.334185  1
  Sb  Sb15  1  0.000543  0.834185  0.495239  1
  Ir  Ir16  1  0.873917  0.250437  0.126503  1
  Ir  Ir17  1  0.249069  0.123568  0.876393  1
  Ir  Ir18  1  0.749069  0.376393  0.623568  1
  Ir  Ir19  1  0.373917  0.626503  0.750437  1
