# generated using pymatgen
data_Sc22TcIr3Os4
_symmetry_space_group_name_H-M   'P 1'
_cell_length_a   9.45788522
_cell_length_b   9.47553058
_cell_length_c   9.47933599
_cell_angle_alpha   60.08092078
_cell_angle_beta   60.04814672
_cell_angle_gamma   60.08821403
_symmetry_Int_Tables_number   1
_chemical_formula_structural   Sc22TcIr3Os4
_chemical_formula_sum   'Sc22 Tc1 Ir3 Os4'
_cell_volume   601.68976273
_cell_formula_units_Z   1
loop_
 _symmetry_equiv_pos_site_id
 _symmetry_equiv_pos_as_xyz
  1  'x, y, z'
loop_
 _atom_site_type_symbol
 _atom_site_label
 _atom_site_symmetry_multiplicity
 _atom_site_fract_x
 _atom_site_fract_y
 _atom_site_fract_z
 _atom_site_occupancy
  Sc  Sc0  1  0.803283  0.801864  0.198137  1
  Sc  Sc1  1  0.196553  0.802008  0.197991  1
  Sc  Sc2  1  0.802592  0.197408  0.197407  1
  Sc  Sc3  1  0.196717  0.198136  0.801863  1
  Sc  Sc4  1  0.803447  0.197992  0.802009  1
  Sc  Sc5  1  0.197408  0.802592  0.802593  1
  Sc  Sc6  1  0.616065  0.614557  0.150232  1
  Sc  Sc7  1  0.619147  0.150231  0.614557  1
  Sc  Sc8  1  0.148826  0.617455  0.614605  1
  Sc  Sc9  1  0.619112  0.614603  0.617460  1
  Sc  Sc10  1  0.383935  0.385443  0.849768  1
  Sc  Sc11  1  0.380853  0.849769  0.385443  1
  Sc  Sc12  1  0.851174  0.382545  0.385395  1
  Sc  Sc13  1  0.380888  0.385397  0.382540  1
  Sc  Sc14  1  0.844056  0.843968  0.468860  1
  Sc  Sc15  1  0.843117  0.468861  0.843969  1
  Sc  Sc16  1  0.469223  0.843084  0.844249  1
  Sc  Sc17  1  0.843443  0.844250  0.843087  1
  Sc  Sc18  1  0.155944  0.156032  0.531140  1
  Sc  Sc19  1  0.156883  0.531139  0.156031  1
  Sc  Sc20  1  0.530777  0.156916  0.155751  1
  Sc  Sc21  1  0.156557  0.155750  0.156913  1
  Tc  Tc22  1  0.000000  0.000000  0.000000  1
  Ir  Ir23  1  0.500000  0.000000  0.500000  1
  Ir  Ir24  1  0.000000  0.500000  0.000000  1
  Ir  Ir25  1  0.500000  0.000000  0.000000  1
  Os  Os26  1  0.500000  0.500000  0.500000  1
  Os  Os27  1  0.000000  0.000000  0.500000  1
  Os  Os28  1  0.000000  0.500000  0.500000  1
  Os  Os29  1  0.500000  0.500000  0.000000  1
