# generated using pymatgen
data_Pr3AsSe3
_symmetry_space_group_name_H-M   'P 1'
_cell_length_a   7.79562314
_cell_length_b   7.81739631
_cell_length_c   7.81739479
_cell_angle_alpha   109.52756434
_cell_angle_beta   109.41481421
_cell_angle_gamma   109.41481706
_symmetry_Int_Tables_number   1
_chemical_formula_structural   Pr3AsSe3
_chemical_formula_sum   'Pr6 As2 Se6'
_cell_volume   366.99063116
_cell_formula_units_Z   2
loop_
 _symmetry_equiv_pos_site_id
 _symmetry_equiv_pos_as_xyz
  1  'x, y, z'
loop_
 _atom_site_type_symbol
 _atom_site_label
 _atom_site_symmetry_multiplicity
 _atom_site_fract_x
 _atom_site_fract_y
 _atom_site_fract_z
 _atom_site_occupancy
  Pr  Pr0  1  0.875699  0.757034  0.120619  1
  Pr  Pr1  1  0.118665  0.363584  0.242966  1
  Pr  Pr2  1  0.618664  0.242966  0.363584  1
  Pr  Pr3  1  0.755080  0.879381  0.636414  1
  Pr  Pr4  1  0.375700  0.120619  0.757034  1
  Pr  Pr5  1  0.255080  0.636415  0.879381  1
  As  As6  1  0.154254  0.000000  0.000000  1
  As  As7  1  0.654255  0.000000  0.000000  1
  Se  Se8  1  0.499676  0.501362  0.151366  1
  Se  Se9  1  0.348311  0.848633  0.349997  1
  Se  Se10  1  0.999677  0.151367  0.501363  1
  Se  Se11  1  0.998314  0.650003  0.498637  1
  Se  Se12  1  0.498314  0.498637  0.650004  1
  Se  Se13  1  0.848311  0.349997  0.848634  1
