# generated using pymatgen
data_Tl2Cu2Ni(SeO3)6
_symmetry_space_group_name_H-M   'P 1'
_cell_length_a   4.92441933
_cell_length_b   9.90286341
_cell_length_c   9.94731299
_cell_angle_alpha   68.63321769
_cell_angle_beta   80.37472134
_cell_angle_gamma   79.47704068
_symmetry_Int_Tables_number   1
_chemical_formula_structural   Tl2Cu2Ni(SeO3)6
_chemical_formula_sum   'Tl2 Cu2 Ni1 Se6 O18'
_cell_volume   441.45755096
_cell_formula_units_Z   1
loop_
 _symmetry_equiv_pos_site_id
 _symmetry_equiv_pos_as_xyz
  1  'x, y, z'
loop_
 _atom_site_type_symbol
 _atom_site_label
 _atom_site_symmetry_multiplicity
 _atom_site_fract_x
 _atom_site_fract_y
 _atom_site_fract_z
 _atom_site_occupancy
  Tl  Tl0  1  0.560308  0.684221  0.324247  1
  Tl  Tl1  1  0.456775  0.313150  0.678377  1
  Cu  Cu2  1  0.003281  0.998709  0.998254  1
  Cu  Cu3  1  0.781842  0.464176  0.918402  1
  Ni  Ni4  1  0.196671  0.539547  0.074533  1
  Se  Se5  1  0.361570  0.215197  0.040706  1
  Se  Se6  1  0.701730  0.363776  0.309307  1
  Se  Se7  1  0.912857  0.919666  0.358415  1
  Se  Se8  1  0.091699  0.081234  0.637192  1
  Se  Se9  1  0.295506  0.634390  0.696930  1
  Se  Se10  1  0.622925  0.786433  0.960090  1
  O  O11  1  0.090217  0.355746  0.043783  1
  O  O12  1  0.752074  0.849604  0.076753  1
  O  O13  1  0.376470  0.701233  0.098073  1
  O  O14  1  0.514536  0.387373  0.170566  1
  O  O15  1  0.982121  0.031890  0.179911  1
  O  O16  1  0.892265  0.512724  0.252942  1
  O  O17  1  0.572619  0.887816  0.370131  1
  O  O18  1  0.075185  0.746214  0.370534  1
  O  O19  1  0.455815  0.437615  0.420717  1
  O  O20  1  0.579149  0.584735  0.592272  1
  O  O21  1  0.929148  0.254180  0.629255  1
  O  O22  1  0.430987  0.115950  0.619714  1
  O  O23  1  0.125795  0.483258  0.731617  1
  O  O24  1  0.026049  0.967724  0.815205  1
  O  O25  1  0.441782  0.596493  0.859760  1
  O  O26  1  0.620565  0.299803  0.905445  1
  O  O27  1  0.264255  0.143231  0.921616  1
  O  O28  1  0.885795  0.643916  0.945255  1
