# generated using pymatgen
data_Hf5AlBiSb
_symmetry_space_group_name_H-M   'P 1'
_cell_length_a   5.54802792
_cell_length_b   8.35465647
_cell_length_c   8.33667331
_cell_angle_alpha   83.65683184
_cell_angle_beta   70.56433115
_cell_angle_gamma   70.60784129
_symmetry_Int_Tables_number   1
_chemical_formula_structural   Hf5AlBiSb
_chemical_formula_sum   'Hf10 Al2 Bi2 Sb2'
_cell_volume   343.72734940
_cell_formula_units_Z   2
loop_
 _symmetry_equiv_pos_site_id
 _symmetry_equiv_pos_as_xyz
  1  'x, y, z'
loop_
 _atom_site_type_symbol
 _atom_site_label
 _atom_site_symmetry_multiplicity
 _atom_site_fract_x
 _atom_site_fract_y
 _atom_site_fract_z
 _atom_site_occupancy
  Hf  Hf0  1  0.070598  0.143869  0.714936  1
  Hf  Hf1  1  0.929402  0.856131  0.285064  1
  Hf  Hf2  1  0.787802  0.290987  0.133409  1
  Hf  Hf3  1  0.421211  0.290987  0.866591  1
  Hf  Hf4  1  0.212198  0.709013  0.866591  1
  Hf  Hf5  1  0.578789  0.709013  0.133409  1
  Hf  Hf6  1  0.714466  0.856131  0.714936  1
  Hf  Hf7  1  0.285534  0.143869  0.285064  1
  Hf  Hf8  1  0.248212  0.500000  0.500000  1
  Hf  Hf9  1  0.751788  0.500000  0.500000  1
  Al  Al10  1  0.250000  0.000000  0.000000  1
  Al  Al11  1  0.750000  0.000000  0.000000  1
  Bi  Bi12  1  0.333888  0.832224  0.500000  1
  Bi  Bi13  1  0.666112  0.167776  0.500000  1
  Sb  Sb14  1  0.163286  0.500000  0.173428  1
  Sb  Sb15  1  0.836714  0.500000  0.826572  1
