# generated using pymatgen
data_Tb20In4GaSi7
_symmetry_space_group_name_H-M   'P 1'
_cell_length_a   7.66752700
_cell_length_b   7.66752758
_cell_length_c   13.94972000
_cell_angle_alpha   90.00127033
_cell_angle_beta   90.00127033
_cell_angle_gamma   89.82302045
_symmetry_Int_Tables_number   1
_chemical_formula_structural   Tb20In4GaSi7
_chemical_formula_sum   'Tb20 In4 Ga1 Si7'
_cell_volume   820.11372360
_cell_formula_units_Z   1
loop_
 _symmetry_equiv_pos_site_id
 _symmetry_equiv_pos_as_xyz
  1  'x, y, z'
loop_
 _atom_site_type_symbol
 _atom_site_label
 _atom_site_symmetry_multiplicity
 _atom_site_fract_x
 _atom_site_fract_y
 _atom_site_fract_z
 _atom_site_occupancy
  Tb  Tb0  1  0.002089  0.501555  0.757373  1
  Tb  Tb1  1  0.999504  0.499600  0.256254  1
  Tb  Tb2  1  0.500401  0.000503  0.243843  1
  Tb  Tb3  1  0.498444  0.997922  0.742479  1
  Tb  Tb4  1  0.671726  0.667089  0.608714  1
  Tb  Tb5  1  0.671195  0.333910  0.109495  1
  Tb  Tb6  1  0.828838  0.834640  0.389933  1
  Tb  Tb7  1  0.170887  0.834829  0.890556  1
  Tb  Tb8  1  0.326427  0.334482  0.608864  1
  Tb  Tb9  1  0.328511  0.666500  0.110407  1
  Tb  Tb10  1  0.170797  0.165812  0.389919  1
  Tb  Tb11  1  0.831533  0.162519  0.891907  1
  Tb  Tb12  1  0.666095  0.328797  0.390582  1
  Tb  Tb13  1  0.332916  0.328240  0.891220  1
  Tb  Tb14  1  0.165168  0.829118  0.609368  1
  Tb  Tb15  1  0.834182  0.829183  0.110159  1
  Tb  Tb16  1  0.333509  0.671508  0.389670  1
  Tb  Tb17  1  0.665497  0.673573  0.891071  1
  Tb  Tb18  1  0.837544  0.168411  0.608019  1
  Tb  Tb19  1  0.165343  0.171178  0.110152  1
  In  In20  1  0.000250  0.500858  0.497991  1
  In  In21  1  0.000183  0.500654  0.999434  1
  In  In22  1  0.499398  0.999851  0.500586  1
  In  In23  1  0.499155  0.999702  0.002026  1
  Ga  Ga24  1  0.627124  0.372860  0.749959  1
  Si  Si25  1  0.873449  0.874036  0.749905  1
  Si  Si26  1  0.873360  0.126634  0.250018  1
  Si  Si27  1  0.625479  0.625554  0.250012  1
  Si  Si28  1  0.374610  0.625390  0.749977  1
  Si  Si29  1  0.125951  0.126545  0.750050  1
  Si  Si30  1  0.125979  0.874029  0.250022  1
  Si  Si31  1  0.374457  0.374520  0.250036  1
