# generated using pymatgen
data_Dy2Y3Lu5(In2Ni)4
_symmetry_space_group_name_H-M   'P 1'
_cell_length_a   3.56721000
_cell_length_b   7.95509765
_cell_length_c   17.79617626
_cell_angle_alpha   89.96689942
_cell_angle_beta   90.00000000
_cell_angle_gamma   90.00000000
_symmetry_Int_Tables_number   1
_chemical_formula_structural   Dy2Y3Lu5(In2Ni)4
_chemical_formula_sum   'Dy2 Y3 Lu5 In8 Ni4'
_cell_volume   505.01097706
_cell_formula_units_Z   1
loop_
 _symmetry_equiv_pos_site_id
 _symmetry_equiv_pos_as_xyz
  1  'x, y, z'
loop_
 _atom_site_type_symbol
 _atom_site_label
 _atom_site_symmetry_multiplicity
 _atom_site_fract_x
 _atom_site_fract_y
 _atom_site_fract_z
 _atom_site_occupancy
  Dy  Dy0  1  0.000000  0.754688  0.279248  1
  Dy  Dy1  1  0.000000  0.744865  0.778792  1
  Y  Y2  1  0.000000  0.883047  0.087271  1
  Y  Y3  1  0.000000  0.499380  0.999383  1
  Y  Y4  1  0.000000  0.999709  0.499970  1
  Lu  Lu5  1  0.000000  0.383559  0.410775  1
  Lu  Lu6  1  0.000000  0.116574  0.909913  1
  Lu  Lu7  1  0.000000  0.245577  0.721261  1
  Lu  Lu8  1  0.000000  0.254463  0.221896  1
  Lu  Lu9  1  0.000000  0.615851  0.589665  1
  In  In10  1  0.500000  0.206329  0.069161  1
  In  In11  1  0.500000  0.423031  0.847141  1
  In  In12  1  0.500000  0.570949  0.152621  1
  In  In13  1  0.500000  0.077075  0.347949  1
  In  In14  1  0.500000  0.926168  0.651993  1
  In  In15  1  0.500000  0.797781  0.930865  1
  In  In16  1  0.500000  0.701193  0.432758  1
  In  In17  1  0.500000  0.297728  0.568513  1
  Ni  Ni18  1  0.500000  0.980033  0.197145  1
  Ni  Ni19  1  0.500000  0.027756  0.804036  1
  Ni  Ni20  1  0.500000  0.521700  0.695027  1
  Ni  Ni21  1  0.500000  0.472543  0.304617  1
