# generated using pymatgen
data_HoTm4CoSb2
_symmetry_space_group_name_H-M   'P 1'
_cell_length_a   7.77888300
_cell_length_b   8.75286900
_cell_length_c   12.04918200
_cell_angle_alpha   90.00000000
_cell_angle_beta   90.00000000
_cell_angle_gamma   90.00000000
_symmetry_Int_Tables_number   1
_chemical_formula_structural   HoTm4CoSb2
_chemical_formula_sum   'Ho4 Tm16 Co4 Sb8'
_cell_volume   820.39920797
_cell_formula_units_Z   4
loop_
 _symmetry_equiv_pos_site_id
 _symmetry_equiv_pos_as_xyz
  1  'x, y, z'
loop_
 _atom_site_type_symbol
 _atom_site_label
 _atom_site_symmetry_multiplicity
 _atom_site_fract_x
 _atom_site_fract_y
 _atom_site_fract_z
 _atom_site_occupancy
  Ho  Ho0  1  0.622697  0.750000  0.307778  1
  Ho  Ho1  1  0.122697  0.250000  0.192222  1
  Ho  Ho2  1  0.377303  0.250000  0.692222  1
  Ho  Ho3  1  0.877303  0.750000  0.807778  1
  Tm  Tm4  1  0.156898  0.750000  0.203719  1
  Tm  Tm5  1  0.656898  0.250000  0.296281  1
  Tm  Tm6  1  0.843102  0.250000  0.796281  1
  Tm  Tm7  1  0.343102  0.750000  0.703719  1
  Tm  Tm8  1  0.450203  0.750000  0.997875  1
  Tm  Tm9  1  0.950203  0.250000  0.502125  1
  Tm  Tm10  1  0.549797  0.250000  0.002125  1
  Tm  Tm11  1  0.049797  0.750000  0.497875  1
  Tm  Tm12  1  0.823541  0.963021  0.065499  1
  Tm  Tm13  1  0.323541  0.036979  0.434501  1
  Tm  Tm14  1  0.176459  0.463021  0.934501  1
  Tm  Tm15  1  0.676459  0.536979  0.565499  1
  Tm  Tm16  1  0.176459  0.036979  0.934501  1
  Tm  Tm17  1  0.676459  0.963021  0.565499  1
  Tm  Tm18  1  0.823541  0.536979  0.065499  1
  Tm  Tm19  1  0.323541  0.463021  0.434501  1
  Co  Co20  1  0.431413  0.750000  0.491072  1
  Co  Co21  1  0.931413  0.250000  0.008928  1
  Co  Co22  1  0.568587  0.250000  0.508928  1
  Co  Co23  1  0.068587  0.750000  0.991072  1
  Sb  Sb24  1  0.931058  0.991357  0.327737  1
  Sb  Sb25  1  0.431058  0.008643  0.172263  1
  Sb  Sb26  1  0.068942  0.491357  0.672263  1
  Sb  Sb27  1  0.568942  0.508643  0.827737  1
  Sb  Sb28  1  0.068942  0.008643  0.672263  1
  Sb  Sb29  1  0.568942  0.991357  0.827737  1
  Sb  Sb30  1  0.931058  0.508643  0.327737  1
  Sb  Sb31  1  0.431058  0.491357  0.172263  1
