# generated using pymatgen
data_Ti5Ga2MoC4
_symmetry_space_group_name_H-M   'P 1'
_cell_length_a   3.08299100
_cell_length_b   3.08299166
_cell_length_c   18.29090500
_cell_angle_alpha   90.00000000
_cell_angle_beta   90.00000000
_cell_angle_gamma   120.00000364
_symmetry_Int_Tables_number   1
_chemical_formula_structural   Ti5Ga2MoC4
_chemical_formula_sum   'Ti5 Ga2 Mo1 C4'
_cell_volume   150.56028105
_cell_formula_units_Z   1
loop_
 _symmetry_equiv_pos_site_id
 _symmetry_equiv_pos_as_xyz
  1  'x, y, z'
loop_
 _atom_site_type_symbol
 _atom_site_label
 _atom_site_symmetry_multiplicity
 _atom_site_fract_x
 _atom_site_fract_y
 _atom_site_fract_z
 _atom_site_occupancy
  Ti  Ti0  1  0.333333  0.666667  0.870965  1
  Ti  Ti1  1  0.333333  0.666667  0.629084  1
  Ti  Ti2  1  0.666667  0.333333  0.129851  1
  Ti  Ti3  1  0.000000  0.000000  0.498111  1
  Ti  Ti4  1  0.000000  0.000000  0.000420  1
  Ga  Ga5  1  0.000000  0.000000  0.749883  1
  Ga  Ga6  1  0.000000  0.000000  0.250438  1
  Mo  Mo7  1  0.666667  0.333333  0.369374  1
  C  C8  1  0.333333  0.666667  0.430876  1
  C  C9  1  0.666667  0.333333  0.929444  1
  C  C10  1  0.333333  0.666667  0.070546  1
  C  C11  1  0.666667  0.333333  0.571008  1
