# generated using pymatgen
data_Sc6Ti2Al14AsRh7
_symmetry_space_group_name_H-M   'P 1'
_cell_length_a   8.81817510
_cell_length_b   8.81817598
_cell_length_c   8.81817493
_cell_angle_alpha   120.14355513
_cell_angle_beta   119.90010168
_cell_angle_gamma   89.96232491
_symmetry_Int_Tables_number   1
_chemical_formula_structural   Sc6Ti2Al14AsRh7
_chemical_formula_sum   'Sc6 Ti2 Al14 As1 Rh7'
_cell_volume   484.70257609
_cell_formula_units_Z   1
loop_
 _symmetry_equiv_pos_site_id
 _symmetry_equiv_pos_as_xyz
  1  'x, y, z'
loop_
 _atom_site_type_symbol
 _atom_site_label
 _atom_site_symmetry_multiplicity
 _atom_site_fract_x
 _atom_site_fract_y
 _atom_site_fract_z
 _atom_site_occupancy
  Sc  Sc0  1  0.793992  0.288705  0.075516  1
  Sc  Sc1  1  0.213188  0.288705  0.494713  1
  Sc  Sc2  1  0.209315  0.709315  0.500000  1
  Sc  Sc3  1  0.213188  0.718475  0.924484  1
  Sc  Sc4  1  0.793992  0.718475  0.505287  1
  Sc  Sc5  1  0.785019  0.285019  0.500000  1
  Ti  Ti6  1  0.380492  0.124100  0.743607  1
  Ti  Ti7  1  0.380492  0.636886  0.256393  1
  Al  Al8  1  0.165572  0.334606  0.169032  1
  Al  Al9  1  0.165572  0.996541  0.830968  1
  Al  Al10  1  0.162529  0.335023  0.827506  1
  Al  Al11  1  0.507516  0.335023  0.172494  1
  Al  Al12  1  0.834042  0.665038  0.830997  1
  Al  Al13  1  0.834042  0.003045  0.169003  1
  Al  Al14  1  0.832617  0.665731  0.166886  1
  Al  Al15  1  0.498845  0.665731  0.833114  1
  Al  Al16  1  0.381265  0.120632  0.260634  1
  Al  Al17  1  0.860000  0.120632  0.739366  1
  Al  Al18  1  0.619106  0.877103  0.257997  1
  Al  Al19  1  0.619106  0.361110  0.742003  1
  Al  Al20  1  0.618447  0.878170  0.740276  1
  Al  Al21  1  0.137893  0.878170  0.259724  1
  As  As22  1  0.996123  0.496123  0.500000  1
  Rh  Rh23  1  0.001051  0.000926  0.501411  1
  Rh  Rh24  1  0.499515  0.000926  0.999874  1
  Rh  Rh25  1  0.498340  0.498340  0.000000  1
  Rh  Rh26  1  0.499515  0.499641  0.498589  1
  Rh  Rh27  1  0.001051  0.499641  0.000126  1
  Rh  Rh28  1  0.001503  0.001503  0.000000  1
  Rh  Rh29  1  0.496664  0.996664  0.500000  1
