# generated using pymatgen
data_LaPr4Nb2O12
_symmetry_space_group_name_H-M   'P 1'
_cell_length_a   7.16203909
_cell_length_b   7.16203888
_cell_length_c   7.82619510
_cell_angle_alpha   74.15190386
_cell_angle_beta   74.15190648
_cell_angle_gamma   50.60921823
_symmetry_Int_Tables_number   1
_chemical_formula_structural   LaPr4Nb2O12
_chemical_formula_sum   'La1 Pr4 Nb2 O12'
_cell_volume   295.75628047
_cell_formula_units_Z   1
loop_
 _symmetry_equiv_pos_site_id
 _symmetry_equiv_pos_as_xyz
  1  'x, y, z'
loop_
 _atom_site_type_symbol
 _atom_site_label
 _atom_site_symmetry_multiplicity
 _atom_site_fract_x
 _atom_site_fract_y
 _atom_site_fract_z
 _atom_site_occupancy
  La  La0  1  0.000000  0.000000  0.500000  1
  Pr  Pr1  1  0.305675  0.305675  0.359744  1
  Pr  Pr2  1  0.694325  0.694325  0.640256  1
  Pr  Pr3  1  0.691191  0.691191  0.169647  1
  Pr  Pr4  1  0.308809  0.308809  0.830353  1
  Nb  Nb5  1  0.766848  0.233152  0.000000  1
  Nb  Nb6  1  0.233152  0.766848  0.000000  1
  O  O7  1  0.094484  0.592782  0.578274  1
  O  O8  1  0.998926  0.998926  0.189092  1
  O  O9  1  0.407218  0.905516  0.421726  1
  O  O10  1  0.500570  0.500570  0.176186  1
  O  O11  1  0.099753  0.579320  0.079484  1
  O  O12  1  0.905516  0.407218  0.421726  1
  O  O13  1  0.001074  0.001074  0.810908  1
  O  O14  1  0.592782  0.094483  0.578274  1
  O  O15  1  0.499430  0.499430  0.823814  1
  O  O16  1  0.579320  0.099753  0.079484  1
  O  O17  1  0.420680  0.900247  0.920516  1
  O  O18  1  0.900247  0.420680  0.920516  1
