# generated using pymatgen
data_MgCo(WO3)4
_symmetry_space_group_name_H-M   'P 1'
_cell_length_a   6.63927833
_cell_length_b   6.61892429
_cell_length_c   10.70732148
_cell_angle_alpha   71.99337953
_cell_angle_beta   71.93523254
_cell_angle_gamma   89.99509405
_symmetry_Int_Tables_number   1
_chemical_formula_structural   MgCo(WO3)4
_chemical_formula_sum   'Mg2 Co2 W8 O24'
_cell_volume   423.03414449
_cell_formula_units_Z   2
loop_
 _symmetry_equiv_pos_site_id
 _symmetry_equiv_pos_as_xyz
  1  'x, y, z'
loop_
 _atom_site_type_symbol
 _atom_site_label
 _atom_site_symmetry_multiplicity
 _atom_site_fract_x
 _atom_site_fract_y
 _atom_site_fract_z
 _atom_site_occupancy
  Mg  Mg0  1  0.250069  0.749966  0.499980  1
  Mg  Mg1  1  0.749921  0.250046  0.500051  1
  Co  Co2  1  0.500020  0.499903  0.999961  1
  Co  Co3  1  0.000029  0.000092  0.000002  1
  W  W4  1  0.417820  0.917669  0.164399  1
  W  W5  1  0.917737  0.417887  0.164356  1
  W  W6  1  0.082195  0.582295  0.835623  1
  W  W7  1  0.582225  0.082112  0.835644  1
  W  W8  1  0.168153  0.168186  0.663687  1
  W  W9  1  0.668194  0.668150  0.663714  1
  W  W10  1  0.331828  0.331756  0.336297  1
  W  W11  1  0.831859  0.831906  0.336304  1
  O  O12  1  0.558737  0.750016  0.499993  1
  O  O13  1  0.058670  0.250058  0.500008  1
  O  O14  1  0.941346  0.749935  0.499992  1
  O  O15  1  0.441258  0.250066  0.499983  1
  O  O16  1  0.499932  0.191564  0.000029  1
  O  O17  1  0.999942  0.691774  0.999996  1
  O  O18  1  0.500034  0.808187  0.000029  1
  O  O19  1  0.999981  0.308395  0.000003  1
  O  O20  1  0.705744  0.912892  0.174452  1
  O  O21  1  0.205748  0.412724  0.174398  1
  O  O22  1  0.119805  0.912702  0.174447  1
  O  O23  1  0.619817  0.412953  0.174371  1
  O  O24  1  0.794269  0.587217  0.825563  1
  O  O25  1  0.294309  0.087130  0.825532  1
  O  O26  1  0.380201  0.587238  0.825561  1
  O  O27  1  0.880179  0.087162  0.825562  1
  O  O28  1  0.163472  0.869608  0.673002  1
  O  O29  1  0.663408  0.369562  0.673118  1
  O  O30  1  0.163471  0.457338  0.673113  1
  O  O31  1  0.663560  0.957357  0.673052  1
  O  O32  1  0.336495  0.630388  0.326994  1
  O  O33  1  0.836255  0.130446  0.326944  1
  O  O34  1  0.336577  0.042673  0.326886  1
  O  O35  1  0.836741  0.542647  0.326953  1
