# generated using pymatgen
data_Pr12Ga3SiBr12
_symmetry_space_group_name_H-M   'P 1'
_cell_length_a   10.61187950
_cell_length_b   10.53746623
_cell_length_c   10.53746687
_cell_angle_alpha   109.32772893
_cell_angle_beta   109.61433059
_cell_angle_gamma   109.61433798
_symmetry_Int_Tables_number   1
_chemical_formula_structural   Pr12Ga3SiBr12
_chemical_formula_sum   'Pr12 Ga3 Si1 Br12'
_cell_volume   905.46721076
_cell_formula_units_Z   1
loop_
 _symmetry_equiv_pos_site_id
 _symmetry_equiv_pos_as_xyz
  1  'x, y, z'
loop_
 _atom_site_type_symbol
 _atom_site_label
 _atom_site_symmetry_multiplicity
 _atom_site_fract_x
 _atom_site_fract_y
 _atom_site_fract_z
 _atom_site_occupancy
  Pr  Pr0  1  0.480816  0.492845  0.238728  1
  Pr  Pr1  1  0.750000  0.241773  0.258227  1
  Pr  Pr2  1  0.750000  0.007642  0.492358  1
  Pr  Pr3  1  0.242358  0.484715  0.492358  1
  Pr  Pr4  1  0.257912  0.745882  0.238728  1
  Pr  Pr5  1  0.019184  0.261272  0.007155  1
  Pr  Pr6  1  0.008227  0.016453  0.258227  1
  Pr  Pr7  1  0.487970  0.745882  0.007155  1
  Pr  Pr8  1  0.491773  0.241773  0.483547  1
  Pr  Pr9  1  0.012030  0.492845  0.754118  1
  Pr  Pr10  1  0.257642  0.007642  0.015285  1
  Pr  Pr11  1  0.242088  0.261272  0.754118  1
  Ga  Ga12  1  0.250000  0.249567  0.250433  1
  Ga  Ga13  1  0.500433  0.000867  0.250433  1
  Ga  Ga14  1  0.999567  0.249567  0.499133  1
  Si  Si15  1  0.250000  0.500000  0.000000  1
  Br  Br16  1  0.250000  0.753907  0.746093  1
  Br  Br17  1  0.507920  0.504087  0.754442  1
  Br  Br18  1  0.992079  0.745558  0.995913  1
  Br  Br19  1  0.746520  0.250354  0.754442  1
  Br  Br20  1  0.996093  0.992187  0.746093  1
  Br  Br21  1  0.250000  0.996074  0.503926  1
  Br  Br22  1  0.753926  0.507852  0.503926  1
  Br  Br23  1  0.503834  0.250354  0.995913  1
  Br  Br24  1  0.753480  0.745558  0.249646  1
  Br  Br25  1  0.746074  0.996074  0.992148  1
  Br  Br26  1  0.996166  0.504087  0.249646  1
  Br  Br27  1  0.503907  0.753907  0.507812  1
