# generated using pymatgen
data_Tm2Lu2Zn4Si3Ge
_symmetry_space_group_name_H-M   'P 1'
_cell_length_a   4.15657000
_cell_length_b   4.15656982
_cell_length_c   15.15467500
_cell_angle_alpha   90.00000000
_cell_angle_beta   90.00000000
_cell_angle_gamma   120.00000147
_symmetry_Int_Tables_number   1
_chemical_formula_structural   Tm2Lu2Zn4Si3Ge
_chemical_formula_sum   'Tm2 Lu2 Zn4 Si3 Ge1'
_cell_volume   226.75007048
_cell_formula_units_Z   1
loop_
 _symmetry_equiv_pos_site_id
 _symmetry_equiv_pos_as_xyz
  1  'x, y, z'
loop_
 _atom_site_type_symbol
 _atom_site_label
 _atom_site_symmetry_multiplicity
 _atom_site_fract_x
 _atom_site_fract_y
 _atom_site_fract_z
 _atom_site_occupancy
  Tm  Tm0  1  0.000000  0.000000  0.001969  1
  Tm  Tm1  1  0.000000  0.000000  0.499705  1
  Lu  Lu2  1  0.000000  0.000000  0.251024  1
  Lu  Lu3  1  0.000000  0.000000  0.747342  1
  Zn  Zn4  1  0.333333  0.666667  0.144504  1
  Zn  Zn5  1  0.666667  0.333333  0.850983  1
  Zn  Zn6  1  0.666667  0.333333  0.641639  1
  Zn  Zn7  1  0.333333  0.666667  0.357877  1
  Si  Si8  1  0.333333  0.666667  0.616889  1
  Si  Si9  1  0.666667  0.333333  0.383053  1
  Si  Si10  1  0.666667  0.333333  0.118597  1
  Ge  Ge11  1  0.333333  0.666667  0.886418  1
