# generated using pymatgen
data_Sc5Mo3P12(Ir5Ru3)2
_symmetry_space_group_name_H-M   'P 1'
_cell_length_a   12.54301300
_cell_length_b   12.54301334
_cell_length_c   3.93882700
_cell_angle_alpha   90.00000000
_cell_angle_beta   90.00000000
_cell_angle_gamma   120.00000175
_symmetry_Int_Tables_number   1
_chemical_formula_structural   Sc5Mo3P12(Ir5Ru3)2
_chemical_formula_sum   'Sc5 Mo3 P12 Ir10 Ru6'
_cell_volume   536.66254619
_cell_formula_units_Z   1
loop_
 _symmetry_equiv_pos_site_id
 _symmetry_equiv_pos_as_xyz
  1  'x, y, z'
loop_
 _atom_site_type_symbol
 _atom_site_label
 _atom_site_symmetry_multiplicity
 _atom_site_fract_x
 _atom_site_fract_y
 _atom_site_fract_z
 _atom_site_occupancy
  Sc  Sc0  1  0.333333  0.666667  0.000000  1
  Sc  Sc1  1  0.666667  0.333333  0.000000  1
  Sc  Sc2  1  0.811305  0.000000  0.500000  1
  Sc  Sc3  1  0.000000  0.811305  0.500000  1
  Sc  Sc4  1  0.188695  0.188695  0.500000  1
  Mo  Mo5  1  0.449896  0.000000  0.000000  1
  Mo  Mo6  1  0.000000  0.449896  0.000000  1
  Mo  Mo7  1  0.550104  0.550104  0.000000  1
  P  P8  1  0.178823  0.000000  0.000000  1
  P  P9  1  0.000000  0.178823  0.000000  1
  P  P10  1  0.821177  0.821177  0.000000  1
  P  P11  1  0.170092  0.479570  0.500000  1
  P  P12  1  0.520430  0.690521  0.500000  1
  P  P13  1  0.309479  0.829908  0.500000  1
  P  P14  1  0.690521  0.520430  0.500000  1
  P  P15  1  0.829908  0.309479  0.500000  1
  P  P16  1  0.479570  0.170092  0.500000  1
  P  P17  1  0.638515  0.000000  0.000000  1
  P  P18  1  0.000000  0.638515  0.000000  1
  P  P19  1  0.361485  0.361485  0.000000  1
  Ir  Ir20  1  0.361695  0.494861  0.500000  1
  Ir  Ir21  1  0.505139  0.866833  0.500000  1
  Ir  Ir22  1  0.133167  0.638305  0.500000  1
  Ir  Ir23  1  0.866833  0.505139  0.500000  1
  Ir  Ir24  1  0.638305  0.133167  0.500000  1
  Ir  Ir25  1  0.494861  0.361695  0.500000  1
  Ir  Ir26  1  0.278800  0.000000  0.500000  1
  Ir  Ir27  1  0.000000  0.278800  0.500000  1
  Ir  Ir28  1  0.721200  0.721200  0.500000  1
  Ir  Ir29  1  0.000000  0.000000  0.000000  1
  Ru  Ru30  1  0.181413  0.373990  0.000000  1
  Ru  Ru31  1  0.626010  0.807424  0.000000  1
  Ru  Ru32  1  0.192576  0.818587  0.000000  1
  Ru  Ru33  1  0.807424  0.626010  0.000000  1
  Ru  Ru34  1  0.818587  0.192576  0.000000  1
  Ru  Ru35  1  0.373990  0.181413  0.000000  1
