# generated using pymatgen
data_Ho5Th(Si3Pt2)4
_symmetry_space_group_name_H-M   'P 1'
_cell_length_a   4.25322700
_cell_length_b   8.57900170
_cell_length_c   13.02312331
_cell_angle_alpha   80.40409398
_cell_angle_beta   90.00000000
_cell_angle_gamma   90.00000000
_symmetry_Int_Tables_number   1
_chemical_formula_structural   Ho5Th(Si3Pt2)4
_chemical_formula_sum   'Ho5 Th1 Si12 Pt8'
_cell_volume   468.54454464
_cell_formula_units_Z   1
loop_
 _symmetry_equiv_pos_site_id
 _symmetry_equiv_pos_as_xyz
  1  'x, y, z'
loop_
 _atom_site_type_symbol
 _atom_site_label
 _atom_site_symmetry_multiplicity
 _atom_site_fract_x
 _atom_site_fract_y
 _atom_site_fract_z
 _atom_site_occupancy
  Ho  Ho0  1  0.250000  0.581825  0.184501  1
  Ho  Ho1  1  0.750000  0.233478  0.561390  1
  Ho  Ho2  1  0.750000  0.416341  0.816478  1
  Ho  Ho3  1  0.750000  0.925990  0.817110  1
  Ho  Ho4  1  0.250000  0.075765  0.182528  1
  Th  Th5  1  0.250000  0.766237  0.440248  1
  Si  Si6  1  0.750000  0.584107  0.576337  1
  Si  Si7  1  0.750000  0.126497  0.004455  1
  Si  Si8  1  0.750000  0.874208  0.579549  1
  Si  Si9  1  0.250000  0.694543  0.716714  1
  Si  Si10  1  0.750000  0.304482  0.282454  1
  Si  Si11  1  0.750000  0.805927  0.271638  1
  Si  Si12  1  0.250000  0.874317  0.993509  1
  Si  Si13  1  0.250000  0.195048  0.724761  1
  Si  Si14  1  0.250000  0.377921  0.999954  1
  Si  Si15  1  0.250000  0.132208  0.422878  1
  Si  Si16  1  0.750000  0.621814  0.999164  1
  Si  Si17  1  0.250000  0.410012  0.428223  1
  Pt  Pt18  1  0.750000  0.352320  0.096430  1
  Pt  Pt19  1  0.250000  0.971439  0.627129  1
  Pt  Pt20  1  0.750000  0.850669  0.086440  1
  Pt  Pt21  1  0.750000  0.032128  0.374345  1
  Pt  Pt22  1  0.250000  0.647895  0.902130  1
  Pt  Pt23  1  0.250000  0.149984  0.911078  1
  Pt  Pt24  1  0.750000  0.530194  0.374202  1
  Pt  Pt25  1  0.250000  0.464651  0.626352  1
