# generated using pymatgen
data_Y16Cd4Pd3Rh
_symmetry_space_group_name_H-M   'P 1'
_cell_length_a   9.73283324
_cell_length_b   9.73283242
_cell_length_c   9.73283256
_cell_angle_alpha   59.82224967
_cell_angle_beta   59.82225209
_cell_angle_gamma   59.82224825
_symmetry_Int_Tables_number   1
_chemical_formula_structural   Y16Cd4Pd3Rh
_chemical_formula_sum   'Y16 Cd4 Pd3 Rh1'
_cell_volume   649.30249030
_cell_formula_units_Z   1
loop_
 _symmetry_equiv_pos_site_id
 _symmetry_equiv_pos_as_xyz
  1  'x, y, z'
loop_
 _atom_site_type_symbol
 _atom_site_label
 _atom_site_symmetry_multiplicity
 _atom_site_fract_x
 _atom_site_fract_y
 _atom_site_fract_z
 _atom_site_occupancy
  Y  Y0  1  0.352395  0.352395  0.352395  1
  Y  Y1  1  0.352921  0.352921  0.940486  1
  Y  Y2  1  0.352921  0.940486  0.352921  1
  Y  Y3  1  0.940486  0.352921  0.352921  1
  Y  Y4  1  0.814832  0.189679  0.189679  1
  Y  Y5  1  0.188240  0.810687  0.810687  1
  Y  Y6  1  0.189679  0.814832  0.189679  1
  Y  Y7  1  0.810687  0.188240  0.810687  1
  Y  Y8  1  0.189679  0.189679  0.814832  1
  Y  Y9  1  0.810687  0.810687  0.188240  1
  Y  Y10  1  0.934708  0.566024  0.566024  1
  Y  Y11  1  0.562442  0.936038  0.936038  1
  Y  Y12  1  0.566024  0.934708  0.566024  1
  Y  Y13  1  0.936038  0.562442  0.936038  1
  Y  Y14  1  0.566024  0.566024  0.934708  1
  Y  Y15  1  0.936038  0.936038  0.562442  1
  Cd  Cd16  1  0.581252  0.581252  0.581252  1
  Cd  Cd17  1  0.580901  0.580901  0.253750  1
  Cd  Cd18  1  0.580901  0.253750  0.580901  1
  Cd  Cd19  1  0.253750  0.580901  0.580901  1
  Pd  Pd20  1  0.143327  0.143327  0.568244  1
  Pd  Pd21  1  0.143327  0.568244  0.143327  1
  Pd  Pd22  1  0.568244  0.143327  0.143327  1
  Rh  Rh23  1  0.144499  0.144499  0.144499  1
