# generated using pymatgen
data_La4PrIrPt2
_symmetry_space_group_name_H-M   'P 1'
_cell_length_a   11.59897900
_cell_length_b   11.59897900
_cell_length_c   6.63674500
_cell_angle_alpha   90.00000000
_cell_angle_beta   90.00000000
_cell_angle_gamma   90.00000000
_symmetry_Int_Tables_number   1
_chemical_formula_structural   La4PrIrPt2
_chemical_formula_sum   'La16 Pr4 Ir4 Pt8'
_cell_volume   892.88320821
_cell_formula_units_Z   4
loop_
 _symmetry_equiv_pos_site_id
 _symmetry_equiv_pos_as_xyz
  1  'x, y, z'
loop_
 _atom_site_type_symbol
 _atom_site_label
 _atom_site_symmetry_multiplicity
 _atom_site_fract_x
 _atom_site_fract_y
 _atom_site_fract_z
 _atom_site_occupancy
  La  La0  1  0.295007  0.089415  0.375876  1
  La  La1  1  0.295007  0.910585  0.875876  1
  La  La2  1  0.704993  0.089415  0.875876  1
  La  La3  1  0.704993  0.910585  0.375876  1
  La  La4  1  0.589415  0.795007  0.875876  1
  La  La5  1  0.589415  0.204993  0.375876  1
  La  La6  1  0.410585  0.795007  0.375876  1
  La  La7  1  0.410585  0.204993  0.875876  1
  La  La8  1  0.204993  0.410585  0.624124  1
  La  La9  1  0.204993  0.589415  0.124124  1
  La  La10  1  0.795007  0.410585  0.124124  1
  La  La11  1  0.795007  0.589415  0.624124  1
  La  La12  1  0.910585  0.704993  0.124124  1
  La  La13  1  0.910585  0.295007  0.624124  1
  La  La14  1  0.089415  0.704993  0.624124  1
  La  La15  1  0.089415  0.295007  0.124124  1
  Pr  Pr16  1  0.000000  0.000000  0.500000  1
  Pr  Pr17  1  0.000000  0.000000  0.000000  1
  Pr  Pr18  1  0.500000  0.500000  0.000000  1
  Pr  Pr19  1  0.500000  0.500000  0.500000  1
  Ir  Ir20  1  0.500000  0.000000  0.115155  1
  Ir  Ir21  1  0.500000  0.000000  0.615155  1
  Ir  Ir22  1  0.000000  0.500000  0.884845  1
  Ir  Ir23  1  0.000000  0.500000  0.384845  1
  Pt  Pt24  1  0.846085  0.153915  0.250000  1
  Pt  Pt25  1  0.846085  0.846085  0.750000  1
  Pt  Pt26  1  0.153915  0.153915  0.750000  1
  Pt  Pt27  1  0.153915  0.846085  0.250000  1
  Pt  Pt28  1  0.653915  0.346085  0.750000  1
  Pt  Pt29  1  0.653915  0.653915  0.250000  1
  Pt  Pt30  1  0.346085  0.346085  0.250000  1
  Pt  Pt31  1  0.346085  0.653915  0.750000  1
