# generated using pymatgen
data_Er8Zr11TaSi16
_symmetry_space_group_name_H-M   'P 1'
_cell_length_a   7.29068580
_cell_length_b   7.29068603
_cell_length_c   13.41884623
_cell_angle_alpha   90.03544777
_cell_angle_beta   89.96455418
_cell_angle_gamma   90.11046281
_symmetry_Int_Tables_number   1
_chemical_formula_structural   Er8Zr11TaSi16
_chemical_formula_sum   'Er8 Zr11 Ta1 Si16'
_cell_volume   713.26511120
_cell_formula_units_Z   1
loop_
 _symmetry_equiv_pos_site_id
 _symmetry_equiv_pos_as_xyz
  1  'x, y, z'
loop_
 _atom_site_type_symbol
 _atom_site_label
 _atom_site_symmetry_multiplicity
 _atom_site_fract_x
 _atom_site_fract_y
 _atom_site_fract_z
 _atom_site_occupancy
  Er  Er0  1  0.346259  0.004189  0.463755  1
  Er  Er1  1  0.495307  0.846406  0.715234  1
  Er  Er2  1  0.503205  0.153581  0.212273  1
  Er  Er3  1  0.846406  0.495307  0.284766  1
  Er  Er4  1  0.153581  0.503205  0.787727  1
  Er  Er5  1  0.652466  0.996787  0.964370  1
  Er  Er6  1  0.004189  0.346259  0.536245  1
  Er  Er7  1  0.996787  0.652466  0.035630  1
  Zr  Zr8  1  0.176635  0.824022  0.248910  1
  Zr  Zr9  1  0.824022  0.176635  0.751090  1
  Zr  Zr10  1  0.675860  0.675860  0.500000  1
  Zr  Zr11  1  0.147984  0.004012  0.875891  1
  Zr  Zr12  1  0.495943  0.644987  0.122897  1
  Zr  Zr13  1  0.502382  0.354694  0.626094  1
  Zr  Zr14  1  0.644987  0.495943  0.877103  1
  Zr  Zr15  1  0.354694  0.502382  0.373906  1
  Zr  Zr16  1  0.854129  0.997072  0.374830  1
  Zr  Zr17  1  0.004012  0.147984  0.124109  1
  Zr  Zr18  1  0.997072  0.854129  0.625170  1
  Ta  Ta19  1  0.323090  0.323090  0.000000  1
  Si  Si20  1  0.205312  0.141841  0.683970  1
  Si  Si21  1  0.357026  0.701335  0.933963  1
  Si  Si22  1  0.641365  0.294829  0.433488  1
  Si  Si23  1  0.701335  0.357026  0.066037  1
  Si  Si24  1  0.294829  0.641365  0.566512  1
  Si  Si25  1  0.794520  0.858490  0.182486  1
  Si  Si26  1  0.141841  0.205312  0.316030  1
  Si  Si27  1  0.858490  0.794520  0.817514  1
  Si  Si28  1  0.297870  0.953537  0.062431  1
  Si  Si29  1  0.551274  0.796623  0.312383  1
  Si  Si30  1  0.447099  0.204647  0.816525  1
  Si  Si31  1  0.796623  0.551274  0.687617  1
  Si  Si32  1  0.204647  0.447099  0.183475  1
  Si  Si33  1  0.703480  0.051747  0.563512  1
  Si  Si34  1  0.953537  0.297870  0.937569  1
  Si  Si35  1  0.051747  0.703480  0.436488  1
