# generated using pymatgen
data_Nd2Ga3AsRh6
_symmetry_space_group_name_H-M   'P 1'
_cell_length_a   6.82513709
_cell_length_b   6.83148433
_cell_length_c   6.82513712
_cell_angle_alpha   130.87113662
_cell_angle_beta   112.17446595
_cell_angle_gamma   88.14520349
_symmetry_Int_Tables_number   1
_chemical_formula_structural   Nd2Ga3AsRh6
_chemical_formula_sum   'Nd2 Ga3 As1 Rh6'
_cell_volume   212.11746247
_cell_formula_units_Z   1
loop_
 _symmetry_equiv_pos_site_id
 _symmetry_equiv_pos_as_xyz
  1  'x, y, z'
loop_
 _atom_site_type_symbol
 _atom_site_label
 _atom_site_symmetry_multiplicity
 _atom_site_fract_x
 _atom_site_fract_y
 _atom_site_fract_z
 _atom_site_occupancy
  Nd  Nd0  1  0.748942  0.032388  0.283446  1
  Nd  Nd1  1  0.250204  0.960267  0.710063  1
  Ga  Ga2  1  0.568899  0.359558  0.790659  1
  Ga  Ga3  1  0.412932  0.626498  0.213565  1
  Ga  Ga4  1  0.097523  0.312834  0.215312  1
  As  As5  1  0.922423  0.709156  0.786734  1
  Rh  Rh6  1  0.220687  0.497543  0.720333  1
  Rh  Rh7  1  0.734717  0.998829  0.731855  1
  Rh  Rh8  1  0.777210  0.497543  0.276856  1
  Rh  Rh9  1  0.266973  0.998829  0.264111  1
  Rh  Rh10  1  0.515222  0.503277  0.519010  1
  Rh  Rh11  1  0.984267  0.503277  0.988055  1
