# generated using pymatgen
data_PrUO4
_symmetry_space_group_name_H-M   'P 1'
_cell_length_a   5.72063800
_cell_length_b   8.01910587
_cell_length_c   8.12150389
_cell_angle_alpha   83.83997051
_cell_angle_beta   90.00000000
_cell_angle_gamma   90.00000000
_symmetry_Int_Tables_number   1
_chemical_formula_structural   PrUO4
_chemical_formula_sum   'Pr4 U4 O16'
_cell_volume   370.41794204
_cell_formula_units_Z   4
loop_
 _symmetry_equiv_pos_site_id
 _symmetry_equiv_pos_as_xyz
  1  'x, y, z'
loop_
 _atom_site_type_symbol
 _atom_site_label
 _atom_site_symmetry_multiplicity
 _atom_site_fract_x
 _atom_site_fract_y
 _atom_site_fract_z
 _atom_site_occupancy
  Pr  Pr0  1  0.270671  0.858023  0.888141  1
  Pr  Pr1  1  0.229329  0.858023  0.388141  1
  Pr  Pr2  1  0.770671  0.141977  0.611859  1
  Pr  Pr3  1  0.729329  0.141977  0.111859  1
  U  U4  1  0.774054  0.664262  0.684254  1
  U  U5  1  0.725946  0.664262  0.184254  1
  U  U6  1  0.274054  0.335738  0.815746  1
  U  U7  1  0.225946  0.335738  0.315746  1
  O  O8  1  0.092893  0.574473  0.813859  1
  O  O9  1  0.608923  0.675783  0.926619  1
  O  O10  1  0.407107  0.574473  0.313859  1
  O  O11  1  0.500528  0.830167  0.615136  1
  O  O12  1  0.891077  0.675783  0.426619  1
  O  O13  1  0.999472  0.830167  0.115136  1
  O  O14  1  0.986683  0.889773  0.667719  1
  O  O15  1  0.486683  0.110227  0.832281  1
  O  O16  1  0.513317  0.889773  0.167719  1
  O  O17  1  0.013317  0.110227  0.332281  1
  O  O18  1  0.000528  0.169833  0.884864  1
  O  O19  1  0.108923  0.324217  0.573381  1
  O  O20  1  0.499472  0.169833  0.384864  1
  O  O21  1  0.592893  0.425527  0.686141  1
  O  O22  1  0.391077  0.324217  0.073381  1
  O  O23  1  0.907107  0.425527  0.186141  1
