# generated using pymatgen
data_NaScFeH6
_symmetry_space_group_name_H-M   'P 1'
_cell_length_a   6.66648300
_cell_length_b   6.66648300
_cell_length_c   6.66648300
_cell_angle_alpha   90.00000000
_cell_angle_beta   90.00000000
_cell_angle_gamma   90.00000000
_symmetry_Int_Tables_number   1
_chemical_formula_structural   NaScFeH6
_chemical_formula_sum   'Na4 Sc4 Fe4 H24'
_cell_volume   296.27180808
_cell_formula_units_Z   4
loop_
 _symmetry_equiv_pos_site_id
 _symmetry_equiv_pos_as_xyz
  1  'x, y, z'
loop_
 _atom_site_type_symbol
 _atom_site_label
 _atom_site_symmetry_multiplicity
 _atom_site_fract_x
 _atom_site_fract_y
 _atom_site_fract_z
 _atom_site_occupancy
  Na  Na0  1  0.000000  0.000000  0.500000  1
  Na  Na1  1  0.000000  0.500000  0.000000  1
  Na  Na2  1  0.500000  0.000000  0.000000  1
  Na  Na3  1  0.000000  0.000000  0.000000  1
  Sc  Sc4  1  0.500000  0.500000  0.500000  1
  Sc  Sc5  1  0.000000  0.500000  0.500000  1
  Sc  Sc6  1  0.500000  0.000000  0.500000  1
  Sc  Sc7  1  0.500000  0.500000  0.000000  1
  Fe  Fe8  1  0.272850  0.727150  0.727150  1
  Fe  Fe9  1  0.727150  0.272850  0.727150  1
  Fe  Fe10  1  0.727150  0.727150  0.272850  1
  Fe  Fe11  1  0.272850  0.272850  0.272850  1
  H  H12  1  0.738166  0.738166  0.509152  1
  H  H13  1  0.261834  0.261834  0.509152  1
  H  H14  1  0.034878  0.731016  0.731016  1
  H  H15  1  0.268984  0.965122  0.731016  1
  H  H16  1  0.731016  0.034878  0.731016  1
  H  H17  1  0.965122  0.268984  0.731016  1
  H  H18  1  0.738166  0.509152  0.738166  1
  H  H19  1  0.509152  0.738166  0.738166  1
  H  H20  1  0.490848  0.261834  0.738166  1
  H  H21  1  0.261834  0.490848  0.738166  1
  H  H22  1  0.268984  0.731016  0.965122  1
  H  H23  1  0.731016  0.268984  0.965122  1
  H  H24  1  0.731016  0.731016  0.034878  1
  H  H25  1  0.268984  0.268984  0.034878  1
  H  H26  1  0.261834  0.509152  0.261834  1
  H  H27  1  0.490848  0.738166  0.261834  1
  H  H28  1  0.509152  0.261834  0.261834  1
  H  H29  1  0.738166  0.490848  0.261834  1
  H  H30  1  0.965122  0.731016  0.268984  1
  H  H31  1  0.731016  0.965122  0.268984  1
  H  H32  1  0.268984  0.034878  0.268984  1
  H  H33  1  0.034878  0.268984  0.268984  1
  H  H34  1  0.261834  0.738166  0.490848  1
  H  H35  1  0.738166  0.261834  0.490848  1
