# generated using pymatgen
data_Sm2Dy2Ga20Pt11
_symmetry_space_group_name_H-M   'P 1'
_cell_length_a   4.19677507
_cell_length_b   11.00141913
_cell_length_c   13.75037980
_cell_angle_alpha   82.06424425
_cell_angle_beta   81.23047246
_cell_angle_gamma   79.01638008
_symmetry_Int_Tables_number   1
_chemical_formula_structural   Sm2Dy2Ga20Pt11
_chemical_formula_sum   'Sm2 Dy2 Ga20 Pt11'
_cell_volume   612.04562800
_cell_formula_units_Z   1
loop_
 _symmetry_equiv_pos_site_id
 _symmetry_equiv_pos_as_xyz
  1  'x, y, z'
loop_
 _atom_site_type_symbol
 _atom_site_label
 _atom_site_symmetry_multiplicity
 _atom_site_fract_x
 _atom_site_fract_y
 _atom_site_fract_z
 _atom_site_occupancy
  Sm  Sm0  1  0.124037  0.087014  0.664937  1
  Sm  Sm1  1  0.875963  0.912986  0.335063  1
  Dy  Dy2  1  0.775168  0.628859  0.820912  1
  Dy  Dy3  1  0.224832  0.371141  0.179088  1
  Ga  Ga4  1  0.009677  0.068817  0.911912  1
  Ga  Ga5  1  0.990323  0.931183  0.088088  1
  Ga  Ga6  1  0.066319  0.673849  0.193553  1
  Ga  Ga7  1  0.933681  0.326151  0.806447  1
  Ga  Ga8  1  0.100785  0.343339  0.454999  1
  Ga  Ga9  1  0.899215  0.656661  0.545001  1
  Ga  Ga10  1  0.202935  0.603116  0.990965  1
  Ga  Ga11  1  0.797065  0.396884  0.009035  1
  Ga  Ga12  1  0.260269  0.778622  0.700932  1
  Ga  Ga13  1  0.739731  0.221378  0.299068  1
  Ga  Ga14  1  0.302657  0.898546  0.496163  1
  Ga  Ga15  1  0.697343  0.101454  0.503837  1
  Ga  Ga16  1  0.387251  0.524373  0.701313  1
  Ga  Ga17  1  0.612749  0.475627  0.298687  1
  Ga  Ga18  1  0.395980  0.204607  0.003391  1
  Ga  Ga19  1  0.604020  0.795393  0.996609  1
  Ga  Ga20  1  0.542631  0.284331  0.630474  1
  Ga  Ga21  1  0.457369  0.715669  0.369526  1
  Ga  Ga22  1  0.637241  0.933022  0.792457  1
  Ga  Ga23  1  0.362759  0.066978  0.207543  1
  Pt  Pt24  1  0.500000  0.500000  0.500000  1
  Pt  Pt25  1  0.027920  0.574974  0.369174  1
  Pt  Pt26  1  0.972080  0.425026  0.630826  1
  Pt  Pt27  1  0.139786  0.833103  0.887295  1
  Pt  Pt28  1  0.860214  0.166897  0.112705  1
  Pt  Pt29  1  0.238711  0.130382  0.392170  1
  Pt  Pt30  1  0.761289  0.869618  0.607830  1
  Pt  Pt31  1  0.345131  0.417118  0.892603  1
  Pt  Pt32  1  0.654869  0.582882  0.107397  1
  Pt  Pt33  1  0.504953  0.168545  0.821628  1
  Pt  Pt34  1  0.495047  0.831455  0.178372  1
