# generated using pymatgen
data_Zr4CdInAu4
_symmetry_space_group_name_H-M   'P 1'
_cell_length_a   7.62856300
_cell_length_b   7.62856300
_cell_length_c   7.13567800
_cell_angle_alpha   90.00000000
_cell_angle_beta   90.00000000
_cell_angle_gamma   90.00000000
_symmetry_Int_Tables_number   1
_chemical_formula_structural   Zr4CdInAu4
_chemical_formula_sum   'Zr8 Cd2 In2 Au8'
_cell_volume   415.26059172
_cell_formula_units_Z   2
loop_
 _symmetry_equiv_pos_site_id
 _symmetry_equiv_pos_as_xyz
  1  'x, y, z'
loop_
 _atom_site_type_symbol
 _atom_site_label
 _atom_site_symmetry_multiplicity
 _atom_site_fract_x
 _atom_site_fract_y
 _atom_site_fract_z
 _atom_site_occupancy
  Zr  Zr0  1  0.144813  0.147332  0.000000  1
  Zr  Zr1  1  0.855187  0.852668  0.000000  1
  Zr  Zr2  1  0.647332  0.355187  0.500000  1
  Zr  Zr3  1  0.352668  0.644813  0.500000  1
  Zr  Zr4  1  0.694975  0.304073  0.000000  1
  Zr  Zr5  1  0.305025  0.695927  0.000000  1
  Zr  Zr6  1  0.804073  0.805025  0.500000  1
  Zr  Zr7  1  0.195927  0.194975  0.500000  1
  Cd  Cd8  1  0.500000  0.000000  0.250000  1
  Cd  Cd9  1  0.500000  0.000000  0.750000  1
  In  In10  1  0.000000  0.500000  0.250000  1
  In  In11  1  0.000000  0.500000  0.750000  1
  Au  Au12  1  0.370660  0.368900  0.205624  1
  Au  Au13  1  0.629340  0.631100  0.794376  1
  Au  Au14  1  0.629340  0.631100  0.205624  1
  Au  Au15  1  0.868900  0.129340  0.705624  1
  Au  Au16  1  0.868900  0.129340  0.294376  1
  Au  Au17  1  0.370660  0.368900  0.794376  1
  Au  Au18  1  0.131100  0.870660  0.294376  1
  Au  Au19  1  0.131100  0.870660  0.705624  1
