# generated using pymatgen
data_Hf18Nb2Re6SiSe
_symmetry_space_group_name_H-M   'P 1'
_cell_length_a   8.65008111
_cell_length_b   8.69925339
_cell_length_c   8.68762700
_cell_angle_alpha   90.00000000
_cell_angle_beta   90.00000000
_cell_angle_gamma   120.18821591
_symmetry_Int_Tables_number   1
_chemical_formula_structural   Hf18Nb2Re6SiSe
_chemical_formula_sum   'Hf18 Nb2 Re6 Si1 Se1'
_cell_volume   565.07637814
_cell_formula_units_Z   1
loop_
 _symmetry_equiv_pos_site_id
 _symmetry_equiv_pos_as_xyz
  1  'x, y, z'
loop_
 _atom_site_type_symbol
 _atom_site_label
 _atom_site_symmetry_multiplicity
 _atom_site_fract_x
 _atom_site_fract_y
 _atom_site_fract_z
 _atom_site_occupancy
  Hf  Hf0  1  0.194828  0.807184  0.457035  1
  Hf  Hf1  1  0.194828  0.387643  0.457035  1
  Hf  Hf2  1  0.611310  0.805654  0.459133  1
  Hf  Hf3  1  0.804955  0.194228  0.553753  1
  Hf  Hf4  1  0.804955  0.610725  0.553753  1
  Hf  Hf5  1  0.387297  0.193649  0.551878  1
  Hf  Hf6  1  0.804955  0.194228  0.946247  1
  Hf  Hf7  1  0.804955  0.610725  0.946247  1
  Hf  Hf8  1  0.387297  0.193649  0.948122  1
  Hf  Hf9  1  0.194828  0.807184  0.042965  1
  Hf  Hf10  1  0.194828  0.387643  0.042965  1
  Hf  Hf11  1  0.611310  0.805654  0.040867  1
  Hf  Hf12  1  0.537887  0.455249  0.250000  1
  Hf  Hf13  1  0.537887  0.082636  0.250000  1
  Hf  Hf14  1  0.919777  0.459889  0.250000  1
  Hf  Hf15  1  0.459169  0.539336  0.750000  1
  Hf  Hf16  1  0.459169  0.919833  0.750000  1
  Hf  Hf17  1  0.080445  0.540223  0.750000  1
  Nb  Nb18  1  0.892042  0.111319  0.250000  1
  Nb  Nb19  1  0.892042  0.780724  0.250000  1
  Re  Re20  1  0.224026  0.112012  0.250000  1
  Re  Re21  1  0.109837  0.890933  0.750000  1
  Re  Re22  1  0.109837  0.218904  0.750000  1
  Re  Re23  1  0.781348  0.890673  0.750000  1
  Re  Re24  1  0.001406  0.000703  0.502191  1
  Re  Re25  1  0.001406  0.000703  0.997809  1
  Si  Si26  1  0.665818  0.332908  0.750000  1
  Se  Se27  1  0.331562  0.665782  0.250000  1
