# generated using pymatgen
data_Sm8Ho12Si15Se
_symmetry_space_group_name_H-M   'P 1'
_cell_length_a   7.51830952
_cell_length_b   7.68908737
_cell_length_c   14.65318644
_cell_angle_alpha   89.70982069
_cell_angle_beta   86.76104419
_cell_angle_gamma   90.00840474
_symmetry_Int_Tables_number   1
_chemical_formula_structural   Sm8Ho12Si15Se
_chemical_formula_sum   'Sm8 Ho12 Si15 Se1'
_cell_volume   845.72107976
_cell_formula_units_Z   1
loop_
 _symmetry_equiv_pos_site_id
 _symmetry_equiv_pos_as_xyz
  1  'x, y, z'
loop_
 _atom_site_type_symbol
 _atom_site_label
 _atom_site_symmetry_multiplicity
 _atom_site_fract_x
 _atom_site_fract_y
 _atom_site_fract_z
 _atom_site_occupancy
  Sm  Sm0  1  0.022141  0.183543  0.100129  1
  Sm  Sm1  1  0.978211  0.818909  0.899618  1
  Sm  Sm2  1  0.478587  0.683186  0.900158  1
  Sm  Sm3  1  0.000054  0.822642  0.598987  1
  Sm  Sm4  1  0.521794  0.318174  0.100434  1
  Sm  Sm5  1  0.994439  0.173443  0.398918  1
  Sm  Sm6  1  0.502249  0.312768  0.399204  1
  Sm  Sm7  1  0.507355  0.685915  0.599874  1
  Ho  Ho8  1  0.168424  0.507538  0.751767  1
  Ho  Ho9  1  0.831081  0.493446  0.254791  1
  Ho  Ho10  1  0.329276  0.006383  0.253485  1
  Ho  Ho11  1  0.671487  0.993061  0.747191  1
  Ho  Ho12  1  0.356497  0.163315  0.621817  1
  Ho  Ho13  1  0.645437  0.831880  0.378725  1
  Ho  Ho14  1  0.145358  0.666888  0.380560  1
  Ho  Ho15  1  0.672314  0.821631  0.122854  1
  Ho  Ho16  1  0.850154  0.333012  0.618491  1
  Ho  Ho17  1  0.327558  0.178938  0.876380  1
  Ho  Ho18  1  0.827633  0.321909  0.876467  1
  Ho  Ho19  1  0.171428  0.678835  0.122889  1
  Si  Si20  1  0.044991  0.112780  0.749476  1
  Si  Si21  1  0.955405  0.888595  0.248557  1
  Si  Si22  1  0.454165  0.610235  0.249210  1
  Si  Si23  1  0.544264  0.390354  0.749172  1
  Si  Si24  1  0.286990  0.873769  0.751055  1
  Si  Si25  1  0.714484  0.124699  0.247814  1
  Si  Si26  1  0.214129  0.375825  0.249036  1
  Si  Si27  1  0.787433  0.625067  0.750280  1
  Si  Si28  1  0.795092  0.535272  0.456051  1
  Si  Si29  1  0.300776  0.962927  0.458306  1
  Si  Si30  1  0.852833  0.531087  0.039861  1
  Si  Si31  1  0.696233  0.036029  0.543230  1
  Si  Si32  1  0.145704  0.470860  0.959071  1
  Si  Si33  1  0.644992  0.031132  0.959194  1
  Si  Si34  1  0.353417  0.970776  0.040757  1
  Se  Se35  1  0.207619  0.465177  0.546190  1
