# generated using pymatgen
data_Tb9Y(FeTe)4
_symmetry_space_group_name_H-M   'P 1'
_cell_length_a   7.86835922
_cell_length_b   7.86835887
_cell_length_c   15.30359800
_cell_angle_alpha   90.00000000
_cell_angle_beta   90.00000000
_cell_angle_gamma   150.70615973
_symmetry_Int_Tables_number   1
_chemical_formula_structural   Tb9Y(FeTe)4
_chemical_formula_sum   'Tb9 Y1 Fe4 Te4'
_cell_volume   463.58253762
_cell_formula_units_Z   1
loop_
 _symmetry_equiv_pos_site_id
 _symmetry_equiv_pos_as_xyz
  1  'x, y, z'
loop_
 _atom_site_type_symbol
 _atom_site_label
 _atom_site_symmetry_multiplicity
 _atom_site_fract_x
 _atom_site_fract_y
 _atom_site_fract_z
 _atom_site_occupancy
  Tb  Tb0  1  0.961157  0.038843  0.380563  1
  Tb  Tb1  1  0.038812  0.961188  0.618898  1
  Tb  Tb2  1  0.038812  0.961188  0.881102  1
  Tb  Tb3  1  0.961157  0.038843  0.119437  1
  Tb  Tb4  1  0.742224  0.257776  0.629073  1
  Tb  Tb5  1  0.257867  0.742133  0.371172  1
  Tb  Tb6  1  0.257867  0.742133  0.128828  1
  Tb  Tb7  1  0.742224  0.257776  0.870927  1
  Tb  Tb8  1  0.396813  0.603187  0.750000  1
  Y  Y9  1  0.603574  0.396426  0.250000  1
  Fe  Fe10  1  0.831033  0.168967  0.250000  1
  Fe  Fe11  1  0.169103  0.830897  0.750000  1
  Fe  Fe12  1  0.405121  0.594879  0.250000  1
  Fe  Fe13  1  0.594020  0.405980  0.750000  1
  Te  Te14  1  0.617758  0.382242  0.039727  1
  Te  Te15  1  0.382350  0.617650  0.960534  1
  Te  Te16  1  0.382350  0.617650  0.539466  1
  Te  Te17  1  0.617758  0.382242  0.460273  1
