# generated using pymatgen
data_Pa2NiSnPd
_symmetry_space_group_name_H-M   'P 1'
_cell_length_a   7.50884500
_cell_length_b   7.50884531
_cell_length_c   3.74611500
_cell_angle_alpha   90.00000000
_cell_angle_beta   90.00000000
_cell_angle_gamma   90.60293715
_symmetry_Int_Tables_number   1
_chemical_formula_structural   Pa2NiSnPd
_chemical_formula_sum   'Pa4 Ni2 Sn2 Pd2'
_cell_volume   211.20459156
_cell_formula_units_Z   2
loop_
 _symmetry_equiv_pos_site_id
 _symmetry_equiv_pos_as_xyz
  1  'x, y, z'
loop_
 _atom_site_type_symbol
 _atom_site_label
 _atom_site_symmetry_multiplicity
 _atom_site_fract_x
 _atom_site_fract_y
 _atom_site_fract_z
 _atom_site_occupancy
  Pa  Pa0  1  0.685193  0.185193  0.500000  1
  Pa  Pa1  1  0.314807  0.814807  0.500000  1
  Pa  Pa2  1  0.163221  0.336779  0.500000  1
  Pa  Pa3  1  0.836779  0.663221  0.500000  1
  Ni  Ni4  1  0.124155  0.624155  0.000000  1
  Ni  Ni5  1  0.875845  0.375845  0.000000  1
  Sn  Sn6  1  0.000000  0.000000  0.000000  1
  Sn  Sn7  1  0.500000  0.500000  0.000000  1
  Pd  Pd8  1  0.630204  0.869796  0.000000  1
  Pd  Pd9  1  0.369796  0.130204  0.000000  1
