# generated using pymatgen
data_NbCrGa3Ni3Pt8
_symmetry_space_group_name_H-M   'P 1'
_cell_length_a   3.91840500
_cell_length_b   3.91840500
_cell_length_c   15.07304500
_cell_angle_alpha   90.00000000
_cell_angle_beta   90.00000000
_cell_angle_gamma   90.00000000
_symmetry_Int_Tables_number   1
_chemical_formula_structural   NbCrGa3Ni3Pt8
_chemical_formula_sum   'Nb1 Cr1 Ga3 Ni3 Pt8'
_cell_volume   231.42999162
_cell_formula_units_Z   1
loop_
 _symmetry_equiv_pos_site_id
 _symmetry_equiv_pos_as_xyz
  1  'x, y, z'
loop_
 _atom_site_type_symbol
 _atom_site_label
 _atom_site_symmetry_multiplicity
 _atom_site_fract_x
 _atom_site_fract_y
 _atom_site_fract_z
 _atom_site_occupancy
  Nb  Nb0  1  0.000000  0.000000  0.000000  1
  Cr  Cr1  1  0.500000  0.500000  0.500000  1
  Ga  Ga2  1  0.000000  0.000000  0.255093  1
  Ga  Ga3  1  0.000000  0.000000  0.500000  1
  Ga  Ga4  1  0.000000  0.000000  0.744907  1
  Ni  Ni5  1  0.500000  0.500000  0.000000  1
  Ni  Ni6  1  0.500000  0.500000  0.248966  1
  Ni  Ni7  1  0.500000  0.500000  0.751034  1
  Pt  Pt8  1  0.500000  0.000000  0.126155  1
  Pt  Pt9  1  0.500000  0.000000  0.375561  1
  Pt  Pt10  1  0.500000  0.000000  0.624439  1
  Pt  Pt11  1  0.500000  0.000000  0.873845  1
  Pt  Pt12  1  0.000000  0.500000  0.126155  1
  Pt  Pt13  1  0.000000  0.500000  0.375561  1
  Pt  Pt14  1  0.000000  0.500000  0.624439  1
  Pt  Pt15  1  0.000000  0.500000  0.873845  1
