# generated using pymatgen
data_Hf8Ni2MoIr
_symmetry_space_group_name_H-M   'P 1'
_cell_length_a   8.65218650
_cell_length_b   8.65218572
_cell_length_c   8.63926600
_cell_angle_alpha   60.04939106
_cell_angle_beta   60.04939406
_cell_angle_gamma   60.19784707
_symmetry_Int_Tables_number   1
_chemical_formula_structural   Hf8Ni2MoIr
_chemical_formula_sum   'Hf16 Ni4 Mo2 Ir2'
_cell_volume   458.33552145
_cell_formula_units_Z   2
loop_
 _symmetry_equiv_pos_site_id
 _symmetry_equiv_pos_as_xyz
  1  'x, y, z'
loop_
 _atom_site_type_symbol
 _atom_site_label
 _atom_site_symmetry_multiplicity
 _atom_site_fract_x
 _atom_site_fract_y
 _atom_site_fract_z
 _atom_site_occupancy
  Hf  Hf0  1  0.681331  0.107857  0.105405  1
  Hf  Hf1  1  0.107857  0.681331  0.105405  1
  Hf  Hf2  1  0.103927  0.103927  0.687917  1
  Hf  Hf3  1  0.103927  0.103927  0.104228  1
  Hf  Hf4  1  0.316010  0.316010  0.683990  1
  Hf  Hf5  1  0.684547  0.684547  0.315453  1
  Hf  Hf6  1  0.316078  0.688576  0.315400  1
  Hf  Hf7  1  0.688576  0.316078  0.679945  1
  Hf  Hf8  1  0.688576  0.316078  0.315400  1
  Hf  Hf9  1  0.316078  0.688576  0.679945  1
  Hf  Hf10  1  0.952326  0.952326  0.547674  1
  Hf  Hf11  1  0.548526  0.548526  0.951474  1
  Hf  Hf12  1  0.949189  0.549548  0.950489  1
  Hf  Hf13  1  0.549548  0.949189  0.550774  1
  Hf  Hf14  1  0.549548  0.949189  0.950489  1
  Hf  Hf15  1  0.949189  0.549548  0.550774  1
  Ni  Ni16  1  0.322152  0.890157  0.893845  1
  Ni  Ni17  1  0.890157  0.322152  0.893845  1
  Ni  Ni18  1  0.891716  0.891716  0.320033  1
  Ni  Ni19  1  0.891716  0.891716  0.896535  1
  Mo  Mo20  1  0.999505  0.333042  0.333725  1
  Mo  Mo21  1  0.333042  0.999505  0.333725  1
  Ir  Ir22  1  0.333237  0.333237  0.996519  1
  Ir  Ir23  1  0.333237  0.333237  0.337005  1
