# generated using pymatgen
data_VSi8MoPt6
_symmetry_space_group_name_H-M   'P 1'
_cell_length_a   3.53980300
_cell_length_b   5.52165400
_cell_length_c   24.41965600
_cell_angle_alpha   90.00000000
_cell_angle_beta   90.00000000
_cell_angle_gamma   90.00000000
_symmetry_Int_Tables_number   1
_chemical_formula_structural   VSi8MoPt6
_chemical_formula_sum   'V2 Si16 Mo2 Pt12'
_cell_volume   477.29603209
_cell_formula_units_Z   2
loop_
 _symmetry_equiv_pos_site_id
 _symmetry_equiv_pos_as_xyz
  1  'x, y, z'
loop_
 _atom_site_type_symbol
 _atom_site_label
 _atom_site_symmetry_multiplicity
 _atom_site_fract_x
 _atom_site_fract_y
 _atom_site_fract_z
 _atom_site_occupancy
  V  V0  1  0.250000  0.504638  0.710653  1
  V  V1  1  0.750000  0.995362  0.210653  1
  Si  Si2  1  0.250000  0.180751  0.520501  1
  Si  Si3  1  0.750000  0.319249  0.020501  1
  Si  Si4  1  0.250000  0.678793  0.980434  1
  Si  Si5  1  0.750000  0.821207  0.480434  1
  Si  Si6  1  0.750000  0.325373  0.648741  1
  Si  Si7  1  0.250000  0.174627  0.148741  1
  Si  Si8  1  0.750000  0.819510  0.852863  1
  Si  Si9  1  0.250000  0.680490  0.352863  1
  Si  Si10  1  0.250000  0.654715  0.611694  1
  Si  Si11  1  0.750000  0.845285  0.111694  1
  Si  Si12  1  0.250000  0.161228  0.889598  1
  Si  Si13  1  0.750000  0.338772  0.389598  1
  Si  Si14  1  0.750000  0.819862  0.726138  1
  Si  Si15  1  0.250000  0.680138  0.226138  1
  Si  Si16  1  0.750000  0.334320  0.770939  1
  Si  Si17  1  0.250000  0.165680  0.270939  1
  Mo  Mo18  1  0.250000  0.005466  0.788966  1
  Mo  Mo19  1  0.750000  0.494534  0.288966  1
  Pt  Pt20  1  0.750000  0.002942  0.574904  1
  Pt  Pt21  1  0.250000  0.497058  0.074904  1
  Pt  Pt22  1  0.750000  0.501083  0.925562  1
  Pt  Pt23  1  0.250000  0.998917  0.425562  1
  Pt  Pt24  1  0.250000  0.003934  0.670244  1
  Pt  Pt25  1  0.750000  0.496066  0.170244  1
  Pt  Pt26  1  0.250000  0.504614  0.828948  1
  Pt  Pt27  1  0.750000  0.995386  0.328948  1
  Pt  Pt28  1  0.750000  0.503569  0.548607  1
  Pt  Pt29  1  0.250000  0.996431  0.048607  1
  Pt  Pt30  1  0.750000  0.002346  0.951208  1
  Pt  Pt31  1  0.250000  0.497654  0.451208  1
