# generated using pymatgen
data_Dy2Ho4LuRh3
_symmetry_space_group_name_H-M   'P 1'
_cell_length_a   9.74172808
_cell_length_b   9.74172729
_cell_length_c   6.15562700
_cell_angle_alpha   90.00239072
_cell_angle_beta   89.99760543
_cell_angle_gamma   119.98595793
_symmetry_Int_Tables_number   1
_chemical_formula_structural   Dy2Ho4LuRh3
_chemical_formula_sum   'Dy4 Ho8 Lu2 Rh6'
_cell_volume   505.98347325
_cell_formula_units_Z   2
loop_
 _symmetry_equiv_pos_site_id
 _symmetry_equiv_pos_as_xyz
  1  'x, y, z'
loop_
 _atom_site_type_symbol
 _atom_site_label
 _atom_site_symmetry_multiplicity
 _atom_site_fract_x
 _atom_site_fract_y
 _atom_site_fract_z
 _atom_site_occupancy
  Dy  Dy0  1  0.123742  0.876258  0.253761  1
  Dy  Dy1  1  0.752453  0.876172  0.253772  1
  Dy  Dy2  1  0.123828  0.247547  0.253772  1
  Dy  Dy3  1  0.876328  0.123672  0.753782  1
  Ho  Ho4  1  0.247520  0.123698  0.753966  1
  Ho  Ho5  1  0.876302  0.752480  0.753966  1
  Ho  Ho6  1  0.540980  0.459020  0.446995  1
  Ho  Ho7  1  0.918018  0.459071  0.446916  1
  Ho  Ho8  1  0.540929  0.081982  0.446916  1
  Ho  Ho9  1  0.459044  0.540956  0.946861  1
  Ho  Ho10  1  0.081923  0.541010  0.946776  1
  Ho  Ho11  1  0.458990  0.918077  0.946776  1
  Lu  Lu12  1  0.333331  0.666669  0.459786  1
  Lu  Lu13  1  0.666641  0.333359  0.959733  1
  Rh  Rh14  1  0.809201  0.190799  0.180045  1
  Rh  Rh15  1  0.381467  0.190746  0.179774  1
  Rh  Rh16  1  0.809254  0.618533  0.179774  1
  Rh  Rh17  1  0.190631  0.809369  0.680068  1
  Rh  Rh18  1  0.618593  0.809175  0.680052  1
  Rh  Rh19  1  0.190825  0.381407  0.680052  1
