# generated using pymatgen
data_Hf2ThF12
_symmetry_space_group_name_H-M   'P 1'
_cell_length_a   8.22558733
_cell_length_b   8.22558778
_cell_length_c   7.89447921
_cell_angle_alpha   61.87651258
_cell_angle_beta   61.87650817
_cell_angle_gamma   79.84729720
_symmetry_Int_Tables_number   1
_chemical_formula_structural   Hf2ThF12
_chemical_formula_sum   'Hf4 Th2 F24'
_cell_volume   414.73530486
_cell_formula_units_Z   2
loop_
 _symmetry_equiv_pos_site_id
 _symmetry_equiv_pos_as_xyz
  1  'x, y, z'
loop_
 _atom_site_type_symbol
 _atom_site_label
 _atom_site_symmetry_multiplicity
 _atom_site_fract_x
 _atom_site_fract_y
 _atom_site_fract_z
 _atom_site_occupancy
  Hf  Hf0  1  0.351307  0.351307  0.772515  1
  Hf  Hf1  1  0.648693  0.648693  0.227485  1
  Hf  Hf2  1  0.188527  0.188527  0.430238  1
  Hf  Hf3  1  0.811473  0.811473  0.569762  1
  Th  Th4  1  0.777885  0.222115  0.000000  1
  Th  Th5  1  0.222115  0.777885  0.000000  1
  F  F6  1  0.441119  0.694889  0.134481  1
  F  F7  1  0.305111  0.558881  0.865519  1
  F  F8  1  0.558881  0.305111  0.865519  1
  F  F9  1  0.694889  0.441119  0.134481  1
  F  F10  1  0.221969  0.221969  0.141981  1
  F  F11  1  0.778031  0.778031  0.858019  1
  F  F12  1  0.000000  0.000000  0.000000  1
  F  F13  1  0.000000  0.000000  0.500000  1
  F  F14  1  0.388888  0.611112  0.500000  1
  F  F15  1  0.611112  0.388888  0.500000  1
  F  F16  1  0.830606  0.535985  0.719407  1
  F  F17  1  0.464015  0.169394  0.280593  1
  F  F18  1  0.169394  0.464015  0.280593  1
  F  F19  1  0.535985  0.830606  0.719407  1
  F  F20  1  0.711969  0.711969  0.428359  1
  F  F21  1  0.288031  0.288031  0.571641  1
  F  F22  1  0.931007  0.644859  0.112039  1
  F  F23  1  0.355141  0.068993  0.887961  1
  F  F24  1  0.068993  0.355141  0.887961  1
  F  F25  1  0.644859  0.931007  0.112039  1
  F  F26  1  0.780140  0.057976  0.337990  1
  F  F27  1  0.942024  0.219860  0.662010  1
  F  F28  1  0.219860  0.942024  0.662010  1
  F  F29  1  0.057976  0.780140  0.337990  1
