# generated using pymatgen
data_La2CeNd3(SiPt5)2
_symmetry_space_group_name_H-M   'P 1'
_cell_length_a   8.44100902
_cell_length_b   8.41991022
_cell_length_c   8.41991083
_cell_angle_alpha   127.25420174
_cell_angle_beta   126.40879023
_cell_angle_gamma   78.46999641
_symmetry_Int_Tables_number   1
_chemical_formula_structural   La2CeNd3(SiPt5)2
_chemical_formula_sum   'La2 Ce1 Nd3 Si2 Pt10'
_cell_volume   371.28316914
_cell_formula_units_Z   1
loop_
 _symmetry_equiv_pos_site_id
 _symmetry_equiv_pos_as_xyz
  1  'x, y, z'
loop_
 _atom_site_type_symbol
 _atom_site_label
 _atom_site_symmetry_multiplicity
 _atom_site_fract_x
 _atom_site_fract_y
 _atom_site_fract_z
 _atom_site_occupancy
  La  La0  1  0.381581  0.748872  0.632708  1
  La  La1  1  0.228500  0.949588  0.278912  1
  Ce  Ce2  1  0.779919  0.051641  0.728278  1
  Nd  Nd3  1  0.826305  0.548765  0.277540  1
  Nd  Nd4  1  0.612649  0.250987  0.361662  1
  Nd  Nd5  1  0.173444  0.450193  0.723251  1
  Si  Si6  1  0.213018  0.251112  0.961907  1
  Si  Si7  1  0.787641  0.749862  0.037779  1
  Pt  Pt8  1  0.168795  0.906240  0.862020  1
  Pt  Pt9  1  0.828769  0.092567  0.131906  1
  Pt  Pt10  1  0.456947  0.192248  0.862268  1
  Pt  Pt11  1  0.549218  0.404506  0.739228  1
  Pt  Pt12  1  0.828769  0.696862  0.736201  1
  Pt  Pt13  1  0.456947  0.594678  0.264698  1
  Pt  Pt14  1  0.549218  0.809991  0.144712  1
  Pt  Pt15  1  0.168795  0.306775  0.262554  1
  Pt  Pt16  1  0.994743  0.000263  0.499893  1
  Pt  Pt17  1  0.994743  0.494850  0.994481  1
