# generated using pymatgen
data_Sm6Mn(ZnPt3)4
_symmetry_space_group_name_H-M   'P 1'
_cell_length_a   8.35124834
_cell_length_b   8.35124968
_cell_length_c   8.40162400
_cell_angle_alpha   109.35584323
_cell_angle_beta   109.35584645
_cell_angle_gamma   109.45907066
_symmetry_Int_Tables_number   1
_chemical_formula_structural   Sm6Mn(ZnPt3)4
_chemical_formula_sum   'Sm6 Mn1 Zn4 Pt12'
_cell_volume   452.41705165
_cell_formula_units_Z   1
loop_
 _symmetry_equiv_pos_site_id
 _symmetry_equiv_pos_as_xyz
  1  'x, y, z'
loop_
 _atom_site_type_symbol
 _atom_site_label
 _atom_site_symmetry_multiplicity
 _atom_site_fract_x
 _atom_site_fract_y
 _atom_site_fract_z
 _atom_site_occupancy
  Sm  Sm0  1  0.708854  0.708854  0.010573  1
  Sm  Sm1  1  0.301244  0.993156  0.294400  1
  Sm  Sm2  1  0.993156  0.301244  0.294400  1
  Sm  Sm3  1  0.301719  0.301719  0.010573  1
  Sm  Sm4  1  0.697348  0.999366  0.696715  1
  Sm  Sm5  1  0.999366  0.697348  0.696715  1
  Mn  Mn6  1  0.334895  0.334895  0.669789  1
  Zn  Zn7  1  0.997958  0.997958  0.497482  1
  Zn  Zn8  1  0.997799  0.497799  0.995598  1
  Zn  Zn9  1  0.497799  0.997799  0.995598  1
  Zn  Zn10  1  0.499523  0.499523  0.497482  1
  Pt  Pt11  1  0.672552  0.002033  0.330377  1
  Pt  Pt12  1  0.002033  0.672552  0.330377  1
  Pt  Pt13  1  0.667265  0.333602  0.000867  1
  Pt  Pt14  1  0.328344  0.657825  0.330377  1
  Pt  Pt15  1  0.009723  0.327756  0.669338  1
  Pt  Pt16  1  0.333602  0.667265  0.000867  1
  Pt  Pt17  1  0.327756  0.009723  0.669338  1
  Pt  Pt18  1  0.657825  0.328344  0.330377  1
  Pt  Pt19  1  0.669931  0.669931  0.339864  1
  Pt  Pt20  1  0.659615  0.341583  0.669338  1
  Pt  Pt21  1  0.341583  0.659615  0.669338  1
  Pt  Pt22  1  0.000108  0.000108  0.000217  1
