# generated using pymatgen
data_SrInBiS4
_symmetry_space_group_name_H-M   'P 1'
_cell_length_a   14.56168700
_cell_length_b   8.38916101
_cell_length_c   6.66318300
_cell_angle_alpha   89.99668758
_cell_angle_beta   89.99900059
_cell_angle_gamma   90.00008190
_symmetry_Int_Tables_number   1
_chemical_formula_structural   SrInBiS4
_chemical_formula_sum   'Sr4 In4 Bi4 S16'
_cell_volume   813.97667860
_cell_formula_units_Z   4
loop_
 _symmetry_equiv_pos_site_id
 _symmetry_equiv_pos_as_xyz
  1  'x, y, z'
loop_
 _atom_site_type_symbol
 _atom_site_label
 _atom_site_symmetry_multiplicity
 _atom_site_fract_x
 _atom_site_fract_y
 _atom_site_fract_z
 _atom_site_occupancy
  Sr  Sr0  1  0.730666  0.750004  0.010736  1
  Sr  Sr1  1  0.230667  0.749998  0.489260  1
  Sr  Sr2  1  0.769334  0.250002  0.510740  1
  Sr  Sr3  1  0.269334  0.249996  0.989264  1
  In  In4  1  0.587759  0.250002  0.089913  1
  In  In5  1  0.087756  0.249995  0.410084  1
  In  In6  1  0.912245  0.750005  0.589916  1
  In  In7  1  0.412241  0.749998  0.910085  1
  Bi  Bi8  1  0.000000  0.000000  0.000000  1
  Bi  Bi9  1  0.000000  0.499999  0.000000  1
  Bi  Bi10  1  0.500000  0.000000  0.500001  1
  Bi  Bi11  1  0.500000  0.499999  0.500001  1
  S  S12  1  0.913467  0.749993  0.222024  1
  S  S13  1  0.159886  0.017335  0.241051  1
  S  S14  1  0.159889  0.482671  0.241043  1
  S  S15  1  0.931937  0.249992  0.243359  1
  S  S16  1  0.431937  0.250009  0.256647  1
  S  S17  1  0.659890  0.017331  0.258954  1
  S  S18  1  0.659887  0.482665  0.258948  1
  S  S19  1  0.413469  0.750006  0.277975  1
  S  S20  1  0.586532  0.249994  0.722026  1
  S  S21  1  0.340112  0.517336  0.741053  1
  S  S22  1  0.340109  0.982668  0.741047  1
  S  S23  1  0.568064  0.749991  0.743355  1
  S  S24  1  0.068064  0.750008  0.756642  1
  S  S25  1  0.840111  0.517330  0.758957  1
  S  S26  1  0.840114  0.982664  0.758949  1
  S  S27  1  0.086533  0.250007  0.777976  1
