# generated using pymatgen
data_ScNb3(Co4P3)2
_symmetry_space_group_name_H-M   'P 1'
_cell_length_a   11.90823700
_cell_length_b   11.90823746
_cell_length_c   3.62086700
_cell_angle_alpha   90.00000000
_cell_angle_beta   90.00000000
_cell_angle_gamma   120.00000150
_symmetry_Int_Tables_number   1
_chemical_formula_structural   ScNb3(Co4P3)2
_chemical_formula_sum   'Sc2 Nb6 Co16 P12'
_cell_volume   444.67033100
_cell_formula_units_Z   2
loop_
 _symmetry_equiv_pos_site_id
 _symmetry_equiv_pos_as_xyz
  1  'x, y, z'
loop_
 _atom_site_type_symbol
 _atom_site_label
 _atom_site_symmetry_multiplicity
 _atom_site_fract_x
 _atom_site_fract_y
 _atom_site_fract_z
 _atom_site_occupancy
  Sc  Sc0  1  0.333333  0.666667  0.000000  1
  Sc  Sc1  1  0.666667  0.333333  0.000000  1
  Nb  Nb2  1  0.821344  0.000000  0.500000  1
  Nb  Nb3  1  0.000000  0.821344  0.500000  1
  Nb  Nb4  1  0.178656  0.178656  0.500000  1
  Nb  Nb5  1  0.446528  0.000000  0.000000  1
  Nb  Nb6  1  0.000000  0.446528  0.000000  1
  Nb  Nb7  1  0.553472  0.553472  0.000000  1
  Co  Co8  1  0.274274  0.000000  0.500000  1
  Co  Co9  1  0.000000  0.274274  0.500000  1
  Co  Co10  1  0.725726  0.725726  0.500000  1
  Co  Co11  1  0.631830  0.808631  0.000000  1
  Co  Co12  1  0.191369  0.823199  0.000000  1
  Co  Co13  1  0.176801  0.368170  0.000000  1
  Co  Co14  1  0.368170  0.176801  0.000000  1
  Co  Co15  1  0.808631  0.631830  0.000000  1
  Co  Co16  1  0.823199  0.191369  0.000000  1
  Co  Co17  1  0.519272  0.872249  0.500000  1
  Co  Co18  1  0.127751  0.647023  0.500000  1
  Co  Co19  1  0.352977  0.480728  0.500000  1
  Co  Co20  1  0.480728  0.352977  0.500000  1
  Co  Co21  1  0.872249  0.519272  0.500000  1
  Co  Co22  1  0.647023  0.127751  0.500000  1
  Co  Co23  1  0.000000  0.000000  0.000000  1
  P  P24  1  0.173746  0.000000  0.000000  1
  P  P25  1  0.000000  0.173746  0.000000  1
  P  P26  1  0.826254  0.826254  0.000000  1
  P  P27  1  0.518147  0.688172  0.500000  1
  P  P28  1  0.311828  0.829974  0.500000  1
  P  P29  1  0.170026  0.481853  0.500000  1
  P  P30  1  0.481853  0.170026  0.500000  1
  P  P31  1  0.688172  0.518147  0.500000  1
  P  P32  1  0.829974  0.311828  0.500000  1
  P  P33  1  0.649082  0.000000  0.000000  1
  P  P34  1  0.000000  0.649082  0.000000  1
  P  P35  1  0.350918  0.350918  0.000000  1
