# generated using pymatgen
data_Nd6Sm5In9Rh4
_symmetry_space_group_name_H-M   'P 1'
_cell_length_a   13.35342271
_cell_length_b   13.35348942
_cell_length_c   3.82467700
_cell_angle_alpha   90.00000000
_cell_angle_beta   90.00000000
_cell_angle_gamma   112.11108968
_symmetry_Int_Tables_number   1
_chemical_formula_structural   Nd6Sm5In9Rh4
_chemical_formula_sum   'Nd6 Sm5 In9 Rh4'
_cell_volume   631.83958355
_cell_formula_units_Z   1
loop_
 _symmetry_equiv_pos_site_id
 _symmetry_equiv_pos_as_xyz
  1  'x, y, z'
loop_
 _atom_site_type_symbol
 _atom_site_label
 _atom_site_symmetry_multiplicity
 _atom_site_fract_x
 _atom_site_fract_y
 _atom_site_fract_z
 _atom_site_occupancy
  Nd  Nd0  1  0.373619  0.626382  0.000000  1
  Nd  Nd1  1  0.840298  0.159695  0.000000  1
  Nd  Nd2  1  0.159774  0.840218  0.000000  1
  Nd  Nd3  1  0.999913  0.000078  0.000000  1
  Nd  Nd4  1  0.312985  0.312528  0.000000  1
  Nd  Nd5  1  0.687474  0.687016  0.000000  1
  Sm  Sm6  1  0.079699  0.419389  0.000000  1
  Sm  Sm7  1  0.919769  0.580172  0.000000  1
  Sm  Sm8  1  0.419827  0.080227  0.000000  1
  Sm  Sm9  1  0.580602  0.920297  0.000000  1
  Sm  Sm10  1  0.626261  0.373738  0.000000  1
  In  In11  1  0.838868  0.367282  0.500000  1
  In  In12  1  0.159938  0.632757  0.500000  1
  In  In13  1  0.367242  0.840059  0.500000  1
  In  In14  1  0.632715  0.161130  0.500000  1
  In  In15  1  0.078230  0.220968  0.500000  1
  In  In16  1  0.921707  0.778933  0.500000  1
  In  In17  1  0.221068  0.078289  0.500000  1
  In  In18  1  0.779025  0.921766  0.500000  1
  In  In19  1  0.500860  0.499170  0.500000  1
  Rh  Rh20  1  0.245704  0.453595  0.500000  1
  Rh  Rh21  1  0.753582  0.545609  0.500000  1
  Rh  Rh22  1  0.454403  0.246421  0.500000  1
  Rh  Rh23  1  0.546433  0.754285  0.500000  1
