# generated using pymatgen
data_Tb8Dy5Ho7Pb16
_symmetry_space_group_name_H-M   'P 1'
_cell_length_a   8.21029604
_cell_length_b   8.29552504
_cell_length_c   15.65731301
_cell_angle_alpha   89.99719644
_cell_angle_beta   90.00128594
_cell_angle_gamma   89.98911418
_symmetry_Int_Tables_number   1
_chemical_formula_structural   Tb8Dy5Ho7Pb16
_chemical_formula_sum   'Tb8 Dy5 Ho7 Pb16'
_cell_volume   1066.39946974
_cell_formula_units_Z   1
loop_
 _symmetry_equiv_pos_site_id
 _symmetry_equiv_pos_as_xyz
  1  'x, y, z'
loop_
 _atom_site_type_symbol
 _atom_site_label
 _atom_site_symmetry_multiplicity
 _atom_site_fract_x
 _atom_site_fract_y
 _atom_site_fract_z
 _atom_site_occupancy
  Tb  Tb0  1  0.534079  0.322988  0.899870  1
  Tb  Tb1  1  0.034102  0.177042  0.600063  1
  Tb  Tb2  1  0.465897  0.677036  0.399941  1
  Tb  Tb3  1  0.965943  0.822926  0.100058  1
  Tb  Tb4  1  0.465937  0.677070  0.100118  1
  Tb  Tb5  1  0.965949  0.822878  0.399891  1
  Tb  Tb6  1  0.534069  0.322890  0.600110  1
  Tb  Tb7  1  0.034041  0.177077  0.899892  1
  Dy  Dy8  1  0.376741  0.840728  0.879463  1
  Dy  Dy9  1  0.876717  0.659295  0.620549  1
  Dy  Dy10  1  0.623276  0.159295  0.379469  1
  Dy  Dy11  1  0.123290  0.340687  0.120558  1
  Dy  Dy12  1  0.623319  0.159254  0.120499  1
  Ho  Ho13  1  0.123351  0.340785  0.379439  1
  Ho  Ho14  1  0.376622  0.840776  0.620586  1
  Ho  Ho15  1  0.876640  0.659220  0.879447  1
  Ho  Ho16  1  0.208310  0.504087  0.750045  1
  Ho  Ho17  1  0.708320  0.995885  0.750064  1
  Ho  Ho18  1  0.791717  0.496002  0.249975  1
  Ho  Ho19  1  0.291610  0.004064  0.250014  1
  Pb  Pb20  1  0.281799  0.033509  0.042788  1
  Pb  Pb21  1  0.782028  0.466445  0.457164  1
  Pb  Pb22  1  0.717977  0.966440  0.542861  1
  Pb  Pb23  1  0.217975  0.533558  0.957136  1
  Pb  Pb24  1  0.718328  0.966269  0.957148  1
  Pb  Pb25  1  0.218269  0.533584  0.542726  1
  Pb  Pb26  1  0.281748  0.033577  0.457304  1
  Pb  Pb27  1  0.781870  0.466643  0.042660  1
  Pb  Pb28  1  0.571855  0.627020  0.749986  1
  Pb  Pb29  1  0.071873  0.872987  0.750009  1
  Pb  Pb30  1  0.428039  0.373085  0.250051  1
  Pb  Pb31  1  0.928252  0.127023  0.250064  1
  Pb  Pb32  1  0.344937  0.151738  0.749962  1
  Pb  Pb33  1  0.844930  0.348266  0.750041  1
  Pb  Pb34  1  0.655099  0.848165  0.250003  1
  Pb  Pb35  1  0.155094  0.651707  0.250043  1
