# generated using pymatgen
data_Hf4Pd5Pt7
_symmetry_space_group_name_H-M   'P 1'
_cell_length_a   5.68898502
_cell_length_b   5.69493802
_cell_length_c   9.32056489
_cell_angle_alpha   90.00000185
_cell_angle_beta   89.84840493
_cell_angle_gamma   120.03462649
_symmetry_Int_Tables_number   1
_chemical_formula_structural   Hf4Pd5Pt7
_chemical_formula_sum   'Hf4 Pd5 Pt7'
_cell_volume   261.42251573
_cell_formula_units_Z   1
loop_
 _symmetry_equiv_pos_site_id
 _symmetry_equiv_pos_as_xyz
  1  'x, y, z'
loop_
 _atom_site_type_symbol
 _atom_site_label
 _atom_site_symmetry_multiplicity
 _atom_site_fract_x
 _atom_site_fract_y
 _atom_site_fract_z
 _atom_site_occupancy
  Hf  Hf0  1  0.665026  0.331577  0.749852  1
  Hf  Hf1  1  0.334974  0.666552  0.250148  1
  Hf  Hf2  1  0.000000  0.001298  0.500000  1
  Hf  Hf3  1  0.000000  0.001730  0.000000  1
  Pd  Pd4  1  0.338195  0.168984  0.249347  1
  Pd  Pd5  1  0.661805  0.830790  0.750653  1
  Pd  Pd6  1  0.000000  0.500634  0.000000  1
  Pd  Pd7  1  0.831382  0.661380  0.249593  1
  Pd  Pd8  1  0.168618  0.829998  0.750407  1
  Pt  Pt9  1  0.167281  0.336105  0.750521  1
  Pt  Pt10  1  0.832719  0.168824  0.249479  1
  Pt  Pt11  1  0.499693  0.000197  0.000519  1
  Pt  Pt12  1  0.500402  0.500567  0.500379  1
  Pt  Pt13  1  0.000000  0.500692  0.500000  1
  Pt  Pt14  1  0.500307  0.500505  0.999481  1
  Pt  Pt15  1  0.499598  0.000165  0.499621  1
