# generated using pymatgen
data_Tb2Dy4B14OsW
_symmetry_space_group_name_H-M   'P 1'
_cell_length_a   8.13055738
_cell_length_b   8.13055721
_cell_length_c   9.40969444
_cell_angle_alpha   89.96586384
_cell_angle_beta   90.03413500
_cell_angle_gamma   155.10350169
_symmetry_Int_Tables_number   1
_chemical_formula_structural   Tb2Dy4B14OsW
_chemical_formula_sum   'Tb2 Dy4 B14 Os1 W1'
_cell_volume   261.86528137
_cell_formula_units_Z   1
loop_
 _symmetry_equiv_pos_site_id
 _symmetry_equiv_pos_as_xyz
  1  'x, y, z'
loop_
 _atom_site_type_symbol
 _atom_site_label
 _atom_site_symmetry_multiplicity
 _atom_site_fract_x
 _atom_site_fract_y
 _atom_site_fract_z
 _atom_site_occupancy
  Tb  Tb0  1  0.893949  0.106051  0.437112  1
  Tb  Tb1  1  0.754621  0.245379  0.750061  1
  Dy  Dy2  1  0.106970  0.893030  0.558489  1
  Dy  Dy3  1  0.894111  0.105889  0.062430  1
  Dy  Dy4  1  0.107018  0.892982  0.941573  1
  Dy  Dy5  1  0.243213  0.756787  0.249939  1
  B  B6  1  0.726335  0.273665  0.465097  1
  B  B7  1  0.271849  0.728151  0.531569  1
  B  B8  1  0.726567  0.273433  0.035015  1
  B  B9  1  0.272012  0.727988  0.968550  1
  B  B10  1  0.631825  0.368175  0.151334  1
  B  B11  1  0.365336  0.634664  0.852897  1
  B  B12  1  0.631822  0.368178  0.348675  1
  B  B13  1  0.365305  0.634695  0.647464  1
  B  B14  1  0.521389  0.478611  0.096556  1
  B  B15  1  0.480255  0.519745  0.908972  1
  B  B16  1  0.521482  0.478518  0.403172  1
  B  B17  1  0.480321  0.519679  0.591321  1
  B  B18  1  0.458757  0.541243  0.249677  1
  B  B19  1  0.545011  0.454989  0.750070  1
  Os  Os20  1  0.054413  0.945587  0.249863  1
  W  W21  1  0.947441  0.052559  0.750163  1
