# generated using pymatgen
data_Dy2HoSc2Pb3
_symmetry_space_group_name_H-M   'P 1'
_cell_length_a   8.89505016
_cell_length_b   8.89215601
_cell_length_c   6.36557300
_cell_angle_alpha   90.00000000
_cell_angle_beta   90.00000000
_cell_angle_gamma   119.98924298
_symmetry_Int_Tables_number   1
_chemical_formula_structural   Dy2HoSc2Pb3
_chemical_formula_sum   'Dy4 Ho2 Sc4 Pb6'
_cell_volume   436.08452414
_cell_formula_units_Z   2
loop_
 _symmetry_equiv_pos_site_id
 _symmetry_equiv_pos_as_xyz
  1  'x, y, z'
loop_
 _atom_site_type_symbol
 _atom_site_label
 _atom_site_symmetry_multiplicity
 _atom_site_fract_x
 _atom_site_fract_y
 _atom_site_fract_z
 _atom_site_occupancy
  Dy  Dy0  1  0.238672  0.999933  0.250000  1
  Dy  Dy1  1  0.238672  0.238739  0.750000  1
  Dy  Dy2  1  0.999871  0.761363  0.750000  1
  Dy  Dy3  1  0.999871  0.238508  0.250000  1
  Ho  Ho4  1  0.761307  0.761352  0.250000  1
  Ho  Ho5  1  0.761307  0.999955  0.750000  1
  Sc  Sc6  1  0.333380  0.666691  0.000000  1
  Sc  Sc7  1  0.666701  0.333350  0.500000  1
  Sc  Sc8  1  0.666701  0.333350  0.000000  1
  Sc  Sc9  1  0.333380  0.666691  0.500000  1
  Pb  Pb10  1  0.601339  0.999835  0.250000  1
  Pb  Pb11  1  0.601339  0.601504  0.750000  1
  Pb  Pb12  1  0.999826  0.398480  0.750000  1
  Pb  Pb13  1  0.999826  0.601346  0.250000  1
  Pb  Pb14  1  0.398904  0.398912  0.250000  1
  Pb  Pb15  1  0.398904  0.999992  0.750000  1
