# generated using pymatgen
data_Zr8Be3Nb12Si13
_symmetry_space_group_name_H-M   'P 1'
_cell_length_a   6.87369079
_cell_length_b   6.87057632
_cell_length_c   12.65665633
_cell_angle_alpha   89.94161853
_cell_angle_beta   90.03733526
_cell_angle_gamma   89.66466179
_symmetry_Int_Tables_number   1
_chemical_formula_structural   Zr8Be3Nb12Si13
_chemical_formula_sum   'Zr8 Be3 Nb12 Si13'
_cell_volume   597.71532345
_cell_formula_units_Z   1
loop_
 _symmetry_equiv_pos_site_id
 _symmetry_equiv_pos_as_xyz
  1  'x, y, z'
loop_
 _atom_site_type_symbol
 _atom_site_label
 _atom_site_symmetry_multiplicity
 _atom_site_fract_x
 _atom_site_fract_y
 _atom_site_fract_z
 _atom_site_occupancy
  Zr  Zr0  1  0.999902  0.656152  0.030288  1
  Zr  Zr1  1  0.000248  0.343604  0.530667  1
  Zr  Zr2  1  0.658639  0.999778  0.968572  1
  Zr  Zr3  1  0.154341  0.496725  0.783123  1
  Zr  Zr4  1  0.843490  0.501196  0.284381  1
  Zr  Zr5  1  0.500923  0.158399  0.217774  1
  Zr  Zr6  1  0.501087  0.843757  0.716280  1
  Zr  Zr7  1  0.343671  0.999776  0.469289  1
  Be  Be8  1  0.050201  0.703177  0.439180  1
  Be  Be9  1  0.950126  0.297611  0.938830  1
  Be  Be10  1  0.702402  0.049988  0.561126  1
  Nb  Nb11  1  0.348659  0.504103  0.376609  1
  Nb  Nb12  1  0.849785  0.988593  0.376855  1
  Nb  Nb13  1  0.005076  0.152926  0.126339  1
  Nb  Nb14  1  0.989015  0.849624  0.623715  1
  Nb  Nb15  1  0.652996  0.494876  0.875805  1
  Nb  Nb16  1  0.503986  0.348316  0.623680  1
  Nb  Nb17  1  0.496991  0.650678  0.123860  1
  Nb  Nb18  1  0.148656  0.009875  0.874346  1
  Nb  Nb19  1  0.674178  0.673994  0.500046  1
  Nb  Nb20  1  0.828621  0.171861  0.749848  1
  Nb  Nb21  1  0.171090  0.827869  0.251543  1
  Nb  Nb22  1  0.327299  0.328780  0.999708  1
  Si  Si23  1  0.201069  0.454119  0.187357  1
  Si  Si24  1  0.798396  0.545801  0.685838  1
  Si  Si25  1  0.454358  0.201984  0.812415  1
  Si  Si26  1  0.546068  0.798201  0.314478  1
  Si  Si27  1  0.296907  0.953763  0.062969  1
  Si  Si28  1  0.864458  0.793134  0.822590  1
  Si  Si29  1  0.134832  0.206483  0.324745  1
  Si  Si30  1  0.794298  0.863504  0.177865  1
  Si  Si31  1  0.287574  0.639378  0.568201  1
  Si  Si32  1  0.713138  0.362505  0.067759  1
  Si  Si33  1  0.639140  0.286963  0.432117  1
  Si  Si34  1  0.362651  0.706981  0.926481  1
  Si  Si35  1  0.205728  0.135525  0.675319  1
