# generated using pymatgen
data_YbLu(Re2Si)4
_symmetry_space_group_name_H-M   'P 1'
_cell_length_a   7.36808536
_cell_length_b   7.36808532
_cell_length_c   4.16196000
_cell_angle_alpha   90.00000000
_cell_angle_beta   90.00000000
_cell_angle_gamma   90.38977322
_symmetry_Int_Tables_number   1
_chemical_formula_structural   YbLu(Re2Si)4
_chemical_formula_sum   'Yb1 Lu1 Re8 Si4'
_cell_volume   225.94209298
_cell_formula_units_Z   1
loop_
 _symmetry_equiv_pos_site_id
 _symmetry_equiv_pos_as_xyz
  1  'x, y, z'
loop_
 _atom_site_type_symbol
 _atom_site_label
 _atom_site_symmetry_multiplicity
 _atom_site_fract_x
 _atom_site_fract_y
 _atom_site_fract_z
 _atom_site_occupancy
  Yb  Yb0  1  0.000000  0.000000  0.500000  1
  Lu  Lu1  1  0.500000  0.500000  0.000000  1
  Re  Re2  1  0.656240  0.901283  0.000000  1
  Re  Re3  1  0.159356  0.592639  0.500000  1
  Re  Re4  1  0.098717  0.343760  0.000000  1
  Re  Re5  1  0.901283  0.656240  0.000000  1
  Re  Re6  1  0.407361  0.840644  0.500000  1
  Re  Re7  1  0.592639  0.159356  0.500000  1
  Re  Re8  1  0.343760  0.098717  0.000000  1
  Re  Re9  1  0.840644  0.407361  0.500000  1
  Si  Si10  1  0.207946  0.792054  0.000000  1
  Si  Si11  1  0.792054  0.207946  0.000000  1
  Si  Si12  1  0.707737  0.707737  0.500000  1
  Si  Si13  1  0.292263  0.292263  0.500000  1
