# generated using pymatgen
data_Nd2Bi8(SeO8)3
_symmetry_space_group_name_H-M   'P 1'
_cell_length_a   12.27572803
_cell_length_b   12.31911732
_cell_length_c   8.68449820
_cell_angle_alpha   83.14505820
_cell_angle_beta   83.76755390
_cell_angle_gamma   27.09483962
_symmetry_Int_Tables_number   1
_chemical_formula_structural   Nd2Bi8(SeO8)3
_chemical_formula_sum   'Nd2 Bi8 Se3 O24'
_cell_volume   593.88859854
_cell_formula_units_Z   1
loop_
 _symmetry_equiv_pos_site_id
 _symmetry_equiv_pos_as_xyz
  1  'x, y, z'
loop_
 _atom_site_type_symbol
 _atom_site_label
 _atom_site_symmetry_multiplicity
 _atom_site_fract_x
 _atom_site_fract_y
 _atom_site_fract_z
 _atom_site_occupancy
  Nd  Nd0  1  0.454400  0.477639  0.292376  1
  Nd  Nd1  1  0.649600  0.736849  0.466624  1
  Bi  Bi2  1  0.528022  0.539021  0.665276  1
  Bi  Bi3  1  0.219133  0.256105  0.191789  1
  Bi  Bi4  1  0.065193  0.091988  0.408657  1
  Bi  Bi5  1  0.215312  0.397446  0.543715  1
  Bi  Bi6  1  0.137358  0.159709  0.749269  1
  Bi  Bi7  1  0.923137  0.925717  0.575205  1
  Bi  Bi8  1  0.827360  0.876086  0.240800  1
  Bi  Bi9  1  0.739763  0.780477  0.816497  1
  Se  Se10  1  0.331123  0.410863  0.923147  1
  Se  Se11  1  0.979384  0.020874  0.997643  1
  Se  Se12  1  0.575927  0.683364  0.091859  1
  O  O13  1  0.888347  0.760982  0.638983  1
  O  O14  1  0.383906  0.955110  0.027078  1
  O  O15  1  0.252924  0.093337  0.361275  1
  O  O16  1  0.183835  0.928271  0.918517  1
  O  O17  1  0.722210  0.282628  0.494772  1
  O  O18  1  0.001945  0.538624  0.351449  1
  O  O19  1  0.236699  0.762963  0.489866  1
  O  O20  1  0.809610  0.223535  0.131845  1
  O  O21  1  0.719758  0.520666  0.937642  1
  O  O22  1  0.481646  0.300702  0.083723  1
  O  O23  1  0.464525  0.189733  0.842695  1
  O  O24  1  0.304124  0.540517  0.784586  1
  O  O25  1  0.668613  0.129710  0.387062  1
  O  O26  1  0.772907  0.565536  0.208217  1
  O  O27  1  0.442436  0.702668  0.212080  1
  O  O28  1  0.844935  0.377519  0.577402  1
  O  O29  1  0.120772  0.787487  0.096423  1
  O  O30  1  0.341962  0.868880  0.590023  1
  O  O31  1  0.961493  0.482913  0.675898  1
  O  O32  1  0.138390  0.638329  0.406506  1
  O  O33  1  0.530436  0.024989  0.316168  1
  O  O34  1  0.813805  0.130914  0.853638  1
  O  O35  1  0.059494  0.603448  0.983171  1
  O  O36  1  0.454098  0.989819  0.668125  1
