# generated using pymatgen
data_YLu2HfAl15(GaIr2)3
_symmetry_space_group_name_H-M   'P 1'
_cell_length_a   7.51956400
_cell_length_b   7.51551894
_cell_length_c   9.37465400
_cell_angle_alpha   90.00000000
_cell_angle_beta   90.00000000
_cell_angle_gamma   119.59701499
_symmetry_Int_Tables_number   1
_chemical_formula_structural   YLu2HfAl15(GaIr2)3
_chemical_formula_sum   'Y1 Lu2 Hf1 Al15 Ga3 Ir6'
_cell_volume   460.66666580
_cell_formula_units_Z   1
loop_
 _symmetry_equiv_pos_site_id
 _symmetry_equiv_pos_as_xyz
  1  'x, y, z'
loop_
 _atom_site_type_symbol
 _atom_site_label
 _atom_site_symmetry_multiplicity
 _atom_site_fract_x
 _atom_site_fract_y
 _atom_site_fract_z
 _atom_site_occupancy
  Y  Y0  1  0.005157  0.326436  0.750000  1
  Lu  Lu1  1  0.671955  0.997806  0.250000  1
  Lu  Lu2  1  0.328691  0.006784  0.750000  1
  Hf  Hf3  1  0.000045  0.673529  0.250000  1
  Al  Al4  1  0.126492  0.124077  0.250000  1
  Al  Al5  1  0.999327  0.337801  0.080959  1
  Al  Al6  1  0.998585  0.665764  0.930080  1
  Al  Al7  1  0.998585  0.665764  0.569920  1
  Al  Al8  1  0.333644  0.998193  0.420196  1
  Al  Al9  1  0.999327  0.337801  0.419041  1
  Al  Al10  1  0.663564  0.996600  0.573482  1
  Al  Al11  1  0.663564  0.996600  0.926518  1
  Al  Al12  1  0.333644  0.998193  0.079804  1
  Al  Al13  1  0.334691  0.334392  0.545084  1
  Al  Al14  1  0.670274  0.668346  0.433642  1
  Al  Al15  1  0.670274  0.668346  0.066358  1
  Al  Al16  1  0.334691  0.334392  0.954916  1
  Al  Al17  1  0.336033  0.550269  0.250000  1
  Al  Al18  1  0.555297  0.341997  0.250000  1
  Ga  Ga19  1  0.870887  0.867956  0.750000  1
  Ga  Ga20  1  0.656125  0.450677  0.750000  1
  Ga  Ga21  1  0.450287  0.657977  0.750000  1
  Ir  Ir22  1  0.672753  0.327909  0.003179  1
  Ir  Ir23  1  0.327790  0.673270  0.003774  1
  Ir  Ir24  1  0.327790  0.673270  0.496226  1
  Ir  Ir25  1  0.672753  0.327909  0.496821  1
  Ir  Ir26  1  0.998889  0.998972  0.004063  1
  Ir  Ir27  1  0.998889  0.998972  0.495937  1
