# generated using pymatgen
data_Rb3V4Cr3O16
_symmetry_space_group_name_H-M   'P 1'
_cell_length_a   5.14108857
_cell_length_b   7.45241773
_cell_length_c   11.48109871
_cell_angle_alpha   103.05513404
_cell_angle_beta   90.21889513
_cell_angle_gamma   95.90646876
_symmetry_Int_Tables_number   1
_chemical_formula_structural   Rb3V4Cr3O16
_chemical_formula_sum   'Rb3 V4 Cr3 O16'
_cell_volume   426.07079099
_cell_formula_units_Z   1
loop_
 _symmetry_equiv_pos_site_id
 _symmetry_equiv_pos_as_xyz
  1  'x, y, z'
loop_
 _atom_site_type_symbol
 _atom_site_label
 _atom_site_symmetry_multiplicity
 _atom_site_fract_x
 _atom_site_fract_y
 _atom_site_fract_z
 _atom_site_occupancy
  Rb  Rb0  1  0.883104  0.264248  0.517568  1
  Rb  Rb1  1  0.000000  0.000000  0.000000  1
  Rb  Rb2  1  0.116896  0.735752  0.482432  1
  V  V3  1  0.486703  0.671769  0.757848  1
  V  V4  1  0.537304  0.865682  0.235765  1
  V  V5  1  0.513297  0.328231  0.242152  1
  V  V6  1  0.462696  0.134318  0.764235  1
  Cr  Cr7  1  0.010035  0.556884  0.134164  1
  Cr  Cr8  1  0.989965  0.443116  0.865836  1
  Cr  Cr9  1  0.500000  0.500000  0.000000  1
  O  O10  1  0.682223  0.596213  0.865175  1
  O  O11  1  0.780221  0.226593  0.752039  1
  O  O12  1  0.317777  0.403787  0.134825  1
  O  O13  1  0.367053  0.354631  0.372326  1
  O  O14  1  0.296829  0.292482  0.874714  1
  O  O15  1  0.632947  0.645369  0.627674  1
  O  O16  1  0.818897  0.453683  0.265536  1
  O  O17  1  0.316488  0.093677  0.630296  1
  O  O18  1  0.703171  0.707518  0.125286  1
  O  O19  1  0.454588  0.918938  0.815895  1
  O  O20  1  0.187165  0.630307  0.994872  1
  O  O21  1  0.683512  0.906323  0.369704  1
  O  O22  1  0.219779  0.773407  0.247961  1
  O  O23  1  0.545412  0.081062  0.184105  1
  O  O24  1  0.812835  0.369693  0.005128  1
  O  O25  1  0.181103  0.546317  0.734464  1
