# generated using pymatgen
data_Cs4TaAlAs4
_symmetry_space_group_name_H-M   'P 1'
_cell_length_a   9.00787410
_cell_length_b   9.00787480
_cell_length_c   9.00787317
_cell_angle_alpha   138.22094209
_cell_angle_beta   126.63505180
_cell_angle_gamma   69.97467492
_symmetry_Int_Tables_number   1
_chemical_formula_structural   Cs4TaAlAs4
_chemical_formula_sum   'Cs4 Ta1 Al1 As4'
_cell_volume   383.52230920
_cell_formula_units_Z   1
loop_
 _symmetry_equiv_pos_site_id
 _symmetry_equiv_pos_as_xyz
  1  'x, y, z'
loop_
 _atom_site_type_symbol
 _atom_site_label
 _atom_site_symmetry_multiplicity
 _atom_site_fract_x
 _atom_site_fract_y
 _atom_site_fract_z
 _atom_site_occupancy
  Cs  Cs0  1  0.994196  0.141820  0.836662  1
  Cs  Cs1  1  0.005804  0.842466  0.147624  1
  Cs  Cs2  1  0.694842  0.358180  0.352376  1
  Cs  Cs3  1  0.305158  0.657534  0.663338  1
  Ta  Ta4  1  0.500000  0.250000  0.750000  1
  Al  Al5  1  0.500000  0.750000  0.250000  1
  As  As6  1  0.235730  0.402576  0.825975  1
  As  As7  1  0.764270  0.590245  0.166846  1
  As  As8  1  0.423399  0.097424  0.333154  1
  As  As9  1  0.576601  0.909755  0.674025  1
