# generated using pymatgen
data_Er15TmCdIn3Ni4
_symmetry_space_group_name_H-M   'P 1'
_cell_length_a   9.47744898
_cell_length_b   9.47799412
_cell_length_c   9.48408600
_cell_angle_alpha   59.97873608
_cell_angle_beta   59.97683168
_cell_angle_gamma   59.98518813
_symmetry_Int_Tables_number   1
_chemical_formula_structural   Er15TmCdIn3Ni4
_chemical_formula_sum   'Er15 Tm1 Cd1 In3 Ni4'
_cell_volume   602.13497374
_cell_formula_units_Z   1
loop_
 _symmetry_equiv_pos_site_id
 _symmetry_equiv_pos_as_xyz
  1  'x, y, z'
loop_
 _atom_site_type_symbol
 _atom_site_label
 _atom_site_symmetry_multiplicity
 _atom_site_fract_x
 _atom_site_fract_y
 _atom_site_fract_z
 _atom_site_occupancy
  Er  Er0  1  0.347426  0.347873  0.347954  1
  Er  Er1  1  0.347426  0.347873  0.956746  1
  Er  Er2  1  0.347729  0.956208  0.348031  1
  Er  Er3  1  0.955177  0.348101  0.348360  1
  Er  Er4  1  0.811696  0.188265  0.188296  1
  Er  Er5  1  0.187785  0.812633  0.812394  1
  Er  Er6  1  0.187785  0.812633  0.187189  1
  Er  Er7  1  0.811696  0.188265  0.811743  1
  Er  Er8  1  0.187885  0.187129  0.812493  1
  Er  Er9  1  0.811703  0.811845  0.188226  1
  Er  Er10  1  0.938619  0.563152  0.563154  1
  Er  Er11  1  0.564282  0.936683  0.936602  1
  Er  Er12  1  0.564282  0.936683  0.562432  1
  Er  Er13  1  0.938619  0.563152  0.935074  1
  Er  Er14  1  0.564299  0.562519  0.936590  1
  Tm  Tm15  1  0.938739  0.935603  0.562829  1
  Cd  Cd16  1  0.252088  0.582588  0.582663  1
  In  In17  1  0.581306  0.582955  0.583007  1
  In  In18  1  0.581306  0.582955  0.252732  1
  In  In19  1  0.581330  0.252695  0.582987  1
  Ni  Ni20  1  0.142119  0.142096  0.142275  1
  Ni  Ni21  1  0.142119  0.142096  0.573509  1
  Ni  Ni22  1  0.142065  0.573630  0.142153  1
  Ni  Ni23  1  0.572518  0.142364  0.142559  1
