# generated using pymatgen
data_DyHo7Re2(TcB12)2
_symmetry_space_group_name_H-M   'P 1'
_cell_length_a   3.67514600
_cell_length_b   9.15512389
_cell_length_c   11.53694600
_cell_angle_alpha   90.05980969
_cell_angle_beta   90.00000000
_cell_angle_gamma   90.00000000
_symmetry_Int_Tables_number   1
_chemical_formula_structural   DyHo7Re2(TcB12)2
_chemical_formula_sum   'Dy1 Ho7 Re2 Tc2 B24'
_cell_volume   388.17668380
_cell_formula_units_Z   1
loop_
 _symmetry_equiv_pos_site_id
 _symmetry_equiv_pos_as_xyz
  1  'x, y, z'
loop_
 _atom_site_type_symbol
 _atom_site_label
 _atom_site_symmetry_multiplicity
 _atom_site_fract_x
 _atom_site_fract_y
 _atom_site_fract_z
 _atom_site_occupancy
  Dy  Dy0  1  0.000000  0.323955  0.414030  1
  Ho  Ho1  1  0.000000  0.676024  0.585977  1
  Ho  Ho2  1  0.000000  0.823584  0.085931  1
  Ho  Ho3  1  0.000000  0.176393  0.914038  1
  Ho  Ho4  1  0.000000  0.942153  0.369852  1
  Ho  Ho5  1  0.000000  0.057727  0.630202  1
  Ho  Ho6  1  0.000000  0.443765  0.130466  1
  Ho  Ho7  1  0.000000  0.556289  0.869499  1
  Re  Re8  1  0.000000  0.138658  0.179183  1
  Re  Re9  1  0.000000  0.861271  0.820709  1
  Tc  Tc10  1  0.000000  0.638935  0.320681  1
  Tc  Tc11  1  0.000000  0.361202  0.679405  1
  B  B12  1  0.500000  0.553622  0.432946  1
  B  B13  1  0.500000  0.446621  0.567177  1
  B  B14  1  0.500000  0.053316  0.066875  1
  B  B15  1  0.500000  0.946649  0.933091  1
  B  B16  1  0.500000  0.748980  0.418734  1
  B  B17  1  0.500000  0.251018  0.581478  1
  B  B18  1  0.500000  0.249424  0.081180  1
  B  B19  1  0.500000  0.750593  0.918773  1
  B  B20  1  0.500000  0.792066  0.265431  1
  B  B21  1  0.500000  0.207930  0.734603  1
  B  B22  1  0.500000  0.292338  0.234513  1
  B  B23  1  0.500000  0.707607  0.765345  1
  B  B24  1  0.500000  0.631178  0.185675  1
  B  B25  1  0.500000  0.368861  0.814328  1
  B  B26  1  0.500000  0.130717  0.314472  1
  B  B27  1  0.500000  0.869137  0.685435  1
  B  B28  1  0.500000  0.982080  0.211834  1
  B  B29  1  0.500000  0.017854  0.788160  1
  B  B30  1  0.500000  0.482715  0.288118  1
  B  B31  1  0.500000  0.517531  0.711808  1
  B  B32  1  0.500000  0.600393  0.027938  1
  B  B33  1  0.500000  0.399635  0.972047  1
  B  B34  1  0.500000  0.099903  0.471953  1
  B  B35  1  0.500000  0.899875  0.528114  1
