# generated using pymatgen
data_Zr24Si3As2Se3
_symmetry_space_group_name_H-M   'P 1'
_cell_length_a   11.02698338
_cell_length_b   11.04959070
_cell_length_c   5.46467270
_cell_angle_alpha   89.80363368
_cell_angle_beta   89.95193379
_cell_angle_gamma   90.00746356
_symmetry_Int_Tables_number   1
_chemical_formula_structural   Zr24Si3As2Se3
_chemical_formula_sum   'Zr24 Si3 As2 Se3'
_cell_volume   665.83153348
_cell_formula_units_Z   1
loop_
 _symmetry_equiv_pos_site_id
 _symmetry_equiv_pos_as_xyz
  1  'x, y, z'
loop_
 _atom_site_type_symbol
 _atom_site_label
 _atom_site_symmetry_multiplicity
 _atom_site_fract_x
 _atom_site_fract_y
 _atom_site_fract_z
 _atom_site_occupancy
  Zr  Zr0  1  0.917466  0.607142  0.541062  1
  Zr  Zr1  1  0.083613  0.393332  0.536319  1
  Zr  Zr2  1  0.894443  0.415181  0.030957  1
  Zr  Zr3  1  0.106754  0.583473  0.036027  1
  Zr  Zr4  1  0.582351  0.895204  0.962790  1
  Zr  Zr5  1  0.416875  0.104584  0.963834  1
  Zr  Zr6  1  0.605047  0.083311  0.465179  1
  Zr  Zr7  1  0.395795  0.916312  0.465657  1
  Zr  Zr8  1  0.863804  0.974186  0.718644  1
  Zr  Zr9  1  0.136250  0.026418  0.719142  1
  Zr  Zr10  1  0.525230  0.362486  0.217015  1
  Zr  Zr11  1  0.471818  0.637700  0.219902  1
  Zr  Zr12  1  0.639384  0.525978  0.782762  1
  Zr  Zr13  1  0.359753  0.473912  0.781265  1
  Zr  Zr14  1  0.973327  0.140525  0.280881  1
  Zr  Zr15  1  0.026198  0.859604  0.282163  1
  Zr  Zr16  1  0.819146  0.715185  0.008759  1
  Zr  Zr17  1  0.181003  0.286567  0.009307  1
  Zr  Zr18  1  0.787081  0.318196  0.511662  1
  Zr  Zr19  1  0.214342  0.680319  0.510755  1
  Zr  Zr20  1  0.681987  0.784554  0.490919  1
  Zr  Zr21  1  0.317124  0.216615  0.487523  1
  Zr  Zr22  1  0.716650  0.182163  0.986998  1
  Zr  Zr23  1  0.283497  0.818338  0.987641  1
  Si  Si24  1  0.293976  0.459595  0.286832  1
  Si  Si25  1  0.960194  0.205614  0.786966  1
  Si  Si26  1  0.040553  0.794179  0.788770  1
  As  As27  1  0.460358  0.706001  0.713325  1
  As  As28  1  0.706939  0.539984  0.288425  1
  Se  Se29  1  0.793227  0.960644  0.212950  1
  Se  Se30  1  0.206789  0.039640  0.213259  1
  Se  Se31  1  0.539022  0.293062  0.712307  1
