# generated using pymatgen
data_Lu4Zn3P3Ir7
_symmetry_space_group_name_H-M   'P 1'
_cell_length_a   7.11749491
_cell_length_b   7.11749447
_cell_length_c   7.14645400
_cell_angle_alpha   109.55366058
_cell_angle_beta   109.55365930
_cell_angle_gamma   109.38864953
_symmetry_Int_Tables_number   1
_chemical_formula_structural   Lu4Zn3P3Ir7
_chemical_formula_sum   'Lu4 Zn3 P3 Ir7'
_cell_volume   278.40701899
_cell_formula_units_Z   1
loop_
 _symmetry_equiv_pos_site_id
 _symmetry_equiv_pos_as_xyz
  1  'x, y, z'
loop_
 _atom_site_type_symbol
 _atom_site_label
 _atom_site_symmetry_multiplicity
 _atom_site_fract_x
 _atom_site_fract_y
 _atom_site_fract_z
 _atom_site_occupancy
  Lu  Lu0  1  0.000000  0.000000  0.463070  1
  Lu  Lu1  1  0.000000  0.520803  0.992056  1
  Lu  Lu2  1  0.520803  0.000000  0.992056  1
  Lu  Lu3  1  0.479197  0.479197  0.471253  1
  Zn  Zn4  1  0.273152  0.273152  0.977251  1
  Zn  Zn5  1  0.726848  0.000000  0.704099  1
  Zn  Zn6  1  0.000000  0.726848  0.704099  1
  P  P7  1  0.659171  0.659171  0.994089  1
  P  P8  1  0.340829  0.000000  0.334917  1
  P  P9  1  0.000000  0.340829  0.334917  1
  Ir  Ir10  1  0.750929  0.253559  0.495755  1
  Ir  Ir11  1  0.746441  0.497371  0.242196  1
  Ir  Ir12  1  0.502629  0.249071  0.744825  1
  Ir  Ir13  1  0.249071  0.502629  0.744825  1
  Ir  Ir14  1  0.253559  0.750929  0.495755  1
  Ir  Ir15  1  0.497371  0.746441  0.242196  1
  Ir  Ir16  1  0.000000  0.000000  0.066642  1
