# generated using pymatgen
data_Nd6LuScAu10
_symmetry_space_group_name_H-M   'P 1'
_cell_length_a   8.15657424
_cell_length_b   8.15657396
_cell_length_c   8.15657375
_cell_angle_alpha   65.94736669
_cell_angle_beta   65.94736784
_cell_angle_gamma   65.94734482
_symmetry_Int_Tables_number   1
_chemical_formula_structural   Nd6LuScAu10
_chemical_formula_sum   'Nd6 Lu1 Sc1 Au10'
_cell_volume   433.12433785
_cell_formula_units_Z   1
loop_
 _symmetry_equiv_pos_site_id
 _symmetry_equiv_pos_as_xyz
  1  'x, y, z'
loop_
 _atom_site_type_symbol
 _atom_site_label
 _atom_site_symmetry_multiplicity
 _atom_site_fract_x
 _atom_site_fract_y
 _atom_site_fract_z
 _atom_site_occupancy
  Nd  Nd0  1  0.893058  0.186120  0.620684  1
  Nd  Nd1  1  0.620684  0.893058  0.186120  1
  Nd  Nd2  1  0.186120  0.620684  0.893058  1
  Nd  Nd3  1  0.108593  0.812314  0.378898  1
  Nd  Nd4  1  0.378898  0.108593  0.812314  1
  Nd  Nd5  1  0.812314  0.378898  0.108593  1
  Lu  Lu6  1  0.656494  0.656494  0.656494  1
  Sc  Sc7  1  0.343340  0.343340  0.343340  1
  Au  Au8  1  0.000090  0.000090  0.000090  1
  Au  Au9  1  0.499254  0.499254  0.499254  1
  Au  Au10  1  0.802781  0.802781  0.802781  1
  Au  Au11  1  0.198469  0.198469  0.198469  1
  Au  Au12  1  0.941307  0.547933  0.321975  1
  Au  Au13  1  0.321975  0.941307  0.547933  1
  Au  Au14  1  0.547933  0.321975  0.941307  1
  Au  Au15  1  0.061413  0.450980  0.676295  1
  Au  Au16  1  0.676295  0.061413  0.450980  1
  Au  Au17  1  0.450980  0.676295  0.061413  1
