# generated using pymatgen
data_Tb2Dy3(MnB3)2
_symmetry_space_group_name_H-M   'P 1'
_cell_length_a   5.42537164
_cell_length_b   5.42537029
_cell_length_c   8.24207305
_cell_angle_alpha   70.78423538
_cell_angle_beta   70.78423906
_cell_angle_gamma   59.99998270
_symmetry_Int_Tables_number   1
_chemical_formula_structural   Tb2Dy3(MnB3)2
_chemical_formula_sum   'Tb2 Dy3 Mn2 B6'
_cell_volume   194.33592548
_cell_formula_units_Z   1
loop_
 _symmetry_equiv_pos_site_id
 _symmetry_equiv_pos_as_xyz
  1  'x, y, z'
loop_
 _atom_site_type_symbol
 _atom_site_label
 _atom_site_symmetry_multiplicity
 _atom_site_fract_x
 _atom_site_fract_y
 _atom_site_fract_z
 _atom_site_occupancy
  Tb  Tb0  1  0.000127  0.000127  0.999618  1
  Tb  Tb1  1  0.251592  0.251592  0.245222  1
  Dy  Dy2  1  0.748837  0.748837  0.753491  1
  Dy  Dy3  1  0.416343  0.416343  0.750969  1
  Dy  Dy4  1  0.583608  0.583608  0.249177  1
  Mn  Mn5  1  0.114711  0.114711  0.655866  1
  Mn  Mn6  1  0.885295  0.885295  0.344115  1
  B  B7  1  0.165996  0.833616  0.500257  1
  B  B8  1  0.833616  0.500131  0.500257  1
  B  B9  1  0.500131  0.165996  0.500257  1
  B  B10  1  0.165996  0.500131  0.500257  1
  B  B11  1  0.500131  0.833616  0.500257  1
  B  B12  1  0.833616  0.165996  0.500257  1
