# generated using pymatgen
data_Cs2NdSm9Os2Br17
_symmetry_space_group_name_H-M   'P 1'
_cell_length_a   9.50270596
_cell_length_b   11.10393634
_cell_length_c   11.10392665
_cell_angle_alpha   107.90071612
_cell_angle_beta   93.66649987
_cell_angle_gamma   93.66657691
_symmetry_Int_Tables_number   1
_chemical_formula_structural   Cs2NdSm9Os2Br17
_chemical_formula_sum   'Cs2 Nd1 Sm9 Os2 Br17'
_cell_volume   1108.33609805
_cell_formula_units_Z   1
loop_
 _symmetry_equiv_pos_site_id
 _symmetry_equiv_pos_as_xyz
  1  'x, y, z'
loop_
 _atom_site_type_symbol
 _atom_site_label
 _atom_site_symmetry_multiplicity
 _atom_site_fract_x
 _atom_site_fract_y
 _atom_site_fract_z
 _atom_site_occupancy
  Cs  Cs0  1  0.999952  0.823710  0.176105  1
  Cs  Cs1  1  0.999952  0.176105  0.823710  1
  Nd  Nd2  1  0.559829  0.834206  0.834207  1
  Sm  Sm3  1  0.439387  0.164842  0.164842  1
  Sm  Sm4  1  0.574060  0.508942  0.204548  1
  Sm  Sm5  1  0.828669  0.290161  0.290161  1
  Sm  Sm6  1  0.305519  0.436558  0.436558  1
  Sm  Sm7  1  0.425258  0.799936  0.486834  1
  Sm  Sm8  1  0.574062  0.204548  0.508942  1
  Sm  Sm9  1  0.692921  0.567549  0.567547  1
  Sm  Sm10  1  0.175241  0.708618  0.708617  1
  Sm  Sm11  1  0.425259  0.486834  0.799936  1
  Os  Os12  1  0.569890  0.359789  0.359788  1
  Os  Os13  1  0.430608  0.639698  0.639698  1
  Br  Br14  1  0.577920  0.683552  0.022188  1
  Br  Br15  1  0.713943  0.068102  0.068101  1
  Br  Br16  1  0.854691  0.448930  0.121053  1
  Br  Br17  1  0.133402  0.206577  0.206576  1
  Br  Br18  1  0.284383  0.604562  0.254975  1
  Br  Br19  1  0.422181  0.980293  0.312874  1
  Br  Br20  1  0.715301  0.744523  0.395392  1
  Br  Br21  1  0.854691  0.121052  0.448930  1
  Br  Br22  1  0.000130  0.500201  0.500202  1
  Br  Br23  1  0.144991  0.879340  0.550240  1
  Br  Br24  1  0.284385  0.254975  0.604563  1
  Br  Br25  1  0.577920  0.022182  0.683553  1
  Br  Br26  1  0.715305  0.395392  0.744520  1
  Br  Br27  1  0.868927  0.792436  0.792436  1
  Br  Br28  1  0.144992  0.550243  0.879340  1
  Br  Br29  1  0.284055  0.933272  0.933272  1
  Br  Br30  1  0.422181  0.312874  0.980292  1
