# generated using pymatgen
data_Th3MnAl3CuPd
_symmetry_space_group_name_H-M   'P 1'
_cell_length_a   7.15624700
_cell_length_b   7.15624751
_cell_length_c   4.19261200
_cell_angle_alpha   90.00000000
_cell_angle_beta   90.00000000
_cell_angle_gamma   120.00000226
_symmetry_Int_Tables_number   1
_chemical_formula_structural   Th3MnAl3CuPd
_chemical_formula_sum   'Th3 Mn1 Al3 Cu1 Pd1'
_cell_volume   185.94562725
_cell_formula_units_Z   1
loop_
 _symmetry_equiv_pos_site_id
 _symmetry_equiv_pos_as_xyz
  1  'x, y, z'
loop_
 _atom_site_type_symbol
 _atom_site_label
 _atom_site_symmetry_multiplicity
 _atom_site_fract_x
 _atom_site_fract_y
 _atom_site_fract_z
 _atom_site_occupancy
  Th  Th0  1  0.423498  0.434542  0.500000  1
  Th  Th1  1  0.565458  0.988956  0.500000  1
  Th  Th2  1  0.011044  0.576502  0.500000  1
  Mn  Mn3  1  0.333333  0.666667  0.000000  1
  Al  Al4  1  0.763868  0.768542  0.000000  1
  Al  Al5  1  0.231458  0.995326  0.000000  1
  Al  Al6  1  0.004674  0.236132  0.000000  1
  Cu  Cu7  1  0.666667  0.333333  0.000000  1
  Pd  Pd8  1  0.000000  0.000000  0.500000  1
