# generated using pymatgen
data_Tb2CoGeI2
_symmetry_space_group_name_H-M   'P 1'
_cell_length_a   4.15635600
_cell_length_b   4.15635610
_cell_length_c   12.16114300
_cell_angle_alpha   90.00000000
_cell_angle_beta   90.00000000
_cell_angle_gamma   119.99999919
_symmetry_Int_Tables_number   1
_chemical_formula_structural   Tb2CoGeI2
_chemical_formula_sum   'Tb2 Co1 Ge1 I2'
_cell_volume   181.94097527
_cell_formula_units_Z   1
loop_
 _symmetry_equiv_pos_site_id
 _symmetry_equiv_pos_as_xyz
  1  'x, y, z'
loop_
 _atom_site_type_symbol
 _atom_site_label
 _atom_site_symmetry_multiplicity
 _atom_site_fract_x
 _atom_site_fract_y
 _atom_site_fract_z
 _atom_site_occupancy
  Tb  Tb0  1  0.000000  0.000000  0.148479  1
  Tb  Tb1  1  0.000000  0.000000  0.851658  1
  Co  Co2  1  0.333333  0.666666  0.998580  1
  Ge  Ge3  1  0.666666  0.333334  0.003057  1
  I  I4  1  0.333333  0.666666  0.320695  1
  I  I5  1  0.666666  0.333334  0.677530  1
