# generated using pymatgen
data_Gd9TmSi5P
_symmetry_space_group_name_H-M   'P 1'
_cell_length_a   8.42157104
_cell_length_b   8.42490509
_cell_length_c   6.31083300
_cell_angle_alpha   89.98269206
_cell_angle_beta   90.00546317
_cell_angle_gamma   119.98954587
_symmetry_Int_Tables_number   1
_chemical_formula_structural   Gd9TmSi5P
_chemical_formula_sum   'Gd9 Tm1 Si5 P1'
_cell_volume   387.81193696
_cell_formula_units_Z   1
loop_
 _symmetry_equiv_pos_site_id
 _symmetry_equiv_pos_as_xyz
  1  'x, y, z'
loop_
 _atom_site_type_symbol
 _atom_site_label
 _atom_site_symmetry_multiplicity
 _atom_site_fract_x
 _atom_site_fract_y
 _atom_site_fract_z
 _atom_site_occupancy
  Gd  Gd0  1  0.001117  0.750404  0.750113  1
  Gd  Gd1  1  0.001296  0.251126  0.249324  1
  Gd  Gd2  1  0.750027  0.749139  0.249529  1
  Gd  Gd3  1  0.746199  0.000070  0.750629  1
  Gd  Gd4  1  0.250889  0.249861  0.750858  1
  Gd  Gd5  1  0.252057  0.999787  0.249624  1
  Gd  Gd6  1  0.666182  0.332127  0.999850  1
  Gd  Gd7  1  0.665262  0.331240  0.500931  1
  Gd  Gd8  1  0.333876  0.668211  0.999721  1
  Tm  Tm9  1  0.334026  0.668061  0.499991  1
  Si  Si10  1  0.392567  0.394464  0.254861  1
  Si  Si11  1  0.002081  0.607662  0.255598  1
  Si  Si12  1  0.002580  0.394261  0.744815  1
  Si  Si13  1  0.606449  0.608382  0.745045  1
  Si  Si14  1  0.607581  0.997914  0.254214  1
  P  P15  1  0.387811  0.997290  0.744898  1
