# generated using pymatgen
data_Yb4ScNb3(Co4P3)4
_symmetry_space_group_name_H-M   'P 1'
_cell_length_a   12.13865600
_cell_length_b   12.13865678
_cell_length_c   3.67870400
_cell_angle_alpha   90.00000000
_cell_angle_beta   90.00000000
_cell_angle_gamma   119.97679860
_symmetry_Int_Tables_number   1
_chemical_formula_structural   Yb4ScNb3(Co4P3)4
_chemical_formula_sum   'Yb4 Sc1 Nb3 Co16 P12'
_cell_volume   469.53524743
_cell_formula_units_Z   1
loop_
 _symmetry_equiv_pos_site_id
 _symmetry_equiv_pos_as_xyz
  1  'x, y, z'
loop_
 _atom_site_type_symbol
 _atom_site_label
 _atom_site_symmetry_multiplicity
 _atom_site_fract_x
 _atom_site_fract_y
 _atom_site_fract_z
 _atom_site_occupancy
  Yb  Yb0  1  0.819292  0.000482  0.500000  1
  Yb  Yb1  1  0.000482  0.819292  0.500000  1
  Yb  Yb2  1  0.332948  0.666883  0.000000  1
  Yb  Yb3  1  0.666883  0.332948  0.000000  1
  Sc  Sc4  1  0.182156  0.182156  0.500000  1
  Nb  Nb5  1  0.442904  0.001003  0.000000  1
  Nb  Nb6  1  0.001003  0.442904  0.000000  1
  Nb  Nb7  1  0.555988  0.555988  0.000000  1
  Co  Co8  1  0.279074  0.003219  0.500000  1
  Co  Co9  1  0.003219  0.279074  0.500000  1
  Co  Co10  1  0.719976  0.719976  0.500000  1
  Co  Co11  1  0.625006  0.803119  0.000000  1
  Co  Co12  1  0.195879  0.823164  0.000000  1
  Co  Co13  1  0.177996  0.371488  0.000000  1
  Co  Co14  1  0.371488  0.177996  0.000000  1
  Co  Co15  1  0.803119  0.625006  0.000000  1
  Co  Co16  1  0.823164  0.195879  0.000000  1
  Co  Co17  1  0.520264  0.874768  0.500000  1
  Co  Co18  1  0.125325  0.646459  0.500000  1
  Co  Co19  1  0.352429  0.477185  0.500000  1
  Co  Co20  1  0.477185  0.352429  0.500000  1
  Co  Co21  1  0.874768  0.520264  0.500000  1
  Co  Co22  1  0.646459  0.125325  0.500000  1
  Co  Co23  1  0.002497  0.002497  0.000000  1
  P  P24  1  0.178883  0.003076  0.000000  1
  P  P25  1  0.003076  0.178883  0.000000  1
  P  P26  1  0.821155  0.821155  0.000000  1
  P  P27  1  0.519934  0.688838  0.500000  1
  P  P28  1  0.309949  0.832355  0.500000  1
  P  P29  1  0.169398  0.480195  0.500000  1
  P  P30  1  0.480195  0.169398  0.500000  1
  P  P31  1  0.688838  0.519934  0.500000  1
  P  P32  1  0.832355  0.309949  0.500000  1
  P  P33  1  0.645105  0.999711  0.000000  1
  P  P34  1  0.999711  0.645105  0.000000  1
  P  P35  1  0.351895  0.351895  0.000000  1
