# generated using pymatgen
data_Ba31CrO32
_symmetry_space_group_name_H-M   'P 1'
_cell_length_a   3.82718200
_cell_length_b   6.66470700
_cell_length_c   51.34436100
_cell_angle_alpha   90.00000000
_cell_angle_beta   90.00000000
_cell_angle_gamma   90.00000000
_symmetry_Int_Tables_number   1
_chemical_formula_structural   Ba31CrO32
_chemical_formula_sum   'Ba31 Cr1 O32'
_cell_volume   1309.64301205
_cell_formula_units_Z   1
loop_
 _symmetry_equiv_pos_site_id
 _symmetry_equiv_pos_as_xyz
  1  'x, y, z'
loop_
 _atom_site_type_symbol
 _atom_site_label
 _atom_site_symmetry_multiplicity
 _atom_site_fract_x
 _atom_site_fract_y
 _atom_site_fract_z
 _atom_site_occupancy
  Ba  Ba0  1  0.250355  0.052428  0.561023  1
  Ba  Ba1  1  0.250355  0.052428  0.938977  1
  Ba  Ba2  1  0.750610  0.197770  0.624088  1
  Ba  Ba3  1  0.750610  0.197770  0.875912  1
  Ba  Ba4  1  0.330755  0.111755  0.195372  1
  Ba  Ba5  1  0.330755  0.111755  0.304628  1
  Ba  Ba6  1  0.750931  0.245927  0.002085  1
  Ba  Ba7  1  0.750931  0.245927  0.497915  1
  Ba  Ba8  1  0.250504  0.355293  0.686946  1
  Ba  Ba9  1  0.250504  0.355293  0.813054  1
  Ba  Ba10  1  0.769213  0.279258  0.128697  1
  Ba  Ba11  1  0.769213  0.279258  0.371303  1
  Ba  Ba12  1  0.256867  0.434282  0.065286  1
  Ba  Ba13  1  0.256867  0.434282  0.434714  1
  Ba  Ba14  1  0.750708  0.519461  0.750000  1
  Ba  Ba15  1  0.249772  0.601812  0.250000  1
  Ba  Ba16  1  0.750347  0.552346  0.938933  1
  Ba  Ba17  1  0.750347  0.552346  0.561067  1
  Ba  Ba18  1  0.250403  0.697819  0.624107  1
  Ba  Ba19  1  0.250403  0.697819  0.875893  1
  Ba  Ba20  1  0.776837  0.616757  0.186764  1
  Ba  Ba21  1  0.776837  0.616757  0.313236  1
  Ba  Ba22  1  0.251109  0.745143  0.001997  1
  Ba  Ba23  1  0.251109  0.745143  0.498003  1
  Ba  Ba24  1  0.750774  0.855311  0.686946  1
  Ba  Ba25  1  0.750774  0.855311  0.813054  1
  Ba  Ba26  1  0.267305  0.787983  0.127091  1
  Ba  Ba27  1  0.267305  0.787983  0.372909  1
  Ba  Ba28  1  0.756008  0.934253  0.435232  1
  Ba  Ba29  1  0.756008  0.934253  0.064768  1
  Ba  Ba30  1  0.250525  0.019463  0.750000  1
  Cr  Cr31  1  0.850361  0.110351  0.250000  1
  O  O32  1  0.251878  0.083871  0.033064  1
  O  O33  1  0.262206  0.115067  0.096843  1
  O  O34  1  0.771506  0.952650  0.157372  1
  O  O35  1  0.262206  0.115067  0.403157  1
  O  O36  1  0.771506  0.952650  0.342628  1
  O  O37  1  0.251878  0.083871  0.466936  1
  O  O38  1  0.750294  0.186821  0.718214  1
  O  O39  1  0.750294  0.186821  0.781786  1
  O  O40  1  0.834730  0.337281  0.221968  1
  O  O41  1  0.250456  0.406087  0.529348  1
  O  O42  1  0.250456  0.406087  0.970652  1
  O  O43  1  0.750258  0.526005  0.655687  1
  O  O44  1  0.834730  0.337281  0.278032  1
  O  O45  1  0.250544  0.370183  0.593093  1
  O  O46  1  0.250544  0.370183  0.906907  1
  O  O47  1  0.750258  0.526005  0.844313  1
  O  O48  1  0.268263  0.456149  0.160298  1
  O  O49  1  0.268263  0.456149  0.339702  1
  O  O50  1  0.250863  0.686883  0.718209  1
  O  O51  1  0.752363  0.586109  0.032849  1
  O  O52  1  0.250863  0.686883  0.781791  1
  O  O53  1  0.763797  0.611450  0.403694  1
  O  O54  1  0.752363  0.586109  0.467151  1
  O  O55  1  0.763797  0.611450  0.096306  1
  O  O56  1  0.878556  0.886437  0.222216  1
  O  O57  1  0.878556  0.886437  0.277784  1
  O  O58  1  0.750235  0.869702  0.593137  1
  O  O59  1  0.250778  0.026199  0.655666  1
  O  O60  1  0.250778  0.026199  0.844334  1
  O  O61  1  0.750235  0.869702  0.906863  1
  O  O62  1  0.750574  0.907238  0.970598  1
  O  O63  1  0.750574  0.907238  0.529402  1
