# generated using pymatgen
data_Ho3(In2Ir)2
_symmetry_space_group_name_H-M   'P 1'
_cell_length_a   7.76144900
_cell_length_b   7.76144961
_cell_length_c   3.92759500
_cell_angle_alpha   90.00000000
_cell_angle_beta   90.00000000
_cell_angle_gamma   119.99999313
_symmetry_Int_Tables_number   1
_chemical_formula_structural   Ho3(In2Ir)2
_chemical_formula_sum   'Ho3 In4 Ir2'
_cell_volume   204.90049649
_cell_formula_units_Z   1
loop_
 _symmetry_equiv_pos_site_id
 _symmetry_equiv_pos_as_xyz
  1  'x, y, z'
loop_
 _atom_site_type_symbol
 _atom_site_label
 _atom_site_symmetry_multiplicity
 _atom_site_fract_x
 _atom_site_fract_y
 _atom_site_fract_z
 _atom_site_occupancy
  Ho  Ho0  1  0.585232  0.618381  0.000000  1
  Ho  Ho1  1  0.381619  0.966851  0.000000  1
  Ho  Ho2  1  0.033149  0.414768  0.000000  1
  In  In3  1  0.001834  0.745856  0.500000  1
  In  In4  1  0.254144  0.255978  0.500000  1
  In  In5  1  0.744022  0.998166  0.500000  1
  In  In6  1  0.666667  0.333333  0.500000  1
  Ir  Ir7  1  0.000000  0.000000  0.000000  1
  Ir  Ir8  1  0.333333  0.666667  0.500000  1
