# generated using pymatgen
data_Li5Ca12Ga7N4
_symmetry_space_group_name_H-M   'P 1'
_cell_length_a   9.20692084
_cell_length_b   9.22713249
_cell_length_c   9.20692100
_cell_angle_alpha   60.07242921
_cell_angle_beta   59.99999582
_cell_angle_gamma   60.07243681
_symmetry_Int_Tables_number   1
_chemical_formula_structural   Li5Ca12Ga7N4
_chemical_formula_sum   'Li5 Ca12 Ga7 N4'
_cell_volume   553.67533930
_cell_formula_units_Z   1
loop_
 _symmetry_equiv_pos_site_id
 _symmetry_equiv_pos_as_xyz
  1  'x, y, z'
loop_
 _atom_site_type_symbol
 _atom_site_label
 _atom_site_symmetry_multiplicity
 _atom_site_fract_x
 _atom_site_fract_y
 _atom_site_fract_z
 _atom_site_occupancy
  Li  Li0  1  0.819138  0.542588  0.819138  1
  Li  Li1  1  0.622705  0.627284  0.127305  1
  Li  Li2  1  0.622705  0.627284  0.622705  1
  Li  Li3  1  0.127305  0.627284  0.622705  1
  Li  Li4  1  0.625703  0.122892  0.625703  1
  Ca  Ca5  1  0.805620  0.189134  0.199627  1
  Ca  Ca6  1  0.194472  0.805575  0.194472  1
  Ca  Ca7  1  0.805483  0.805575  0.194472  1
  Ca  Ca8  1  0.194472  0.805575  0.805483  1
  Ca  Ca9  1  0.805620  0.189134  0.805620  1
  Ca  Ca10  1  0.199627  0.189134  0.805620  1
  Ca  Ca11  1  0.445479  0.054668  0.054373  1
  Ca  Ca12  1  0.057937  0.443691  0.057937  1
  Ca  Ca13  1  0.440436  0.443691  0.057937  1
  Ca  Ca14  1  0.057937  0.443691  0.440436  1
  Ca  Ca15  1  0.445479  0.054668  0.445479  1
  Ca  Ca16  1  0.054373  0.054668  0.445479  1
  Ga  Ga17  1  0.426169  0.427937  0.719724  1
  Ga  Ga18  1  0.426169  0.427937  0.426169  1
  Ga  Ga19  1  0.719724  0.427937  0.426169  1
  Ga  Ga20  1  0.427248  0.718257  0.427248  1
  Ga  Ga21  1  0.823799  0.821561  0.530842  1
  Ga  Ga22  1  0.823799  0.821561  0.823799  1
  Ga  Ga23  1  0.530842  0.821561  0.823799  1
  N  N24  1  0.124049  0.127432  0.624471  1
  N  N25  1  0.124049  0.127432  0.124049  1
  N  N26  1  0.624471  0.127432  0.124049  1
  N  N27  1  0.125196  0.624412  0.125196  1
