# generated using pymatgen
data_TbErBe(Co2B)3
_symmetry_space_group_name_H-M   'P 1'
_cell_length_a   5.01297900
_cell_length_b   5.01297998
_cell_length_c   12.35578000
_cell_angle_alpha   90.00000000
_cell_angle_beta   90.00000000
_cell_angle_gamma   120.00000016
_symmetry_Int_Tables_number   1
_chemical_formula_structural   TbErBe(Co2B)3
_chemical_formula_sum   'Tb2 Er2 Be2 Co12 B6'
_cell_volume   268.90114592
_cell_formula_units_Z   2
loop_
 _symmetry_equiv_pos_site_id
 _symmetry_equiv_pos_as_xyz
  1  'x, y, z'
loop_
 _atom_site_type_symbol
 _atom_site_label
 _atom_site_symmetry_multiplicity
 _atom_site_fract_x
 _atom_site_fract_y
 _atom_site_fract_z
 _atom_site_occupancy
  Tb  Tb0  1  0.000000  0.000000  0.000511  1
  Tb  Tb1  1  0.000000  0.000000  0.744549  1
  Er  Er2  1  0.000000  0.000000  0.499726  1
  Er  Er3  1  0.000000  0.000000  0.255537  1
  Be  Be4  1  0.666667  0.333333  0.000432  1
  Be  Be5  1  0.333333  0.666667  0.000432  1
  Co  Co6  1  0.500000  0.500000  0.856609  1
  Co  Co7  1  0.500000  0.000000  0.856609  1
  Co  Co8  1  0.000000  0.500000  0.856609  1
  Co  Co9  1  0.500000  0.500000  0.144291  1
  Co  Co10  1  0.500000  0.000000  0.144291  1
  Co  Co11  1  0.000000  0.500000  0.144291  1
  Co  Co12  1  0.500000  0.500000  0.618824  1
  Co  Co13  1  0.500000  0.000000  0.618824  1
  Co  Co14  1  0.000000  0.500000  0.618824  1
  Co  Co15  1  0.500000  0.500000  0.380209  1
  Co  Co16  1  0.500000  0.000000  0.380209  1
  Co  Co17  1  0.000000  0.500000  0.380209  1
  B  B18  1  0.666667  0.333333  0.499512  1
  B  B19  1  0.333333  0.666667  0.499512  1
  B  B20  1  0.666667  0.333333  0.740684  1
  B  B21  1  0.333333  0.666667  0.740684  1
  B  B22  1  0.333333  0.666667  0.259310  1
  B  B23  1  0.666667  0.333333  0.259310  1
