# generated using pymatgen
data_Th6CuNi5Sn8
_symmetry_space_group_name_H-M   'P 1'
_cell_length_a   8.39548830
_cell_length_b   8.39548766
_cell_length_c   8.39548726
_cell_angle_alpha   109.40132520
_cell_angle_beta   109.61111213
_cell_angle_gamma   109.40131718
_symmetry_Int_Tables_number   1
_chemical_formula_structural   Th6CuNi5Sn8
_chemical_formula_sum   'Th6 Cu1 Ni5 Sn8'
_cell_volume   455.52681965
_cell_formula_units_Z   1
loop_
 _symmetry_equiv_pos_site_id
 _symmetry_equiv_pos_as_xyz
  1  'x, y, z'
loop_
 _atom_site_type_symbol
 _atom_site_label
 _atom_site_symmetry_multiplicity
 _atom_site_fract_x
 _atom_site_fract_y
 _atom_site_fract_z
 _atom_site_occupancy
  Th  Th0  1  0.875000  0.250000  0.125000  1
  Th  Th1  1  0.625000  0.750000  0.375000  1
  Th  Th2  1  0.248900  0.123837  0.878205  1
  Th  Th3  1  0.754367  0.376163  0.625062  1
  Th  Th4  1  0.121795  0.870695  0.245633  1
  Th  Th5  1  0.374938  0.629305  0.751100  1
  Cu  Cu6  1  0.375000  0.250000  0.625000  1
  Ni  Ni7  1  0.125000  0.750000  0.875000  1
  Ni  Ni8  1  0.249711  0.624970  0.374960  1
  Ni  Ni9  1  0.749990  0.875030  0.124741  1
  Ni  Ni10  1  0.625040  0.374751  0.250010  1
  Ni  Ni11  1  0.875259  0.125249  0.750289  1
  Sn  Sn12  1  0.659341  0.502131  0.002612  1
  Sn  Sn13  1  0.500481  0.997869  0.657210  1
  Sn  Sn14  1  0.000144  0.658234  0.500082  1
  Sn  Sn15  1  0.841848  0.841766  0.841910  1
  Sn  Sn16  1  0.499918  0.000061  0.158152  1
  Sn  Sn17  1  0.158090  0.499939  0.999856  1
  Sn  Sn18  1  0.997388  0.156729  0.499519  1
  Sn  Sn19  1  0.342790  0.343271  0.340659  1
