# generated using pymatgen
data_Er20Rh11Au
_symmetry_space_group_name_H-M   'P 1'
_cell_length_a   10.86733906
_cell_length_b   10.86733923
_cell_length_c   6.30820000
_cell_angle_alpha   89.94472002
_cell_angle_beta   89.94472001
_cell_angle_gamma   89.69574471
_symmetry_Int_Tables_number   1
_chemical_formula_structural   Er20Rh11Au
_chemical_formula_sum   'Er20 Rh11 Au1'
_cell_volume   744.98129680
_cell_formula_units_Z   1
loop_
 _symmetry_equiv_pos_site_id
 _symmetry_equiv_pos_as_xyz
  1  'x, y, z'
loop_
 _atom_site_type_symbol
 _atom_site_label
 _atom_site_symmetry_multiplicity
 _atom_site_fract_x
 _atom_site_fract_y
 _atom_site_fract_z
 _atom_site_occupancy
  Er  Er0  1  0.288943  0.088695  0.376837  1
  Er  Er1  1  0.292558  0.909153  0.876896  1
  Er  Er2  1  0.703626  0.085398  0.866788  1
  Er  Er3  1  0.705320  0.904910  0.381037  1
  Er  Er4  1  0.587706  0.789141  0.879633  1
  Er  Er5  1  0.579863  0.210474  0.378359  1
  Er  Er6  1  0.410771  0.789444  0.378987  1
  Er  Er7  1  0.409276  0.208772  0.879186  1
  Er  Er8  1  0.210859  0.412294  0.620367  1
  Er  Er9  1  0.210556  0.589229  0.121013  1
  Er  Er10  1  0.789526  0.420137  0.121641  1
  Er  Er11  1  0.791228  0.590724  0.620814  1
  Er  Er12  1  0.911305  0.711057  0.123163  1
  Er  Er13  1  0.914602  0.296374  0.633212  1
  Er  Er14  1  0.090847  0.707442  0.623104  1
  Er  Er15  1  0.095090  0.294680  0.118963  1
  Er  Er16  1  0.002134  0.995630  0.501008  1
  Er  Er17  1  0.004370  0.997866  0.998992  1
  Er  Er18  1  0.499282  0.498169  0.998956  1
  Er  Er19  1  0.501831  0.500718  0.501044  1
  Rh  Rh20  1  0.656135  0.343865  0.750000  1
  Rh  Rh21  1  0.654894  0.653131  0.247997  1
  Rh  Rh22  1  0.346869  0.345106  0.252003  1
  Rh  Rh23  1  0.346034  0.653966  0.750000  1
  Rh  Rh24  1  0.846476  0.847717  0.749664  1
  Rh  Rh25  1  0.152283  0.153524  0.750336  1
  Rh  Rh26  1  0.155173  0.844827  0.250000  1
  Rh  Rh27  1  0.499153  0.998948  0.127675  1
  Rh  Rh28  1  0.498842  0.000108  0.624398  1
  Rh  Rh29  1  0.999892  0.501158  0.875602  1
  Rh  Rh30  1  0.001052  0.500847  0.372325  1
  Au  Au31  1  0.843508  0.156492  0.250000  1
