# generated using pymatgen
data_Y7Ho(InRu)2
_symmetry_space_group_name_H-M   'P 1'
_cell_length_a   9.67870148
_cell_length_b   9.73184505
_cell_length_c   9.67870273
_cell_angle_alpha   59.81820709
_cell_angle_beta   59.69011725
_cell_angle_gamma   59.81820536
_symmetry_Int_Tables_number   1
_chemical_formula_structural   Y7Ho(InRu)2
_chemical_formula_sum   'Y14 Ho2 In4 Ru4'
_cell_volume   641.34803157
_cell_formula_units_Z   2
loop_
 _symmetry_equiv_pos_site_id
 _symmetry_equiv_pos_as_xyz
  1  'x, y, z'
loop_
 _atom_site_type_symbol
 _atom_site_label
 _atom_site_symmetry_multiplicity
 _atom_site_fract_x
 _atom_site_fract_y
 _atom_site_fract_z
 _atom_site_occupancy
  Y  Y0  1  0.191357  0.191844  0.808381  1
  Y  Y1  1  0.598607  0.597931  0.205530  1
  Y  Y2  1  0.441415  0.058585  0.441415  1
  Y  Y3  1  0.440296  0.442763  0.058088  1
  Y  Y4  1  0.807444  0.192556  0.807444  1
  Y  Y5  1  0.190830  0.809170  0.190830  1
  Y  Y6  1  0.440296  0.058855  0.058088  1
  Y  Y7  1  0.191357  0.808418  0.808381  1
  Y  Y8  1  0.058667  0.441333  0.058667  1
  Y  Y9  1  0.808381  0.808418  0.191357  1
  Y  Y10  1  0.205530  0.597931  0.598607  1
  Y  Y11  1  0.058088  0.442763  0.440296  1
  Y  Y12  1  0.058088  0.058855  0.440296  1
  Y  Y13  1  0.808381  0.191844  0.191357  1
  Ho  Ho14  1  0.597866  0.206133  0.597866  1
  Ho  Ho15  1  0.597866  0.598135  0.597866  1
  In  In16  1  0.832771  0.833301  0.832771  1
  In  In17  1  0.831844  0.832913  0.502330  1
  In  In18  1  0.502330  0.832913  0.831844  1
  In  In19  1  0.832771  0.501156  0.832771  1
  Ru  Ru20  1  0.391674  0.830566  0.391674  1
  Ru  Ru21  1  0.391674  0.386087  0.391674  1
  Ru  Ru22  1  0.827064  0.388766  0.395403  1
  Ru  Ru23  1  0.395403  0.388766  0.827064  1
