# generated using pymatgen
data_SmDy2TaO7
_symmetry_space_group_name_H-M   'P 1'
_cell_length_a   6.48540481
_cell_length_b   6.48540436
_cell_length_c   7.58046000
_cell_angle_alpha   90.00000000
_cell_angle_beta   90.00000000
_cell_angle_gamma   109.44508888
_symmetry_Int_Tables_number   1
_chemical_formula_structural   SmDy2TaO7
_chemical_formula_sum   'Sm2 Dy4 Ta2 O14'
_cell_volume   300.65153627
_cell_formula_units_Z   2
loop_
 _symmetry_equiv_pos_site_id
 _symmetry_equiv_pos_as_xyz
  1  'x, y, z'
loop_
 _atom_site_type_symbol
 _atom_site_label
 _atom_site_symmetry_multiplicity
 _atom_site_fract_x
 _atom_site_fract_y
 _atom_site_fract_z
 _atom_site_occupancy
  Sm  Sm0  1  0.500000  0.500000  0.500000  1
  Sm  Sm1  1  0.500000  0.500000  0.000000  1
  Dy  Dy2  1  0.533816  0.000652  0.750000  1
  Dy  Dy3  1  0.000652  0.533816  0.250000  1
  Dy  Dy4  1  0.466184  0.999348  0.250000  1
  Dy  Dy5  1  0.999348  0.466184  0.750000  1
  Ta  Ta6  1  0.000000  0.000000  0.500000  1
  Ta  Ta7  1  0.000000  0.000000  0.000000  1
  O  O8  1  0.678876  0.929762  0.468339  1
  O  O9  1  0.929762  0.678876  0.531661  1
  O  O10  1  0.678876  0.929762  0.031661  1
  O  O11  1  0.929762  0.678876  0.968339  1
  O  O12  1  0.321124  0.070238  0.531661  1
  O  O13  1  0.070238  0.321124  0.468339  1
  O  O14  1  0.321124  0.070238  0.968339  1
  O  O15  1  0.070238  0.321124  0.031661  1
  O  O16  1  0.935911  0.064089  0.750000  1
  O  O17  1  0.064089  0.935911  0.250000  1
  O  O18  1  0.366518  0.633481  0.750000  1
  O  O19  1  0.633481  0.366518  0.250000  1
  O  O20  1  0.639798  0.360202  0.750000  1
  O  O21  1  0.360202  0.639798  0.250000  1
