# generated using pymatgen
data_Tb2TmRh9
_symmetry_space_group_name_H-M   'P 1'
_cell_length_a   5.26398201
_cell_length_b   5.26384179
_cell_length_c   17.58315900
_cell_angle_alpha   89.99852215
_cell_angle_beta   90.00230730
_cell_angle_gamma   120.00729714
_symmetry_Int_Tables_number   1
_chemical_formula_structural   Tb2TmRh9
_chemical_formula_sum   'Tb4 Tm2 Rh18'
_cell_volume   421.90320089
_cell_formula_units_Z   2
loop_
 _symmetry_equiv_pos_site_id
 _symmetry_equiv_pos_as_xyz
  1  'x, y, z'
loop_
 _atom_site_type_symbol
 _atom_site_label
 _atom_site_symmetry_multiplicity
 _atom_site_fract_x
 _atom_site_fract_y
 _atom_site_fract_z
 _atom_site_occupancy
  Tb  Tb0  1  0.666667  0.333334  0.458064  1
  Tb  Tb1  1  0.333333  0.666666  0.541936  1
  Tb  Tb2  1  0.333333  0.666667  0.750334  1
  Tb  Tb3  1  0.666667  0.333333  0.249666  1
  Tm  Tm4  1  0.333333  0.666668  0.958084  1
  Tm  Tm5  1  0.666667  0.333332  0.041916  1
  Rh  Rh6  1  0.167176  0.832821  0.374107  1
  Rh  Rh7  1  0.167179  0.334364  0.374114  1
  Rh  Rh8  1  0.665635  0.832820  0.374114  1
  Rh  Rh9  1  0.832824  0.167179  0.625893  1
  Rh  Rh10  1  0.832821  0.665636  0.625886  1
  Rh  Rh11  1  0.334365  0.167180  0.625886  1
  Rh  Rh12  1  0.832622  0.167374  0.874959  1
  Rh  Rh13  1  0.832624  0.665250  0.874958  1
  Rh  Rh14  1  0.334749  0.167375  0.874957  1
  Rh  Rh15  1  0.167378  0.832626  0.125041  1
  Rh  Rh16  1  0.167376  0.334750  0.125042  1
  Rh  Rh17  1  0.665251  0.832625  0.125043  1
  Rh  Rh18  1  0.333329  0.666683  0.249782  1
  Rh  Rh19  1  0.666671  0.333317  0.750218  1
  Rh  Rh20  1  0.000009  0.999984  0.249608  1
  Rh  Rh21  1  0.999991  0.000016  0.750392  1
  Rh  Rh22  1  0.000000  0.000000  0.500000  1
  Rh  Rh23  1  0.000000  0.000000  0.000000  1
