# generated using pymatgen
data_SrSmGa2CoNi5B2
_symmetry_space_group_name_H-M   'P 1'
_cell_length_a   5.29692800
_cell_length_b   5.29765270
_cell_length_c   6.77412400
_cell_angle_alpha   90.00000000
_cell_angle_beta   90.00000000
_cell_angle_gamma   119.99547493
_symmetry_Int_Tables_number   1
_chemical_formula_structural   SrSmGa2CoNi5B2
_chemical_formula_sum   'Sr1 Sm1 Ga2 Co1 Ni5 B2'
_cell_volume   164.63081496
_cell_formula_units_Z   1
loop_
 _symmetry_equiv_pos_site_id
 _symmetry_equiv_pos_as_xyz
  1  'x, y, z'
loop_
 _atom_site_type_symbol
 _atom_site_label
 _atom_site_symmetry_multiplicity
 _atom_site_fract_x
 _atom_site_fract_y
 _atom_site_fract_z
 _atom_site_occupancy
  Sr  Sr0  1  0.999981  0.000000  0.001101  1
  Sm  Sm1  1  0.999983  0.000000  0.498959  1
  Ga  Ga2  1  0.334237  0.668510  0.000603  1
  Ga  Ga3  1  0.665728  0.331490  0.000603  1
  Co  Co4  1  0.499983  0.000000  0.303431  1
  Ni  Ni5  1  0.499983  0.499999  0.300976  1
  Ni  Ni6  1  0.999984  0.500001  0.300976  1
  Ni  Ni7  1  0.499983  0.000000  0.697300  1
  Ni  Ni8  1  0.499983  0.499999  0.698952  1
  Ni  Ni9  1  0.999984  0.500001  0.698952  1
  B  B10  1  0.335315  0.670664  0.499074  1
  B  B11  1  0.664653  0.329336  0.499074  1
