# generated using pymatgen
data_Er4Si4Ir2OsRh
_symmetry_space_group_name_H-M   'P 1'
_cell_length_a   4.24978100
_cell_length_b   6.84167708
_cell_length_c   7.33804589
_cell_angle_alpha   90.11637181
_cell_angle_beta   90.00000000
_cell_angle_gamma   90.00000000
_symmetry_Int_Tables_number   1
_chemical_formula_structural   Er4Si4Ir2OsRh
_chemical_formula_sum   'Er4 Si4 Ir2 Os1 Rh1'
_cell_volume   213.35786201
_cell_formula_units_Z   1
loop_
 _symmetry_equiv_pos_site_id
 _symmetry_equiv_pos_as_xyz
  1  'x, y, z'
loop_
 _atom_site_type_symbol
 _atom_site_label
 _atom_site_symmetry_multiplicity
 _atom_site_fract_x
 _atom_site_fract_y
 _atom_site_fract_z
 _atom_site_occupancy
  Er  Er0  1  0.750000  0.499289  0.811547  1
  Er  Er1  1  0.250000  0.999907  0.314087  1
  Er  Er2  1  0.750000  0.000754  0.686107  1
  Er  Er3  1  0.250000  0.502930  0.187250  1
  Si  Si4  1  0.250000  0.702929  0.617225  1
  Si  Si5  1  0.250000  0.200512  0.890851  1
  Si  Si6  1  0.750000  0.297527  0.388524  1
  Si  Si7  1  0.750000  0.798455  0.103348  1
  Ir  Ir8  1  0.250000  0.340782  0.565071  1
  Ir  Ir9  1  0.750000  0.158523  0.066656  1
  Os  Os10  1  0.250000  0.842796  0.935139  1
  Rh  Rh11  1  0.750000  0.655596  0.434194  1
