# generated using pymatgen
data_V6InGaO18
_symmetry_space_group_name_H-M   'P 1'
_cell_length_a   8.11670898
_cell_length_b   8.11140937
_cell_length_c   10.42722100
_cell_angle_alpha   57.75645416
_cell_angle_beta   122.21579577
_cell_angle_gamma   127.67397878
_symmetry_Int_Tables_number   1
_chemical_formula_structural   V6InGaO18
_chemical_formula_sum   'V6 In1 Ga1 O18'
_cell_volume   437.04520720
_cell_formula_units_Z   1
loop_
 _symmetry_equiv_pos_site_id
 _symmetry_equiv_pos_as_xyz
  1  'x, y, z'
loop_
 _atom_site_type_symbol
 _atom_site_label
 _atom_site_symmetry_multiplicity
 _atom_site_fract_x
 _atom_site_fract_y
 _atom_site_fract_z
 _atom_site_occupancy
  V  V0  1  0.656425  0.141275  0.168091  1
  V  V1  1  0.881356  0.359656  0.679923  1
  V  V2  1  0.079792  0.087229  0.533957  1
  V  V3  1  0.892772  0.900862  0.023723  1
  V  V4  1  0.347879  0.590430  0.601453  1
  V  V5  1  0.398401  0.666692  0.086357  1
  In  In6  1  0.386502  0.129570  0.353913  1
  Ga  Ga7  1  0.867994  0.610812  0.852753  1
  O  O8  1  0.858207  0.084394  0.352209  1
  O  O9  1  0.923568  0.144504  0.857620  1
  O  O10  1  0.239884  0.031796  0.521561  1
  O  O11  1  0.947511  0.747124  0.002259  1
  O  O12  1  0.988076  0.904775  0.694018  1
  O  O13  1  0.066277  0.972125  0.192638  1
  O  O14  1  0.227734  0.363693  0.537619  1
  O  O15  1  0.611637  0.764334  0.015791  1
  O  O16  1  0.542101  0.242284  0.186366  1
  O  O17  1  0.779954  0.471550  0.701132  1
  O  O18  1  0.455205  0.880060  0.135496  1
  O  O19  1  0.148524  0.553728  0.654940  1
  O  O20  1  0.407493  0.829170  0.451950  1
  O  O21  1  0.152819  0.609122  0.942857  1
  O  O22  1  0.392476  0.443695  0.249410  1
  O  O23  1  0.575574  0.593780  0.759463  1
  O  O24  1  0.707909  0.259537  0.524271  1
  O  O25  1  0.764533  0.317209  0.016025  1
