# generated using pymatgen
data_Te8Pt5Se2
_symmetry_space_group_name_H-M   'P 1'
_cell_length_a   17.28253858
_cell_length_b   17.28253861
_cell_length_c   7.10589800
_cell_angle_alpha   87.54937491
_cell_angle_beta   87.54937573
_cell_angle_gamma   13.25459153
_symmetry_Int_Tables_number   1
_chemical_formula_structural   Te8Pt5Se2
_chemical_formula_sum   'Te8 Pt5 Se2'
_cell_volume   486.17702516
_cell_formula_units_Z   1
loop_
 _symmetry_equiv_pos_site_id
 _symmetry_equiv_pos_as_xyz
  1  'x, y, z'
loop_
 _atom_site_type_symbol
 _atom_site_label
 _atom_site_symmetry_multiplicity
 _atom_site_fract_x
 _atom_site_fract_y
 _atom_site_fract_z
 _atom_site_occupancy
  Te  Te0  1  0.670286  0.670286  0.782085  1
  Te  Te1  1  0.275683  0.275683  0.775057  1
  Te  Te2  1  0.880047  0.880047  0.802935  1
  Te  Te3  1  0.537073  0.537073  0.222855  1
  Te  Te4  1  0.137330  0.137330  0.178411  1
  Te  Te5  1  0.736771  0.736771  0.159490  1
  Te  Te6  1  0.336433  0.336433  0.175640  1
  Te  Te7  1  0.935909  0.935909  0.219194  1
  Pt  Pt8  1  0.005599  0.005599  0.034251  1
  Pt  Pt9  1  0.603130  0.603130  0.002294  1
  Pt  Pt10  1  0.204733  0.204733  0.967897  1
  Pt  Pt11  1  0.807041  0.807041  0.973620  1
  Pt  Pt12  1  0.408151  0.408151  0.011523  1
  Se  Se13  1  0.070336  0.070336  0.839866  1
  Se  Se14  1  0.477202  0.477202  0.854881  1
