# generated using pymatgen
data_PrThPbAu2
_symmetry_space_group_name_H-M   'P 1'
_cell_length_a   8.15149100
_cell_length_b   8.16820300
_cell_length_c   4.03014200
_cell_angle_alpha   90.00000000
_cell_angle_beta   90.00000000
_cell_angle_gamma   90.00000000
_symmetry_Int_Tables_number   1
_chemical_formula_structural   PrThPbAu2
_chemical_formula_sum   'Pr2 Th2 Pb2 Au4'
_cell_volume   268.33907875
_cell_formula_units_Z   2
loop_
 _symmetry_equiv_pos_site_id
 _symmetry_equiv_pos_as_xyz
  1  'x, y, z'
loop_
 _atom_site_type_symbol
 _atom_site_label
 _atom_site_symmetry_multiplicity
 _atom_site_fract_x
 _atom_site_fract_y
 _atom_site_fract_z
 _atom_site_occupancy
  Pr  Pr0  1  0.173419  0.673715  0.500000  1
  Pr  Pr1  1  0.673419  0.826285  0.500000  1
  Th  Th2  1  0.327509  0.171830  0.500000  1
  Th  Th3  1  0.827509  0.328170  0.500000  1
  Pb  Pb4  1  0.998485  0.996651  0.000000  1
  Pb  Pb5  1  0.498485  0.503349  0.000000  1
  Au  Au6  1  0.625339  0.130611  0.000000  1
  Au  Au7  1  0.125338  0.369389  0.000000  1
  Au  Au8  1  0.875249  0.617650  0.000000  1
  Au  Au9  1  0.375249  0.882351  0.000000  1
