# generated using pymatgen
data_Th(Ti3Sn2)2
_symmetry_space_group_name_H-M   'P 1'
_cell_length_a   8.45057079
_cell_length_b   8.45057126
_cell_length_c   8.45057131
_cell_angle_alpha   40.15347925
_cell_angle_beta   40.15347808
_cell_angle_gamma   40.15348694
_symmetry_Int_Tables_number   1
_chemical_formula_structural   Th(Ti3Sn2)2
_chemical_formula_sum   'Th1 Ti6 Sn4'
_cell_volume   226.16464030
_cell_formula_units_Z   1
loop_
 _symmetry_equiv_pos_site_id
 _symmetry_equiv_pos_as_xyz
  1  'x, y, z'
loop_
 _atom_site_type_symbol
 _atom_site_label
 _atom_site_symmetry_multiplicity
 _atom_site_fract_x
 _atom_site_fract_y
 _atom_site_fract_z
 _atom_site_occupancy
  Th  Th0  1  0.000000  0.000000  0.000000  1
  Ti  Ti1  1  0.400892  0.883168  0.400893  1
  Ti  Ti2  1  0.400893  0.400893  0.883167  1
  Ti  Ti3  1  0.883168  0.400892  0.400893  1
  Ti  Ti4  1  0.116831  0.599108  0.599107  1
  Ti  Ti5  1  0.599108  0.599108  0.116831  1
  Ti  Ti6  1  0.599108  0.116831  0.599107  1
  Sn  Sn7  1  0.668055  0.668055  0.668056  1
  Sn  Sn8  1  0.331944  0.331944  0.331944  1
  Sn  Sn9  1  0.869410  0.869410  0.869410  1
  Sn  Sn10  1  0.130590  0.130590  0.130590  1
