# generated using pymatgen
data_Tb20Ir2RuRh9
_symmetry_space_group_name_H-M   'P 1'
_cell_length_a   10.94171806
_cell_length_b   10.94105803
_cell_length_c   6.43231404
_cell_angle_alpha   89.99236089
_cell_angle_beta   90.01083562
_cell_angle_gamma   90.00408492
_symmetry_Int_Tables_number   1
_chemical_formula_structural   Tb20Ir2RuRh9
_chemical_formula_sum   'Tb20 Ir2 Ru1 Rh9'
_cell_volume   770.03784203
_cell_formula_units_Z   1
loop_
 _symmetry_equiv_pos_site_id
 _symmetry_equiv_pos_as_xyz
  1  'x, y, z'
loop_
 _atom_site_type_symbol
 _atom_site_label
 _atom_site_symmetry_multiplicity
 _atom_site_fract_x
 _atom_site_fract_y
 _atom_site_fract_z
 _atom_site_occupancy
  Tb  Tb0  1  0.292700  0.088851  0.376519  1
  Tb  Tb1  1  0.293201  0.911104  0.881602  1
  Tb  Tb2  1  0.706962  0.087464  0.881518  1
  Tb  Tb3  1  0.707393  0.912507  0.376349  1
  Tb  Tb4  1  0.586291  0.792354  0.881707  1
  Tb  Tb5  1  0.586293  0.208061  0.376548  1
  Tb  Tb6  1  0.411927  0.791943  0.377696  1
  Tb  Tb7  1  0.411958  0.207539  0.882546  1
  Tb  Tb8  1  0.210513  0.412085  0.620388  1
  Tb  Tb9  1  0.210443  0.587484  0.119859  1
  Tb  Tb10  1  0.790964  0.411342  0.120150  1
  Tb  Tb11  1  0.790868  0.589127  0.620597  1
  Tb  Tb12  1  0.911571  0.709195  0.120476  1
  Tb  Tb13  1  0.911121  0.290732  0.620928  1
  Tb  Tb14  1  0.090398  0.708999  0.621315  1
  Tb  Tb15  1  0.089947  0.291083  0.120799  1
  Tb  Tb16  1  0.999920  0.999806  0.499150  1
  Tb  Tb17  1  0.999969  0.000193  0.999041  1
  Tb  Tb18  1  0.499617  0.499839  0.998967  1
  Tb  Tb19  1  0.499643  0.500129  0.499067  1
  Ir  Ir20  1  0.345351  0.346621  0.250060  1
  Ir  Ir21  1  0.345947  0.653558  0.749634  1
  Ru  Ru22  1  0.500562  0.999949  0.124534  1
  Rh  Rh23  1  0.847159  0.154371  0.250333  1
  Rh  Rh24  1  0.847178  0.846207  0.750023  1
  Rh  Rh25  1  0.152212  0.153284  0.749805  1
  Rh  Rh26  1  0.152208  0.846142  0.250222  1
  Rh  Rh27  1  0.654400  0.347016  0.750132  1
  Rh  Rh28  1  0.654962  0.652940  0.250462  1
  Rh  Rh29  1  0.500484  0.000095  0.623417  1
  Rh  Rh30  1  0.998926  0.499920  0.877951  1
  Rh  Rh31  1  0.998913  0.500059  0.378203  1
