# generated using pymatgen
data_Dy3HoAl4IrPt3
_symmetry_space_group_name_H-M   'P 1'
_cell_length_a   4.41926100
_cell_length_b   6.82521109
_cell_length_c   7.79848009
_cell_angle_alpha   89.98181506
_cell_angle_beta   89.99971781
_cell_angle_gamma   90.00020443
_symmetry_Int_Tables_number   1
_chemical_formula_structural   Dy3HoAl4IrPt3
_chemical_formula_sum   'Dy3 Ho1 Al4 Ir1 Pt3'
_cell_volume   235.22077981
_cell_formula_units_Z   1
loop_
 _symmetry_equiv_pos_site_id
 _symmetry_equiv_pos_as_xyz
  1  'x, y, z'
loop_
 _atom_site_type_symbol
 _atom_site_label
 _atom_site_symmetry_multiplicity
 _atom_site_fract_x
 _atom_site_fract_y
 _atom_site_fract_z
 _atom_site_occupancy
  Dy  Dy0  1  0.249998  0.033222  0.678460  1
  Dy  Dy1  1  0.249998  0.530429  0.819767  1
  Dy  Dy2  1  0.750003  0.974585  0.319994  1
  Ho  Ho3  1  0.749998  0.467410  0.182599  1
  Al  Al4  1  0.250000  0.146144  0.063779  1
  Al  Al5  1  0.250000  0.639806  0.436934  1
  Al  Al6  1  0.750000  0.854882  0.938828  1
  Al  Al7  1  0.750000  0.355354  0.560395  1
  Ir  Ir8  1  0.250002  0.268587  0.381218  1
  Pt  Pt9  1  0.250000  0.772072  0.118009  1
  Pt  Pt10  1  0.749998  0.729083  0.619002  1
  Pt  Pt11  1  0.750003  0.228427  0.881016  1
