# generated using pymatgen
data_TmLu(HfPt)2
_symmetry_space_group_name_H-M   'P 1'
_cell_length_a   4.63672400
_cell_length_b   6.99185500
_cell_length_c   8.17507200
_cell_angle_alpha   90.00000000
_cell_angle_beta   90.00000000
_cell_angle_gamma   90.00000000
_symmetry_Int_Tables_number   1
_chemical_formula_structural   TmLu(HfPt)2
_chemical_formula_sum   'Tm2 Lu2 Hf4 Pt4'
_cell_volume   265.03012708
_cell_formula_units_Z   2
loop_
 _symmetry_equiv_pos_site_id
 _symmetry_equiv_pos_as_xyz
  1  'x, y, z'
loop_
 _atom_site_type_symbol
 _atom_site_label
 _atom_site_symmetry_multiplicity
 _atom_site_fract_x
 _atom_site_fract_y
 _atom_site_fract_z
 _atom_site_occupancy
  Tm  Tm0  1  0.250000  0.982629  0.322664  1
  Tm  Tm1  1  0.250000  0.482629  0.177336  1
  Lu  Lu2  1  0.750000  0.018058  0.677958  1
  Lu  Lu3  1  0.750000  0.518058  0.822042  1
  Hf  Hf4  1  0.250000  0.354019  0.577708  1
  Hf  Hf5  1  0.250000  0.854019  0.922292  1
  Hf  Hf6  1  0.750000  0.645897  0.423688  1
  Hf  Hf7  1  0.750000  0.145897  0.076312  1
  Pt  Pt8  1  0.250000  0.233559  0.902336  1
  Pt  Pt9  1  0.250000  0.733559  0.597664  1
  Pt  Pt10  1  0.750000  0.765838  0.096012  1
  Pt  Pt11  1  0.750000  0.265838  0.403988  1
