# generated using pymatgen
data_PrNd7(TmSn3)2
_symmetry_space_group_name_H-M   'P 1'
_cell_length_a   6.76484001
_cell_length_b   9.23051412
_cell_length_c   9.22594703
_cell_angle_alpha   119.97185452
_cell_angle_beta   89.99530728
_cell_angle_gamma   90.00551958
_symmetry_Int_Tables_number   1
_chemical_formula_structural   PrNd7(TmSn3)2
_chemical_formula_sum   'Pr1 Nd7 Tm2 Sn6'
_cell_volume   499.05465270
_cell_formula_units_Z   1
loop_
 _symmetry_equiv_pos_site_id
 _symmetry_equiv_pos_as_xyz
  1  'x, y, z'
loop_
 _atom_site_type_symbol
 _atom_site_label
 _atom_site_symmetry_multiplicity
 _atom_site_fract_x
 _atom_site_fract_y
 _atom_site_fract_z
 _atom_site_occupancy
  Pr  Pr0  1  0.247744  0.999993  0.758222  1
  Nd  Nd1  1  0.500053  0.333436  0.666604  1
  Nd  Nd2  1  0.500051  0.666554  0.333281  1
  Nd  Nd3  1  0.752415  0.242199  0.000092  1
  Nd  Nd4  1  0.752403  0.757784  0.757873  1
  Nd  Nd5  1  0.752432  0.000018  0.242018  1
  Nd  Nd6  1  0.247591  0.757842  0.999991  1
  Nd  Nd7  1  0.247601  0.242171  0.242178  1
  Tm  Tm8  1  0.999931  0.666595  0.333258  1
  Tm  Tm9  1  0.999938  0.333414  0.666653  1
  Sn  Sn10  1  0.762179  0.602556  0.000044  1
  Sn  Sn11  1  0.762211  0.397429  0.397465  1
  Sn  Sn12  1  0.762151  0.000000  0.602528  1
  Sn  Sn13  1  0.237793  0.397989  0.000329  1
  Sn  Sn14  1  0.237757  0.602037  0.602366  1
  Sn  Sn15  1  0.237750  0.999986  0.397100  1
