# generated using pymatgen
data_HoHfCrB6
_symmetry_space_group_name_H-M   'P 1'
_cell_length_a   3.45011700
_cell_length_b   8.98994000
_cell_length_c   11.35688200
_cell_angle_alpha   90.00000000
_cell_angle_beta   90.00000000
_cell_angle_gamma   90.00000000
_symmetry_Int_Tables_number   1
_chemical_formula_structural   HoHfCrB6
_chemical_formula_sum   'Ho4 Hf4 Cr4 B24'
_cell_volume   352.24896823
_cell_formula_units_Z   4
loop_
 _symmetry_equiv_pos_site_id
 _symmetry_equiv_pos_as_xyz
  1  'x, y, z'
loop_
 _atom_site_type_symbol
 _atom_site_label
 _atom_site_symmetry_multiplicity
 _atom_site_fract_x
 _atom_site_fract_y
 _atom_site_fract_z
 _atom_site_occupancy
  Ho  Ho0  1  0.000000  0.822263  0.085230  1
  Ho  Ho1  1  0.000000  0.177737  0.914770  1
  Ho  Ho2  1  0.000000  0.322263  0.414770  1
  Ho  Ho3  1  0.000000  0.677737  0.585230  1
  Hf  Hf4  1  0.000000  0.444024  0.129383  1
  Hf  Hf5  1  0.000000  0.555976  0.870617  1
  Hf  Hf6  1  0.000000  0.944024  0.370617  1
  Hf  Hf7  1  0.000000  0.055976  0.629383  1
  Cr  Cr8  1  0.000000  0.142054  0.182691  1
  Cr  Cr9  1  0.000000  0.857946  0.817309  1
  Cr  Cr10  1  0.000000  0.642054  0.317309  1
  Cr  Cr11  1  0.000000  0.357946  0.682691  1
  B  B12  1  0.500000  0.054456  0.067480  1
  B  B13  1  0.500000  0.945544  0.932520  1
  B  B14  1  0.500000  0.554456  0.432520  1
  B  B15  1  0.500000  0.445544  0.567480  1
  B  B16  1  0.500000  0.252157  0.082633  1
  B  B17  1  0.500000  0.747843  0.917367  1
  B  B18  1  0.500000  0.752157  0.417367  1
  B  B19  1  0.500000  0.247843  0.582633  1
  B  B20  1  0.500000  0.294900  0.236069  1
  B  B21  1  0.500000  0.705100  0.763931  1
  B  B22  1  0.500000  0.794900  0.263931  1
  B  B23  1  0.500000  0.205100  0.736069  1
  B  B24  1  0.500000  0.130084  0.316711  1
  B  B25  1  0.500000  0.869916  0.683289  1
  B  B26  1  0.500000  0.630084  0.183289  1
  B  B27  1  0.500000  0.369916  0.816711  1
  B  B28  1  0.500000  0.482332  0.287141  1
  B  B29  1  0.500000  0.517668  0.712859  1
  B  B30  1  0.500000  0.982332  0.212859  1
  B  B31  1  0.500000  0.017668  0.787141  1
  B  B32  1  0.500000  0.098933  0.473576  1
  B  B33  1  0.500000  0.901067  0.526424  1
  B  B34  1  0.500000  0.598933  0.026424  1
  B  B35  1  0.500000  0.401067  0.973576  1
