# generated using pymatgen
data_Dy4Lu8In2Tc2Ru
_symmetry_space_group_name_H-M   'P 1'
_cell_length_a   8.33776251
_cell_length_b   8.33776346
_cell_length_c   8.33776285
_cell_angle_alpha   109.33762863
_cell_angle_beta   109.33762537
_cell_angle_gamma   109.73873655
_symmetry_Int_Tables_number   1
_chemical_formula_structural   Dy4Lu8In2Tc2Ru
_chemical_formula_sum   'Dy4 Lu8 In2 Tc2 Ru1'
_cell_volume   446.18981239
_cell_formula_units_Z   1
loop_
 _symmetry_equiv_pos_site_id
 _symmetry_equiv_pos_as_xyz
  1  'x, y, z'
loop_
 _atom_site_type_symbol
 _atom_site_label
 _atom_site_symmetry_multiplicity
 _atom_site_fract_x
 _atom_site_fract_y
 _atom_site_fract_z
 _atom_site_occupancy
  Dy  Dy0  1  0.312601  0.312601  0.627356  1
  Dy  Dy1  1  0.685245  0.685245  0.372644  1
  Dy  Dy2  1  0.685245  0.312601  0.000000  1
  Dy  Dy3  1  0.312601  0.685245  0.000000  1
  Lu  Lu4  1  0.185856  0.427109  0.241252  1
  Lu  Lu5  1  0.814951  0.574448  0.759497  1
  Lu  Lu6  1  0.185856  0.944603  0.758748  1
  Lu  Lu7  1  0.944603  0.185856  0.758748  1
  Lu  Lu8  1  0.814951  0.055453  0.240503  1
  Lu  Lu9  1  0.055453  0.814951  0.240503  1
  Lu  Lu10  1  0.427109  0.185856  0.241252  1
  Lu  Lu11  1  0.574448  0.814951  0.759497  1
  In  In12  1  0.999402  0.499402  0.500000  1
  In  In13  1  0.499402  0.999402  0.500000  1
  Tc  Tc14  1  0.343339  0.343339  0.000000  1
  Tc  Tc15  1  0.999529  0.999529  0.000000  1
  Ru  Ru16  1  0.659411  0.659411  0.000000  1
