# generated using pymatgen
data_Tb4Ho2Al24Os5Pt3
_symmetry_space_group_name_H-M   'P 1'
_cell_length_a   8.82076422
_cell_length_b   8.84070287
_cell_length_c   9.56087463
_cell_angle_alpha   90.13082255
_cell_angle_beta   89.75870617
_cell_angle_gamma   119.50978588
_symmetry_Int_Tables_number   1
_chemical_formula_structural   Tb4Ho2Al24Os5Pt3
_chemical_formula_sum   'Tb4 Ho2 Al24 Os5 Pt3'
_cell_volume   648.84590560
_cell_formula_units_Z   1
loop_
 _symmetry_equiv_pos_site_id
 _symmetry_equiv_pos_as_xyz
  1  'x, y, z'
loop_
 _atom_site_type_symbol
 _atom_site_label
 _atom_site_symmetry_multiplicity
 _atom_site_fract_x
 _atom_site_fract_y
 _atom_site_fract_z
 _atom_site_occupancy
  Tb  Tb0  1  0.187527  0.382654  0.250835  1
  Tb  Tb1  1  0.812473  0.617346  0.749165  1
  Tb  Tb2  1  0.614419  0.813998  0.252153  1
  Tb  Tb3  1  0.385581  0.186002  0.747847  1
  Ho  Ho4  1  0.195309  0.808708  0.251646  1
  Ho  Ho5  1  0.804691  0.191292  0.748354  1
  Al  Al6  1  0.335124  0.671387  0.028992  1
  Al  Al7  1  0.664876  0.328613  0.971008  1
  Al  Al8  1  0.669248  0.331127  0.527346  1
  Al  Al9  1  0.330752  0.668873  0.472654  1
  Al  Al10  1  0.157965  0.325495  0.575209  1
  Al  Al11  1  0.842035  0.674505  0.424791  1
  Al  Al12  1  0.673403  0.840914  0.575694  1
  Al  Al13  1  0.837042  0.676219  0.078031  1
  Al  Al14  1  0.326597  0.159086  0.424306  1
  Al  Al15  1  0.162958  0.323781  0.921969  1
  Al  Al16  1  0.163883  0.835036  0.575977  1
  Al  Al17  1  0.325528  0.158593  0.076460  1
  Al  Al18  1  0.836117  0.164964  0.424023  1
  Al  Al19  1  0.674472  0.841407  0.923540  1
  Al  Al20  1  0.831750  0.159398  0.077435  1
  Al  Al21  1  0.168250  0.840602  0.922565  1
  Al  Al22  1  0.560378  0.124685  0.249841  1
  Al  Al23  1  0.439622  0.875315  0.750159  1
  Al  Al24  1  0.874105  0.438144  0.252698  1
  Al  Al25  1  0.125895  0.561856  0.747302  1
  Al  Al26  1  0.562708  0.436487  0.249749  1
  Al  Al27  1  0.437292  0.563513  0.750251  1
  Al  Al28  1  0.999009  0.002288  0.250204  1
  Al  Al29  1  0.000991  0.997712  0.749796  1
  Os  Os30  1  0.500000  0.000000  0.000000  1
  Os  Os31  1  0.500000  0.000000  0.500000  1
  Os  Os32  1  0.000000  0.500000  0.500000  1
  Os  Os33  1  0.000000  0.000000  0.000000  1
  Os  Os34  1  0.000000  0.000000  0.500000  1
  Pt  Pt35  1  0.000000  0.500000  0.000000  1
  Pt  Pt36  1  0.500000  0.500000  0.000000  1
  Pt  Pt37  1  0.500000  0.500000  0.500000  1
