# generated using pymatgen
data_Tm4Zr3ScPt4
_symmetry_space_group_name_H-M   'P 1'
_cell_length_a   4.66075900
_cell_length_b   6.93426248
_cell_length_c   8.25226900
_cell_angle_alpha   89.00172359
_cell_angle_beta   90.00000000
_cell_angle_gamma   90.00000000
_symmetry_Int_Tables_number   1
_chemical_formula_structural   Tm4Zr3ScPt4
_chemical_formula_sum   'Tm4 Zr3 Sc1 Pt4'
_cell_volume   266.66399299
_cell_formula_units_Z   1
loop_
 _symmetry_equiv_pos_site_id
 _symmetry_equiv_pos_as_xyz
  1  'x, y, z'
loop_
 _atom_site_type_symbol
 _atom_site_label
 _atom_site_symmetry_multiplicity
 _atom_site_fract_x
 _atom_site_fract_y
 _atom_site_fract_z
 _atom_site_occupancy
  Tm  Tm0  1  0.250000  0.980971  0.323925  1
  Tm  Tm1  1  0.250000  0.485212  0.178868  1
  Tm  Tm2  1  0.750000  0.015796  0.675554  1
  Tm  Tm3  1  0.750000  0.516055  0.819068  1
  Zr  Zr4  1  0.250000  0.853720  0.921032  1
  Zr  Zr5  1  0.250000  0.352444  0.576042  1
  Zr  Zr6  1  0.750000  0.148301  0.080782  1
  Sc  Sc7  1  0.750000  0.648039  0.422218  1
  Pt  Pt8  1  0.250000  0.237891  0.906599  1
  Pt  Pt9  1  0.250000  0.738608  0.599706  1
  Pt  Pt10  1  0.750000  0.761902  0.092931  1
  Pt  Pt11  1  0.750000  0.261063  0.403275  1
