# generated using pymatgen
data_PbSeBr18
_symmetry_space_group_name_H-M   'P 1'
_cell_length_a   9.65395816
_cell_length_b   9.65395576
_cell_length_c   9.65395733
_cell_angle_alpha   93.66557963
_cell_angle_beta   93.66558507
_cell_angle_gamma   93.66558203
_symmetry_Int_Tables_number   1
_chemical_formula_structural   PbSeBr18
_chemical_formula_sum   'Pb1 Se1 Br18'
_cell_volume   893.96804242
_cell_formula_units_Z   1
loop_
 _symmetry_equiv_pos_site_id
 _symmetry_equiv_pos_as_xyz
  1  'x, y, z'
loop_
 _atom_site_type_symbol
 _atom_site_label
 _atom_site_symmetry_multiplicity
 _atom_site_fract_x
 _atom_site_fract_y
 _atom_site_fract_z
 _atom_site_occupancy
  Pb  Pb0  1  0.500000  0.500000  0.500000  1
  Se  Se1  1  0.000000  0.000000  0.000000  1
  Br  Br2  1  0.273716  0.006224  0.020936  1
  Br  Br3  1  0.020936  0.273716  0.006224  1
  Br  Br4  1  0.006224  0.020936  0.273716  1
  Br  Br5  1  0.726284  0.993776  0.979064  1
  Br  Br6  1  0.979064  0.726284  0.993776  1
  Br  Br7  1  0.993776  0.979064  0.726284  1
  Br  Br8  1  0.637232  0.225253  0.099682  1
  Br  Br9  1  0.099682  0.637232  0.225253  1
  Br  Br10  1  0.225253  0.099682  0.637232  1
  Br  Br11  1  0.362768  0.774747  0.900318  1
  Br  Br12  1  0.900318  0.362768  0.774747  1
  Br  Br13  1  0.774747  0.900318  0.362768  1
  Br  Br14  1  0.442107  0.190008  0.539967  1
  Br  Br15  1  0.539967  0.442107  0.190008  1
  Br  Br16  1  0.190008  0.539967  0.442107  1
  Br  Br17  1  0.557893  0.809992  0.460033  1
  Br  Br18  1  0.460033  0.557893  0.809992  1
  Br  Br19  1  0.809992  0.460033  0.557893  1
