# generated using pymatgen
data_YHoPa(InPd)3
_symmetry_space_group_name_H-M   'P 1'
_cell_length_a   7.60738002
_cell_length_b   7.65851270
_cell_length_c   3.95853100
_cell_angle_alpha   90.00000000
_cell_angle_beta   90.00000000
_cell_angle_gamma   120.29453529
_symmetry_Int_Tables_number   1
_chemical_formula_structural   YHoPa(InPd)3
_chemical_formula_sum   'Y1 Ho1 Pa1 In3 Pd3'
_cell_volume   199.13500416
_cell_formula_units_Z   1
loop_
 _symmetry_equiv_pos_site_id
 _symmetry_equiv_pos_as_xyz
  1  'x, y, z'
loop_
 _atom_site_type_symbol
 _atom_site_label
 _atom_site_symmetry_multiplicity
 _atom_site_fract_x
 _atom_site_fract_y
 _atom_site_fract_z
 _atom_site_occupancy
  Y  Y0  1  0.406846  0.408682  0.000000  1
  Ho  Ho1  1  0.593118  0.001828  0.000000  1
  Pa  Pa2  1  0.000008  0.587614  0.000000  1
  In  In3  1  0.733797  0.743206  0.500000  1
  In  In4  1  0.999771  0.247406  0.500000  1
  In  In5  1  0.266368  0.009174  0.500000  1
  Pd  Pd6  1  0.316249  0.665463  0.500000  1
  Pd  Pd7  1  0.999595  0.988360  0.000000  1
  Pd  Pd8  1  0.684248  0.348265  0.500000  1
