# generated using pymatgen
data_Ba4Na2Mo2O11
_symmetry_space_group_name_H-M   'P 1'
_cell_length_a   5.98026893
_cell_length_b   5.98026888
_cell_length_c   8.67638500
_cell_angle_alpha   90.00000000
_cell_angle_beta   90.00000000
_cell_angle_gamma   90.79116077
_symmetry_Int_Tables_number   1
_chemical_formula_structural   Ba4Na2Mo2O11
_chemical_formula_sum   'Ba4 Na2 Mo2 O11'
_cell_volume   310.26932094
_cell_formula_units_Z   1
loop_
 _symmetry_equiv_pos_site_id
 _symmetry_equiv_pos_as_xyz
  1  'x, y, z'
loop_
 _atom_site_type_symbol
 _atom_site_label
 _atom_site_symmetry_multiplicity
 _atom_site_fract_x
 _atom_site_fract_y
 _atom_site_fract_z
 _atom_site_occupancy
  Ba  Ba0  1  0.019468  0.476109  0.278899  1
  Ba  Ba1  1  0.019468  0.476109  0.721101  1
  Ba  Ba2  1  0.523891  0.980532  0.278899  1
  Ba  Ba3  1  0.523891  0.980532  0.721101  1
  Na  Na4  1  0.516458  0.483542  0.500000  1
  Na  Na5  1  0.980459  0.019541  0.000000  1
  Mo  Mo6  1  0.501845  0.498155  0.000000  1
  Mo  Mo7  1  0.020912  0.979088  0.500000  1
  O  O8  1  0.246592  0.753407  0.500000  1
  O  O9  1  0.788800  0.211200  0.500000  1
  O  O10  1  0.783286  0.755601  0.500000  1
  O  O11  1  0.244399  0.216714  0.500000  1
  O  O12  1  0.022906  0.977094  0.270759  1
  O  O13  1  0.022906  0.977094  0.729241  1
  O  O14  1  0.491530  0.508470  0.777391  1
  O  O15  1  0.491530  0.508470  0.222609  1
  O  O16  1  0.716314  0.283686  0.000000  1
  O  O17  1  0.597536  0.798451  0.000000  1
  O  O18  1  0.201549  0.402464  0.000000  1
