# generated using pymatgen
data_Cs2AgP2O7
_symmetry_space_group_name_H-M   'P 1'
_cell_length_a   7.71970973
_cell_length_b   7.71970922
_cell_length_c   10.54486233
_cell_angle_alpha   80.55356752
_cell_angle_beta   80.55356550
_cell_angle_gamma   122.30078113
_symmetry_Int_Tables_number   1
_chemical_formula_structural   Cs2AgP2O7
_chemical_formula_sum   'Cs4 Ag2 P4 O14'
_cell_volume   499.49372669
_cell_formula_units_Z   2
loop_
 _symmetry_equiv_pos_site_id
 _symmetry_equiv_pos_as_xyz
  1  'x, y, z'
loop_
 _atom_site_type_symbol
 _atom_site_label
 _atom_site_symmetry_multiplicity
 _atom_site_fract_x
 _atom_site_fract_y
 _atom_site_fract_z
 _atom_site_occupancy
  Cs  Cs0  1  0.376581  0.467278  0.131072  1
  Cs  Cs1  1  0.467278  0.376581  0.631072  1
  Cs  Cs2  1  0.593963  0.016911  0.315961  1
  Cs  Cs3  1  0.016911  0.593963  0.815961  1
  Ag  Ag4  1  0.018340  0.786142  0.287958  1
  Ag  Ag5  1  0.786142  0.018340  0.787958  1
  P  P6  1  0.385043  0.985331  0.999316  1
  P  P7  1  0.985331  0.385043  0.499316  1
  P  P8  1  0.026278  0.037871  0.993437  1
  P  P9  1  0.037871  0.026278  0.493437  1
  O  O10  1  0.264870  0.114791  0.413036  1
  O  O11  1  0.114791  0.264870  0.913036  1
  O  O12  1  0.988306  0.202441  0.439052  1
  O  O13  1  0.202441  0.988306  0.939052  1
  O  O14  1  0.549461  0.207431  0.004202  1
  O  O15  1  0.207431  0.549461  0.504202  1
  O  O16  1  0.990776  0.008058  0.146358  1
  O  O17  1  0.008058  0.990776  0.646358  1
  O  O18  1  0.821979  0.861414  0.965992  1
  O  O19  1  0.861414  0.821979  0.465992  1
  O  O20  1  0.461605  0.895606  0.900602  1
  O  O21  1  0.895606  0.461605  0.400602  1
  O  O22  1  0.260110  0.806193  0.137964  1
  O  O23  1  0.806193  0.260110  0.637964  1
