# generated using pymatgen
data_NdTh3Sc4(CrB6)4
_symmetry_space_group_name_H-M   'P 1'
_cell_length_a   3.56706700
_cell_length_b   9.09066203
_cell_length_c   11.54613204
_cell_angle_alpha   90.00999512
_cell_angle_beta   90.00000000
_cell_angle_gamma   90.00000000
_symmetry_Int_Tables_number   1
_chemical_formula_structural   NdTh3Sc4(CrB6)4
_chemical_formula_sum   'Nd1 Th3 Sc4 Cr4 B24'
_cell_volume   374.40642446
_cell_formula_units_Z   1
loop_
 _symmetry_equiv_pos_site_id
 _symmetry_equiv_pos_as_xyz
  1  'x, y, z'
loop_
 _atom_site_type_symbol
 _atom_site_label
 _atom_site_symmetry_multiplicity
 _atom_site_fract_x
 _atom_site_fract_y
 _atom_site_fract_z
 _atom_site_occupancy
  Nd  Nd0  1  0.000000  0.821390  0.085385  1
  Th  Th1  1  0.000000  0.177391  0.915390  1
  Th  Th2  1  0.000000  0.321431  0.414736  1
  Th  Th3  1  0.000000  0.678728  0.585098  1
  Sc  Sc4  1  0.000000  0.444952  0.129882  1
  Sc  Sc5  1  0.000000  0.556312  0.870552  1
  Sc  Sc6  1  0.000000  0.944008  0.369757  1
  Sc  Sc7  1  0.000000  0.055499  0.629275  1
  Cr  Cr8  1  0.000000  0.142694  0.183211  1
  Cr  Cr9  1  0.000000  0.857951  0.816527  1
  Cr  Cr10  1  0.000000  0.641363  0.317503  1
  Cr  Cr11  1  0.000000  0.358054  0.682908  1
  B  B12  1  0.500000  0.056891  0.071898  1
  B  B13  1  0.500000  0.942295  0.928644  1
  B  B14  1  0.500000  0.557702  0.427742  1
  B  B15  1  0.500000  0.442246  0.572346  1
  B  B16  1  0.500000  0.254032  0.085334  1
  B  B17  1  0.500000  0.745834  0.915458  1
  B  B18  1  0.500000  0.754418  0.414077  1
  B  B19  1  0.500000  0.245673  0.585467  1
  B  B20  1  0.500000  0.293967  0.233776  1
  B  B21  1  0.500000  0.706152  0.766604  1
  B  B22  1  0.500000  0.794042  0.265434  1
  B  B23  1  0.500000  0.206177  0.733970  1
  B  B24  1  0.500000  0.127815  0.315206  1
  B  B25  1  0.500000  0.871854  0.684545  1
  B  B26  1  0.500000  0.628668  0.183843  1
  B  B27  1  0.500000  0.371856  0.815705  1
  B  B28  1  0.500000  0.484486  0.283743  1
  B  B29  1  0.500000  0.515817  0.715993  1
  B  B30  1  0.500000  0.983562  0.215490  1
  B  B31  1  0.500000  0.015706  0.784447  1
  B  B32  1  0.500000  0.094944  0.474526  1
  B  B33  1  0.500000  0.905084  0.525282  1
  B  B34  1  0.500000  0.595325  0.025550  1
  B  B35  1  0.500000  0.405683  0.974697  1
