# generated using pymatgen
data_YHo15In3HgIr4
_symmetry_space_group_name_H-M   'P 1'
_cell_length_a   9.61623575
_cell_length_b   9.61623536
_cell_length_c   9.60956463
_cell_angle_alpha   59.96599597
_cell_angle_beta   59.96600514
_cell_angle_gamma   59.94451716
_symmetry_Int_Tables_number   1
_chemical_formula_structural   YHo15In3HgIr4
_chemical_formula_sum   'Y1 Ho15 In3 Hg1 Ir4'
_cell_volume   627.75947418
_cell_formula_units_Z   1
loop_
 _symmetry_equiv_pos_site_id
 _symmetry_equiv_pos_as_xyz
  1  'x, y, z'
loop_
 _atom_site_type_symbol
 _atom_site_label
 _atom_site_symmetry_multiplicity
 _atom_site_fract_x
 _atom_site_fract_y
 _atom_site_fract_z
 _atom_site_occupancy
  Y  Y0  1  0.437852  0.437852  0.063509  1
  Ho  Ho1  1  0.648893  0.648893  0.049903  1
  Ho  Ho2  1  0.190255  0.813360  0.190465  1
  Ho  Ho3  1  0.059466  0.439955  0.059856  1
  Ho  Ho4  1  0.191351  0.809799  0.809014  1
  Ho  Ho5  1  0.062845  0.438275  0.438882  1
  Ho  Ho6  1  0.813360  0.190255  0.190465  1
  Ho  Ho7  1  0.652289  0.652289  0.652055  1
  Ho  Ho8  1  0.809799  0.191351  0.809014  1
  Ho  Ho9  1  0.190429  0.190429  0.812967  1
  Ho  Ho10  1  0.049974  0.648903  0.648796  1
  Ho  Ho11  1  0.439955  0.059466  0.059856  1
  Ho  Ho12  1  0.060191  0.060191  0.439727  1
  Ho  Ho13  1  0.648903  0.049974  0.648796  1
  Ho  Ho14  1  0.809469  0.809469  0.191393  1
  Ho  Ho15  1  0.438275  0.062845  0.438882  1
  In  In16  1  0.417392  0.417392  0.747642  1
  In  In17  1  0.417408  0.747955  0.417343  1
  In  In18  1  0.747955  0.417408  0.417343  1
  Hg  Hg19  1  0.413828  0.413828  0.414461  1
  Ir  Ir20  1  0.423914  0.859500  0.858863  1
  Ir  Ir21  1  0.857684  0.857684  0.857846  1
  Ir  Ir22  1  0.859500  0.423914  0.858863  1
  Ir  Ir23  1  0.859014  0.859014  0.424061  1
