# generated using pymatgen
data_Pr6Al24Ru5Pt2Au
_symmetry_space_group_name_H-M   'P 1'
_cell_length_a   8.98896200
_cell_length_b   8.98420188
_cell_length_c   9.69025079
_cell_angle_alpha   90.13095024
_cell_angle_beta   90.00000000
_cell_angle_gamma   120.01752090
_symmetry_Int_Tables_number   1
_chemical_formula_structural   Pr6Al24Ru5Pt2Au
_chemical_formula_sum   'Pr6 Al24 Ru5 Pt2 Au1'
_cell_volume   677.60480956
_cell_formula_units_Z   1
loop_
 _symmetry_equiv_pos_site_id
 _symmetry_equiv_pos_as_xyz
  1  'x, y, z'
loop_
 _atom_site_type_symbol
 _atom_site_label
 _atom_site_symmetry_multiplicity
 _atom_site_fract_x
 _atom_site_fract_y
 _atom_site_fract_z
 _atom_site_occupancy
  Pr  Pr0  1  0.190066  0.380132  0.254074  1
  Pr  Pr1  1  0.809934  0.619868  0.745926  1
  Pr  Pr2  1  0.620140  0.811049  0.247673  1
  Pr  Pr3  1  0.379860  0.188951  0.752327  1
  Pr  Pr4  1  0.190910  0.811049  0.247673  1
  Pr  Pr5  1  0.809090  0.188951  0.752327  1
  Al  Al6  1  0.327249  0.654500  0.019107  1
  Al  Al7  1  0.672751  0.345500  0.980893  1
  Al  Al8  1  0.663814  0.327626  0.520454  1
  Al  Al9  1  0.336186  0.672374  0.479546  1
  Al  Al10  1  0.161845  0.323689  0.577588  1
  Al  Al11  1  0.838155  0.676311  0.422412  1
  Al  Al12  1  0.675038  0.841690  0.573775  1
  Al  Al13  1  0.836931  0.673863  0.074548  1
  Al  Al14  1  0.324962  0.158310  0.426225  1
  Al  Al15  1  0.163069  0.326137  0.925452  1
  Al  Al16  1  0.166654  0.841690  0.573775  1
  Al  Al17  1  0.323390  0.172473  0.076690  1
  Al  Al18  1  0.833346  0.158310  0.426225  1
  Al  Al19  1  0.676610  0.827527  0.923310  1
  Al  Al20  1  0.849083  0.172473  0.076690  1
  Al  Al21  1  0.150917  0.827527  0.923310  1
  Al  Al22  1  0.565833  0.131667  0.259729  1
  Al  Al23  1  0.434167  0.868333  0.740271  1
  Al  Al24  1  0.873705  0.437707  0.246277  1
  Al  Al25  1  0.126295  0.562293  0.753723  1
  Al  Al26  1  0.564001  0.437707  0.246277  1
  Al  Al27  1  0.435999  0.562293  0.753723  1
  Al  Al28  1  0.999804  0.999608  0.249977  1
  Al  Al29  1  0.000196  0.000392  0.750023  1
  Ru  Ru30  1  0.000000  0.500000  0.000000  1
  Ru  Ru31  1  0.500000  0.000000  0.500000  1
  Ru  Ru32  1  0.500000  0.500000  0.000000  1
  Ru  Ru33  1  0.000000  0.000000  0.000000  1
  Ru  Ru34  1  0.000000  0.000000  0.500000  1
  Pt  Pt35  1  0.000000  0.500000  0.500000  1
  Pt  Pt36  1  0.500000  0.500000  0.500000  1
  Au  Au37  1  0.500000  0.000000  0.000000  1
