# generated using pymatgen
data_Yb3Zn4CdAu4
_symmetry_space_group_name_H-M   'P 1'
_cell_length_a   4.35260900
_cell_length_b   7.12876877
_cell_length_c   7.99470379
_cell_angle_alpha   92.53908460
_cell_angle_beta   90.00000000
_cell_angle_gamma   90.00000000
_symmetry_Int_Tables_number   1
_chemical_formula_structural   Yb3Zn4CdAu4
_chemical_formula_sum   'Yb3 Zn4 Cd1 Au4'
_cell_volume   247.82206773
_cell_formula_units_Z   1
loop_
 _symmetry_equiv_pos_site_id
 _symmetry_equiv_pos_as_xyz
  1  'x, y, z'
loop_
 _atom_site_type_symbol
 _atom_site_label
 _atom_site_symmetry_multiplicity
 _atom_site_fract_x
 _atom_site_fract_y
 _atom_site_fract_z
 _atom_site_occupancy
  Yb  Yb0  1  0.250000  0.024007  0.309640  1
  Yb  Yb1  1  0.750000  0.981172  0.697473  1
  Yb  Yb2  1  0.250000  0.518909  0.173300  1
  Zn  Zn3  1  0.250000  0.649964  0.565678  1
  Zn  Zn4  1  0.250000  0.152841  0.932363  1
  Zn  Zn5  1  0.750000  0.348814  0.436635  1
  Zn  Zn6  1  0.750000  0.841791  0.067763  1
  Cd  Cd7  1  0.750000  0.480856  0.818023  1
  Au  Au8  1  0.250000  0.772313  0.883049  1
  Au  Au9  1  0.250000  0.275322  0.622090  1
  Au  Au10  1  0.750000  0.727204  0.379712  1
  Au  Au11  1  0.750000  0.226808  0.114274  1
