# generated using pymatgen
data_Rb16Hf3PaSe16
_symmetry_space_group_name_H-M   'P 1'
_cell_length_a   8.83461155
_cell_length_b   10.61119000
_cell_length_c   15.71079000
_cell_angle_alpha   90.00000000
_cell_angle_beta   89.79865460
_cell_angle_gamma   90.00000000
_symmetry_Int_Tables_number   1
_chemical_formula_structural   Rb16Hf3PaSe16
_chemical_formula_sum   'Rb16 Hf3 Pa1 Se16'
_cell_volume   1472.81056773
_cell_formula_units_Z   1
loop_
 _symmetry_equiv_pos_site_id
 _symmetry_equiv_pos_as_xyz
  1  'x, y, z'
loop_
 _atom_site_type_symbol
 _atom_site_label
 _atom_site_symmetry_multiplicity
 _atom_site_fract_x
 _atom_site_fract_y
 _atom_site_fract_z
 _atom_site_occupancy
  Rb  Rb0  1  0.499782  0.498898  0.500678  1
  Rb  Rb1  1  0.156633  0.441424  0.278042  1
  Rb  Rb2  1  0.156633  0.058576  0.278042  1
  Rb  Rb3  1  0.009779  0.750000  0.432136  1
  Rb  Rb4  1  0.986369  0.250000  0.571416  1
  Rb  Rb5  1  0.657840  0.948727  0.224775  1
  Rb  Rb6  1  0.341631  0.055231  0.778365  1
  Rb  Rb7  1  0.841973  0.945648  0.722840  1
  Rb  Rb8  1  0.341631  0.444769  0.778365  1
  Rb  Rb9  1  0.996206  0.498030  0.998231  1
  Rb  Rb10  1  0.520417  0.250000  0.072080  1
  Rb  Rb11  1  0.657840  0.551273  0.224775  1
  Rb  Rb12  1  0.491113  0.750000  0.923165  1
  Rb  Rb13  1  0.996206  0.001970  0.998231  1
  Rb  Rb14  1  0.841973  0.554352  0.722840  1
  Rb  Rb15  1  0.499782  0.001102  0.500678  1
  Hf  Hf16  1  0.745308  0.250000  0.833414  1
  Hf  Hf17  1  0.755215  0.250000  0.334009  1
  Hf  Hf18  1  0.245735  0.750000  0.666374  1
  Pa  Pa19  1  0.255486  0.750000  0.164379  1
  Se  Se20  1  0.531893  0.750000  0.673196  1
  Se  Se21  1  0.468993  0.250000  0.326597  1
  Se  Se22  1  0.371415  0.750000  0.325120  1
  Se  Se23  1  0.134926  0.750000  0.816018  1
  Se  Se24  1  0.031324  0.250000  0.826589  1
  Se  Se25  1  0.949571  0.750000  0.171008  1
  Se  Se26  1  0.634360  0.250000  0.684528  1
  Se  Se27  1  0.868280  0.250000  0.185066  1
  Se  Se28  1  0.844469  0.445804  0.408806  1
  Se  Se29  1  0.656657  0.053795  0.908458  1
  Se  Se30  1  0.348484  0.961195  0.085594  1
  Se  Se31  1  0.348484  0.538805  0.085594  1
  Se  Se32  1  0.156232  0.553910  0.591661  1
  Se  Se33  1  0.844469  0.054196  0.408806  1
  Se  Se34  1  0.156232  0.946090  0.591661  1
  Se  Se35  1  0.656657  0.446205  0.908458  1
