# generated using pymatgen
data_Ho5Zr3(Co4As3)4
_symmetry_space_group_name_H-M   'P 1'
_cell_length_a   12.72735900
_cell_length_b   12.72735956
_cell_length_c   3.82847000
_cell_angle_alpha   90.00000000
_cell_angle_beta   90.00000000
_cell_angle_gamma   120.00000634
_symmetry_Int_Tables_number   1
_chemical_formula_structural   Ho5Zr3(Co4As3)4
_chemical_formula_sum   'Ho5 Zr3 Co16 As12'
_cell_volume   537.07193697
_cell_formula_units_Z   1
loop_
 _symmetry_equiv_pos_site_id
 _symmetry_equiv_pos_as_xyz
  1  'x, y, z'
loop_
 _atom_site_type_symbol
 _atom_site_label
 _atom_site_symmetry_multiplicity
 _atom_site_fract_x
 _atom_site_fract_y
 _atom_site_fract_z
 _atom_site_occupancy
  Ho  Ho0  1  0.183000  0.183000  0.500000  1
  Ho  Ho1  1  0.817000  0.000000  0.500000  1
  Ho  Ho2  1  0.000000  0.817000  0.500000  1
  Ho  Ho3  1  0.333333  0.666667  0.000000  1
  Ho  Ho4  1  0.666667  0.333333  0.000000  1
  Zr  Zr5  1  0.561512  0.561512  0.000000  1
  Zr  Zr6  1  0.438488  0.000000  0.000000  1
  Zr  Zr7  1  0.000000  0.438488  0.000000  1
  Co  Co8  1  0.720344  0.720344  0.500000  1
  Co  Co9  1  0.279656  0.000000  0.500000  1
  Co  Co10  1  0.000000  0.279656  0.500000  1
  Co  Co11  1  0.177965  0.373416  0.000000  1
  Co  Co12  1  0.626584  0.804549  0.000000  1
  Co  Co13  1  0.195451  0.822035  0.000000  1
  Co  Co14  1  0.804549  0.626584  0.000000  1
  Co  Co15  1  0.822035  0.195451  0.000000  1
  Co  Co16  1  0.373416  0.177965  0.000000  1
  Co  Co17  1  0.357649  0.480241  0.500000  1
  Co  Co18  1  0.519759  0.877409  0.500000  1
  Co  Co19  1  0.122591  0.642351  0.500000  1
  Co  Co20  1  0.877409  0.519759  0.500000  1
  Co  Co21  1  0.642351  0.122591  0.500000  1
  Co  Co22  1  0.480241  0.357649  0.500000  1
  Co  Co23  1  0.000000  0.000000  0.000000  1
  As  As24  1  0.823094  0.823094  0.000000  1
  As  As25  1  0.176906  0.000000  0.000000  1
  As  As26  1  0.000000  0.176906  0.000000  1
  As  As27  1  0.173911  0.481815  0.500000  1
  As  As28  1  0.518185  0.692096  0.500000  1
  As  As29  1  0.307904  0.826089  0.500000  1
  As  As30  1  0.692096  0.518185  0.500000  1
  As  As31  1  0.826089  0.307904  0.500000  1
  As  As32  1  0.481815  0.173911  0.500000  1
  As  As33  1  0.352077  0.352077  0.000000  1
  As  As34  1  0.647923  0.000000  0.000000  1
  As  As35  1  0.000000  0.647923  0.000000  1
