# generated using pymatgen
data_TmCo2P3IrRh2
_symmetry_space_group_name_H-M   'P 1'
_cell_length_a   3.80123900
_cell_length_b   10.60823700
_cell_length_c   12.20173600
_cell_angle_alpha   90.00000000
_cell_angle_beta   90.00000000
_cell_angle_gamma   90.00000000
_symmetry_Int_Tables_number   1
_chemical_formula_structural   TmCo2P3IrRh2
_chemical_formula_sum   'Tm4 Co8 P12 Ir4 Rh8'
_cell_volume   492.02822254
_cell_formula_units_Z   4
loop_
 _symmetry_equiv_pos_site_id
 _symmetry_equiv_pos_as_xyz
  1  'x, y, z'
loop_
 _atom_site_type_symbol
 _atom_site_label
 _atom_site_symmetry_multiplicity
 _atom_site_fract_x
 _atom_site_fract_y
 _atom_site_fract_z
 _atom_site_occupancy
  Tm  Tm0  1  0.250000  0.583157  0.709683  1
  Tm  Tm1  1  0.250000  0.916843  0.209683  1
  Tm  Tm2  1  0.750000  0.416843  0.290317  1
  Tm  Tm3  1  0.750000  0.083157  0.790317  1
  Co  Co4  1  0.250000  0.884030  0.696822  1
  Co  Co5  1  0.250000  0.615970  0.196822  1
  Co  Co6  1  0.750000  0.115970  0.303178  1
  Co  Co7  1  0.750000  0.384030  0.803178  1
  Co  Co8  1  0.250000  0.464036  0.932728  1
  Co  Co9  1  0.250000  0.035964  0.432728  1
  Co  Co10  1  0.750000  0.535964  0.067272  1
  Co  Co11  1  0.750000  0.964036  0.567272  1
  P  P12  1  0.250000  0.430887  0.111043  1
  P  P13  1  0.250000  0.069113  0.611043  1
  P  P14  1  0.750000  0.569113  0.888957  1
  P  P15  1  0.750000  0.930887  0.388957  1
  P  P16  1  0.250000  0.273506  0.871046  1
  P  P17  1  0.250000  0.226494  0.371046  1
  P  P18  1  0.750000  0.726494  0.128954  1
  P  P19  1  0.750000  0.773506  0.628954  1
  P  P20  1  0.250000  0.598877  0.379324  1
  P  P21  1  0.250000  0.901123  0.879324  1
  P  P22  1  0.750000  0.401123  0.620676  1
  P  P23  1  0.750000  0.098877  0.120676  1
  Ir  Ir24  1  0.250000  0.226361  0.180020  1
  Ir  Ir25  1  0.250000  0.273639  0.680020  1
  Ir  Ir26  1  0.750000  0.773639  0.819980  1
  Ir  Ir27  1  0.750000  0.726361  0.319980  1
  Rh  Rh28  1  0.250000  0.718890  0.990786  1
  Rh  Rh29  1  0.250000  0.781110  0.490786  1
  Rh  Rh30  1  0.750000  0.281110  0.009214  1
  Rh  Rh31  1  0.750000  0.218890  0.509214  1
  Rh  Rh32  1  0.250000  0.409681  0.476404  1
  Rh  Rh33  1  0.250000  0.090319  0.976404  1
  Rh  Rh34  1  0.750000  0.590319  0.523596  1
  Rh  Rh35  1  0.750000  0.909681  0.023596  1
