# generated using pymatgen
data_Tm10GaSi4As
_symmetry_space_group_name_H-M   'P 1'
_cell_length_a   8.34014314
_cell_length_b   8.33783026
_cell_length_c   6.24565800
_cell_angle_alpha   90.00000000
_cell_angle_beta   90.00000000
_cell_angle_gamma   120.06035512
_symmetry_Int_Tables_number   1
_chemical_formula_structural   Tm10GaSi4As
_chemical_formula_sum   'Tm10 Ga1 Si4 As1'
_cell_volume   375.89879654
_cell_formula_units_Z   1
loop_
 _symmetry_equiv_pos_site_id
 _symmetry_equiv_pos_as_xyz
  1  'x, y, z'
loop_
 _atom_site_type_symbol
 _atom_site_label
 _atom_site_symmetry_multiplicity
 _atom_site_fract_x
 _atom_site_fract_y
 _atom_site_fract_z
 _atom_site_occupancy
  Tm  Tm0  1  0.667596  0.336394  0.502232  1
  Tm  Tm1  1  0.329993  0.663690  0.502173  1
  Tm  Tm2  1  0.329993  0.663690  0.997827  1
  Tm  Tm3  1  0.667596  0.336394  0.997768  1
  Tm  Tm4  1  0.761062  0.756846  0.250000  1
  Tm  Tm5  1  0.241057  0.000017  0.250000  1
  Tm  Tm6  1  0.004160  0.245251  0.250000  1
  Tm  Tm7  1  0.240724  0.241628  0.750000  1
  Tm  Tm8  1  0.757433  0.999215  0.750000  1
  Tm  Tm9  1  0.998565  0.757187  0.750000  1
  Ga  Ga10  1  0.397886  0.397347  0.250000  1
  Si  Si11  1  0.000430  0.605129  0.250000  1
  Si  Si12  1  0.603871  0.605494  0.750000  1
  Si  Si13  1  0.393200  0.999058  0.750000  1
  Si  Si14  1  0.997441  0.392782  0.750000  1
  As  As15  1  0.608994  0.999880  0.250000  1
