# generated using pymatgen
data_Hf9TiFeTc3
_symmetry_space_group_name_H-M   'P 1'
_cell_length_a   8.34870500
_cell_length_b   8.62432315
_cell_length_c   8.62432203
_cell_angle_alpha   120.00054361
_cell_angle_beta   90.00000000
_cell_angle_gamma   90.00000000
_symmetry_Int_Tables_number   1
_chemical_formula_structural   Hf9TiFeTc3
_chemical_formula_sum   'Hf18 Ti2 Fe2 Tc6'
_cell_volume   537.77096924
_cell_formula_units_Z   2
loop_
 _symmetry_equiv_pos_site_id
 _symmetry_equiv_pos_as_xyz
  1  'x, y, z'
loop_
 _atom_site_type_symbol
 _atom_site_label
 _atom_site_symmetry_multiplicity
 _atom_site_fract_x
 _atom_site_fract_y
 _atom_site_fract_z
 _atom_site_occupancy
  Hf  Hf0  1  0.558303  0.798328  0.596669  1
  Hf  Hf1  1  0.558309  0.798361  0.201639  1
  Hf  Hf2  1  0.558303  0.403331  0.201672  1
  Hf  Hf3  1  0.441697  0.201672  0.403331  1
  Hf  Hf4  1  0.441691  0.201639  0.798361  1
  Hf  Hf5  1  0.441697  0.596669  0.798328  1
  Hf  Hf6  1  0.058303  0.201672  0.403331  1
  Hf  Hf7  1  0.058309  0.201639  0.798361  1
  Hf  Hf8  1  0.058303  0.596669  0.798328  1
  Hf  Hf9  1  0.941697  0.798328  0.596669  1
  Hf  Hf10  1  0.941691  0.798361  0.201639  1
  Hf  Hf11  1  0.941697  0.403331  0.201672  1
  Hf  Hf12  1  0.750000  0.458292  0.916607  1
  Hf  Hf13  1  0.750000  0.458297  0.541703  1
  Hf  Hf14  1  0.750000  0.083393  0.541708  1
  Hf  Hf15  1  0.250000  0.541708  0.083393  1
  Hf  Hf16  1  0.250000  0.541703  0.458297  1
  Hf  Hf17  1  0.250000  0.916607  0.458292  1
  Ti  Ti18  1  0.500000  0.000000  0.000000  1
  Ti  Ti19  1  0.000000  0.000000  0.000000  1
  Fe  Fe20  1  0.750000  0.666675  0.333325  1
  Fe  Fe21  1  0.250000  0.333325  0.666675  1
  Tc  Tc22  1  0.750000  0.114353  0.228683  1
  Tc  Tc23  1  0.750000  0.114354  0.885646  1
  Tc  Tc24  1  0.750000  0.771317  0.885647  1
  Tc  Tc25  1  0.250000  0.885647  0.771317  1
  Tc  Tc26  1  0.250000  0.885646  0.114354  1
  Tc  Tc27  1  0.250000  0.228683  0.114353  1
