# generated using pymatgen
data_Th2TaOs3
_symmetry_space_group_name_H-M   'P 1'
_cell_length_a   5.84584228
_cell_length_b   5.30531164
_cell_length_c   5.84584200
_cell_angle_alpha   56.56831204
_cell_angle_beta   60.00000158
_cell_angle_gamma   56.56830397
_symmetry_Int_Tables_number   1
_chemical_formula_structural   Th2TaOs3
_chemical_formula_sum   'Th2 Ta1 Os3'
_cell_volume   121.14277906
_cell_formula_units_Z   1
loop_
 _symmetry_equiv_pos_site_id
 _symmetry_equiv_pos_as_xyz
  1  'x, y, z'
loop_
 _atom_site_type_symbol
 _atom_site_label
 _atom_site_symmetry_multiplicity
 _atom_site_fract_x
 _atom_site_fract_y
 _atom_site_fract_z
 _atom_site_occupancy
  Th  Th0  1  0.752005  0.743985  0.752005  1
  Th  Th1  1  0.497995  0.506015  0.497995  1
  Ta  Ta2  1  0.125000  0.625000  0.125000  1
  Os  Os3  1  0.125000  0.125000  0.125000  1
  Os  Os4  1  0.625000  0.125000  0.125000  1
  Os  Os5  1  0.125000  0.125000  0.625000  1
