# generated using pymatgen
data_Dy2HoZr3(SnIr)6
_symmetry_space_group_name_H-M   'P 1'
_cell_length_a   7.47969700
_cell_length_b   7.47918803
_cell_length_c   7.62331400
_cell_angle_alpha   90.00000000
_cell_angle_beta   90.00000000
_cell_angle_gamma   120.00194316
_symmetry_Int_Tables_number   1
_chemical_formula_structural   Dy2HoZr3(SnIr)6
_chemical_formula_sum   'Dy2 Ho1 Zr3 Sn6 Ir6'
_cell_volume   369.32133155
_cell_formula_units_Z   1
loop_
 _symmetry_equiv_pos_site_id
 _symmetry_equiv_pos_as_xyz
  1  'x, y, z'
loop_
 _atom_site_type_symbol
 _atom_site_label
 _atom_site_symmetry_multiplicity
 _atom_site_fract_x
 _atom_site_fract_y
 _atom_site_fract_z
 _atom_site_occupancy
  Dy  Dy0  1  0.592910  0.593924  0.250000  1
  Dy  Dy1  1  0.001004  0.407086  0.250000  1
  Ho  Ho2  1  0.406028  0.998987  0.250000  1
  Zr  Zr3  1  0.607066  0.607882  0.750000  1
  Zr  Zr4  1  0.000820  0.392936  0.750000  1
  Zr  Zr5  1  0.392121  0.999181  0.750000  1
  Sn  Sn6  1  0.266111  0.265012  0.505530  1
  Sn  Sn7  1  0.266111  0.265012  0.994470  1
  Sn  Sn8  1  0.734925  0.001062  0.994500  1
  Sn  Sn9  1  0.998974  0.733925  0.505530  1
  Sn  Sn10  1  0.734925  0.001062  0.505500  1
  Sn  Sn11  1  0.998974  0.733925  0.994470  1
  Ir  Ir12  1  0.666624  0.333276  0.533372  1
  Ir  Ir13  1  0.666624  0.333276  0.966628  1
  Ir  Ir14  1  0.333348  0.666727  0.968513  1
  Ir  Ir15  1  0.333348  0.666727  0.531487  1
  Ir  Ir16  1  0.000010  0.000000  0.750000  1
  Ir  Ir17  1  0.000081  0.000000  0.250000  1
