# generated using pymatgen
data_Ca12Ti3V8(Ge3O16)3
_symmetry_space_group_name_H-M   'P 1'
_cell_length_a   10.86183553
_cell_length_b   10.86417508
_cell_length_c   10.86263158
_cell_angle_alpha   109.54322619
_cell_angle_beta   109.33778534
_cell_angle_gamma   109.56259227
_symmetry_Int_Tables_number   1
_chemical_formula_structural   Ca12Ti3V8(Ge3O16)3
_chemical_formula_sum   'Ca12 Ti3 V8 Ge9 O48'
_cell_volume   986.39534268
_cell_formula_units_Z   1
loop_
 _symmetry_equiv_pos_site_id
 _symmetry_equiv_pos_as_xyz
  1  'x, y, z'
loop_
 _atom_site_type_symbol
 _atom_site_label
 _atom_site_symmetry_multiplicity
 _atom_site_fract_x
 _atom_site_fract_y
 _atom_site_fract_z
 _atom_site_occupancy
  Ca  Ca0  1  0.249602  0.875505  0.624629  1
  Ca  Ca1  1  0.749243  0.625841  0.874083  1
  Ca  Ca2  1  0.623831  0.874558  0.749785  1
  Ca  Ca3  1  0.875114  0.625446  0.248637  1
  Ca  Ca4  1  0.623967  0.250006  0.874172  1
  Ca  Ca5  1  0.876253  0.751977  0.625501  1
  Ca  Ca6  1  0.750522  0.124413  0.375611  1
  Ca  Ca7  1  0.250087  0.373903  0.125660  1
  Ca  Ca8  1  0.375489  0.124695  0.250306  1
  Ca  Ca9  1  0.125698  0.375316  0.751462  1
  Ca  Ca10  1  0.376217  0.749848  0.125331  1
  Ca  Ca11  1  0.124044  0.248390  0.374750  1
  Ti  Ti12  1  0.124671  0.749544  0.875407  1
  Ti  Ti13  1  0.875021  0.249889  0.125048  1
  Ti  Ti14  1  0.625260  0.375205  0.249696  1
  V  V15  1  0.498225  0.499609  0.500001  1
  V  V16  1  0.500014  0.000036  0.500039  1
  V  V17  1  0.002591  0.502140  0.501556  1
  V  V18  1  0.500343  0.500405  0.998597  1
  V  V19  1  0.999968  0.999958  0.500014  1
  V  V20  1  0.999940  0.499941  0.999998  1
  V  V21  1  0.499272  0.997407  0.999590  1
  V  V22  1  0.000044  0.000036  0.999980  1
  Ge  Ge23  1  0.750632  0.875745  0.125248  1
  Ge  Ge24  1  0.874249  0.124114  0.749280  1
  Ge  Ge25  1  0.250652  0.625495  0.375007  1
  Ge  Ge26  1  0.749675  0.375332  0.625145  1
  Ge  Ge27  1  0.249972  0.124297  0.874545  1
  Ge  Ge28  1  0.125741  0.875868  0.250697  1
  Ge  Ge29  1  0.374595  0.625094  0.750470  1
  Ge  Ge30  1  0.624868  0.749339  0.374067  1
  Ge  Ge31  1  0.374346  0.250110  0.625419  1
  O  O32  1  0.413801  0.813461  0.796520  1
  O  O33  1  0.879792  0.400903  0.082896  1
  O  O34  1  0.101775  0.982034  0.686887  1
  O  O35  1  0.517643  0.620787  0.705579  1
  O  O36  1  0.685309  0.083516  0.701914  1
  O  O37  1  0.618395  0.701711  0.515571  1
  O  O38  1  0.620102  0.417767  0.099132  1
  O  O39  1  0.701459  0.516191  0.617613  1
  O  O40  1  0.818705  0.520053  0.400167  1
  O  O41  1  0.978515  0.796655  0.879785  1
  O  O42  1  0.797841  0.883139  0.983804  1
  O  O43  1  0.703850  0.686662  0.083014  1
  O  O44  1  0.414417  0.102484  0.619841  1
  O  O45  1  0.398480  0.814885  0.517165  1
  O  O46  1  0.085160  0.704091  0.683600  1
  O  O47  1  0.102367  0.619001  0.414668  1
  O  O48  1  0.516622  0.399016  0.813492  1
  O  O49  1  0.082708  0.881058  0.397530  1
  O  O50  1  0.984772  0.687252  0.102000  1
  O  O51  1  0.186265  0.482763  0.602905  1
  O  O52  1  0.682010  0.098601  0.979367  1
  O  O53  1  0.796595  0.417256  0.813869  1
  O  O54  1  0.397696  0.083583  0.881538  1
  O  O55  1  0.879142  0.982489  0.796165  1
  O  O56  1  0.584222  0.181726  0.200980  1
  O  O57  1  0.120013  0.598478  0.917233  1
  O  O58  1  0.898323  0.018075  0.313017  1
  O  O59  1  0.478885  0.379176  0.296967  1
  O  O60  1  0.314711  0.916538  0.298303  1
  O  O61  1  0.380141  0.297153  0.483680  1
  O  O62  1  0.379897  0.585025  0.898066  1
  O  O63  1  0.296729  0.483636  0.382299  1
  O  O64  1  0.120644  0.017294  0.203564  1
  O  O65  1  0.602454  0.915152  0.118696  1
  O  O66  1  0.203681  0.582962  0.186221  1
  O  O67  1  0.185420  0.202968  0.584066  1
  O  O68  1  0.317502  0.900284  0.021143  1
  O  O69  1  0.015427  0.312693  0.898008  1
  O  O70  1  0.917240  0.119104  0.602438  1
  O  O71  1  0.483559  0.600888  0.184998  1
  O  O72  1  0.898287  0.382447  0.585598  1
  O  O73  1  0.917154  0.297909  0.318269  1
  O  O74  1  0.601932  0.185683  0.483015  1
  O  O75  1  0.585348  0.897399  0.380147  1
  O  O76  1  0.297252  0.313719  0.916691  1
  O  O77  1  0.202476  0.117117  0.015965  1
  O  O78  1  0.021135  0.203105  0.120035  1
  O  O79  1  0.814003  0.796647  0.415848  1
