# generated using pymatgen
data_Zr5Cu3(Ni4P3)4
_symmetry_space_group_name_H-M   'P 1'
_cell_length_a   11.96422800
_cell_length_b   11.96422940
_cell_length_c   3.67326400
_cell_angle_alpha   90.00000000
_cell_angle_beta   90.00000000
_cell_angle_gamma   119.99999613
_symmetry_Int_Tables_number   1
_chemical_formula_structural   Zr5Cu3(Ni4P3)4
_chemical_formula_sum   'Zr5 Cu3 Ni16 P12'
_cell_volume   455.35719517
_cell_formula_units_Z   1
loop_
 _symmetry_equiv_pos_site_id
 _symmetry_equiv_pos_as_xyz
  1  'x, y, z'
loop_
 _atom_site_type_symbol
 _atom_site_label
 _atom_site_symmetry_multiplicity
 _atom_site_fract_x
 _atom_site_fract_y
 _atom_site_fract_z
 _atom_site_occupancy
  Zr  Zr0  1  0.666667  0.333333  0.000000  1
  Zr  Zr1  1  0.333333  0.666667  0.000000  1
  Zr  Zr2  1  0.817438  0.817438  0.500000  1
  Zr  Zr3  1  0.182562  0.000000  0.500000  1
  Zr  Zr4  1  0.000000  0.182562  0.500000  1
  Cu  Cu5  1  0.448263  0.448263  0.000000  1
  Cu  Cu6  1  0.551737  0.000000  0.000000  1
  Cu  Cu7  1  0.000000  0.551737  0.000000  1
  Ni  Ni8  1  0.197195  0.378124  0.000000  1
  Ni  Ni9  1  0.180929  0.802805  0.000000  1
  Ni  Ni10  1  0.819071  0.621876  0.000000  1
  Ni  Ni11  1  0.802805  0.180929  0.000000  1
  Ni  Ni12  1  0.378124  0.197195  0.000000  1
  Ni  Ni13  1  0.123473  0.483488  0.500000  1
  Ni  Ni14  1  0.360015  0.876527  0.500000  1
  Ni  Ni15  1  0.516512  0.639985  0.500000  1
  Ni  Ni16  1  0.639985  0.516512  0.500000  1
  Ni  Ni17  1  0.876527  0.360015  0.500000  1
  Ni  Ni18  1  0.483488  0.123473  0.500000  1
  Ni  Ni19  1  0.000000  0.000000  0.000000  1
  Ni  Ni20  1  0.715991  0.000000  0.500000  1
  Ni  Ni21  1  0.000000  0.715991  0.500000  1
  Ni  Ni22  1  0.621876  0.819071  0.000000  1
  Ni  Ni23  1  0.284009  0.284009  0.500000  1
  P  P24  1  0.641695  0.641695  0.000000  1
  P  P25  1  0.358305  0.000000  0.000000  1
  P  P26  1  0.000000  0.358305  0.000000  1
  P  P27  1  0.483180  0.311953  0.500000  1
  P  P28  1  0.688047  0.171227  0.500000  1
  P  P29  1  0.828773  0.516820  0.500000  1
  P  P30  1  0.516820  0.828773  0.500000  1
  P  P31  1  0.171227  0.688047  0.500000  1
  P  P32  1  0.822825  0.000000  0.000000  1
  P  P33  1  0.000000  0.822825  0.000000  1
  P  P34  1  0.311953  0.483180  0.500000  1
  P  P35  1  0.177175  0.177175  0.000000  1
