# generated using pymatgen
data_Pr8Ho7Mg5Sn16
_symmetry_space_group_name_H-M   'P 1'
_cell_length_a   7.83936472
_cell_length_b   8.36699230
_cell_length_c   15.53700400
_cell_angle_alpha   90.02128992
_cell_angle_beta   89.82464143
_cell_angle_gamma   89.89257514
_symmetry_Int_Tables_number   1
_chemical_formula_structural   Pr8Ho7Mg5Sn16
_chemical_formula_sum   'Pr8 Ho7 Mg5 Sn16'
_cell_volume   1019.09504163
_cell_formula_units_Z   1
loop_
 _symmetry_equiv_pos_site_id
 _symmetry_equiv_pos_as_xyz
  1  'x, y, z'
loop_
 _atom_site_type_symbol
 _atom_site_label
 _atom_site_symmetry_multiplicity
 _atom_site_fract_x
 _atom_site_fract_y
 _atom_site_fract_z
 _atom_site_occupancy
  Pr  Pr0  1  0.498711  0.317616  0.904063  1
  Pr  Pr1  1  0.999844  0.179410  0.596361  1
  Pr  Pr2  1  0.504122  0.679468  0.404845  1
  Pr  Pr3  1  0.002111  0.818412  0.093691  1
  Pr  Pr4  1  0.500672  0.680454  0.092359  1
  Pr  Pr5  1  0.003465  0.821031  0.404114  1
  Pr  Pr6  1  0.496139  0.318101  0.596952  1
  Pr  Pr7  1  0.998548  0.182188  0.902302  1
  Ho  Ho8  1  0.832977  0.672376  0.627800  1
  Ho  Ho9  1  0.664794  0.172151  0.372784  1
  Ho  Ho10  1  0.165652  0.330243  0.125024  1
  Ho  Ho11  1  0.663944  0.169914  0.126115  1
  Ho  Ho12  1  0.164732  0.327893  0.372423  1
  Ho  Ho13  1  0.339006  0.825887  0.627511  1
  Ho  Ho14  1  0.835409  0.670495  0.873010  1
  Mg  Mg15  1  0.326867  0.837986  0.878279  1
  Mg  Mg16  1  0.161004  0.496750  0.749725  1
  Mg  Mg17  1  0.663790  0.002171  0.752215  1
  Mg  Mg18  1  0.837204  0.503905  0.249912  1
  Mg  Mg19  1  0.337493  0.994727  0.250041  1
  Sn  Sn20  1  0.327031  0.038071  0.038467  1
  Sn  Sn21  1  0.824849  0.460085  0.462918  1
  Sn  Sn22  1  0.677980  0.960964  0.538493  1
  Sn  Sn23  1  0.174962  0.540137  0.957498  1
  Sn  Sn24  1  0.675102  0.960919  0.961288  1
  Sn  Sn25  1  0.175288  0.539612  0.537703  1
  Sn  Sn26  1  0.324441  0.039687  0.462595  1
  Sn  Sn27  1  0.824805  0.459884  0.037786  1
  Sn  Sn28  1  0.522446  0.611566  0.755754  1
  Sn  Sn29  1  0.032830  0.887974  0.751100  1
  Sn  Sn30  1  0.473395  0.394145  0.248739  1
  Sn  Sn31  1  0.974397  0.106992  0.248751  1
  Sn  Sn32  1  0.300380  0.135822  0.751212  1
  Sn  Sn33  1  0.797118  0.363235  0.749875  1
  Sn  Sn34  1  0.699598  0.861683  0.249094  1
  Sn  Sn35  1  0.198893  0.638042  0.249205  1
