# generated using pymatgen
data_Tm8Mn3CrC8
_symmetry_space_group_name_H-M   'P 1'
_cell_length_a   4.95942700
_cell_length_b   6.29801640
_cell_length_c   9.58092971
_cell_angle_alpha   90.10046372
_cell_angle_beta   90.00000000
_cell_angle_gamma   90.00000000
_symmetry_Int_Tables_number   1
_chemical_formula_structural   Tm8Mn3CrC8
_chemical_formula_sum   'Tm8 Mn3 Cr1 C8'
_cell_volume   299.25559287
_cell_formula_units_Z   1
loop_
 _symmetry_equiv_pos_site_id
 _symmetry_equiv_pos_as_xyz
  1  'x, y, z'
loop_
 _atom_site_type_symbol
 _atom_site_label
 _atom_site_symmetry_multiplicity
 _atom_site_fract_x
 _atom_site_fract_y
 _atom_site_fract_z
 _atom_site_occupancy
  Tm  Tm0  1  0.250000  0.817015  0.944556  1
  Tm  Tm1  1  0.250000  0.317763  0.554821  1
  Tm  Tm2  1  0.750000  0.181942  0.055986  1
  Tm  Tm3  1  0.750000  0.682839  0.443680  1
  Tm  Tm4  1  0.250000  0.471904  0.216511  1
  Tm  Tm5  1  0.250000  0.973462  0.282035  1
  Tm  Tm6  1  0.750000  0.529202  0.781615  1
  Tm  Tm7  1  0.750000  0.027220  0.716354  1
  Mn  Mn8  1  0.250000  0.772082  0.640519  1
  Mn  Mn9  1  0.750000  0.727437  0.141978  1
  Mn  Mn10  1  0.750000  0.228059  0.358169  1
  Cr  Cr11  1  0.250000  0.272944  0.859976  1
  C  C12  1  0.250000  0.037205  0.738258  1
  C  C13  1  0.250000  0.541123  0.760484  1
  C  C14  1  0.750000  0.961369  0.261028  1
  C  C15  1  0.750000  0.461594  0.239646  1
  C  C16  1  0.250000  0.688537  0.461622  1
  C  C17  1  0.250000  0.186879  0.042055  1
  C  C18  1  0.750000  0.311178  0.537903  1
  C  C19  1  0.750000  0.810248  0.962801  1
