# generated using pymatgen
data_Ba4Sc(TcO6)2
_symmetry_space_group_name_H-M   'P 1'
_cell_length_a   9.98934021
_cell_length_b   9.98934052
_cell_length_c   9.98934008
_cell_angle_alpha   33.83418348
_cell_angle_beta   33.83417842
_cell_angle_gamma   33.83418438
_symmetry_Int_Tables_number   1
_chemical_formula_structural   Ba4Sc(TcO6)2
_chemical_formula_sum   'Ba4 Sc1 Tc2 O12'
_cell_volume   275.38271485
_cell_formula_units_Z   1
loop_
 _symmetry_equiv_pos_site_id
 _symmetry_equiv_pos_as_xyz
  1  'x, y, z'
loop_
 _atom_site_type_symbol
 _atom_site_label
 _atom_site_symmetry_multiplicity
 _atom_site_fract_x
 _atom_site_fract_y
 _atom_site_fract_z
 _atom_site_occupancy
  Ba  Ba0  1  0.709005  0.709005  0.709005  1
  Ba  Ba1  1  0.290995  0.290995  0.290995  1
  Ba  Ba2  1  0.868733  0.868733  0.868733  1
  Ba  Ba3  1  0.131267  0.131267  0.131267  1
  Sc  Sc4  1  0.000000  0.000000  0.000000  1
  Tc  Tc5  1  0.579781  0.579781  0.579781  1
  Tc  Tc6  1  0.420219  0.420219  0.420219  1
  O  O7  1  0.216776  0.696099  0.216776  1
  O  O8  1  0.216776  0.216776  0.696099  1
  O  O9  1  0.696099  0.216776  0.216776  1
  O  O10  1  0.783224  0.303901  0.783224  1
  O  O11  1  0.783224  0.783224  0.303901  1
  O  O12  1  0.303901  0.783224  0.783224  1
  O  O13  1  0.389046  0.859127  0.389046  1
  O  O14  1  0.389046  0.389046  0.859127  1
  O  O15  1  0.859127  0.389046  0.389046  1
  O  O16  1  0.610954  0.140873  0.610954  1
  O  O17  1  0.610954  0.610954  0.140873  1
  O  O18  1  0.140873  0.610954  0.610954  1
