# generated using pymatgen
data_SrAl3Zn
_symmetry_space_group_name_H-M   'P 1'
_cell_length_a   4.27486969
_cell_length_b   4.27486955
_cell_length_c   6.55476072
_cell_angle_alpha   70.96844638
_cell_angle_beta   70.96845096
_cell_angle_gamma   90.00000001
_symmetry_Int_Tables_number   1
_chemical_formula_structural   SrAl3Zn
_chemical_formula_sum   'Sr1 Al3 Zn1'
_cell_volume   106.28735539
_cell_formula_units_Z   1
loop_
 _symmetry_equiv_pos_site_id
 _symmetry_equiv_pos_as_xyz
  1  'x, y, z'
loop_
 _atom_site_type_symbol
 _atom_site_label
 _atom_site_symmetry_multiplicity
 _atom_site_fract_x
 _atom_site_fract_y
 _atom_site_fract_z
 _atom_site_occupancy
  Sr  Sr0  1  0.000998  0.000998  0.998004  1
  Al  Al1  1  0.747828  0.247828  0.504345  1
  Al  Al2  1  0.247828  0.747828  0.504345  1
  Al  Al3  1  0.389817  0.389817  0.220365  1
  Zn  Zn4  1  0.613529  0.613529  0.772942  1
