# generated using pymatgen
data_Tb3Lu4Th(CdNi)2
_symmetry_space_group_name_H-M   'P 1'
_cell_length_a   9.48983501
_cell_length_b   9.48983415
_cell_length_c   9.50489400
_cell_angle_alpha   59.94748340
_cell_angle_beta   59.94748639
_cell_angle_gamma   60.16548504
_symmetry_Int_Tables_number   1
_chemical_formula_structural   Tb3Lu4Th(CdNi)2
_chemical_formula_sum   'Tb6 Lu8 Th2 Cd4 Ni4'
_cell_volume   605.54123548
_cell_formula_units_Z   2
loop_
 _symmetry_equiv_pos_site_id
 _symmetry_equiv_pos_as_xyz
  1  'x, y, z'
loop_
 _atom_site_type_symbol
 _atom_site_label
 _atom_site_symmetry_multiplicity
 _atom_site_fract_x
 _atom_site_fract_y
 _atom_site_fract_z
 _atom_site_occupancy
  Tb  Tb0  1  0.937732  0.563844  0.564880  1
  Tb  Tb1  1  0.563844  0.937732  0.933543  1
  Tb  Tb2  1  0.563844  0.937732  0.564880  1
  Tb  Tb3  1  0.937732  0.563844  0.933543  1
  Tb  Tb4  1  0.563099  0.563099  0.936901  1
  Tb  Tb5  1  0.939303  0.939303  0.560697  1
  Lu  Lu6  1  0.349460  0.950097  0.350222  1
  Lu  Lu7  1  0.950097  0.349460  0.350222  1
  Lu  Lu8  1  0.814349  0.187664  0.185162  1
  Lu  Lu9  1  0.187664  0.814349  0.812826  1
  Lu  Lu10  1  0.187664  0.814349  0.185162  1
  Lu  Lu11  1  0.814349  0.187664  0.812826  1
  Lu  Lu12  1  0.184567  0.184567  0.815433  1
  Lu  Lu13  1  0.814230  0.814230  0.185770  1
  Th  Th14  1  0.343003  0.343003  0.352847  1
  Th  Th15  1  0.343003  0.343003  0.961148  1
  Cd  Cd16  1  0.583209  0.583209  0.577911  1
  Cd  Cd17  1  0.583209  0.583209  0.255669  1
  Cd  Cd18  1  0.584559  0.257343  0.579048  1
  Cd  Cd19  1  0.257343  0.584559  0.579048  1
  Ni  Ni20  1  0.140446  0.140446  0.145474  1
  Ni  Ni21  1  0.140446  0.140446  0.573635  1
  Ni  Ni22  1  0.143742  0.573106  0.141576  1
  Ni  Ni23  1  0.573106  0.143742  0.141576  1
