# generated using pymatgen
data_SrDy2Er(Pt2O7)2
_symmetry_space_group_name_H-M   'P 1'
_cell_length_a   7.31415882
_cell_length_b   7.33080032
_cell_length_c   7.31034391
_cell_angle_alpha   60.12386955
_cell_angle_beta   59.98273097
_cell_angle_gamma   60.07505662
_symmetry_Int_Tables_number   1
_chemical_formula_structural   SrDy2Er(Pt2O7)2
_chemical_formula_sum   'Sr1 Dy2 Er1 Pt4 O14'
_cell_volume   277.54462802
_cell_formula_units_Z   1
loop_
 _symmetry_equiv_pos_site_id
 _symmetry_equiv_pos_as_xyz
  1  'x, y, z'
loop_
 _atom_site_type_symbol
 _atom_site_label
 _atom_site_symmetry_multiplicity
 _atom_site_fract_x
 _atom_site_fract_y
 _atom_site_fract_z
 _atom_site_occupancy
  Sr  Sr0  1  0.625000  0.125000  0.625000  1
  Dy  Dy1  1  0.625000  0.625000  0.625000  1
  Dy  Dy2  1  0.125000  0.625000  0.625000  1
  Er  Er3  1  0.625000  0.625000  0.125000  1
  Pt  Pt4  1  0.625000  0.125000  0.125000  1
  Pt  Pt5  1  0.125000  0.125000  0.125000  1
  Pt  Pt6  1  0.125000  0.625000  0.125000  1
  Pt  Pt7  1  0.125000  0.125000  0.625000  1
  O  O8  1  0.036898  0.463943  0.462260  1
  O  O9  1  0.787562  0.785738  0.212248  1
  O  O10  1  0.790986  0.224246  0.193784  1
  O  O11  1  0.755859  0.727870  0.760412  1
  O  O12  1  0.035548  0.464262  0.037752  1
  O  O13  1  0.458510  0.027380  0.458607  1
  O  O14  1  0.055503  0.027380  0.458607  1
  O  O15  1  0.494141  0.522130  0.489588  1
  O  O16  1  0.194497  0.222620  0.791393  1
  O  O17  1  0.214452  0.785738  0.212248  1
  O  O18  1  0.791490  0.222620  0.791393  1
  O  O19  1  0.459014  0.025754  0.056216  1
  O  O20  1  0.462438  0.464262  0.037752  1
  O  O21  1  0.213102  0.786057  0.787740  1
