# generated using pymatgen
data_Zr6Co12Si7Ir4
_symmetry_space_group_name_H-M   'P 1'
_cell_length_a   8.20795788
_cell_length_b   8.20795765
_cell_length_c   8.20795700
_cell_angle_alpha   59.99999860
_cell_angle_beta   59.99999951
_cell_angle_gamma   59.99999411
_symmetry_Int_Tables_number   1
_chemical_formula_structural   Zr6Co12Si7Ir4
_chemical_formula_sum   'Zr6 Co12 Si7 Ir4'
_cell_volume   391.01217061
_cell_formula_units_Z   1
loop_
 _symmetry_equiv_pos_site_id
 _symmetry_equiv_pos_as_xyz
  1  'x, y, z'
loop_
 _atom_site_type_symbol
 _atom_site_label
 _atom_site_symmetry_multiplicity
 _atom_site_fract_x
 _atom_site_fract_y
 _atom_site_fract_z
 _atom_site_occupancy
  Zr  Zr0  1  0.797236  0.797236  0.202764  1
  Zr  Zr1  1  0.797236  0.202764  0.797236  1
  Zr  Zr2  1  0.202764  0.202764  0.797236  1
  Zr  Zr3  1  0.797236  0.202764  0.202764  1
  Zr  Zr4  1  0.202764  0.797236  0.202764  1
  Zr  Zr5  1  0.202764  0.797236  0.797236  1
  Co  Co6  1  0.378737  0.863789  0.378737  1
  Co  Co7  1  0.863789  0.378737  0.378737  1
  Co  Co8  1  0.378737  0.378737  0.863789  1
  Co  Co9  1  0.378737  0.378737  0.378737  1
  Co  Co10  1  0.502065  0.832645  0.832645  1
  Co  Co11  1  0.832645  0.502065  0.832645  1
  Co  Co12  1  0.173195  0.173195  0.480413  1
  Co  Co13  1  0.173195  0.173195  0.173195  1
  Co  Co14  1  0.832645  0.832645  0.502065  1
  Co  Co15  1  0.832645  0.832645  0.832645  1
  Co  Co16  1  0.173195  0.480413  0.173195  1
  Co  Co17  1  0.480413  0.173195  0.173195  1
  Si  Si18  1  0.500000  0.500000  0.500000  1
  Si  Si19  1  0.497063  0.497063  0.002935  1
  Si  Si20  1  0.497063  0.002935  0.497063  1
  Si  Si21  1  0.002937  0.002937  0.497061  1
  Si  Si22  1  0.002937  0.497061  0.002937  1
  Si  Si23  1  0.002935  0.497063  0.497063  1
  Si  Si24  1  0.497061  0.002937  0.002937  1
  Ir  Ir25  1  0.141242  0.619586  0.619586  1
  Ir  Ir26  1  0.619586  0.141242  0.619586  1
  Ir  Ir27  1  0.619586  0.619586  0.141242  1
  Ir  Ir28  1  0.619586  0.619586  0.619586  1
