# generated using pymatgen
data_Tb3Th11(TcOs2)2
_symmetry_space_group_name_H-M   'P 1'
_cell_length_a   9.87160437
_cell_length_b   9.96136119
_cell_length_c   6.37934885
_cell_angle_alpha   89.90334475
_cell_angle_beta   90.13091244
_cell_angle_gamma   120.24831756
_symmetry_Int_Tables_number   1
_chemical_formula_structural   Tb3Th11(TcOs2)2
_chemical_formula_sum   'Tb3 Th11 Tc2 Os4'
_cell_volume   541.90112386
_cell_formula_units_Z   1
loop_
 _symmetry_equiv_pos_site_id
 _symmetry_equiv_pos_as_xyz
  1  'x, y, z'
loop_
 _atom_site_type_symbol
 _atom_site_label
 _atom_site_symmetry_multiplicity
 _atom_site_fract_x
 _atom_site_fract_y
 _atom_site_fract_z
 _atom_site_occupancy
  Tb  Tb0  1  0.461559  0.535632  0.296239  1
  Tb  Tb1  1  0.073549  0.535675  0.299690  1
  Tb  Tb2  1  0.926302  0.461839  0.797491  1
  Th  Th3  1  0.251851  0.127760  0.510772  1
  Th  Th4  1  0.542423  0.080146  0.797206  1
  Th  Th5  1  0.748528  0.873398  0.013648  1
  Th  Th6  1  0.668237  0.335134  0.272112  1
  Th  Th7  1  0.123588  0.869494  0.010110  1
  Th  Th8  1  0.462429  0.921601  0.297796  1
  Th  Th9  1  0.537859  0.466148  0.798570  1
  Th  Th10  1  0.875132  0.129803  0.511234  1
  Th  Th11  1  0.122613  0.251804  0.013662  1
  Th  Th12  1  0.874840  0.749393  0.511016  1
  Th  Th13  1  0.331883  0.664700  0.770628  1
  Tc  Tc14  1  0.812057  0.634805  0.045096  1
  Tc  Tc15  1  0.812212  0.175636  0.046443  1
  Os  Os16  1  0.628780  0.813555  0.548349  1
  Os  Os17  1  0.370147  0.186035  0.043207  1
  Os  Os18  1  0.187113  0.369001  0.554960  1
  Os  Os19  1  0.188897  0.818440  0.545769  1
