# generated using pymatgen
data_Tb8Ti3Si16Mo5W4
_symmetry_space_group_name_H-M   'P 1'
_cell_length_a   6.92100474
_cell_length_b   6.92293579
_cell_length_c   12.85272097
_cell_angle_alpha   89.95542225
_cell_angle_beta   89.98273416
_cell_angle_gamma   89.88121014
_symmetry_Int_Tables_number   1
_chemical_formula_structural   Tb8Ti3Si16Mo5W4
_chemical_formula_sum   'Tb8 Ti3 Si16 Mo5 W4'
_cell_volume   615.81951166
_cell_formula_units_Z   1
loop_
 _symmetry_equiv_pos_site_id
 _symmetry_equiv_pos_as_xyz
  1  'x, y, z'
loop_
 _atom_site_type_symbol
 _atom_site_label
 _atom_site_symmetry_multiplicity
 _atom_site_fract_x
 _atom_site_fract_y
 _atom_site_fract_z
 _atom_site_occupancy
  Tb  Tb0  1  0.338470  0.001861  0.468419  1
  Tb  Tb1  1  0.496642  0.837886  0.719114  1
  Tb  Tb2  1  0.499784  0.162380  0.217472  1
  Tb  Tb3  1  0.837909  0.496904  0.280901  1
  Tb  Tb4  1  0.162322  0.499109  0.782612  1
  Tb  Tb5  1  0.660547  0.999339  0.968749  1
  Tb  Tb6  1  0.001841  0.338519  0.531591  1
  Tb  Tb7  1  0.999358  0.660839  0.031340  1
  Ti  Ti8  1  0.169872  0.832620  0.248441  1
  Ti  Ti9  1  0.831917  0.170114  0.751326  1
  Ti  Ti10  1  0.669151  0.669274  0.499970  1
  Si  Si11  1  0.200329  0.127699  0.683900  1
  Si  Si12  1  0.375027  0.696843  0.934729  1
  Si  Si13  1  0.627286  0.299149  0.434108  1
  Si  Si14  1  0.697659  0.375171  0.065665  1
  Si  Si15  1  0.299044  0.627415  0.565886  1
  Si  Si16  1  0.797300  0.873630  0.184577  1
  Si  Si17  1  0.127496  0.200361  0.316038  1
  Si  Si18  1  0.873678  0.796959  0.815004  1
  Si  Si19  1  0.288692  0.963566  0.061817  1
  Si  Si20  1  0.539255  0.790354  0.313786  1
  Si  Si21  1  0.459152  0.210625  0.814611  1
  Si  Si22  1  0.790332  0.539575  0.686290  1
  Si  Si23  1  0.210774  0.459906  0.185703  1
  Si  Si24  1  0.710060  0.040776  0.563778  1
  Si  Si25  1  0.963897  0.287896  0.937743  1
  Si  Si26  1  0.040856  0.710085  0.436149  1
  Mo  Mo27  1  0.157997  0.002658  0.873431  1
  Mo  Mo28  1  0.494069  0.666068  0.125481  1
  Mo  Mo29  1  0.506358  0.339355  0.624853  1
  Mo  Mo30  1  0.665798  0.493497  0.874750  1
  Mo  Mo31  1  0.339311  0.506099  0.375090  1
  W  W32  1  0.331160  0.331568  0.000463  1
  W  W33  1  0.839542  0.993155  0.374592  1
  W  W34  1  0.003931  0.158731  0.126182  1
  W  W35  1  0.993183  0.840015  0.625440  1
