# generated using pymatgen
data_CaNd4Si3H
_symmetry_space_group_name_H-M   'P 1'
_cell_length_a   8.94151080
_cell_length_b   8.94151146
_cell_length_c   8.94151175
_cell_angle_alpha   128.63452663
_cell_angle_beta   128.63452933
_cell_angle_gamma   75.59934664
_symmetry_Int_Tables_number   1
_chemical_formula_structural   CaNd4Si3H
_chemical_formula_sum   'Ca2 Nd8 Si6 H2'
_cell_volume   424.38486253
_cell_formula_units_Z   2
loop_
 _symmetry_equiv_pos_site_id
 _symmetry_equiv_pos_as_xyz
  1  'x, y, z'
loop_
 _atom_site_type_symbol
 _atom_site_label
 _atom_site_symmetry_multiplicity
 _atom_site_fract_x
 _atom_site_fract_y
 _atom_site_fract_z
 _atom_site_occupancy
  Ca  Ca0  1  0.500000  0.500000  0.000000  1
  Ca  Ca1  1  0.000000  0.000000  0.000000  1
  Nd  Nd2  1  0.525696  0.025696  0.844667  1
  Nd  Nd3  1  0.181030  0.681030  0.155333  1
  Nd  Nd4  1  0.025696  0.181030  0.500000  1
  Nd  Nd5  1  0.681030  0.525696  0.500000  1
  Nd  Nd6  1  0.474304  0.974304  0.155333  1
  Nd  Nd7  1  0.818970  0.318970  0.844667  1
  Nd  Nd8  1  0.974304  0.818970  0.500000  1
  Nd  Nd9  1  0.318970  0.474304  0.500000  1
  Si  Si10  1  0.250000  0.250000  0.000000  1
  Si  Si11  1  0.750000  0.750000  0.000000  1
  Si  Si12  1  0.885644  0.385644  0.271291  1
  Si  Si13  1  0.114356  0.614356  0.728709  1
  Si  Si14  1  0.385644  0.114356  0.500000  1
  Si  Si15  1  0.614356  0.885644  0.500000  1
  H  H16  1  0.250000  0.750000  0.500000  1
  H  H17  1  0.750000  0.250000  0.500000  1
