# generated using pymatgen
data_Y12Lu4Cd3AgIr4
_symmetry_space_group_name_H-M   'P 1'
_cell_length_a   9.61449184
_cell_length_b   9.61449181
_cell_length_c   9.61449149
_cell_angle_alpha   59.78076381
_cell_angle_beta   59.78076083
_cell_angle_gamma   59.78077208
_symmetry_Int_Tables_number   1
_chemical_formula_structural   Y12Lu4Cd3AgIr4
_chemical_formula_sum   'Y12 Lu4 Cd3 Ag1 Ir4'
_cell_volume   625.31224660
_cell_formula_units_Z   1
loop_
 _symmetry_equiv_pos_site_id
 _symmetry_equiv_pos_as_xyz
  1  'x, y, z'
loop_
 _atom_site_type_symbol
 _atom_site_label
 _atom_site_symmetry_multiplicity
 _atom_site_fract_x
 _atom_site_fract_y
 _atom_site_fract_z
 _atom_site_occupancy
  Y  Y0  1  0.808668  0.190434  0.190434  1
  Y  Y1  1  0.188516  0.808837  0.808837  1
  Y  Y2  1  0.190434  0.808668  0.190434  1
  Y  Y3  1  0.808837  0.188516  0.808837  1
  Y  Y4  1  0.190434  0.190434  0.808668  1
  Y  Y5  1  0.808837  0.808837  0.188516  1
  Y  Y6  1  0.938109  0.559928  0.559928  1
  Y  Y7  1  0.560967  0.937704  0.937704  1
  Y  Y8  1  0.559928  0.938109  0.559928  1
  Y  Y9  1  0.937704  0.560967  0.937704  1
  Y  Y10  1  0.559928  0.559928  0.938109  1
  Y  Y11  1  0.937704  0.937704  0.560967  1
  Lu  Lu12  1  0.348022  0.348022  0.348022  1
  Lu  Lu13  1  0.348304  0.348304  0.957379  1
  Lu  Lu14  1  0.348304  0.957379  0.348304  1
  Lu  Lu15  1  0.957379  0.348304  0.348304  1
  Cd  Cd16  1  0.581301  0.581301  0.259369  1
  Cd  Cd17  1  0.581301  0.259369  0.581301  1
  Cd  Cd18  1  0.259369  0.581301  0.581301  1
  Ag  Ag19  1  0.582468  0.582468  0.582468  1
  Ir  Ir20  1  0.143610  0.143610  0.143610  1
  Ir  Ir21  1  0.144435  0.144435  0.571009  1
  Ir  Ir22  1  0.144435  0.571009  0.144435  1
  Ir  Ir23  1  0.571009  0.144435  0.144435  1
