# generated using pymatgen
data_Zr10Ag2(BiPb)3
_symmetry_space_group_name_H-M   'P 1'
_cell_length_a   8.91786900
_cell_length_b   8.91786895
_cell_length_c   6.00060600
_cell_angle_alpha   90.00000000
_cell_angle_beta   90.00000000
_cell_angle_gamma   119.99938393
_symmetry_Int_Tables_number   1
_chemical_formula_structural   Zr10Ag2(BiPb)3
_chemical_formula_sum   'Zr10 Ag2 Bi3 Pb3'
_cell_volume   413.28592395
_cell_formula_units_Z   1
loop_
 _symmetry_equiv_pos_site_id
 _symmetry_equiv_pos_as_xyz
  1  'x, y, z'
loop_
 _atom_site_type_symbol
 _atom_site_label
 _atom_site_symmetry_multiplicity
 _atom_site_fract_x
 _atom_site_fract_y
 _atom_site_fract_z
 _atom_site_occupancy
  Zr  Zr0  1  0.666675  0.333329  0.002356  1
  Zr  Zr1  1  0.333327  0.666673  0.002356  1
  Zr  Zr2  1  0.333327  0.666673  0.497644  1
  Zr  Zr3  1  0.666675  0.333329  0.497644  1
  Zr  Zr4  1  0.722864  0.722865  0.750000  1
  Zr  Zr5  1  0.277132  0.999988  0.750000  1
  Zr  Zr6  1  0.999990  0.277131  0.750000  1
  Zr  Zr7  1  0.278175  0.278175  0.250000  1
  Zr  Zr8  1  0.721837  0.000010  0.250000  1
  Zr  Zr9  1  0.000008  0.721836  0.250000  1
  Ag  Ag10  1  0.999997  0.999997  0.001825  1
  Ag  Ag11  1  0.999997  0.999997  0.498175  1
  Bi  Bi12  1  0.380910  0.380912  0.750000  1
  Bi  Bi13  1  0.619064  0.000022  0.750000  1
  Bi  Bi14  1  0.000021  0.619061  0.750000  1
  Pb  Pb15  1  0.621301  0.621301  0.250000  1
  Pb  Pb16  1  0.378717  0.999979  0.250000  1
  Pb  Pb17  1  0.999981  0.378721  0.250000  1
