# generated using pymatgen
data_Er9TmSn5Bi
_symmetry_space_group_name_H-M   'P 1'
_cell_length_a   8.90802300
_cell_length_b   8.91358865
_cell_length_c   6.46750301
_cell_angle_alpha   89.99282262
_cell_angle_beta   90.00256203
_cell_angle_gamma   119.97749716
_symmetry_Int_Tables_number   1
_chemical_formula_structural   Er9TmSn5Bi
_chemical_formula_sum   'Er9 Tm1 Sn5 Bi1'
_cell_volume   444.83568446
_cell_formula_units_Z   1
loop_
 _symmetry_equiv_pos_site_id
 _symmetry_equiv_pos_as_xyz
  1  'x, y, z'
loop_
 _atom_site_type_symbol
 _atom_site_label
 _atom_site_symmetry_multiplicity
 _atom_site_fract_x
 _atom_site_fract_y
 _atom_site_fract_z
 _atom_site_occupancy
  Er  Er0  1  0.993572  0.757740  0.749963  1
  Er  Er1  1  0.000656  0.238871  0.250044  1
  Er  Er2  1  0.761746  0.761180  0.250046  1
  Er  Er3  1  0.765149  0.999988  0.749980  1
  Er  Er4  1  0.235810  0.242308  0.749975  1
  Er  Er5  1  0.237499  0.999987  0.250012  1
  Er  Er6  1  0.670532  0.337707  0.001750  1
  Er  Er7  1  0.670547  0.337699  0.498265  1
  Er  Er8  1  0.332853  0.662299  0.001806  1
  Tm  Tm9  1  0.332834  0.662196  0.498146  1
  Sn  Sn10  1  0.395357  0.393094  0.250164  1
  Sn  Sn11  1  0.002613  0.607069  0.250169  1
  Sn  Sn12  1  0.999312  0.395740  0.749833  1
  Sn  Sn13  1  0.603423  0.604450  0.749837  1
  Sn  Sn14  1  0.605326  0.999818  0.250129  1
  Bi  Bi15  1  0.392769  0.999854  0.749880  1
