# generated using pymatgen
data_Cs4Na2DyYAs4
_symmetry_space_group_name_H-M   'P 1'
_cell_length_a   9.80173713
_cell_length_b   9.80173746
_cell_length_c   9.80173803
_cell_angle_alpha   136.31812324
_cell_angle_beta   136.41259913
_cell_angle_gamma   63.41601706
_symmetry_Int_Tables_number   1
_chemical_formula_structural   Cs4Na2DyYAs4
_chemical_formula_sum   'Cs4 Na2 Dy1 Y1 As4'
_cell_volume   442.61797428
_cell_formula_units_Z   1
loop_
 _symmetry_equiv_pos_site_id
 _symmetry_equiv_pos_as_xyz
  1  'x, y, z'
loop_
 _atom_site_type_symbol
 _atom_site_label
 _atom_site_symmetry_multiplicity
 _atom_site_fract_x
 _atom_site_fract_y
 _atom_site_fract_z
 _atom_site_occupancy
  Cs  Cs0  1  0.681184  0.398351  0.717335  1
  Cs  Cs1  1  0.818816  0.036151  0.217167  1
  Cs  Cs2  1  0.181016  0.963849  0.782665  1
  Cs  Cs3  1  0.318984  0.601649  0.282833  1
  Na  Na4  1  0.750000  0.000000  0.750000  1
  Na  Na5  1  0.250000  0.000000  0.250000  1
  Dy  Dy6  1  0.750000  0.500000  0.250000  1
  Y  Y7  1  0.250000  0.500000  0.750000  1
  As  As8  1  0.410330  0.189055  0.779493  1
  As  As9  1  0.590438  0.810945  0.221275  1
  As  As10  1  0.089670  0.369161  0.278725  1
  As  As11  1  0.909562  0.630839  0.720507  1
