# generated using pymatgen
data_YEr3Ga18(PtRh2)2
_symmetry_space_group_name_H-M   'P 1'
_cell_length_a   7.59169061
_cell_length_b   7.59311617
_cell_length_c   9.51132867
_cell_angle_alpha   90.01657013
_cell_angle_beta   89.90569561
_cell_angle_gamma   119.84049723
_symmetry_Int_Tables_number   1
_chemical_formula_structural   YEr3Ga18(PtRh2)2
_chemical_formula_sum   'Y1 Er3 Ga18 Pt2 Rh4'
_cell_volume   475.58207482
_cell_formula_units_Z   1
loop_
 _symmetry_equiv_pos_site_id
 _symmetry_equiv_pos_as_xyz
  1  'x, y, z'
loop_
 _atom_site_type_symbol
 _atom_site_label
 _atom_site_symmetry_multiplicity
 _atom_site_fract_x
 _atom_site_fract_y
 _atom_site_fract_z
 _atom_site_occupancy
  Y  Y0  1  0.996905  0.667543  0.249912  1
  Er  Er1  1  0.002890  0.332506  0.749884  1
  Er  Er2  1  0.667599  0.996887  0.250182  1
  Er  Er3  1  0.332241  0.003067  0.749885  1
  Ga  Ga4  1  0.124328  0.125000  0.250848  1
  Ga  Ga5  1  0.875930  0.876583  0.749121  1
  Ga  Ga6  1  0.999845  0.329468  0.081242  1
  Ga  Ga7  1  0.000121  0.669676  0.916918  1
  Ga  Ga8  1  0.002546  0.666066  0.579152  1
  Ga  Ga9  1  0.334767  0.998348  0.422585  1
  Ga  Ga10  1  0.998065  0.333268  0.422558  1
  Ga  Ga11  1  0.666122  0.002292  0.578340  1
  Ga  Ga12  1  0.669584  0.000337  0.917937  1
  Ga  Ga13  1  0.331088  0.000455  0.081262  1
  Ga  Ga14  1  0.330220  0.330254  0.565864  1
  Ga  Ga15  1  0.669231  0.669694  0.435501  1
  Ga  Ga16  1  0.670646  0.671474  0.071568  1
  Ga  Ga17  1  0.328224  0.328167  0.927113  1
  Ga  Ga18  1  0.340101  0.544931  0.253947  1
  Ga  Ga19  1  0.660726  0.455653  0.746011  1
  Ga  Ga20  1  0.544112  0.338537  0.254113  1
  Ga  Ga21  1  0.456032  0.661264  0.745910  1
  Pt  Pt22  1  0.670541  0.329152  0.999860  1
  Pt  Pt23  1  0.328317  0.670449  0.998942  1
  Rh  Rh24  1  0.328613  0.670776  0.500374  1
  Rh  Rh25  1  0.671173  0.328635  0.500729  1
  Rh  Rh26  1  0.999633  0.999595  0.999705  1
  Rh  Rh27  1  0.000401  0.999921  0.500537  1
