# generated using pymatgen
data_K16ZrSnBiSb7
_symmetry_space_group_name_H-M   'P 1'
_cell_length_a   11.68766707
_cell_length_b   11.68745052
_cell_length_c   11.68226500
_cell_angle_alpha   60.01467300
_cell_angle_beta   60.01528554
_cell_angle_gamma   60.03550084
_symmetry_Int_Tables_number   1
_chemical_formula_structural   K16ZrSnBiSb7
_chemical_formula_sum   'K16 Zr1 Sn1 Bi1 Sb7'
_cell_volume   1128.94920650
_cell_formula_units_Z   1
loop_
 _symmetry_equiv_pos_site_id
 _symmetry_equiv_pos_as_xyz
  1  'x, y, z'
loop_
 _atom_site_type_symbol
 _atom_site_label
 _atom_site_symmetry_multiplicity
 _atom_site_fract_x
 _atom_site_fract_y
 _atom_site_fract_z
 _atom_site_occupancy
  K  K0  1  0.623494  0.129448  0.623529  1
  K  K1  1  0.623478  0.621810  0.131237  1
  K  K2  1  0.131449  0.621755  0.623399  1
  K  K3  1  0.623478  0.621810  0.623475  1
  K  K4  1  0.016765  0.023167  0.480034  1
  K  K5  1  0.778609  0.221237  0.221163  1
  K  K6  1  0.219897  0.778561  0.781846  1
  K  K7  1  0.781617  0.778716  0.219834  1
  K  K8  1  0.778609  0.221237  0.778990  1
  K  K9  1  0.219897  0.778561  0.219697  1
  K  K10  1  0.480047  0.023352  0.479664  1
  K  K11  1  0.480047  0.023352  0.016936  1
  K  K12  1  0.021312  0.478373  0.478808  1
  K  K13  1  0.021312  0.478373  0.021507  1
  K  K14  1  0.221192  0.221098  0.778855  1
  K  K15  1  0.478871  0.478071  0.021529  1
  Zr  Zr16  1  0.750018  0.749819  0.750081  1
  Sn  Sn17  1  0.500536  0.498527  0.500468  1
  Bi  Bi18  1  0.394116  0.817526  0.394179  1
  Sb  Sb19  1  0.851172  0.850513  0.447337  1
  Sb  Sb20  1  0.447854  0.850394  0.850876  1
  Sb  Sb21  1  0.851172  0.850513  0.850978  1
  Sb  Sb22  1  0.810005  0.395663  0.397166  1
  Sb  Sb23  1  0.396936  0.395639  0.397041  1
  Sb  Sb24  1  0.396936  0.395639  0.810384  1
  Sb  Sb25  1  0.851182  0.446844  0.850988  1
