# generated using pymatgen
data_Li3Sc2Ni9As7
_symmetry_space_group_name_H-M   'P 1'
_cell_length_a   9.45701881
_cell_length_b   9.46354727
_cell_length_c   3.80881300
_cell_angle_alpha   90.00000000
_cell_angle_beta   90.00000000
_cell_angle_gamma   119.65624244
_symmetry_Int_Tables_number   1
_chemical_formula_structural   Li3Sc2Ni9As7
_chemical_formula_sum   'Li3 Sc2 Ni9 As7'
_cell_volume   296.22551140
_cell_formula_units_Z   1
loop_
 _symmetry_equiv_pos_site_id
 _symmetry_equiv_pos_as_xyz
  1  'x, y, z'
loop_
 _atom_site_type_symbol
 _atom_site_label
 _atom_site_symmetry_multiplicity
 _atom_site_fract_x
 _atom_site_fract_y
 _atom_site_fract_z
 _atom_site_occupancy
  Li  Li0  1  0.447106  0.217136  0.500000  1
  Li  Li1  1  0.775477  0.223470  0.500000  1
  Li  Li2  1  0.004350  0.004707  0.500000  1
  Sc  Sc3  1  0.767798  0.553581  0.500000  1
  Sc  Sc4  1  0.323750  0.666035  0.000000  1
  Ni  Ni5  1  0.273056  0.375632  0.500000  1
  Ni  Ni6  1  0.627375  0.899764  0.500000  1
  Ni  Ni7  1  0.110331  0.723728  0.500000  1
  Ni  Ni8  1  0.494723  0.456127  0.000000  1
  Ni  Ni9  1  0.547610  0.037972  0.000000  1
  Ni  Ni10  1  0.957920  0.502334  0.000000  1
  Ni  Ni11  1  0.719075  0.761065  0.000000  1
  Ni  Ni12  1  0.246028  0.963108  0.000000  1
  Ni  Ni13  1  0.043380  0.281374  0.000000  1
  As  As14  1  0.975718  0.765154  0.000000  1
  As  As15  1  0.244101  0.209508  0.000000  1
  As  As16  1  0.795245  0.035329  0.000000  1
  As  As17  1  0.662900  0.325840  0.000000  1
  As  As18  1  0.524518  0.622313  0.500000  1
  As  As19  1  0.383353  0.919233  0.500000  1
  As  As20  1  0.076188  0.456592  0.500000  1
