# generated using pymatgen
data_Ta2S3O14
_symmetry_space_group_name_H-M   'P 1'
_cell_length_a   8.77546500
_cell_length_b   9.83431200
_cell_length_c   11.73352500
_cell_angle_alpha   90.00000000
_cell_angle_beta   90.00000000
_cell_angle_gamma   90.00000000
_symmetry_Int_Tables_number   1
_chemical_formula_structural   Ta2S3O14
_chemical_formula_sum   'Ta8 S12 O56'
_cell_volume   1012.61096049
_cell_formula_units_Z   4
loop_
 _symmetry_equiv_pos_site_id
 _symmetry_equiv_pos_as_xyz
  1  'x, y, z'
loop_
 _atom_site_type_symbol
 _atom_site_label
 _atom_site_symmetry_multiplicity
 _atom_site_fract_x
 _atom_site_fract_y
 _atom_site_fract_z
 _atom_site_occupancy
  Ta  Ta0  1  0.565727  0.563137  0.626220  1
  Ta  Ta1  1  0.065727  0.436863  0.373780  1
  Ta  Ta2  1  0.065727  0.936863  0.126220  1
  Ta  Ta3  1  0.565727  0.063137  0.873780  1
  Ta  Ta4  1  0.614643  0.120602  0.377245  1
  Ta  Ta5  1  0.114643  0.879398  0.622755  1
  Ta  Ta6  1  0.114643  0.379398  0.877245  1
  Ta  Ta7  1  0.614643  0.620602  0.122755  1
  S  S8  1  0.720351  0.832862  0.496113  1
  S  S9  1  0.220351  0.167138  0.503887  1
  S  S10  1  0.220351  0.667138  0.996113  1
  S  S11  1  0.720351  0.332862  0.003887  1
  S  S12  1  0.680355  0.239964  0.641990  1
  S  S13  1  0.180355  0.760036  0.358010  1
  S  S14  1  0.180355  0.260036  0.141990  1
  S  S15  1  0.680355  0.739964  0.858010  1
  S  S16  1  0.995531  0.553537  0.638689  1
  S  S17  1  0.495531  0.446463  0.361311  1
  S  S18  1  0.495531  0.946463  0.138689  1
  S  S19  1  0.995531  0.053537  0.861311  1
  O  O20  1  0.610617  0.370309  0.684081  1
  O  O21  1  0.110617  0.629691  0.315919  1
  O  O22  1  0.110617  0.129691  0.184081  1
  O  O23  1  0.610617  0.870309  0.815919  1
  O  O24  1  0.842651  0.239862  0.639183  1
  O  O25  1  0.342651  0.760138  0.360817  1
  O  O26  1  0.342651  0.260138  0.139183  1
  O  O27  1  0.842651  0.739862  0.860817  1
  O  O28  1  0.055906  0.685880  0.678713  1
  O  O29  1  0.555906  0.314120  0.321287  1
  O  O30  1  0.555906  0.814120  0.178713  1
  O  O31  1  0.055906  0.185880  0.821287  1
  O  O32  1  0.085338  0.508465  0.537554  1
  O  O33  1  0.585338  0.491535  0.462446  1
  O  O34  1  0.585338  0.991535  0.037554  1
  O  O35  1  0.085338  0.008465  0.962446  1
  O  O36  1  0.615010  0.129485  0.715069  1
  O  O37  1  0.115010  0.870515  0.284931  1
  O  O38  1  0.115010  0.370515  0.215069  1
  O  O39  1  0.615010  0.629485  0.784931  1
  O  O40  1  0.607460  0.746532  0.565002  1
  O  O41  1  0.107460  0.253468  0.434998  1
  O  O42  1  0.107460  0.753468  0.065002  1
  O  O43  1  0.607460  0.246532  0.934998  1
  O  O44  1  0.835081  0.559642  0.612225  1
  O  O45  1  0.335081  0.440358  0.387775  1
  O  O46  1  0.335081  0.940358  0.112225  1
  O  O47  1  0.835081  0.059642  0.887775  1
  O  O48  1  0.609299  0.948058  0.462097  1
  O  O49  1  0.109299  0.051942  0.537903  1
  O  O50  1  0.109299  0.551942  0.962097  1
  O  O51  1  0.609299  0.448058  0.037903  1
  O  O52  1  0.369681  0.567759  0.634250  1
  O  O53  1  0.869681  0.432241  0.365750  1
  O  O54  1  0.869681  0.932241  0.134250  1
  O  O55  1  0.369681  0.067759  0.865750  1
  O  O56  1  0.024582  0.455120  0.732178  1
  O  O57  1  0.524582  0.544880  0.267822  1
  O  O58  1  0.524582  0.044880  0.232178  1
  O  O59  1  0.024582  0.955120  0.767822  1
  O  O60  1  0.834187  0.887808  0.574761  1
  O  O61  1  0.334187  0.112192  0.425239  1
  O  O62  1  0.334187  0.612192  0.074761  1
  O  O63  1  0.834187  0.387808  0.925239  1
  O  O64  1  0.774342  0.762239  0.397521  1
  O  O65  1  0.274342  0.237761  0.602479  1
  O  O66  1  0.274342  0.737761  0.897521  1
  O  O67  1  0.774342  0.262239  0.102479  1
  O  O68  1  0.806758  0.120943  0.347876  1
  O  O69  1  0.306758  0.879057  0.652124  1
  O  O70  1  0.306758  0.379057  0.847876  1
  O  O71  1  0.806758  0.620943  0.152124  1
  O  O72  1  0.608100  0.217266  0.528036  1
  O  O73  1  0.108100  0.782734  0.471964  1
  O  O74  1  0.108100  0.282734  0.028036  1
  O  O75  1  0.608100  0.717266  0.971964  1
