# generated using pymatgen
data_Lu3Pa5(Pt2Pb)4
_symmetry_space_group_name_H-M   'P 1'
_cell_length_a   7.91670797
_cell_length_b   7.91670803
_cell_length_c   7.18794200
_cell_angle_alpha   90.00000000
_cell_angle_beta   90.00000000
_cell_angle_gamma   90.84419951
_symmetry_Int_Tables_number   1
_chemical_formula_structural   Lu3Pa5(Pt2Pb)4
_chemical_formula_sum   'Lu3 Pa5 Pt8 Pb4'
_cell_volume   450.45008644
_cell_formula_units_Z   1
loop_
 _symmetry_equiv_pos_site_id
 _symmetry_equiv_pos_as_xyz
  1  'x, y, z'
loop_
 _atom_site_type_symbol
 _atom_site_label
 _atom_site_symmetry_multiplicity
 _atom_site_fract_x
 _atom_site_fract_y
 _atom_site_fract_z
 _atom_site_occupancy
  Lu  Lu0  1  0.175832  0.824168  0.500000  1
  Lu  Lu1  1  0.842248  0.157752  0.000000  1
  Lu  Lu2  1  0.160520  0.839480  0.000000  1
  Pa  Pa3  1  0.681811  0.679069  0.000000  1
  Pa  Pa4  1  0.337871  0.339032  0.500000  1
  Pa  Pa5  1  0.822813  0.177187  0.500000  1
  Pa  Pa6  1  0.660968  0.662129  0.500000  1
  Pa  Pa7  1  0.320931  0.318189  0.000000  1
  Pt  Pt8  1  0.868072  0.872583  0.731096  1
  Pt  Pt9  1  0.127417  0.131928  0.731096  1
  Pt  Pt10  1  0.629789  0.370211  0.769160  1
  Pt  Pt11  1  0.629789  0.370211  0.230840  1
  Pt  Pt12  1  0.376232  0.623768  0.230521  1
  Pt  Pt13  1  0.127417  0.131928  0.268904  1
  Pt  Pt14  1  0.868072  0.872583  0.268904  1
  Pt  Pt15  1  0.376232  0.623768  0.769479  1
  Pb  Pb16  1  0.494094  0.997100  0.752553  1
  Pb  Pb17  1  0.494094  0.997100  0.247447  1
  Pb  Pb18  1  0.002900  0.505906  0.752553  1
  Pb  Pb19  1  0.002900  0.505906  0.247447  1
