# generated using pymatgen
data_K8Li4LuIn3As8
_symmetry_space_group_name_H-M   'P 1'
_cell_length_a   10.24195721
_cell_length_b   10.24195823
_cell_length_c   6.50042450
_cell_angle_alpha   90.06695806
_cell_angle_beta   89.93304404
_cell_angle_gamma   101.14929938
_symmetry_Int_Tables_number   1
_chemical_formula_structural   K8Li4LuIn3As8
_chemical_formula_sum   'K8 Li4 Lu1 In3 As8'
_cell_volume   669.00944729
_cell_formula_units_Z   1
loop_
 _symmetry_equiv_pos_site_id
 _symmetry_equiv_pos_as_xyz
  1  'x, y, z'
loop_
 _atom_site_type_symbol
 _atom_site_label
 _atom_site_symmetry_multiplicity
 _atom_site_fract_x
 _atom_site_fract_y
 _atom_site_fract_z
 _atom_site_occupancy
  K  K0  1  0.075473  0.431912  0.744158  1
  K  K1  1  0.672393  0.326706  0.778325  1
  K  K2  1  0.326706  0.672393  0.221675  1
  K  K3  1  0.573971  0.926860  0.748339  1
  K  K4  1  0.431912  0.075473  0.255842  1
  K  K5  1  0.926860  0.573971  0.251661  1
  K  K6  1  0.821338  0.173090  0.286270  1
  K  K7  1  0.173090  0.821338  0.713730  1
  Li  Li8  1  0.121131  0.121131  0.500000  1
  Li  Li9  1  0.878236  0.878236  0.500000  1
  Li  Li10  1  0.381937  0.381937  0.000000  1
  Li  Li11  1  0.621021  0.621021  0.000000  1
  Lu  Lu12  1  0.126480  0.126480  0.000000  1
  In  In13  1  0.868617  0.868617  0.000000  1
  In  In14  1  0.369120  0.369120  0.500000  1
  In  In15  1  0.632676  0.632676  0.500000  1
  As  As16  1  0.850252  0.649765  0.751944  1
  As  As17  1  0.097797  0.900073  0.233290  1
  As  As18  1  0.403906  0.598647  0.730486  1
  As  As19  1  0.598647  0.403906  0.269514  1
  As  As20  1  0.649765  0.850252  0.248056  1
  As  As21  1  0.150575  0.348024  0.249010  1
  As  As22  1  0.348024  0.150575  0.750990  1
  As  As23  1  0.900073  0.097797  0.766710  1
