# generated using pymatgen
data_Ho4Lu8Co5Sb
_symmetry_space_group_name_H-M   'P 1'
_cell_length_a   8.13543650
_cell_length_b   8.13436564
_cell_length_c   8.13543665
_cell_angle_alpha   111.28380470
_cell_angle_beta   110.70155026
_cell_angle_gamma   106.47499894
_symmetry_Int_Tables_number   1
_chemical_formula_structural   Ho4Lu8Co5Sb
_chemical_formula_sum   'Ho4 Lu8 Co5 Sb1'
_cell_volume   413.55873301
_cell_formula_units_Z   1
loop_
 _symmetry_equiv_pos_site_id
 _symmetry_equiv_pos_as_xyz
  1  'x, y, z'
loop_
 _atom_site_type_symbol
 _atom_site_label
 _atom_site_symmetry_multiplicity
 _atom_site_fract_x
 _atom_site_fract_y
 _atom_site_fract_z
 _atom_site_occupancy
  Ho  Ho0  1  0.591830  0.787295  0.804532  1
  Ho  Ho1  1  0.408170  0.212705  0.195468  1
  Ho  Ho2  1  0.982763  0.787295  0.195465  1
  Ho  Ho3  1  0.017237  0.212705  0.804535  1
  Lu  Lu4  1  0.816868  0.713104  0.529979  1
  Lu  Lu5  1  0.183132  0.286896  0.470021  1
  Lu  Lu6  1  0.183126  0.713104  0.896238  1
  Lu  Lu7  1  0.816874  0.286896  0.103762  1
  Lu  Lu8  1  0.686634  0.378944  0.692311  1
  Lu  Lu9  1  0.313366  0.621056  0.307689  1
  Lu  Lu10  1  0.686635  0.994307  0.307672  1
  Lu  Lu11  1  0.313365  0.005693  0.692328  1
  Co  Co12  1  0.625645  0.000000  0.625645  1
  Co  Co13  1  0.374355  0.000000  0.374355  1
  Co  Co14  1  0.112762  0.612765  0.500003  1
  Co  Co15  1  0.887238  0.387235  0.499997  1
  Co  Co16  1  0.000000  0.000000  0.000000  1
  Sb  Sb17  1  0.500000  0.500000  0.000000  1
