# generated using pymatgen
data_Tb3(Al3Co)4
_symmetry_space_group_name_H-M   'P 1'
_cell_length_a   8.66273400
_cell_length_b   8.66273375
_cell_length_c   9.30462000
_cell_angle_alpha   90.00000000
_cell_angle_beta   90.00000000
_cell_angle_gamma   119.99999331
_symmetry_Int_Tables_number   1
_chemical_formula_structural   Tb3(Al3Co)4
_chemical_formula_sum   'Tb6 Al24 Co8'
_cell_volume   604.69899644
_cell_formula_units_Z   2
loop_
 _symmetry_equiv_pos_site_id
 _symmetry_equiv_pos_as_xyz
  1  'x, y, z'
loop_
 _atom_site_type_symbol
 _atom_site_label
 _atom_site_symmetry_multiplicity
 _atom_site_fract_x
 _atom_site_fract_y
 _atom_site_fract_z
 _atom_site_occupancy
  Tb  Tb0  1  0.193978  0.387956  0.250000  1
  Tb  Tb1  1  0.806022  0.612044  0.750000  1
  Tb  Tb2  1  0.612044  0.806022  0.250000  1
  Tb  Tb3  1  0.387956  0.193978  0.750000  1
  Tb  Tb4  1  0.193978  0.806022  0.250000  1
  Tb  Tb5  1  0.806022  0.193978  0.750000  1
  Al  Al6  1  0.333333  0.666667  0.018186  1
  Al  Al7  1  0.666667  0.333333  0.981814  1
  Al  Al8  1  0.666667  0.333333  0.518186  1
  Al  Al9  1  0.333333  0.666667  0.481814  1
  Al  Al10  1  0.162822  0.325643  0.575258  1
  Al  Al11  1  0.837178  0.674357  0.424742  1
  Al  Al12  1  0.674357  0.837178  0.575258  1
  Al  Al13  1  0.837178  0.674357  0.075258  1
  Al  Al14  1  0.325643  0.162822  0.424742  1
  Al  Al15  1  0.162822  0.325643  0.924742  1
  Al  Al16  1  0.162822  0.837178  0.575258  1
  Al  Al17  1  0.325643  0.162822  0.075258  1
  Al  Al18  1  0.837178  0.162822  0.424742  1
  Al  Al19  1  0.674357  0.837178  0.924742  1
  Al  Al20  1  0.837178  0.162822  0.075258  1
  Al  Al21  1  0.162822  0.837178  0.924742  1
  Al  Al22  1  0.559707  0.119415  0.250000  1
  Al  Al23  1  0.440293  0.880585  0.750000  1
  Al  Al24  1  0.880585  0.440293  0.250000  1
  Al  Al25  1  0.119415  0.559707  0.750000  1
  Al  Al26  1  0.559707  0.440293  0.250000  1
  Al  Al27  1  0.440293  0.559707  0.750000  1
  Al  Al28  1  0.000000  0.000000  0.250000  1
  Al  Al29  1  0.000000  0.000000  0.750000  1
  Co  Co30  1  0.500000  0.000000  0.000000  1
  Co  Co31  1  0.000000  0.500000  0.000000  1
  Co  Co32  1  0.500000  0.000000  0.500000  1
  Co  Co33  1  0.500000  0.500000  0.000000  1
  Co  Co34  1  0.000000  0.500000  0.500000  1
  Co  Co35  1  0.500000  0.500000  0.500000  1
  Co  Co36  1  0.000000  0.000000  0.000000  1
  Co  Co37  1  0.000000  0.000000  0.500000  1
