# generated using pymatgen
data_PuMg4CrN6
_symmetry_space_group_name_H-M   'P 1'
_cell_length_a   5.37858141
_cell_length_b   5.37857947
_cell_length_c   5.39347375
_cell_angle_alpha   99.47940792
_cell_angle_beta   99.47940006
_cell_angle_gamma   120.09866971
_symmetry_Int_Tables_number   1
_chemical_formula_structural   PuMg4CrN6
_chemical_formula_sum   'Pu1 Mg4 Cr1 N6'
_cell_volume   127.43381378
_cell_formula_units_Z   1
loop_
 _symmetry_equiv_pos_site_id
 _symmetry_equiv_pos_as_xyz
  1  'x, y, z'
loop_
 _atom_site_type_symbol
 _atom_site_label
 _atom_site_symmetry_multiplicity
 _atom_site_fract_x
 _atom_site_fract_y
 _atom_site_fract_z
 _atom_site_occupancy
  Pu  Pu0  1  0.666893  0.333107  0.000000  1
  Mg  Mg1  1  0.838406  0.161594  0.500000  1
  Mg  Mg2  1  0.165333  0.834667  0.500000  1
  Mg  Mg3  1  0.494986  0.505014  0.500000  1
  Mg  Mg4  1  0.999935  0.000065  0.000000  1
  Cr  Cr5  1  0.333072  0.666928  0.000000  1
  N  N6  1  0.425095  0.074573  0.231538  1
  N  N7  1  0.925427  0.574905  0.768462  1
  N  N8  1  0.572288  0.918055  0.766372  1
  N  N9  1  0.081945  0.427712  0.233628  1
  N  N10  1  0.730576  0.733956  0.238118  1
  N  N11  1  0.266044  0.269424  0.761882  1
