# generated using pymatgen
data_HoSi(AsRu2)3
_symmetry_space_group_name_H-M   'P 1'
_cell_length_a   7.15265500
_cell_length_b   7.15265531
_cell_length_c   3.81307100
_cell_angle_alpha   90.00000000
_cell_angle_beta   90.00000000
_cell_angle_gamma   120.00000321
_symmetry_Int_Tables_number   1
_chemical_formula_structural   HoSi(AsRu2)3
_chemical_formula_sum   'Ho1 Si1 As3 Ru6'
_cell_volume   168.94295414
_cell_formula_units_Z   1
loop_
 _symmetry_equiv_pos_site_id
 _symmetry_equiv_pos_as_xyz
  1  'x, y, z'
loop_
 _atom_site_type_symbol
 _atom_site_label
 _atom_site_symmetry_multiplicity
 _atom_site_fract_x
 _atom_site_fract_y
 _atom_site_fract_z
 _atom_site_occupancy
  Ho  Ho0  1  0.000000  0.000000  0.000000  1
  Si  Si1  1  0.333333  0.666667  0.000000  1
  As  As2  1  0.810109  0.189891  0.500000  1
  As  As3  1  0.810109  0.620218  0.500000  1
  As  As4  1  0.379782  0.189891  0.500000  1
  Ru  Ru5  1  0.535082  0.464918  0.000000  1
  Ru  Ru6  1  0.535082  0.070163  0.000000  1
  Ru  Ru7  1  0.929837  0.464918  0.000000  1
  Ru  Ru8  1  0.202517  0.797483  0.500000  1
  Ru  Ru9  1  0.202517  0.405035  0.500000  1
  Ru  Ru10  1  0.594965  0.797483  0.500000  1
