# generated using pymatgen
data_Ce8Be3Si12Au
_symmetry_space_group_name_H-M   'P 1'
_cell_length_a   8.13621400
_cell_length_b   8.13621485
_cell_length_c   8.23206600
_cell_angle_alpha   90.00000000
_cell_angle_beta   90.00000000
_cell_angle_gamma   119.99999653
_symmetry_Int_Tables_number   1
_chemical_formula_structural   Ce8Be3Si12Au
_chemical_formula_sum   'Ce8 Be3 Si12 Au1'
_cell_volume   471.93725485
_cell_formula_units_Z   1
loop_
 _symmetry_equiv_pos_site_id
 _symmetry_equiv_pos_as_xyz
  1  'x, y, z'
loop_
 _atom_site_type_symbol
 _atom_site_label
 _atom_site_symmetry_multiplicity
 _atom_site_fract_x
 _atom_site_fract_y
 _atom_site_fract_z
 _atom_site_occupancy
  Ce  Ce0  1  0.502573  0.005145  0.246933  1
  Ce  Ce1  1  0.502456  0.004913  0.753027  1
  Ce  Ce2  1  0.994855  0.497427  0.246933  1
  Ce  Ce3  1  0.995087  0.497544  0.753027  1
  Ce  Ce4  1  0.502573  0.497427  0.246933  1
  Ce  Ce5  1  0.502456  0.497544  0.753027  1
  Ce  Ce6  1  0.000000  0.000000  0.248222  1
  Ce  Ce7  1  0.000000  0.000000  0.751722  1
  Be  Be8  1  0.333333  0.666667  0.001088  1
  Be  Be9  1  0.666667  0.333333  0.999847  1
  Be  Be10  1  0.666667  0.333333  0.500002  1
  Si  Si11  1  0.172481  0.344959  0.000031  1
  Si  Si12  1  0.826888  0.653778  0.999930  1
  Si  Si13  1  0.655041  0.827519  0.000031  1
  Si  Si14  1  0.825218  0.650439  0.499993  1
  Si  Si15  1  0.346222  0.173112  0.999930  1
  Si  Si16  1  0.160461  0.320921  0.499934  1
  Si  Si17  1  0.172481  0.827519  0.000031  1
  Si  Si18  1  0.349561  0.174782  0.499993  1
  Si  Si19  1  0.826888  0.173112  0.999930  1
  Si  Si20  1  0.679079  0.839539  0.499934  1
  Si  Si21  1  0.825218  0.174782  0.499993  1
  Si  Si22  1  0.160461  0.839539  0.499934  1
  Au  Au23  1  0.333333  0.666667  0.499573  1
