# generated using pymatgen
data_Tb9Dy(InSb2)2
_symmetry_space_group_name_H-M   'P 1'
_cell_length_a   6.50760401
_cell_length_b   9.01136447
_cell_length_c   9.02015700
_cell_angle_alpha   120.03147116
_cell_angle_beta   90.00071034
_cell_angle_gamma   89.99361920
_symmetry_Int_Tables_number   1
_chemical_formula_structural   Tb9Dy(InSb2)2
_chemical_formula_sum   'Tb9 Dy1 In2 Sb4'
_cell_volume   457.95055106
_cell_formula_units_Z   1
loop_
 _symmetry_equiv_pos_site_id
 _symmetry_equiv_pos_as_xyz
  1  'x, y, z'
loop_
 _atom_site_type_symbol
 _atom_site_label
 _atom_site_symmetry_multiplicity
 _atom_site_fract_x
 _atom_site_fract_y
 _atom_site_fract_z
 _atom_site_occupancy
  Tb  Tb0  1  0.498807  0.336085  0.667451  1
  Tb  Tb1  1  0.498681  0.663902  0.331373  1
  Tb  Tb2  1  0.001354  0.663978  0.331408  1
  Tb  Tb3  1  0.749997  0.241873  0.004417  1
  Tb  Tb4  1  0.750040  0.758095  0.762597  1
  Tb  Tb5  1  0.750031  0.000052  0.239777  1
  Tb  Tb6  1  0.249920  0.759057  0.998038  1
  Tb  Tb7  1  0.249912  0.240968  0.239005  1
  Tb  Tb8  1  0.249959  0.000007  0.757496  1
  Dy  Dy9  1  0.001110  0.336146  0.667475  1
  In  In10  1  0.750263  0.605371  0.000632  1
  In  In11  1  0.750319  0.394272  0.395486  1
  Sb  Sb12  1  0.750168  0.000191  0.609128  1
  Sb  Sb13  1  0.249779  0.391558  0.998092  1
  Sb  Sb14  1  0.249822  0.608217  0.606801  1
  Sb  Sb15  1  0.249844  0.000231  0.390827  1
