# generated using pymatgen
data_Tm3CoNi7MoP6
_symmetry_space_group_name_H-M   'P 1'
_cell_length_a   3.73538100
_cell_length_b   10.60676500
_cell_length_c   12.27534900
_cell_angle_alpha   90.00000000
_cell_angle_beta   90.00000000
_cell_angle_gamma   90.00000000
_symmetry_Int_Tables_number   1
_chemical_formula_structural   Tm3CoNi7MoP6
_chemical_formula_sum   'Tm6 Co2 Ni14 Mo2 P12'
_cell_volume   486.35311374
_cell_formula_units_Z   2
loop_
 _symmetry_equiv_pos_site_id
 _symmetry_equiv_pos_as_xyz
  1  'x, y, z'
loop_
 _atom_site_type_symbol
 _atom_site_label
 _atom_site_symmetry_multiplicity
 _atom_site_fract_x
 _atom_site_fract_y
 _atom_site_fract_z
 _atom_site_occupancy
  Tm  Tm0  1  0.000000  0.500000  0.525691  1
  Tm  Tm1  1  0.500000  0.000000  0.474309  1
  Tm  Tm2  1  0.500000  0.819676  0.206848  1
  Tm  Tm3  1  0.500000  0.180324  0.206848  1
  Tm  Tm4  1  0.000000  0.680324  0.793152  1
  Tm  Tm5  1  0.000000  0.319676  0.793152  1
  Co  Co6  1  0.000000  0.500000  0.985381  1
  Co  Co7  1  0.500000  0.000000  0.014619  1
  Ni  Ni8  1  0.500000  0.500000  0.702137  1
  Ni  Ni9  1  0.000000  0.000000  0.297863  1
  Ni  Ni10  1  0.500000  0.332436  0.987647  1
  Ni  Ni11  1  0.500000  0.667564  0.987647  1
  Ni  Ni12  1  0.000000  0.167564  0.012353  1
  Ni  Ni13  1  0.000000  0.832436  0.012353  1
  Ni  Ni14  1  0.500000  0.302463  0.428936  1
  Ni  Ni15  1  0.500000  0.697537  0.428936  1
  Ni  Ni16  1  0.000000  0.197537  0.571064  1
  Ni  Ni17  1  0.000000  0.802463  0.571064  1
  Ni  Ni18  1  0.500000  0.877718  0.708668  1
  Ni  Ni19  1  0.500000  0.122282  0.708668  1
  Ni  Ni20  1  0.000000  0.622282  0.291332  1
  Ni  Ni21  1  0.000000  0.377718  0.291332  1
  Mo  Mo22  1  0.500000  0.500000  0.153978  1
  Mo  Mo23  1  0.000000  0.000000  0.846022  1
  P  P24  1  0.500000  0.500000  0.879643  1
  P  P25  1  0.000000  0.000000  0.120357  1
  P  P26  1  0.500000  0.500000  0.350714  1
  P  P27  1  0.000000  0.000000  0.649286  1
  P  P28  1  0.500000  0.315314  0.614970  1
  P  P29  1  0.500000  0.684686  0.614970  1
  P  P30  1  0.000000  0.184686  0.385030  1
  P  P31  1  0.000000  0.815314  0.385030  1
  P  P32  1  0.500000  0.845443  0.892054  1
  P  P33  1  0.500000  0.154557  0.892054  1
  P  P34  1  0.000000  0.654557  0.107946  1
  P  P35  1  0.000000  0.345443  0.107946  1
