# generated using pymatgen
data_Zr10Be2HgBi5
_symmetry_space_group_name_H-M   'P 1'
_cell_length_a   8.76462800
_cell_length_b   8.76287615
_cell_length_c   5.86853600
_cell_angle_alpha   90.00000000
_cell_angle_beta   90.00000000
_cell_angle_gamma   120.00662097
_symmetry_Int_Tables_number   1
_chemical_formula_structural   Zr10Be2HgBi5
_chemical_formula_sum   'Zr10 Be2 Hg1 Bi5'
_cell_volume   390.31171600
_cell_formula_units_Z   1
loop_
 _symmetry_equiv_pos_site_id
 _symmetry_equiv_pos_as_xyz
  1  'x, y, z'
loop_
 _atom_site_type_symbol
 _atom_site_label
 _atom_site_symmetry_multiplicity
 _atom_site_fract_x
 _atom_site_fract_y
 _atom_site_fract_z
 _atom_site_occupancy
  Zr  Zr0  1  0.746384  0.000000  0.250000  1
  Zr  Zr1  1  0.006038  0.754550  0.250000  1
  Zr  Zr2  1  0.251489  0.245450  0.250000  1
  Zr  Zr3  1  0.247367  0.000000  0.750000  1
  Zr  Zr4  1  0.999451  0.248677  0.750000  1
  Zr  Zr5  1  0.750774  0.751323  0.750000  1
  Zr  Zr6  1  0.333740  0.667856  0.497951  1
  Zr  Zr7  1  0.665885  0.332144  0.497951  1
  Zr  Zr8  1  0.665885  0.332144  0.002049  1
  Zr  Zr9  1  0.333740  0.667856  0.002049  1
  Be  Be10  1  0.999401  0.000000  0.495616  1
  Be  Be11  1  0.999401  0.000000  0.004384  1
  Hg  Hg12  1  0.389947  0.000000  0.250000  1
  Bi  Bi13  1  0.001223  0.388627  0.250000  1
  Bi  Bi14  1  0.612596  0.611373  0.250000  1
  Bi  Bi15  1  0.606247  0.000000  0.750000  1
  Bi  Bi16  1  0.000427  0.610423  0.750000  1
  Bi  Bi17  1  0.390005  0.389577  0.750000  1
