# generated using pymatgen
data_Re(BMo)2
_symmetry_space_group_name_H-M   'P 1'
_cell_length_a   3.11341100
_cell_length_b   7.58584600
_cell_length_c   9.65445000
_cell_angle_alpha   90.00000000
_cell_angle_beta   90.00000000
_cell_angle_gamma   90.00000000
_symmetry_Int_Tables_number   1
_chemical_formula_structural   Re(BMo)2
_chemical_formula_sum   'Re4 B8 Mo8'
_cell_volume   228.01741353
_cell_formula_units_Z   4
loop_
 _symmetry_equiv_pos_site_id
 _symmetry_equiv_pos_as_xyz
  1  'x, y, z'
loop_
 _atom_site_type_symbol
 _atom_site_label
 _atom_site_symmetry_multiplicity
 _atom_site_fract_x
 _atom_site_fract_y
 _atom_site_fract_z
 _atom_site_occupancy
  Re  Re0  1  0.500000  0.622041  0.396227  1
  Re  Re1  1  0.500000  0.377959  0.603773  1
  Re  Re2  1  0.000000  0.877959  0.896227  1
  Re  Re3  1  0.000000  0.122041  0.103773  1
  B  B4  1  0.500000  0.115200  0.459719  1
  B  B5  1  0.500000  0.884800  0.540281  1
  B  B6  1  0.000000  0.384800  0.959719  1
  B  B7  1  0.000000  0.615200  0.040281  1
  B  B8  1  0.500000  0.121815  0.266509  1
  B  B9  1  0.500000  0.878185  0.733491  1
  B  B10  1  0.000000  0.378185  0.766509  1
  B  B11  1  0.000000  0.621815  0.233491  1
  Mo  Mo12  1  0.500000  0.808816  0.129762  1
  Mo  Mo13  1  0.500000  0.191184  0.870238  1
  Mo  Mo14  1  0.000000  0.691184  0.629762  1
  Mo  Mo15  1  0.000000  0.308816  0.370238  1
  Mo  Mo16  1  0.500000  0.577549  0.862742  1
  Mo  Mo17  1  0.500000  0.422451  0.137258  1
  Mo  Mo18  1  0.000000  0.922451  0.362742  1
  Mo  Mo19  1  0.000000  0.077549  0.637258  1
