# generated using pymatgen
data_Nd5(Cd2Pd)2
_symmetry_space_group_name_H-M   'P 1'
_cell_length_a   8.22146800
_cell_length_b   18.56750300
_cell_length_c   3.83610900
_cell_angle_alpha   90.00000000
_cell_angle_beta   90.00000000
_cell_angle_gamma   90.00000000
_symmetry_Int_Tables_number   1
_chemical_formula_structural   Nd5(Cd2Pd)2
_chemical_formula_sum   'Nd10 Cd8 Pd4'
_cell_volume   585.59021649
_cell_formula_units_Z   2
loop_
 _symmetry_equiv_pos_site_id
 _symmetry_equiv_pos_as_xyz
  1  'x, y, z'
loop_
 _atom_site_type_symbol
 _atom_site_label
 _atom_site_symmetry_multiplicity
 _atom_site_fract_x
 _atom_site_fract_y
 _atom_site_fract_z
 _atom_site_occupancy
  Nd  Nd0  1  0.500000  0.500000  0.000000  1
  Nd  Nd1  1  0.000000  0.000000  0.000000  1
  Nd  Nd2  1  0.737033  0.283941  0.000000  1
  Nd  Nd3  1  0.262967  0.716059  0.000000  1
  Nd  Nd4  1  0.762967  0.783941  0.000000  1
  Nd  Nd5  1  0.237033  0.216059  0.000000  1
  Nd  Nd6  1  0.616560  0.084294  0.000000  1
  Nd  Nd7  1  0.383440  0.915706  0.000000  1
  Nd  Nd8  1  0.883440  0.584294  0.000000  1
  Nd  Nd9  1  0.116560  0.415706  0.000000  1
  Cd  Cd10  1  0.712041  0.932986  0.500000  1
  Cd  Cd11  1  0.287959  0.067014  0.500000  1
  Cd  Cd12  1  0.787959  0.432986  0.500000  1
  Cd  Cd13  1  0.212041  0.567014  0.500000  1
  Cd  Cd14  1  0.577619  0.649373  0.500000  1
  Cd  Cd15  1  0.422381  0.350627  0.500000  1
  Cd  Cd16  1  0.922381  0.149373  0.500000  1
  Cd  Cd17  1  0.077619  0.850627  0.500000  1
  Pd  Pd18  1  0.523407  0.196862  0.500000  1
  Pd  Pd19  1  0.476593  0.803138  0.500000  1
  Pd  Pd20  1  0.976593  0.696862  0.500000  1
  Pd  Pd21  1  0.023407  0.303138  0.500000  1
