# generated using pymatgen
data_CoCu(OsO3)4
_symmetry_space_group_name_H-M   'P 1'
_cell_length_a   4.58797863
_cell_length_b   4.58797863
_cell_length_c   9.34594400
_cell_angle_alpha   90.00000000
_cell_angle_beta   90.00000000
_cell_angle_gamma   89.87719062
_symmetry_Int_Tables_number   1
_chemical_formula_structural   CoCu(OsO3)4
_chemical_formula_sum   'Co1 Cu1 Os4 O12'
_cell_volume   196.72744449
_cell_formula_units_Z   1
loop_
 _symmetry_equiv_pos_site_id
 _symmetry_equiv_pos_as_xyz
  1  'x, y, z'
loop_
 _atom_site_type_symbol
 _atom_site_label
 _atom_site_symmetry_multiplicity
 _atom_site_fract_x
 _atom_site_fract_y
 _atom_site_fract_z
 _atom_site_occupancy
  Co  Co0  1  0.000000  0.000000  0.000000  1
  Cu  Cu1  1  0.500000  0.500000  0.500000  1
  Os  Os2  1  0.000000  0.000000  0.668736  1
  Os  Os3  1  0.500000  0.500000  0.168705  1
  Os  Os4  1  0.500000  0.500000  0.831295  1
  Os  Os5  1  0.000000  0.000000  0.331264  1
  O  O6  1  0.203696  0.796304  0.825854  1
  O  O7  1  0.706463  0.706463  0.320407  1
  O  O8  1  0.813802  0.186198  0.500000  1
  O  O9  1  0.293537  0.293537  0.679593  1
  O  O10  1  0.796304  0.203696  0.825854  1
  O  O11  1  0.186198  0.813802  0.500000  1
  O  O12  1  0.313073  0.313073  0.000000  1
  O  O13  1  0.686927  0.686927  0.000000  1
  O  O14  1  0.293537  0.293537  0.320407  1
  O  O15  1  0.203696  0.796304  0.174146  1
  O  O16  1  0.706463  0.706463  0.679593  1
  O  O17  1  0.796304  0.203696  0.174146  1
