# generated using pymatgen
data_Sc3Cd2MoO8
_symmetry_space_group_name_H-M   'P 1'
_cell_length_a   6.45503266
_cell_length_b   6.44084325
_cell_length_c   6.44084400
_cell_angle_alpha   60.00000640
_cell_angle_beta   60.07269546
_cell_angle_gamma   60.07270527
_symmetry_Int_Tables_number   1
_chemical_formula_structural   Sc3Cd2MoO8
_chemical_formula_sum   'Sc3 Cd2 Mo1 O8'
_cell_volume   189.55940453
_cell_formula_units_Z   1
loop_
 _symmetry_equiv_pos_site_id
 _symmetry_equiv_pos_as_xyz
  1  'x, y, z'
loop_
 _atom_site_type_symbol
 _atom_site_label
 _atom_site_symmetry_multiplicity
 _atom_site_fract_x
 _atom_site_fract_y
 _atom_site_fract_z
 _atom_site_occupancy
  Sc  Sc0  1  0.125000  0.125000  0.125000  1
  Sc  Sc1  1  0.125000  0.125000  0.625000  1
  Sc  Sc2  1  0.125000  0.625000  0.125000  1
  Cd  Cd3  1  0.746571  0.751143  0.751143  1
  Cd  Cd4  1  0.503429  0.498857  0.498857  1
  Mo  Mo5  1  0.625000  0.125000  0.125000  1
  O  O6  1  0.896373  0.329311  0.887158  1
  O  O7  1  0.353627  0.362842  0.920689  1
  O  O8  1  0.353627  0.362842  0.362842  1
  O  O9  1  0.923054  0.358982  0.358982  1
  O  O10  1  0.896373  0.887158  0.887158  1
  O  O11  1  0.326946  0.891018  0.891018  1
  O  O12  1  0.353627  0.920689  0.362842  1
  O  O13  1  0.896373  0.887158  0.329311  1
