# generated using pymatgen
data_Ho6TmCrO12
_symmetry_space_group_name_H-M   'P 1'
_cell_length_a   6.58543186
_cell_length_b   6.58543291
_cell_length_c   6.58543246
_cell_angle_alpha   93.17001237
_cell_angle_beta   93.17000599
_cell_angle_gamma   93.17000612
_symmetry_Int_Tables_number   1
_chemical_formula_structural   Ho6TmCrO12
_chemical_formula_sum   'Ho6 Tm1 Cr1 O12'
_cell_volume   284.23495009
_cell_formula_units_Z   1
loop_
 _symmetry_equiv_pos_site_id
 _symmetry_equiv_pos_as_xyz
  1  'x, y, z'
loop_
 _atom_site_type_symbol
 _atom_site_label
 _atom_site_symmetry_multiplicity
 _atom_site_fract_x
 _atom_site_fract_y
 _atom_site_fract_z
 _atom_site_occupancy
  Ho  Ho0  1  0.739764  0.925041  0.436171  1
  Ho  Ho1  1  0.925041  0.436171  0.739764  1
  Ho  Ho2  1  0.436171  0.739764  0.925041  1
  Ho  Ho3  1  0.260236  0.074959  0.563829  1
  Ho  Ho4  1  0.074959  0.563829  0.260236  1
  Ho  Ho5  1  0.563829  0.260236  0.074959  1
  Tm  Tm6  1  0.000000  0.000000  0.000000  1
  Cr  Cr7  1  0.500000  0.500000  0.500000  1
  O  O8  1  0.588834  0.462272  0.798985  1
  O  O9  1  0.462272  0.798985  0.588834  1
  O  O10  1  0.798985  0.588834  0.462272  1
  O  O11  1  0.411166  0.537728  0.201015  1
  O  O12  1  0.537728  0.201015  0.411166  1
  O  O13  1  0.201015  0.411166  0.537728  1
  O  O14  1  0.068588  0.908108  0.316577  1
  O  O15  1  0.908108  0.316577  0.068588  1
  O  O16  1  0.683423  0.931412  0.091892  1
  O  O17  1  0.091892  0.683423  0.931412  1
  O  O18  1  0.931412  0.091892  0.683423  1
  O  O19  1  0.316577  0.068588  0.908108  1
