# generated using pymatgen
data_Eu10Al9Au
_symmetry_space_group_name_H-M   'P 1'
_cell_length_a   5.71874500
_cell_length_b   9.46592400
_cell_length_c   9.99600200
_cell_angle_alpha   90.00000000
_cell_angle_beta   90.00000000
_cell_angle_gamma   90.00000000
_symmetry_Int_Tables_number   1
_chemical_formula_structural   Eu10Al9Au
_chemical_formula_sum   'Eu10 Al9 Au1'
_cell_volume   541.11563090
_cell_formula_units_Z   1
loop_
 _symmetry_equiv_pos_site_id
 _symmetry_equiv_pos_as_xyz
  1  'x, y, z'
loop_
 _atom_site_type_symbol
 _atom_site_label
 _atom_site_symmetry_multiplicity
 _atom_site_fract_x
 _atom_site_fract_y
 _atom_site_fract_z
 _atom_site_occupancy
  Eu  Eu0  1  0.500000  0.815464  0.916253  1
  Eu  Eu1  1  0.500000  0.184536  0.916253  1
  Eu  Eu2  1  0.000000  0.679916  0.085519  1
  Eu  Eu3  1  0.000000  0.320084  0.085519  1
  Eu  Eu4  1  0.500000  0.696673  0.306582  1
  Eu  Eu5  1  0.500000  0.303327  0.306582  1
  Eu  Eu6  1  0.000000  0.799771  0.691001  1
  Eu  Eu7  1  0.000000  0.200229  0.691001  1
  Eu  Eu8  1  0.500000  0.000000  0.507906  1
  Eu  Eu9  1  0.000000  0.500000  0.492846  1
  Al  Al10  1  0.741715  0.000000  0.184028  1
  Al  Al11  1  0.258285  0.000000  0.184028  1
  Al  Al12  1  0.758476  0.500000  0.816506  1
  Al  Al13  1  0.241524  0.500000  0.816506  1
  Al  Al14  1  0.500000  0.643820  0.625675  1
  Al  Al15  1  0.500000  0.356180  0.625675  1
  Al  Al16  1  0.000000  0.854979  0.373303  1
  Al  Al17  1  0.000000  0.145021  0.373303  1
  Al  Al18  1  0.000000  0.000000  0.954511  1
  Au  Au19  1  0.500000  0.500000  0.047004  1
