# generated using pymatgen
data_ErTm6Zn(Co3Sn11)2
_symmetry_space_group_name_H-M   'P 1'
_cell_length_a   9.62595800
_cell_length_b   9.62595836
_cell_length_c   9.93020900
_cell_angle_alpha   90.00000000
_cell_angle_beta   90.00000000
_cell_angle_gamma   120.00000564
_symmetry_Int_Tables_number   1
_chemical_formula_structural   ErTm6Zn(Co3Sn11)2
_chemical_formula_sum   'Er1 Tm6 Zn1 Co6 Sn22'
_cell_volume   796.85066088
_cell_formula_units_Z   1
loop_
 _symmetry_equiv_pos_site_id
 _symmetry_equiv_pos_as_xyz
  1  'x, y, z'
loop_
 _atom_site_type_symbol
 _atom_site_label
 _atom_site_symmetry_multiplicity
 _atom_site_fract_x
 _atom_site_fract_y
 _atom_site_fract_z
 _atom_site_occupancy
  Er  Er0  1  0.000000  0.000000  0.000000  1
  Tm  Tm1  1  0.480878  0.519122  0.305901  1
  Tm  Tm2  1  0.519122  0.480878  0.694099  1
  Tm  Tm3  1  0.480878  0.961756  0.305901  1
  Tm  Tm4  1  0.519122  0.038244  0.694099  1
  Tm  Tm5  1  0.038244  0.519122  0.305901  1
  Tm  Tm6  1  0.961756  0.480878  0.694099  1
  Zn  Zn7  1  0.000000  0.000000  0.500000  1
  Co  Co8  1  0.831330  0.168670  0.198028  1
  Co  Co9  1  0.168670  0.831330  0.801972  1
  Co  Co10  1  0.831330  0.662661  0.198028  1
  Co  Co11  1  0.168670  0.337339  0.801972  1
  Co  Co12  1  0.337339  0.168670  0.198028  1
  Co  Co13  1  0.662661  0.831330  0.801972  1
  Sn  Sn14  1  0.114396  0.885604  0.276663  1
  Sn  Sn15  1  0.885604  0.114396  0.723337  1
  Sn  Sn16  1  0.114396  0.228791  0.276663  1
  Sn  Sn17  1  0.885604  0.771209  0.723337  1
  Sn  Sn18  1  0.771209  0.885604  0.276663  1
  Sn  Sn19  1  0.228791  0.114396  0.723337  1
  Sn  Sn20  1  0.783040  0.216960  0.455397  1
  Sn  Sn21  1  0.216960  0.783040  0.544603  1
  Sn  Sn22  1  0.783040  0.566079  0.455397  1
  Sn  Sn23  1  0.216960  0.433921  0.544603  1
  Sn  Sn24  1  0.433921  0.216960  0.455397  1
  Sn  Sn25  1  0.566079  0.783040  0.544603  1
  Sn  Sn26  1  0.346258  0.000000  0.000000  1
  Sn  Sn27  1  0.653742  0.000000  0.000000  1
  Sn  Sn28  1  0.000000  0.346258  0.000000  1
  Sn  Sn29  1  0.000000  0.653742  0.000000  1
  Sn  Sn30  1  0.653742  0.653742  0.000000  1
  Sn  Sn31  1  0.346258  0.346258  0.000000  1
  Sn  Sn32  1  0.333333  0.666667  0.124710  1
  Sn  Sn33  1  0.666667  0.333333  0.875290  1
  Sn  Sn34  1  0.333333  0.666667  0.819426  1
  Sn  Sn35  1  0.666667  0.333333  0.180574  1
