# generated using pymatgen
data_YEr2Sn3Ir2Pd
_symmetry_space_group_name_H-M   'P 1'
_cell_length_a   7.57836576
_cell_length_b   7.59270959
_cell_length_c   3.87532400
_cell_angle_alpha   90.00000000
_cell_angle_beta   90.00000000
_cell_angle_gamma   120.11158043
_symmetry_Int_Tables_number   1
_chemical_formula_structural   YEr2Sn3Ir2Pd
_chemical_formula_sum   'Y1 Er2 Sn3 Ir2 Pd1'
_cell_volume   192.89527926
_cell_formula_units_Z   1
loop_
 _symmetry_equiv_pos_site_id
 _symmetry_equiv_pos_as_xyz
  1  'x, y, z'
loop_
 _atom_site_type_symbol
 _atom_site_label
 _atom_site_symmetry_multiplicity
 _atom_site_fract_x
 _atom_site_fract_y
 _atom_site_fract_z
 _atom_site_occupancy
  Y  Y0  1  0.396135  0.409131  0.500000  1
  Er  Er1  1  0.590153  0.985104  0.500000  1
  Er  Er2  1  0.015019  0.605185  0.500000  1
  Sn  Sn3  1  0.739880  0.736682  0.000000  1
  Sn  Sn4  1  0.263287  0.002711  0.000000  1
  Sn  Sn5  1  0.996021  0.260019  0.000000  1
  Ir  Ir6  1  0.332600  0.670193  0.000000  1
  Ir  Ir7  1  0.998009  0.998055  0.500000  1
  Pd  Pd8  1  0.668896  0.332920  0.000000  1
