# generated using pymatgen
data_Tm2Mg2IrRh
_symmetry_space_group_name_H-M   'P 1'
_cell_length_a   4.05880100
_cell_length_b   7.02522361
_cell_length_c   8.50091816
_cell_angle_alpha   89.09009407
_cell_angle_beta   90.00000000
_cell_angle_gamma   90.00000000
_symmetry_Int_Tables_number   1
_chemical_formula_structural   Tm2Mg2IrRh
_chemical_formula_sum   'Tm4 Mg4 Ir2 Rh2'
_cell_volume   242.36448410
_cell_formula_units_Z   2
loop_
 _symmetry_equiv_pos_site_id
 _symmetry_equiv_pos_as_xyz
  1  'x, y, z'
loop_
 _atom_site_type_symbol
 _atom_site_label
 _atom_site_symmetry_multiplicity
 _atom_site_fract_x
 _atom_site_fract_y
 _atom_site_fract_z
 _atom_site_occupancy
  Tm  Tm0  1  0.250000  0.536734  0.172515  1
  Tm  Tm1  1  0.750000  0.463266  0.827485  1
  Tm  Tm2  1  0.750000  0.957109  0.675192  1
  Tm  Tm3  1  0.250000  0.042891  0.324808  1
  Mg  Mg4  1  0.250000  0.635472  0.558360  1
  Mg  Mg5  1  0.750000  0.364528  0.441640  1
  Mg  Mg6  1  0.750000  0.864739  0.058614  1
  Mg  Mg7  1  0.250000  0.135261  0.941386  1
  Ir  Ir8  1  0.250000  0.750881  0.866877  1
  Ir  Ir9  1  0.750000  0.249119  0.133123  1
  Rh  Rh10  1  0.750000  0.751599  0.368723  1
  Rh  Rh11  1  0.250000  0.248401  0.631277  1
