# generated using pymatgen
data_YHo19(Ir2Ru)4
_symmetry_space_group_name_H-M   'P 1'
_cell_length_a   10.79765675
_cell_length_b   10.79613826
_cell_length_c   6.41061553
_cell_angle_alpha   89.97821801
_cell_angle_beta   90.04093317
_cell_angle_gamma   90.01243215
_symmetry_Int_Tables_number   1
_chemical_formula_structural   YHo19(Ir2Ru)4
_chemical_formula_sum   'Y1 Ho19 Ir8 Ru4'
_cell_volume   747.30439032
_cell_formula_units_Z   1
loop_
 _symmetry_equiv_pos_site_id
 _symmetry_equiv_pos_as_xyz
  1  'x, y, z'
loop_
 _atom_site_type_symbol
 _atom_site_label
 _atom_site_symmetry_multiplicity
 _atom_site_fract_x
 _atom_site_fract_y
 _atom_site_fract_z
 _atom_site_occupancy
  Y  Y0  1  0.292946  0.086657  0.376754  1
  Ho  Ho1  1  0.293656  0.913361  0.877464  1
  Ho  Ho2  1  0.706539  0.086709  0.877302  1
  Ho  Ho3  1  0.706629  0.913728  0.377605  1
  Ho  Ho4  1  0.586475  0.793415  0.877583  1
  Ho  Ho5  1  0.586874  0.206623  0.377499  1
  Ho  Ho6  1  0.413788  0.793183  0.377470  1
  Ho  Ho7  1  0.413739  0.206494  0.877605  1
  Ho  Ho8  1  0.206428  0.413743  0.622559  1
  Ho  Ho9  1  0.206500  0.586483  0.122621  1
  Ho  Ho10  1  0.793544  0.413573  0.122466  1
  Ho  Ho11  1  0.793559  0.586539  0.622436  1
  Ho  Ho12  1  0.913362  0.706355  0.122537  1
  Ho  Ho13  1  0.913377  0.293414  0.622807  1
  Ho  Ho14  1  0.086401  0.706304  0.622290  1
  Ho  Ho15  1  0.085983  0.293860  0.122130  1
  Ho  Ho16  1  0.999669  0.999995  0.499873  1
  Ho  Ho17  1  0.999723  0.999879  0.000046  1
  Ho  Ho18  1  0.499953  0.499938  0.999895  1
  Ho  Ho19  1  0.500170  0.500203  0.500079  1
  Ir  Ir20  1  0.847580  0.152284  0.249979  1
  Ir  Ir21  1  0.847617  0.847682  0.750070  1
  Ir  Ir22  1  0.151782  0.152628  0.751548  1
  Ir  Ir23  1  0.151975  0.846881  0.249667  1
  Ir  Ir24  1  0.652468  0.347570  0.750028  1
  Ir  Ir25  1  0.652148  0.652295  0.250254  1
  Ir  Ir26  1  0.347732  0.348741  0.249261  1
  Ir  Ir27  1  0.347601  0.652337  0.750044  1
  Ru  Ru28  1  0.500624  0.999414  0.121322  1
  Ru  Ru29  1  0.500954  0.999461  0.623365  1
  Ru  Ru30  1  0.000041  0.499966  0.877662  1
  Ru  Ru31  1  0.000164  0.500285  0.377781  1
