# generated using pymatgen
data_Ti2B2PRu5
_symmetry_space_group_name_H-M   'P 1'
_cell_length_a   9.12984600
_cell_length_b   9.12984600
_cell_length_c   2.95784500
_cell_angle_alpha   90.00000000
_cell_angle_beta   90.00000000
_cell_angle_gamma   90.00000000
_symmetry_Int_Tables_number   1
_chemical_formula_structural   Ti2B2PRu5
_chemical_formula_sum   'Ti4 B4 P2 Ru10'
_cell_volume   246.54847237
_cell_formula_units_Z   2
loop_
 _symmetry_equiv_pos_site_id
 _symmetry_equiv_pos_as_xyz
  1  'x, y, z'
loop_
 _atom_site_type_symbol
 _atom_site_label
 _atom_site_symmetry_multiplicity
 _atom_site_fract_x
 _atom_site_fract_y
 _atom_site_fract_z
 _atom_site_occupancy
  Ti  Ti0  1  0.825171  0.674829  0.000000  1
  Ti  Ti1  1  0.174829  0.325171  0.000000  1
  Ti  Ti2  1  0.325171  0.825171  0.000000  1
  Ti  Ti3  1  0.674829  0.174829  0.000000  1
  B  B4  1  0.625524  0.874476  0.000000  1
  B  B5  1  0.374476  0.125524  0.000000  1
  B  B6  1  0.125524  0.625524  0.000000  1
  B  B7  1  0.874476  0.374476  0.000000  1
  P  P8  1  0.500000  0.500000  0.000000  1
  P  P9  1  0.000000  0.000000  0.000000  1
  Ru  Ru10  1  0.570733  0.707176  0.500000  1
  Ru  Ru11  1  0.429267  0.292824  0.500000  1
  Ru  Ru12  1  0.070733  0.792824  0.500000  1
  Ru  Ru13  1  0.929267  0.207176  0.500000  1
  Ru  Ru14  1  0.292824  0.570733  0.500000  1
  Ru  Ru15  1  0.707176  0.429267  0.500000  1
  Ru  Ru16  1  0.207176  0.070733  0.500000  1
  Ru  Ru17  1  0.792824  0.929267  0.500000  1
  Ru  Ru18  1  0.500000  0.000000  0.500000  1
  Ru  Ru19  1  0.000000  0.500000  0.500000  1
