# generated using pymatgen
data_Tb4ErSi6P6Ir19
_symmetry_space_group_name_H-M   'P 1'
_cell_length_a   12.80112712
_cell_length_b   12.80110617
_cell_length_c   3.95543300
_cell_angle_alpha   90.00000000
_cell_angle_beta   90.00000000
_cell_angle_gamma   119.98431247
_symmetry_Int_Tables_number   1
_chemical_formula_structural   Tb4ErSi6P6Ir19
_chemical_formula_sum   'Tb4 Er1 Si6 P6 Ir19'
_cell_volume   561.42145403
_cell_formula_units_Z   1
loop_
 _symmetry_equiv_pos_site_id
 _symmetry_equiv_pos_as_xyz
  1  'x, y, z'
loop_
 _atom_site_type_symbol
 _atom_site_label
 _atom_site_symmetry_multiplicity
 _atom_site_fract_x
 _atom_site_fract_y
 _atom_site_fract_z
 _atom_site_occupancy
  Tb  Tb0  1  0.666651  0.333317  0.000000  1
  Tb  Tb1  1  0.333362  0.666671  0.000000  1
  Tb  Tb2  1  0.816537  0.814907  0.500000  1
  Tb  Tb3  1  0.185128  0.001691  0.500000  1
  Er  Er4  1  0.998182  0.183479  0.500000  1
  Si  Si5  1  0.682090  0.162425  0.500000  1
  Si  Si6  1  0.837577  0.519610  0.500000  1
  Si  Si7  1  0.480221  0.317891  0.500000  1
  Si  Si8  1  0.636074  0.635238  0.000000  1
  Si  Si9  1  0.364761  0.000838  0.000000  1
  Si  Si10  1  0.999212  0.363496  0.000000  1
  P  P11  1  0.177571  0.694027  0.500000  1
  P  P12  1  0.516568  0.822490  0.500000  1
  P  P13  1  0.305965  0.483508  0.500000  1
  P  P14  1  0.176222  0.180519  0.000000  1
  P  P15  1  0.819811  0.996398  0.000000  1
  P  P16  1  0.003930  0.823586  0.000000  1
  Ir  Ir17  1  0.809318  0.175780  0.000000  1
  Ir  Ir18  1  0.824233  0.632703  0.000000  1
  Ir  Ir19  1  0.367279  0.191558  0.000000  1
  Ir  Ir20  1  0.182620  0.800803  0.000000  1
  Ir  Ir21  1  0.618192  0.817492  0.000000  1
  Ir  Ir22  1  0.198579  0.381320  0.000000  1
  Ir  Ir23  1  0.457976  0.443216  0.000000  1
  Ir  Ir24  1  0.556851  0.014709  0.000000  1
  Ir  Ir25  1  0.985322  0.541957  0.000000  1
  Ir  Ir26  1  0.277602  0.284403  0.500000  1
  Ir  Ir27  1  0.715699  0.993754  0.500000  1
  Ir  Ir28  1  0.006422  0.721786  0.500000  1
  Ir  Ir29  1  0.869326  0.353282  0.500000  1
  Ir  Ir30  1  0.646561  0.515781  0.500000  1
  Ir  Ir31  1  0.484182  0.130759  0.500000  1
  Ir  Ir32  1  0.368343  0.874125  0.500000  1
  Ir  Ir33  1  0.505829  0.631721  0.500000  1
  Ir  Ir34  1  0.125808  0.494073  0.500000  1
  Ir  Ir35  1  0.999997  0.000688  0.000000  1
