# generated using pymatgen
data_Pr7Y(CdOs)2
_symmetry_space_group_name_H-M   'P 1'
_cell_length_a   9.97142680
_cell_length_b   9.97811208
_cell_length_c   9.97142784
_cell_angle_alpha   59.97781676
_cell_angle_beta   60.04436425
_cell_angle_gamma   59.97781953
_symmetry_Int_Tables_number   1
_chemical_formula_structural   Pr7Y(CdOs)2
_chemical_formula_sum   'Pr14 Y2 Cd4 Os4'
_cell_volume   701.53226056
_cell_formula_units_Z   2
loop_
 _symmetry_equiv_pos_site_id
 _symmetry_equiv_pos_as_xyz
  1  'x, y, z'
loop_
 _atom_site_type_symbol
 _atom_site_label
 _atom_site_symmetry_multiplicity
 _atom_site_fract_x
 _atom_site_fract_y
 _atom_site_fract_z
 _atom_site_occupancy
  Pr  Pr0  1  0.441067  0.441067  0.058933  1
  Pr  Pr1  1  0.058933  0.058933  0.441067  1
  Pr  Pr2  1  0.441067  0.058933  0.058933  1
  Pr  Pr3  1  0.845143  0.849038  0.845143  1
  Pr  Pr4  1  0.689033  0.310967  0.310967  1
  Pr  Pr5  1  0.058933  0.441067  0.441067  1
  Pr  Pr6  1  0.310967  0.689033  0.689033  1
  Pr  Pr7  1  0.310967  0.310967  0.689033  1
  Pr  Pr8  1  0.849038  0.845143  0.460676  1
  Pr  Pr9  1  0.689033  0.689033  0.310967  1
  Pr  Pr10  1  0.460676  0.845143  0.849038  1
  Pr  Pr11  1  0.057758  0.442242  0.057758  1
  Pr  Pr12  1  0.845143  0.460676  0.845143  1
  Pr  Pr13  1  0.442242  0.057758  0.442242  1
  Y  Y14  1  0.309013  0.690987  0.309013  1
  Y  Y15  1  0.690987  0.309013  0.690987  1
  Cd  Cd16  1  0.080016  0.762826  0.080016  1
  Cd  Cd17  1  0.077142  0.080016  0.762826  1
  Cd  Cd18  1  0.762826  0.080016  0.077142  1
  Cd  Cd19  1  0.080016  0.077142  0.080016  1
  Os  Os20  1  0.638570  0.086345  0.638570  1
  Os  Os21  1  0.638570  0.636513  0.638570  1
  Os  Os22  1  0.636513  0.638570  0.086345  1
  Os  Os23  1  0.086345  0.638570  0.636513  1
