# generated using pymatgen
data_Sr6ScTcRuO12
_symmetry_space_group_name_H-M   'P 1'
_cell_length_a   8.82530935
_cell_length_b   8.82531001
_cell_length_c   7.01935795
_cell_angle_alpha   67.83573573
_cell_angle_beta   67.83573358
_cell_angle_gamma   36.88071570
_symmetry_Int_Tables_number   1
_chemical_formula_structural   Sr6ScTcRuO12
_chemical_formula_sum   'Sr6 Sc1 Tc1 Ru1 O12'
_cell_volume   301.04732957
_cell_formula_units_Z   1
loop_
 _symmetry_equiv_pos_site_id
 _symmetry_equiv_pos_as_xyz
  1  'x, y, z'
loop_
 _atom_site_type_symbol
 _atom_site_label
 _atom_site_symmetry_multiplicity
 _atom_site_fract_x
 _atom_site_fract_y
 _atom_site_fract_z
 _atom_site_occupancy
  Sr  Sr0  1  0.218535  0.218535  0.709045  1
  Sr  Sr1  1  0.877225  0.877225  0.704234  1
  Sr  Sr2  1  0.551179  0.551179  0.704193  1
  Sr  Sr3  1  0.779330  0.779330  0.293787  1
  Sr  Sr4  1  0.453133  0.453133  0.298392  1
  Sr  Sr5  1  0.121921  0.121921  0.289054  1
  Sc  Sc6  1  0.667462  0.667462  0.999359  1
  Tc  Tc7  1  0.995398  0.995398  0.999285  1
  Ru  Ru8  1  0.338342  0.338342  0.000979  1
  O  O9  1  0.279503  0.279503  0.326218  1
  O  O10  1  0.946757  0.946757  0.318698  1
  O  O11  1  0.609678  0.609678  0.330825  1
  O  O12  1  0.721084  0.721084  0.669101  1
  O  O13  1  0.388210  0.388210  0.673932  1
  O  O14  1  0.052458  0.052458  0.682100  1
  O  O15  1  0.010072  0.496891  0.999570  1
  O  O16  1  0.670250  0.165101  0.000285  1
  O  O17  1  0.318809  0.838660  0.000543  1
  O  O18  1  0.496891  0.010072  0.999570  1
  O  O19  1  0.165101  0.670250  0.000285  1
  O  O20  1  0.838660  0.318809  0.000543  1
