# generated using pymatgen
data_Dy3Y9TlZnCo4
_symmetry_space_group_name_H-M   'P 1'
_cell_length_a   8.34679281
_cell_length_b   8.35474486
_cell_length_c   8.34679307
_cell_angle_alpha   111.98705212
_cell_angle_beta   109.35682134
_cell_angle_gamma   107.06858548
_symmetry_Int_Tables_number   1
_chemical_formula_structural   Dy3Y9TlZnCo4
_chemical_formula_sum   'Dy3 Y9 Tl1 Zn1 Co4'
_cell_volume   447.46047869
_cell_formula_units_Z   1
loop_
 _symmetry_equiv_pos_site_id
 _symmetry_equiv_pos_as_xyz
  1  'x, y, z'
loop_
 _atom_site_type_symbol
 _atom_site_label
 _atom_site_symmetry_multiplicity
 _atom_site_fract_x
 _atom_site_fract_y
 _atom_site_fract_z
 _atom_site_occupancy
  Dy  Dy0  1  0.674803  0.362048  0.687245  1
  Dy  Dy1  1  0.324825  0.010954  0.686129  1
  Dy  Dy2  1  0.675015  0.988176  0.313161  1
  Y  Y3  1  0.428404  0.229999  0.197213  1
  Y  Y4  1  0.572125  0.769840  0.802573  1
  Y  Y5  1  0.032785  0.229999  0.801596  1
  Y  Y6  1  0.967267  0.769840  0.197714  1
  Y  Y7  1  0.180754  0.282759  0.463651  1
  Y  Y8  1  0.819454  0.717150  0.536487  1
  Y  Y9  1  0.180664  0.717150  0.897696  1
  Y  Y10  1  0.819108  0.282759  0.102005  1
  Y  Y11  1  0.324308  0.635504  0.311196  1
  Tl  Tl12  1  0.500012  0.500136  0.000123  1
  Zn  Zn13  1  0.000291  0.000803  0.000512  1
  Co  Co14  1  0.347569  0.001642  0.348170  1
  Co  Co15  1  0.653472  0.001642  0.654073  1
  Co  Co16  1  0.113251  0.613912  0.500661  1
  Co  Co17  1  0.885892  0.385688  0.499796  1
