# generated using pymatgen
data_Ho3Er2In4CoPd
_symmetry_space_group_name_H-M   'P 1'
_cell_length_a   3.58395500
_cell_length_b   8.04742469
_cell_length_c   18.02468468
_cell_angle_alpha   90.19053517
_cell_angle_beta   90.00000000
_cell_angle_gamma   90.00000000
_symmetry_Int_Tables_number   1
_chemical_formula_structural   Ho3Er2In4CoPd
_chemical_formula_sum   'Ho6 Er4 In8 Co2 Pd2'
_cell_volume   519.85801475
_cell_formula_units_Z   2
loop_
 _symmetry_equiv_pos_site_id
 _symmetry_equiv_pos_as_xyz
  1  'x, y, z'
loop_
 _atom_site_type_symbol
 _atom_site_label
 _atom_site_symmetry_multiplicity
 _atom_site_fract_x
 _atom_site_fract_y
 _atom_site_fract_z
 _atom_site_occupancy
  Ho  Ho0  1  0.000000  0.500000  0.500000  1
  Ho  Ho1  1  0.000000  0.000000  0.000000  1
  Ho  Ho2  1  0.000000  0.727227  0.275853  1
  Ho  Ho3  1  0.000000  0.272773  0.724147  1
  Ho  Ho4  1  0.000000  0.740524  0.781966  1
  Ho  Ho5  1  0.000000  0.259476  0.218034  1
  Er  Er6  1  0.000000  0.613951  0.089360  1
  Er  Er7  1  0.000000  0.386049  0.910640  1
  Er  Er8  1  0.000000  0.880658  0.585654  1
  Er  Er9  1  0.000000  0.119342  0.414346  1
  In  In10  1  0.500000  0.703530  0.932632  1
  In  In11  1  0.500000  0.296470  0.067368  1
  In  In12  1  0.500000  0.792902  0.431974  1
  In  In13  1  0.500000  0.207098  0.568026  1
  In  In14  1  0.500000  0.573966  0.652122  1
  In  In15  1  0.500000  0.426034  0.347878  1
  In  In16  1  0.500000  0.924160  0.149366  1
  In  In17  1  0.500000  0.075840  0.850634  1
  Co  Co18  1  0.500000  0.518552  0.193981  1
  Co  Co19  1  0.500000  0.481448  0.806019  1
  Pd  Pd20  1  0.500000  0.979123  0.696622  1
  Pd  Pd21  1  0.500000  0.020877  0.303378  1
