# generated using pymatgen
data_Er5Mo2C7
_symmetry_space_group_name_H-M   'P 1'
_cell_length_a   8.34616432
_cell_length_b   8.34616353
_cell_length_c   3.40828000
_cell_angle_alpha   90.00000000
_cell_angle_beta   90.00000000
_cell_angle_gamma   122.25719974
_symmetry_Int_Tables_number   1
_chemical_formula_structural   Er5Mo2C7
_chemical_formula_sum   'Er5 Mo2 C7'
_cell_volume   200.77298081
_cell_formula_units_Z   1
loop_
 _symmetry_equiv_pos_site_id
 _symmetry_equiv_pos_as_xyz
  1  'x, y, z'
loop_
 _atom_site_type_symbol
 _atom_site_label
 _atom_site_symmetry_multiplicity
 _atom_site_fract_x
 _atom_site_fract_y
 _atom_site_fract_z
 _atom_site_occupancy
  Er  Er0  1  0.500000  0.500000  0.000000  1
  Er  Er1  1  0.075936  0.334261  0.500000  1
  Er  Er2  1  0.924064  0.665739  0.500000  1
  Er  Er3  1  0.665739  0.924064  0.500000  1
  Er  Er4  1  0.334261  0.075936  0.500000  1
  Mo  Mo5  1  0.712474  0.287526  0.000000  1
  Mo  Mo6  1  0.287526  0.712474  0.000000  1
  C  C7  1  0.623305  0.376695  0.500000  1
  C  C8  1  0.376695  0.623305  0.500000  1
  C  C9  1  0.000000  0.000000  0.000000  1
  C  C10  1  0.168132  0.168132  0.000000  1
  C  C11  1  0.831868  0.831868  0.000000  1
  C  C12  1  0.000000  0.500000  0.000000  1
  C  C13  1  0.500000  0.000000  0.000000  1
