# generated using pymatgen
data_Tb2ErTh(Al8Pd3)3
_symmetry_space_group_name_H-M   'P 1'
_cell_length_a   7.57590286
_cell_length_b   7.60113952
_cell_length_c   13.19044864
_cell_angle_alpha   84.50730611
_cell_angle_beta   78.98680112
_cell_angle_gamma   59.94918191
_symmetry_Int_Tables_number   1
_chemical_formula_structural   Tb2ErTh(Al8Pd3)3
_chemical_formula_sum   'Tb2 Er1 Th1 Al24 Pd9'
_cell_volume   645.36854929
_cell_formula_units_Z   1
loop_
 _symmetry_equiv_pos_site_id
 _symmetry_equiv_pos_as_xyz
  1  'x, y, z'
loop_
 _atom_site_type_symbol
 _atom_site_label
 _atom_site_symmetry_multiplicity
 _atom_site_fract_x
 _atom_site_fract_y
 _atom_site_fract_z
 _atom_site_occupancy
  Tb  Tb0  1  0.606154  0.831191  0.192747  1
  Tb  Tb1  1  0.733282  0.498631  0.808280  1
  Er  Er2  1  0.265854  0.501946  0.193212  1
  Th  Th3  1  0.393444  0.168056  0.808150  1
  Al  Al4  1  0.687037  0.830645  0.947608  1
  Al  Al5  1  0.314922  0.166691  0.059138  1
  Al  Al6  1  0.146365  0.833573  0.560111  1
  Al  Al7  1  0.855046  0.166506  0.436911  1
  Al  Al8  1  0.480504  0.166627  0.556920  1
  Al  Al9  1  0.520748  0.832384  0.439837  1
  Al  Al10  1  0.217759  0.165716  0.328709  1
  Al  Al11  1  0.787507  0.831360  0.666774  1
  Al  Al12  1  0.437416  0.510468  0.667493  1
  Al  Al13  1  0.563345  0.493193  0.328398  1
  Al  Al14  1  0.106978  0.159332  0.665750  1
  Al  Al15  1  0.891356  0.840018  0.329793  1
  Al  Al16  1  0.351251  0.503019  0.947766  1
  Al  Al17  1  0.645570  0.501291  0.056857  1
  Al  Al18  1  0.011379  0.167071  0.958489  1
  Al  Al19  1  0.984119  0.831386  0.048587  1
  Al  Al20  1  0.186517  0.500416  0.439770  1
  Al  Al21  1  0.813424  0.500154  0.558569  1
  Al  Al22  1  0.733043  0.164481  0.183852  1
  Al  Al23  1  0.265568  0.832466  0.816297  1
  Al  Al24  1  0.058542  0.634647  0.815025  1
  Al  Al25  1  0.937839  0.369928  0.185528  1
  Al  Al26  1  0.859467  0.041146  0.816370  1
  Al  Al27  1  0.144363  0.957374  0.184459  1
  Pd  Pd28  1  0.121128  0.491748  0.637861  1
  Pd  Pd29  1  0.880711  0.507515  0.361456  1
  Pd  Pd30  1  0.656305  0.171583  0.000267  1
  Pd  Pd31  1  0.342647  0.829494  0.000464  1
  Pd  Pd32  1  0.537722  0.167114  0.361239  1
  Pd  Pd33  1  0.461897  0.834051  0.637694  1
  Pd  Pd34  1  0.778004  0.174584  0.637346  1
  Pd  Pd35  1  0.221834  0.824931  0.361807  1
  Pd  Pd36  1  0.000957  0.499269  0.000463  1
