# generated using pymatgen
data_Nd3Hg2Pd3Au
_symmetry_space_group_name_H-M   'P 1'
_cell_length_a   7.80551200
_cell_length_b   7.73978331
_cell_length_c   3.97166200
_cell_angle_alpha   90.00000000
_cell_angle_beta   90.00000000
_cell_angle_gamma   120.28132344
_symmetry_Int_Tables_number   1
_chemical_formula_structural   Nd3Hg2Pd3Au
_chemical_formula_sum   'Nd3 Hg2 Pd3 Au1'
_cell_volume   207.20249430
_cell_formula_units_Z   1
loop_
 _symmetry_equiv_pos_site_id
 _symmetry_equiv_pos_as_xyz
  1  'x, y, z'
loop_
 _atom_site_type_symbol
 _atom_site_label
 _atom_site_symmetry_multiplicity
 _atom_site_fract_x
 _atom_site_fract_y
 _atom_site_fract_z
 _atom_site_occupancy
  Nd  Nd0  1  0.592621  0.000000  0.000000  1
  Nd  Nd1  1  0.009653  0.614538  0.000000  1
  Nd  Nd2  1  0.395115  0.385462  0.000000  1
  Hg  Hg3  1  0.998935  0.262464  0.500000  1
  Hg  Hg4  1  0.736471  0.737536  0.500000  1
  Pd  Pd5  1  0.333769  0.665162  0.500000  1
  Pd  Pd6  1  0.668608  0.334838  0.500000  1
  Pd  Pd7  1  0.998965  0.000000  0.000000  1
  Au  Au8  1  0.265861  0.000000  0.500000  1
