# generated using pymatgen
data_Sc8Ti4Ga7Si9Mo8
_symmetry_space_group_name_H-M   'P 1'
_cell_length_a   6.64571512
_cell_length_b   6.75404227
_cell_length_c   13.18450992
_cell_angle_alpha   89.86619196
_cell_angle_beta   90.10011420
_cell_angle_gamma   89.97603092
_symmetry_Int_Tables_number   1
_chemical_formula_structural   Sc8Ti4Ga7Si9Mo8
_chemical_formula_sum   'Sc8 Ti4 Ga7 Si9 Mo8'
_cell_volume   591.78997025
_cell_formula_units_Z   1
loop_
 _symmetry_equiv_pos_site_id
 _symmetry_equiv_pos_as_xyz
  1  'x, y, z'
loop_
 _atom_site_type_symbol
 _atom_site_label
 _atom_site_symmetry_multiplicity
 _atom_site_fract_x
 _atom_site_fract_y
 _atom_site_fract_z
 _atom_site_occupancy
  Sc  Sc0  1  0.496868  0.327083  0.099906  1
  Sc  Sc1  1  0.998836  0.174856  0.402123  1
  Sc  Sc2  1  0.499203  0.670826  0.598359  1
  Sc  Sc3  1  0.003307  0.827705  0.899869  1
  Sc  Sc4  1  0.504789  0.671676  0.901125  1
  Sc  Sc5  1  0.004404  0.825705  0.597930  1
  Sc  Sc6  1  0.492584  0.328332  0.403711  1
  Sc  Sc7  1  0.995584  0.171225  0.098687  1
  Ti  Ti8  1  0.841596  0.331229  0.629111  1
  Ti  Ti9  1  0.337465  0.169834  0.869561  1
  Ti  Ti10  1  0.163041  0.668596  0.130195  1
  Ti  Ti11  1  0.662863  0.830664  0.370895  1
  Ga  Ga12  1  0.670004  0.037625  0.539703  1
  Ga  Ga13  1  0.170328  0.462940  0.960505  1
  Ga  Ga14  1  0.330089  0.961667  0.038652  1
  Ga  Ga15  1  0.828166  0.536893  0.461516  1
  Ga  Ga16  1  0.325863  0.960086  0.461498  1
  Ga  Ga17  1  0.824650  0.540245  0.037497  1
  Ga  Ga18  1  0.675467  0.040540  0.962482  1
  Si  Si19  1  0.168917  0.460351  0.538235  1
  Si  Si20  1  0.537342  0.384851  0.748334  1
  Si  Si21  1  0.036299  0.113146  0.750205  1
  Si  Si22  1  0.463931  0.613408  0.250005  1
  Si  Si23  1  0.965710  0.884611  0.252603  1
  Si  Si24  1  0.797353  0.643383  0.748937  1
  Si  Si25  1  0.300608  0.860097  0.749759  1
  Si  Si26  1  0.201320  0.356242  0.249595  1
  Si  Si27  1  0.701508  0.142991  0.251406  1
  Mo  Mo28  1  0.166737  0.662116  0.369459  1
  Mo  Mo29  1  0.664934  0.832569  0.135041  1
  Mo  Mo30  1  0.837297  0.332744  0.864951  1
  Mo  Mo31  1  0.331324  0.174324  0.630823  1
  Mo  Mo32  1  0.662098  0.008960  0.749666  1
  Mo  Mo33  1  0.161605  0.493710  0.746088  1
  Mo  Mo34  1  0.339304  0.990975  0.250245  1
  Mo  Mo35  1  0.838608  0.507794  0.251323  1
