# generated using pymatgen
data_Ba8Ho3Tm(CoO5)4
_symmetry_space_group_name_H-M   'P 1'
_cell_length_a   6.14749004
_cell_length_b   7.94750314
_cell_length_c   12.47250490
_cell_angle_alpha   91.36926199
_cell_angle_beta   89.99275706
_cell_angle_gamma   89.98925443
_symmetry_Int_Tables_number   1
_chemical_formula_structural   Ba8Ho3Tm(CoO5)4
_chemical_formula_sum   'Ba8 Ho3 Tm1 Co4 O20'
_cell_volume   609.19760104
_cell_formula_units_Z   1
loop_
 _symmetry_equiv_pos_site_id
 _symmetry_equiv_pos_as_xyz
  1  'x, y, z'
loop_
 _atom_site_type_symbol
 _atom_site_label
 _atom_site_symmetry_multiplicity
 _atom_site_fract_x
 _atom_site_fract_y
 _atom_site_fract_z
 _atom_site_occupancy
  Ba  Ba0  1  0.758147  0.492465  0.361829  1
  Ba  Ba1  1  0.742665  0.994216  0.862130  1
  Ba  Ba2  1  0.241928  0.506263  0.638743  1
  Ba  Ba3  1  0.257243  0.007409  0.137119  1
  Ba  Ba4  1  0.753814  0.993323  0.382634  1
  Ba  Ba5  1  0.746592  0.492790  0.882511  1
  Ba  Ba6  1  0.246027  0.007243  0.618455  1
  Ba  Ba7  1  0.253408  0.506369  0.116595  1
  Ho  Ho8  1  0.748425  0.261223  0.629624  1
  Ho  Ho9  1  0.751734  0.761507  0.129004  1
  Ho  Ho10  1  0.251813  0.738569  0.370860  1
  Tm  Tm11  1  0.248371  0.239314  0.870711  1
  Co  Co12  1  0.740815  0.745995  0.592317  1
  Co  Co13  1  0.758283  0.246265  0.091045  1
  Co  Co14  1  0.258762  0.253620  0.407843  1
  Co  Co15  1  0.241064  0.753840  0.907599  1
  O  O16  1  0.756799  0.970774  0.635331  1
  O  O17  1  0.743811  0.470314  0.134380  1
  O  O18  1  0.243392  0.029142  0.364799  1
  O  O19  1  0.256202  0.528103  0.865531  1
  O  O20  1  0.738209  0.052677  0.167569  1
  O  O21  1  0.762253  0.552523  0.668445  1
  O  O22  1  0.261484  0.949673  0.833488  1
  O  O23  1  0.237788  0.446907  0.331565  1
  O  O24  1  0.541378  0.746911  0.270452  1
  O  O25  1  0.964060  0.247157  0.769538  1
  O  O26  1  0.461111  0.252676  0.732110  1
  O  O27  1  0.040924  0.753005  0.229546  1
  O  O28  1  0.527649  0.232183  0.986589  1
  O  O29  1  0.968561  0.731208  0.486915  1
  O  O30  1  0.469046  0.768117  0.012860  1
  O  O31  1  0.030562  0.268408  0.513085  1
  O  O32  1  0.030052  0.235662  0.015915  1
  O  O33  1  0.468326  0.735574  0.518940  1
  O  O34  1  0.968955  0.764103  0.981459  1
  O  O35  1  0.530345  0.264471  0.482464  1
