# generated using pymatgen
data_Tb4Zn4AgIr3
_symmetry_space_group_name_H-M   'P 1'
_cell_length_a   4.11916000
_cell_length_b   7.06015125
_cell_length_c   8.24642268
_cell_angle_alpha   90.35936415
_cell_angle_beta   90.00000000
_cell_angle_gamma   90.00000000
_symmetry_Int_Tables_number   1
_chemical_formula_structural   Tb4Zn4AgIr3
_chemical_formula_sum   'Tb4 Zn4 Ag1 Ir3'
_cell_volume   239.81686169
_cell_formula_units_Z   1
loop_
 _symmetry_equiv_pos_site_id
 _symmetry_equiv_pos_as_xyz
  1  'x, y, z'
loop_
 _atom_site_type_symbol
 _atom_site_label
 _atom_site_symmetry_multiplicity
 _atom_site_fract_x
 _atom_site_fract_y
 _atom_site_fract_z
 _atom_site_occupancy
  Tb  Tb0  1  0.250000  0.528604  0.196710  1
  Tb  Tb1  1  0.750000  0.441158  0.813240  1
  Tb  Tb2  1  0.250000  0.040147  0.315185  1
  Tb  Tb3  1  0.750000  0.972283  0.671088  1
  Zn  Zn4  1  0.250000  0.148237  0.935935  1
  Zn  Zn5  1  0.750000  0.865218  0.073078  1
  Zn  Zn6  1  0.250000  0.636850  0.559016  1
  Zn  Zn7  1  0.750000  0.361156  0.434536  1
  Ag  Ag8  1  0.250000  0.760168  0.880523  1
  Ir  Ir9  1  0.750000  0.745685  0.378189  1
  Ir  Ir10  1  0.250000  0.256309  0.621838  1
  Ir  Ir11  1  0.750000  0.244186  0.120662  1
