# generated using pymatgen
data_Dy9Tm(RuRh)2
_symmetry_space_group_name_H-M   'P 1'
_cell_length_a   6.36656987
_cell_length_b   7.23242441
_cell_length_c   8.53117577
_cell_angle_alpha   96.59107699
_cell_angle_beta   111.90912175
_cell_angle_gamma   89.99999536
_symmetry_Int_Tables_number   1
_chemical_formula_structural   Dy9Tm(RuRh)2
_chemical_formula_sum   'Dy9 Tm1 Ru2 Rh2'
_cell_volume   361.65333189
_cell_formula_units_Z   1
loop_
 _symmetry_equiv_pos_site_id
 _symmetry_equiv_pos_as_xyz
  1  'x, y, z'
loop_
 _atom_site_type_symbol
 _atom_site_label
 _atom_site_symmetry_multiplicity
 _atom_site_fract_x
 _atom_site_fract_y
 _atom_site_fract_z
 _atom_site_occupancy
  Dy  Dy0  1  0.792093  0.081275  0.812437  1
  Dy  Dy1  1  0.979656  0.418725  0.187563  1
  Dy  Dy2  1  0.208952  0.914475  0.184477  1
  Dy  Dy3  1  0.024474  0.585525  0.815523  1
  Dy  Dy4  1  0.208532  0.183696  0.565273  1
  Dy  Dy5  1  0.643259  0.316304  0.434727  1
  Dy  Dy6  1  0.791425  0.812375  0.436629  1
  Dy  Dy7  1  0.354794  0.687625  0.563371  1
  Dy  Dy8  1  0.421167  0.250000  0.000000  1
  Tm  Tm9  1  0.575677  0.750000  0.000000  1
  Ru  Ru10  1  0.397768  0.574718  0.219712  1
  Ru  Ru11  1  0.178057  0.925282  0.780288  1
  Rh  Rh12  1  0.601895  0.425442  0.779646  1
  Rh  Rh13  1  0.822249  0.074558  0.220354  1
