# generated using pymatgen
data_Yb2B2Pt7Pb
_symmetry_space_group_name_H-M   'P 1'
_cell_length_a   8.26366113
_cell_length_b   8.26366060
_cell_length_c   8.26366060
_cell_angle_alpha   38.97959184
_cell_angle_beta   38.97959376
_cell_angle_gamma   38.97959350
_symmetry_Int_Tables_number   1
_chemical_formula_structural   Yb2B2Pt7Pb
_chemical_formula_sum   'Yb2 B2 Pt7 Pb1'
_cell_volume   200.80493532
_cell_formula_units_Z   1
loop_
 _symmetry_equiv_pos_site_id
 _symmetry_equiv_pos_as_xyz
  1  'x, y, z'
loop_
 _atom_site_type_symbol
 _atom_site_label
 _atom_site_symmetry_multiplicity
 _atom_site_fract_x
 _atom_site_fract_y
 _atom_site_fract_z
 _atom_site_occupancy
  Yb  Yb0  1  0.497605  0.497605  0.497605  1
  Yb  Yb1  1  0.644649  0.644649  0.644649  1
  B  B2  1  0.168572  0.168572  0.168572  1
  B  B3  1  0.833403  0.833403  0.833403  1
  Pt  Pt4  1  0.000359  0.000359  0.000359  1
  Pt  Pt5  1  0.567943  0.065040  0.065040  1
  Pt  Pt6  1  0.065040  0.567943  0.065040  1
  Pt  Pt7  1  0.935646  0.935646  0.433541  1
  Pt  Pt8  1  0.065040  0.065040  0.567943  1
  Pt  Pt9  1  0.935646  0.433541  0.935646  1
  Pt  Pt10  1  0.433541  0.935646  0.935646  1
  Pb  Pb11  1  0.352555  0.352555  0.352555  1
