# generated using pymatgen
data_Ho4Hf(Pd2Pt3)3
_symmetry_space_group_name_H-M   'P 1'
_cell_length_a   4.09326500
_cell_length_b   4.09326500
_cell_length_c   20.52747400
_cell_angle_alpha   90.00000000
_cell_angle_beta   90.00000000
_cell_angle_gamma   90.00000000
_symmetry_Int_Tables_number   1
_chemical_formula_structural   Ho4Hf(Pd2Pt3)3
_chemical_formula_sum   'Ho4 Hf1 Pd6 Pt9'
_cell_volume   343.93409826
_cell_formula_units_Z   1
loop_
 _symmetry_equiv_pos_site_id
 _symmetry_equiv_pos_as_xyz
  1  'x, y, z'
loop_
 _atom_site_type_symbol
 _atom_site_label
 _atom_site_symmetry_multiplicity
 _atom_site_fract_x
 _atom_site_fract_y
 _atom_site_fract_z
 _atom_site_occupancy
  Ho  Ho0  1  0.000000  0.000000  0.198889  1
  Ho  Ho1  1  0.000000  0.000000  0.398751  1
  Ho  Ho2  1  0.000000  0.000000  0.601249  1
  Ho  Ho3  1  0.000000  0.000000  0.801111  1
  Hf  Hf4  1  0.000000  0.000000  0.000000  1
  Pd  Pd5  1  0.500000  0.500000  0.196423  1
  Pd  Pd6  1  0.500000  0.500000  0.399325  1
  Pd  Pd7  1  0.500000  0.500000  0.600675  1
  Pd  Pd8  1  0.500000  0.500000  0.803577  1
  Pd  Pd9  1  0.500000  0.000000  0.500000  1
  Pd  Pd10  1  0.000000  0.500000  0.500000  1
  Pt  Pt11  1  0.500000  0.500000  0.000000  1
  Pt  Pt12  1  0.500000  0.000000  0.094814  1
  Pt  Pt13  1  0.500000  0.000000  0.298097  1
  Pt  Pt14  1  0.500000  0.000000  0.701903  1
  Pt  Pt15  1  0.500000  0.000000  0.905186  1
  Pt  Pt16  1  0.000000  0.500000  0.094814  1
  Pt  Pt17  1  0.000000  0.500000  0.298097  1
  Pt  Pt18  1  0.000000  0.500000  0.701903  1
  Pt  Pt19  1  0.000000  0.500000  0.905186  1
