# generated using pymatgen
data_TbY3(Si2Tc)2
_symmetry_space_group_name_H-M   'P 1'
_cell_length_a   5.82770354
_cell_length_b   5.82770398
_cell_length_c   10.13939423
_cell_angle_alpha   63.49397952
_cell_angle_beta   63.49397648
_cell_angle_gamma   42.17390573
_symmetry_Int_Tables_number   1
_chemical_formula_structural   TbY3(Si2Tc)2
_chemical_formula_sum   'Tb1 Y3 Si4 Tc2'
_cell_volume   203.03130968
_cell_formula_units_Z   1
loop_
 _symmetry_equiv_pos_site_id
 _symmetry_equiv_pos_as_xyz
  1  'x, y, z'
loop_
 _atom_site_type_symbol
 _atom_site_label
 _atom_site_symmetry_multiplicity
 _atom_site_fract_x
 _atom_site_fract_y
 _atom_site_fract_z
 _atom_site_occupancy
  Tb  Tb0  1  0.005664  0.005664  0.322617  1
  Y  Y1  1  0.187190  0.187190  0.890747  1
  Y  Y2  1  0.994344  0.994344  0.677385  1
  Y  Y3  1  0.812773  0.812773  0.109250  1
  Si  Si4  1  0.355934  0.355934  0.560783  1
  Si  Si5  1  0.498796  0.498796  0.877954  1
  Si  Si6  1  0.644037  0.644037  0.439212  1
  Si  Si7  1  0.501176  0.501176  0.121941  1
  Tc  Tc8  1  0.727052  0.727052  0.629362  1
  Tc  Tc9  1  0.273034  0.273034  0.370748  1
