# generated using pymatgen
data_Er3Fe8P6Ir
_symmetry_space_group_name_H-M   'P 1'
_cell_length_a   3.72192000
_cell_length_b   10.61756900
_cell_length_c   12.27684100
_cell_angle_alpha   90.00000000
_cell_angle_beta   90.00000000
_cell_angle_gamma   90.00000000
_symmetry_Int_Tables_number   1
_chemical_formula_structural   Er3Fe8P6Ir
_chemical_formula_sum   'Er6 Fe16 P12 Ir2'
_cell_volume   485.15304028
_cell_formula_units_Z   2
loop_
 _symmetry_equiv_pos_site_id
 _symmetry_equiv_pos_as_xyz
  1  'x, y, z'
loop_
 _atom_site_type_symbol
 _atom_site_label
 _atom_site_symmetry_multiplicity
 _atom_site_fract_x
 _atom_site_fract_y
 _atom_site_fract_z
 _atom_site_occupancy
  Er  Er0  1  0.750000  0.250000  0.479912  1
  Er  Er1  1  0.250000  0.750000  0.520088  1
  Er  Er2  1  0.250000  0.934105  0.794716  1
  Er  Er3  1  0.250000  0.565895  0.794716  1
  Er  Er4  1  0.750000  0.065895  0.205284  1
  Er  Er5  1  0.750000  0.434105  0.205284  1
  Fe  Fe6  1  0.250000  0.250000  0.846294  1
  Fe  Fe7  1  0.750000  0.750000  0.153706  1
  Fe  Fe8  1  0.750000  0.250000  0.008961  1
  Fe  Fe9  1  0.250000  0.750000  0.991039  1
  Fe  Fe10  1  0.250000  0.423072  0.001772  1
  Fe  Fe11  1  0.250000  0.076928  0.001772  1
  Fe  Fe12  1  0.750000  0.576928  0.998228  1
  Fe  Fe13  1  0.750000  0.923072  0.998228  1
  Fe  Fe14  1  0.250000  0.449593  0.569508  1
  Fe  Fe15  1  0.250000  0.050407  0.569508  1
  Fe  Fe16  1  0.750000  0.550407  0.430492  1
  Fe  Fe17  1  0.750000  0.949593  0.430492  1
  Fe  Fe18  1  0.250000  0.866338  0.290338  1
  Fe  Fe19  1  0.250000  0.633662  0.290338  1
  Fe  Fe20  1  0.750000  0.133662  0.709662  1
  Fe  Fe21  1  0.750000  0.366338  0.709662  1
  P  P22  1  0.250000  0.250000  0.108164  1
  P  P23  1  0.750000  0.750000  0.891836  1
  P  P24  1  0.250000  0.250000  0.660119  1
  P  P25  1  0.750000  0.750000  0.339881  1
  P  P26  1  0.250000  0.451975  0.386886  1
  P  P27  1  0.250000  0.048025  0.386886  1
  P  P28  1  0.750000  0.548025  0.613114  1
  P  P29  1  0.750000  0.951975  0.613114  1
  P  P30  1  0.250000  0.899455  0.111196  1
  P  P31  1  0.250000  0.600545  0.111196  1
  P  P32  1  0.750000  0.100545  0.888804  1
  P  P33  1  0.750000  0.399455  0.888804  1
  Ir  Ir34  1  0.250000  0.250000  0.300977  1
  Ir  Ir35  1  0.750000  0.750000  0.699023  1
