# generated using pymatgen
data_Pr3BTeO9
_symmetry_space_group_name_H-M   'P 1'
_cell_length_a   8.91800100
_cell_length_b   8.91800312
_cell_length_c   5.66790600
_cell_angle_alpha   90.00000000
_cell_angle_beta   90.00000000
_cell_angle_gamma   120.00000326
_symmetry_Int_Tables_number   1
_chemical_formula_structural   Pr3BTeO9
_chemical_formula_sum   'Pr6 B2 Te2 O18'
_cell_volume   390.38074916
_cell_formula_units_Z   2
loop_
 _symmetry_equiv_pos_site_id
 _symmetry_equiv_pos_as_xyz
  1  'x, y, z'
loop_
 _atom_site_type_symbol
 _atom_site_label
 _atom_site_symmetry_multiplicity
 _atom_site_fract_x
 _atom_site_fract_y
 _atom_site_fract_z
 _atom_site_occupancy
  Pr  Pr0  1  0.351819  0.072428  0.201571  1
  Pr  Pr1  1  0.927573  0.279391  0.201571  1
  Pr  Pr2  1  0.720610  0.648182  0.201571  1
  Pr  Pr3  1  0.279391  0.351819  0.701570  1
  Pr  Pr4  1  0.072428  0.720610  0.701570  1
  Pr  Pr5  1  0.648182  0.927573  0.701570  1
  B  B6  1  0.000000  0.000000  0.371160  1
  B  B7  1  0.000000  0.000000  0.871159  1
  Te  Te8  1  0.333335  0.666667  0.243017  1
  Te  Te9  1  0.666665  0.333332  0.743018  1
  O  O10  1  0.218578  0.463789  0.044317  1
  O  O11  1  0.245208  0.781420  0.044317  1
  O  O12  1  0.536210  0.754792  0.044319  1
  O  O13  1  0.129224  0.172161  0.362748  1
  O  O14  1  0.042938  0.870777  0.362748  1
  O  O15  1  0.827839  0.957062  0.362748  1
  O  O16  1  0.133833  0.528276  0.456373  1
  O  O17  1  0.471723  0.605556  0.456373  1
  O  O18  1  0.394443  0.866167  0.456373  1
  O  O19  1  0.781420  0.536211  0.544316  1
  O  O20  1  0.754791  0.218581  0.544318  1
  O  O21  1  0.463789  0.245209  0.544318  1
  O  O22  1  0.172162  0.042939  0.862749  1
  O  O23  1  0.957061  0.129224  0.862749  1
  O  O24  1  0.870777  0.827838  0.862749  1
  O  O25  1  0.605557  0.133834  0.956372  1
  O  O26  1  0.528277  0.394443  0.956372  1
  O  O27  1  0.866167  0.471724  0.956373  1
