# generated using pymatgen
data_K3AcO8
_symmetry_space_group_name_H-M   'P 1'
_cell_length_a   6.73735224
_cell_length_b   6.72191733
_cell_length_c   6.73077072
_cell_angle_alpha   114.54632759
_cell_angle_beta   114.63142387
_cell_angle_gamma   99.67777921
_symmetry_Int_Tables_number   1
_chemical_formula_structural   K3AcO8
_chemical_formula_sum   'K3 Ac1 O8'
_cell_volume   229.57838556
_cell_formula_units_Z   1
loop_
 _symmetry_equiv_pos_site_id
 _symmetry_equiv_pos_as_xyz
  1  'x, y, z'
loop_
 _atom_site_type_symbol
 _atom_site_label
 _atom_site_symmetry_multiplicity
 _atom_site_fract_x
 _atom_site_fract_y
 _atom_site_fract_z
 _atom_site_occupancy
  K  K0  1  0.499675  0.499953  0.999850  1
  K  K1  1  0.749834  0.249945  0.499996  1
  K  K2  1  0.249693  0.749681  0.499560  1
  Ac  Ac3  1  0.999978  0.999767  0.999745  1
  O  O4  1  0.685554  0.160308  0.000170  1
  O  O5  1  0.946121  0.616518  0.999859  1
  O  O6  1  0.160350  0.685585  0.000182  1
  O  O7  1  0.616703  0.946310  0.999856  1
  O  O8  1  0.383565  0.383443  0.329949  1
  O  O9  1  0.314608  0.314659  0.474812  1
  O  O10  1  0.839977  0.840012  0.525367  1
  O  O11  1  0.053941  0.053820  0.670657  1
