# generated using pymatgen
data_Sm8Hf12Si15Sn
_symmetry_space_group_name_H-M   'P 1'
_cell_length_a   7.36948734
_cell_length_b   7.40009958
_cell_length_c   13.57174732
_cell_angle_alpha   89.75343321
_cell_angle_beta   89.98500506
_cell_angle_gamma   89.88560340
_symmetry_Int_Tables_number   1
_chemical_formula_structural   Sm8Hf12Si15Sn
_chemical_formula_sum   'Sm8 Hf12 Si15 Sn1'
_cell_volume   740.12607575
_cell_formula_units_Z   1
loop_
 _symmetry_equiv_pos_site_id
 _symmetry_equiv_pos_as_xyz
  1  'x, y, z'
loop_
 _atom_site_type_symbol
 _atom_site_label
 _atom_site_symmetry_multiplicity
 _atom_site_fract_x
 _atom_site_fract_y
 _atom_site_fract_z
 _atom_site_occupancy
  Sm  Sm0  1  0.988175  0.343807  0.212663  1
  Sm  Sm1  1  0.005526  0.656577  0.716204  1
  Sm  Sm2  1  0.149489  0.503734  0.470417  1
  Sm  Sm3  1  0.506760  0.841850  0.032756  1
  Sm  Sm4  1  0.843833  0.504787  0.964139  1
  Sm  Sm5  1  0.497064  0.154503  0.538795  1
  Sm  Sm6  1  0.343063  0.995031  0.784959  1
  Sm  Sm7  1  0.662388  0.999019  0.283419  1
  Hf  Hf8  1  0.174583  0.175203  0.999146  1
  Hf  Hf9  1  0.825263  0.826632  0.501108  1
  Hf  Hf10  1  0.325745  0.681721  0.248086  1
  Hf  Hf11  1  0.675278  0.324942  0.750365  1
  Hf  Hf12  1  0.143489  0.986930  0.374051  1
  Hf  Hf13  1  0.851146  0.005140  0.873657  1
  Hf  Hf14  1  0.505111  0.650908  0.624385  1
  Hf  Hf15  1  0.350127  0.493721  0.876092  1
  Hf  Hf16  1  0.495106  0.350390  0.118174  1
  Hf  Hf17  1  0.660994  0.516002  0.379912  1
  Hf  Hf18  1  0.993364  0.150338  0.626877  1
  Hf  Hf19  1  0.004021  0.848229  0.123930  1
  Si  Si20  1  0.635214  0.704275  0.815458  1
  Si  Si21  1  0.204316  0.866642  0.566781  1
  Si  Si22  1  0.135735  0.795038  0.933543  1
  Si  Si23  1  0.795913  0.134497  0.063968  1
  Si  Si24  1  0.864201  0.204094  0.434843  1
  Si  Si25  1  0.295651  0.365092  0.685137  1
  Si  Si26  1  0.702304  0.634956  0.184018  1
  Si  Si27  1  0.292191  0.042588  0.180811  1
  Si  Si28  1  0.708210  0.949073  0.686458  1
  Si  Si29  1  0.449810  0.794697  0.435688  1
  Si  Si30  1  0.206962  0.549637  0.064234  1
  Si  Si31  1  0.549508  0.206144  0.933768  1
  Si  Si32  1  0.790683  0.449941  0.566826  1
  Si  Si33  1  0.049954  0.292284  0.814585  1
  Si  Si34  1  0.952454  0.704783  0.313069  1
  Sn  Sn35  1  0.366368  0.296798  0.321676  1
