# generated using pymatgen
data_YbPr7ZnPd24
_symmetry_space_group_name_H-M   'P 1'
_cell_length_a   8.50436953
_cell_length_b   8.50437006
_cell_length_c   8.50437000
_cell_angle_alpha   89.94777309
_cell_angle_beta   90.05222691
_cell_angle_gamma   90.05222733
_symmetry_Int_Tables_number   1
_chemical_formula_structural   YbPr7ZnPd24
_chemical_formula_sum   'Yb1 Pr7 Zn1 Pd24'
_cell_volume   615.07188899
_cell_formula_units_Z   1
loop_
 _symmetry_equiv_pos_site_id
 _symmetry_equiv_pos_as_xyz
  1  'x, y, z'
loop_
 _atom_site_type_symbol
 _atom_site_label
 _atom_site_symmetry_multiplicity
 _atom_site_fract_x
 _atom_site_fract_y
 _atom_site_fract_z
 _atom_site_occupancy
  Yb  Yb0  1  0.750339  0.249661  0.249661  1
  Pr  Pr1  1  0.249576  0.250854  0.250854  1
  Pr  Pr2  1  0.750169  0.749271  0.749271  1
  Pr  Pr3  1  0.749146  0.750424  0.250854  1
  Pr  Pr4  1  0.749146  0.250854  0.750424  1
  Pr  Pr5  1  0.250729  0.249831  0.749271  1
  Pr  Pr6  1  0.250729  0.749271  0.249831  1
  Pr  Pr7  1  0.249320  0.750680  0.750680  1
  Zn  Zn8  1  0.000790  0.999210  0.999210  1
  Pd  Pd9  1  0.262274  0.500317  0.998461  1
  Pd  Pd10  1  0.737447  0.496942  0.005022  1
  Pd  Pd11  1  0.994978  0.262553  0.496942  1
  Pd  Pd12  1  0.503058  0.262553  0.005022  1
  Pd  Pd13  1  0.001539  0.737726  0.500317  1
  Pd  Pd14  1  0.499683  0.737726  0.998461  1
  Pd  Pd15  1  0.503058  0.005022  0.262553  1
  Pd  Pd16  1  0.262274  0.998461  0.500317  1
  Pd  Pd17  1  0.499683  0.998461  0.737726  1
  Pd  Pd18  1  0.737447  0.005022  0.496942  1
  Pd  Pd19  1  0.994978  0.496942  0.262553  1
  Pd  Pd20  1  0.001539  0.500317  0.737726  1
  Pd  Pd21  1  0.253860  0.500959  0.500959  1
  Pd  Pd22  1  0.746328  0.495861  0.495861  1
  Pd  Pd23  1  0.504139  0.253672  0.495861  1
  Pd  Pd24  1  0.499041  0.746140  0.500959  1
  Pd  Pd25  1  0.504139  0.495861  0.253672  1
  Pd  Pd26  1  0.499041  0.500959  0.746140  1
  Pd  Pd27  1  0.299022  0.999485  0.999485  1
  Pd  Pd28  1  0.703558  0.004028  0.004028  1
  Pd  Pd29  1  0.995972  0.296442  0.004028  1
  Pd  Pd30  1  0.000515  0.700978  0.999485  1
  Pd  Pd31  1  0.995972  0.004028  0.296442  1
  Pd  Pd32  1  0.000515  0.999485  0.700978  1
