# generated using pymatgen
data_Si4Ni5Ru3
_symmetry_space_group_name_H-M   'P 1'
_cell_length_a   3.70225100
_cell_length_b   5.54246811
_cell_length_c   6.99798340
_cell_angle_alpha   90.02058282
_cell_angle_beta   90.00000000
_cell_angle_gamma   90.00000000
_symmetry_Int_Tables_number   1
_chemical_formula_structural   Si4Ni5Ru3
_chemical_formula_sum   'Si4 Ni5 Ru3'
_cell_volume   143.59586753
_cell_formula_units_Z   1
loop_
 _symmetry_equiv_pos_site_id
 _symmetry_equiv_pos_as_xyz
  1  'x, y, z'
loop_
 _atom_site_type_symbol
 _atom_site_label
 _atom_site_symmetry_multiplicity
 _atom_site_fract_x
 _atom_site_fract_y
 _atom_site_fract_z
 _atom_site_occupancy
  Si  Si0  1  0.250000  0.254407  0.620996  1
  Si  Si1  1  0.750000  0.746146  0.378222  1
  Si  Si2  1  0.250000  0.757911  0.879193  1
  Si  Si3  1  0.750000  0.241978  0.119125  1
  Ni  Ni4  1  0.750000  0.034133  0.816036  1
  Ni  Ni5  1  0.250000  0.345960  0.937233  1
  Ni  Ni6  1  0.750000  0.647922  0.056575  1
  Ni  Ni7  1  0.250000  0.853726  0.564568  1
  Ni  Ni8  1  0.750000  0.149460  0.442416  1
  Ru  Ru9  1  0.250000  0.469208  0.312191  1
  Ru  Ru10  1  0.750000  0.532753  0.685751  1
  Ru  Ru11  1  0.250000  0.966396  0.187693  1
