# generated using pymatgen
data_Sr5AgPd5
_symmetry_space_group_name_H-M   'P 1'
_cell_length_a   15.01072300
_cell_length_b   15.01072152
_cell_length_c   4.36078700
_cell_angle_alpha   90.00000000
_cell_angle_beta   90.00000000
_cell_angle_gamma   162.21481263
_symmetry_Int_Tables_number   1
_chemical_formula_structural   Sr5AgPd5
_chemical_formula_sum   'Sr5 Ag1 Pd5'
_cell_volume   300.12830932
_cell_formula_units_Z   1
loop_
 _symmetry_equiv_pos_site_id
 _symmetry_equiv_pos_as_xyz
  1  'x, y, z'
loop_
 _atom_site_type_symbol
 _atom_site_label
 _atom_site_symmetry_multiplicity
 _atom_site_fract_x
 _atom_site_fract_y
 _atom_site_fract_z
 _atom_site_occupancy
  Sr  Sr0  1  0.004185  0.995815  0.000000  1
  Sr  Sr1  1  0.615787  0.384211  0.000000  1
  Sr  Sr2  1  0.383099  0.616899  0.000000  1
  Sr  Sr3  1  0.798997  0.201001  0.500001  1
  Sr  Sr4  1  0.196203  0.803795  0.500001  1
  Ag  Ag5  1  0.910124  0.089875  0.500001  1
  Pd  Pd6  1  0.724460  0.275538  0.000000  1
  Pd  Pd7  1  0.275507  0.724491  0.000000  1
  Pd  Pd8  1  0.545195  0.454803  0.500001  1
  Pd  Pd9  1  0.456485  0.543513  0.500001  1
  Pd  Pd10  1  0.089949  0.910050  0.500001  1
