# generated using pymatgen
data_Ba8In4FeCo3O20
_symmetry_space_group_name_H-M   'P 1'
_cell_length_a   6.01451419
_cell_length_b   7.98363376
_cell_length_c   12.35778560
_cell_angle_alpha   91.54419111
_cell_angle_beta   89.92757556
_cell_angle_gamma   90.00972807
_symmetry_Int_Tables_number   1
_chemical_formula_structural   Ba8In4FeCo3O20
_chemical_formula_sum   'Ba8 In4 Fe1 Co3 O20'
_cell_volume   593.17620031
_cell_formula_units_Z   1
loop_
 _symmetry_equiv_pos_site_id
 _symmetry_equiv_pos_as_xyz
  1  'x, y, z'
loop_
 _atom_site_type_symbol
 _atom_site_label
 _atom_site_symmetry_multiplicity
 _atom_site_fract_x
 _atom_site_fract_y
 _atom_site_fract_z
 _atom_site_occupancy
  Ba  Ba0  1  0.758103  0.491725  0.358184  1
  Ba  Ba1  1  0.742508  0.995225  0.861386  1
  Ba  Ba2  1  0.241001  0.502726  0.640207  1
  Ba  Ba3  1  0.257846  0.004778  0.137808  1
  Ba  Ba4  1  0.755735  0.995973  0.380883  1
  Ba  Ba5  1  0.744774  0.492919  0.882374  1
  Ba  Ba6  1  0.243581  0.010233  0.618320  1
  Ba  Ba7  1  0.255536  0.507676  0.116577  1
  In  In8  1  0.747515  0.261929  0.630874  1
  In  In9  1  0.752212  0.762425  0.129444  1
  In  In10  1  0.251834  0.737258  0.369160  1
  In  In11  1  0.247667  0.237480  0.871103  1
  Fe  Fe12  1  0.741296  0.745005  0.586419  1
  Co  Co13  1  0.757820  0.245866  0.089753  1
  Co  Co14  1  0.258274  0.254486  0.410081  1
  Co  Co15  1  0.242255  0.754028  0.909734  1
  O  O16  1  0.756089  0.969842  0.638171  1
  O  O17  1  0.744602  0.466576  0.135149  1
  O  O18  1  0.244709  0.033337  0.365198  1
  O  O19  1  0.255395  0.533047  0.866071  1
  O  O20  1  0.740351  0.055899  0.168568  1
  O  O21  1  0.759995  0.554552  0.672256  1
  O  O22  1  0.259859  0.944205  0.831801  1
  O  O23  1  0.240786  0.444489  0.331155  1
  O  O24  1  0.534658  0.747745  0.266664  1
  O  O25  1  0.968732  0.247781  0.766924  1
  O  O26  1  0.464908  0.252290  0.734341  1
  O  O27  1  0.032992  0.752292  0.233596  1
  O  O28  1  0.521079  0.230636  0.985231  1
  O  O29  1  0.977387  0.729776  0.482936  1
  O  O30  1  0.477449  0.769335  0.016218  1
  O  O31  1  0.021305  0.269539  0.515213  1
  O  O32  1  0.034153  0.233852  0.013376  1
  O  O33  1  0.466701  0.732306  0.509615  1
  O  O34  1  0.966684  0.766349  0.987956  1
  O  O35  1  0.534206  0.266418  0.487254  1
