# generated using pymatgen
data_Er3Al2ZnCu3
_symmetry_space_group_name_H-M   'P 1'
_cell_length_a   7.06021059
_cell_length_b   7.06021045
_cell_length_c   3.87864600
_cell_angle_alpha   90.00000000
_cell_angle_beta   90.00000000
_cell_angle_gamma   119.72127853
_symmetry_Int_Tables_number   1
_chemical_formula_structural   Er3Al2ZnCu3
_chemical_formula_sum   'Er3 Al2 Zn1 Cu3'
_cell_volume   167.90320670
_cell_formula_units_Z   1
loop_
 _symmetry_equiv_pos_site_id
 _symmetry_equiv_pos_as_xyz
  1  'x, y, z'
loop_
 _atom_site_type_symbol
 _atom_site_label
 _atom_site_symmetry_multiplicity
 _atom_site_fract_x
 _atom_site_fract_y
 _atom_site_fract_z
 _atom_site_occupancy
  Er  Er0  1  0.420006  0.420006  0.500000  1
  Er  Er1  1  0.587362  0.995744  0.500000  1
  Er  Er2  1  0.995744  0.587362  0.500000  1
  Al  Al3  1  0.240141  0.002800  0.000000  1
  Al  Al4  1  0.002800  0.240141  0.000000  1
  Zn  Zn5  1  0.756692  0.756692  0.000000  1
  Cu  Cu6  1  0.003652  0.003652  0.500000  1
  Cu  Cu7  1  0.666194  0.327407  0.000000  1
  Cu  Cu8  1  0.327407  0.666194  0.000000  1
