# generated using pymatgen
data_ZrSc3CdIr
_symmetry_space_group_name_H-M   'P 1'
_cell_length_a   9.07548600
_cell_length_b   9.07548633
_cell_length_c   9.07548700
_cell_angle_alpha   60.00000848
_cell_angle_beta   60.00000727
_cell_angle_gamma   60.00000185
_symmetry_Int_Tables_number   1
_chemical_formula_structural   ZrSc3CdIr
_chemical_formula_sum   'Zr4 Sc12 Cd4 Ir4'
_cell_volume   528.56061219
_cell_formula_units_Z   4
loop_
 _symmetry_equiv_pos_site_id
 _symmetry_equiv_pos_as_xyz
  1  'x, y, z'
loop_
 _atom_site_type_symbol
 _atom_site_label
 _atom_site_symmetry_multiplicity
 _atom_site_fract_x
 _atom_site_fract_y
 _atom_site_fract_z
 _atom_site_occupancy
  Zr  Zr0  1  0.352163  0.352163  0.352163  1
  Zr  Zr1  1  0.352163  0.352163  0.943509  1
  Zr  Zr2  1  0.352163  0.943509  0.352163  1
  Zr  Zr3  1  0.943509  0.352163  0.352163  1
  Sc  Sc4  1  0.809293  0.190707  0.190707  1
  Sc  Sc5  1  0.190707  0.809293  0.809293  1
  Sc  Sc6  1  0.190707  0.809293  0.190707  1
  Sc  Sc7  1  0.809293  0.190707  0.809293  1
  Sc  Sc8  1  0.190707  0.190707  0.809293  1
  Sc  Sc9  1  0.809293  0.809293  0.190707  1
  Sc  Sc10  1  0.939050  0.560950  0.560950  1
  Sc  Sc11  1  0.560950  0.939050  0.939050  1
  Sc  Sc12  1  0.560950  0.939050  0.560950  1
  Sc  Sc13  1  0.939050  0.560950  0.939050  1
  Sc  Sc14  1  0.560950  0.560950  0.939050  1
  Sc  Sc15  1  0.939050  0.939050  0.560950  1
  Cd  Cd16  1  0.584046  0.584046  0.584046  1
  Cd  Cd17  1  0.584046  0.584046  0.247862  1
  Cd  Cd18  1  0.584046  0.247862  0.584046  1
  Cd  Cd19  1  0.247862  0.584046  0.584046  1
  Ir  Ir20  1  0.142918  0.142918  0.142918  1
  Ir  Ir21  1  0.142918  0.142918  0.571246  1
  Ir  Ir22  1  0.142918  0.571246  0.142918  1
  Ir  Ir23  1  0.571246  0.142918  0.142918  1
