# generated using pymatgen
data_Ce(Er2Co)2
_symmetry_space_group_name_H-M   'P 1'
_cell_length_a   8.57834050
_cell_length_b   8.57834081
_cell_length_c   6.78183121
_cell_angle_alpha   84.53444143
_cell_angle_beta   84.53444382
_cell_angle_gamma   42.75997429
_symmetry_Int_Tables_number   1
_chemical_formula_structural   Ce(Er2Co)2
_chemical_formula_sum   'Ce2 Er8 Co4'
_cell_volume   337.04956052
_cell_formula_units_Z   2
loop_
 _symmetry_equiv_pos_site_id
 _symmetry_equiv_pos_as_xyz
  1  'x, y, z'
loop_
 _atom_site_type_symbol
 _atom_site_label
 _atom_site_symmetry_multiplicity
 _atom_site_fract_x
 _atom_site_fract_y
 _atom_site_fract_z
 _atom_site_occupancy
  Ce  Ce0  1  0.006859  0.798564  0.900581  1
  Ce  Ce1  1  0.201436  0.993141  0.599419  1
  Er  Er2  1  0.983905  0.205147  0.089648  1
  Er  Er3  1  0.794853  0.016095  0.410352  1
  Er  Er4  1  0.355835  0.212691  0.820499  1
  Er  Er5  1  0.787309  0.644165  0.679501  1
  Er  Er6  1  0.645149  0.782428  0.182729  1
  Er  Er7  1  0.217572  0.354851  0.317271  1
  Er  Er8  1  0.572434  0.427566  0.750000  1
  Er  Er9  1  0.422359  0.577641  0.250000  1
  Co  Co10  1  0.163081  0.618672  0.596917  1
  Co  Co11  1  0.381328  0.836919  0.903083  1
  Co  Co12  1  0.845928  0.378045  0.434771  1
  Co  Co13  1  0.621955  0.154072  0.065229  1
