# generated using pymatgen
data_Na4BiSb3Pt4
_symmetry_space_group_name_H-M   'P 1'
_cell_length_a   4.59149300
_cell_length_b   7.61091349
_cell_length_c   7.85057261
_cell_angle_alpha   90.36795511
_cell_angle_beta   90.00000000
_cell_angle_gamma   90.00000000
_symmetry_Int_Tables_number   1
_chemical_formula_structural   Na4BiSb3Pt4
_chemical_formula_sum   'Na4 Bi1 Sb3 Pt4'
_cell_volume   274.33618265
_cell_formula_units_Z   1
loop_
 _symmetry_equiv_pos_site_id
 _symmetry_equiv_pos_as_xyz
  1  'x, y, z'
loop_
 _atom_site_type_symbol
 _atom_site_label
 _atom_site_symmetry_multiplicity
 _atom_site_fract_x
 _atom_site_fract_y
 _atom_site_fract_z
 _atom_site_occupancy
  Na  Na0  1  0.750000  0.988262  0.684088  1
  Na  Na1  1  0.250000  0.006040  0.319419  1
  Na  Na2  1  0.750000  0.492373  0.821015  1
  Na  Na3  1  0.250000  0.515669  0.177384  1
  Bi  Bi4  1  0.750000  0.325146  0.409049  1
  Sb  Sb5  1  0.250000  0.171346  0.914469  1
  Sb  Sb6  1  0.250000  0.675312  0.586358  1
  Sb  Sb7  1  0.750000  0.821450  0.086998  1
  Pt  Pt8  1  0.250000  0.808624  0.904519  1
  Pt  Pt9  1  0.250000  0.314917  0.607985  1
  Pt  Pt10  1  0.750000  0.701368  0.406608  1
  Pt  Pt11  1  0.750000  0.179492  0.082108  1
