# generated using pymatgen
data_TbY2In3GaNi2
_symmetry_space_group_name_H-M   'P 1'
_cell_length_a   7.55593464
_cell_length_b   7.53877899
_cell_length_c   3.86688100
_cell_angle_alpha   90.00000000
_cell_angle_beta   90.00000000
_cell_angle_gamma   120.02808242
_symmetry_Int_Tables_number   1
_chemical_formula_structural   TbY2In3GaNi2
_chemical_formula_sum   'Tb1 Y2 In3 Ga1 Ni2'
_cell_volume   190.70306711
_cell_formula_units_Z   1
loop_
 _symmetry_equiv_pos_site_id
 _symmetry_equiv_pos_as_xyz
  1  'x, y, z'
loop_
 _atom_site_type_symbol
 _atom_site_label
 _atom_site_symmetry_multiplicity
 _atom_site_fract_x
 _atom_site_fract_y
 _atom_site_fract_z
 _atom_site_occupancy
  Tb  Tb0  1  0.397640  0.415740  0.500000  1
  Y  Y1  1  0.016608  0.601969  0.500000  1
  Y  Y2  1  0.585718  0.983529  0.500000  1
  In  In3  1  0.747110  0.751491  0.000000  1
  In  In4  1  0.003483  0.252836  0.000000  1
  In  In5  1  0.249128  0.995641  0.000000  1
  Ga  Ga6  1  0.666529  0.332837  0.000000  1
  Ni  Ni7  1  0.000363  0.000232  0.500000  1
  Ni  Ni8  1  0.333420  0.665726  0.000000  1
