# generated using pymatgen
data_Yb11Y(SiAg)12
_symmetry_space_group_name_H-M   'P 1'
_cell_length_a   4.49648800
_cell_length_b   7.69884601
_cell_length_c   21.31361583
_cell_angle_alpha   89.98172384
_cell_angle_beta   90.00000000
_cell_angle_gamma   90.00000000
_symmetry_Int_Tables_number   1
_chemical_formula_structural   Yb11Y(SiAg)12
_chemical_formula_sum   'Yb11 Y1 Si12 Ag12'
_cell_volume   737.82978508
_cell_formula_units_Z   1
loop_
 _symmetry_equiv_pos_site_id
 _symmetry_equiv_pos_as_xyz
  1  'x, y, z'
loop_
 _atom_site_type_symbol
 _atom_site_label
 _atom_site_symmetry_multiplicity
 _atom_site_fract_x
 _atom_site_fract_y
 _atom_site_fract_z
 _atom_site_occupancy
  Yb  Yb0  1  0.250000  0.219433  0.000611  1
  Yb  Yb1  1  0.250000  0.281436  0.499530  1
  Yb  Yb2  1  0.750000  0.778266  0.001814  1
  Yb  Yb3  1  0.750000  0.717795  0.500375  1
  Yb  Yb4  1  0.250000  0.203396  0.333595  1
  Yb  Yb5  1  0.250000  0.291988  0.832687  1
  Yb  Yb6  1  0.750000  0.794665  0.665709  1
  Yb  Yb7  1  0.750000  0.703781  0.166522  1
  Yb  Yb8  1  0.250000  0.210114  0.666109  1
  Yb  Yb9  1  0.250000  0.292501  0.167113  1
  Yb  Yb10  1  0.750000  0.792802  0.332863  1
  Y  Y11  1  0.750000  0.709932  0.833731  1
  Si  Si12  1  0.250000  0.582076  0.727179  1
  Si  Si13  1  0.250000  0.918131  0.223975  1
  Si  Si14  1  0.750000  0.418273  0.275994  1
  Si  Si15  1  0.750000  0.077847  0.775641  1
  Si  Si16  1  0.250000  0.913019  0.106374  1
  Si  Si17  1  0.250000  0.587036  0.607682  1
  Si  Si18  1  0.750000  0.084846  0.893219  1
  Si  Si19  1  0.750000  0.413333  0.393363  1
  Si  Si20  1  0.250000  0.594250  0.918847  1
  Si  Si21  1  0.250000  0.908836  0.428187  1
  Si  Si22  1  0.750000  0.409702  0.070997  1
  Si  Si23  1  0.750000  0.091763  0.572114  1
  Ag  Ag24  1  0.250000  0.913729  0.761234  1
  Ag  Ag25  1  0.250000  0.587523  0.261976  1
  Ag  Ag26  1  0.750000  0.088157  0.238299  1
  Ag  Ag27  1  0.750000  0.410654  0.738285  1
  Ag  Ag28  1  0.250000  0.923396  0.906761  1
  Ag  Ag29  1  0.250000  0.582299  0.405775  1
  Ag  Ag30  1  0.750000  0.082130  0.094270  1
  Ag  Ag31  1  0.750000  0.418071  0.594260  1
  Ag  Ag32  1  0.250000  0.916022  0.565332  1
  Ag  Ag33  1  0.250000  0.583005  0.067520  1
  Ag  Ag34  1  0.750000  0.083572  0.434577  1
  Ag  Ag35  1  0.750000  0.416222  0.937484  1
