# generated using pymatgen
data_Cs6As(PBr6)3
_symmetry_space_group_name_H-M   'P 1'
_cell_length_a   7.89286000
_cell_length_b   7.89286013
_cell_length_c   19.50186800
_cell_angle_alpha   90.00000000
_cell_angle_beta   90.00000000
_cell_angle_gamma   119.99999106
_symmetry_Int_Tables_number   1
_chemical_formula_structural   Cs6As(PBr6)3
_chemical_formula_sum   'Cs6 As1 P3 Br18'
_cell_volume   1052.14522811
_cell_formula_units_Z   1
loop_
 _symmetry_equiv_pos_site_id
 _symmetry_equiv_pos_as_xyz
  1  'x, y, z'
loop_
 _atom_site_type_symbol
 _atom_site_label
 _atom_site_symmetry_multiplicity
 _atom_site_fract_x
 _atom_site_fract_y
 _atom_site_fract_z
 _atom_site_occupancy
  Cs  Cs0  1  0.333333  0.666667  0.081571  1
  Cs  Cs1  1  0.666667  0.333333  0.914953  1
  Cs  Cs2  1  0.666667  0.333333  0.582698  1
  Cs  Cs3  1  0.333333  0.666667  0.407517  1
  Cs  Cs4  1  0.000000  0.000000  0.251460  1
  Cs  Cs5  1  0.000000  0.000000  0.756818  1
  As  As6  1  0.333333  0.666667  0.840956  1
  P  P7  1  0.333333  0.666667  0.652432  1
  P  P8  1  0.666667  0.333333  0.343325  1
  P  P9  1  0.666667  0.333333  0.156883  1
  Br  Br10  1  0.183638  0.367276  0.587342  1
  Br  Br11  1  0.817584  0.635169  0.411144  1
  Br  Br12  1  0.632724  0.816362  0.587342  1
  Br  Br13  1  0.816777  0.633554  0.090738  1
  Br  Br14  1  0.364831  0.182416  0.411144  1
  Br  Br15  1  0.176233  0.352465  0.913433  1
  Br  Br16  1  0.183638  0.816362  0.587342  1
  Br  Br17  1  0.366446  0.183223  0.090738  1
  Br  Br18  1  0.817584  0.182416  0.411144  1
  Br  Br19  1  0.647535  0.823767  0.913433  1
  Br  Br20  1  0.816777  0.183223  0.090738  1
  Br  Br21  1  0.176233  0.823767  0.913433  1
  Br  Br22  1  0.507511  0.015021  0.251897  1
  Br  Br23  1  0.494363  0.988725  0.749242  1
  Br  Br24  1  0.984979  0.492489  0.251897  1
  Br  Br25  1  0.011275  0.505637  0.749242  1
  Br  Br26  1  0.507511  0.492489  0.251897  1
  Br  Br27  1  0.494363  0.505637  0.749242  1
