# generated using pymatgen
data_DyTi3(BiO4)3
_symmetry_space_group_name_H-M   'P 1'
_cell_length_a   5.38746500
_cell_length_b   5.47475733
_cell_length_c   17.16846329
_cell_angle_alpha   81.15495549
_cell_angle_beta   90.00000000
_cell_angle_gamma   90.00000000
_symmetry_Int_Tables_number   1
_chemical_formula_structural   DyTi3(BiO4)3
_chemical_formula_sum   'Dy2 Ti6 Bi6 O24'
_cell_volume   500.36288530
_cell_formula_units_Z   2
loop_
 _symmetry_equiv_pos_site_id
 _symmetry_equiv_pos_as_xyz
  1  'x, y, z'
loop_
 _atom_site_type_symbol
 _atom_site_label
 _atom_site_symmetry_multiplicity
 _atom_site_fract_x
 _atom_site_fract_y
 _atom_site_fract_z
 _atom_site_occupancy
  Dy  Dy0  1  0.266097  0.086816  0.869072  1
  Dy  Dy1  1  0.733903  0.586816  0.869072  1
  Ti  Ti2  1  0.764928  0.064122  0.986011  1
  Ti  Ti3  1  0.235072  0.564122  0.986011  1
  Ti  Ti4  1  0.761416  0.182945  0.749877  1
  Ti  Ti5  1  0.238584  0.682945  0.749877  1
  Ti  Ti6  1  0.757696  0.917838  0.258713  1
  Ti  Ti7  1  0.242304  0.417838  0.258713  1
  Bi  Bi8  1  0.273156  0.180583  0.589257  1
  Bi  Bi9  1  0.726844  0.680583  0.589257  1
  Bi  Bi10  1  0.264340  0.933533  0.132726  1
  Bi  Bi11  1  0.735660  0.433533  0.132726  1
  Bi  Bi12  1  0.233974  0.773231  0.434820  1
  Bi  Bi13  1  0.766026  0.273231  0.434820  1
  O  O14  1  0.450678  0.322825  0.958129  1
  O  O15  1  0.549322  0.822825  0.958129  1
  O  O16  1  0.506371  0.000346  0.506279  1
  O  O17  1  0.493629  0.500346  0.506279  1
  O  O18  1  0.851288  0.178714  0.875824  1
  O  O19  1  0.148712  0.678714  0.875824  1
  O  O20  1  0.675587  0.248621  0.645447  1
  O  O21  1  0.324413  0.748621  0.645447  1
  O  O22  1  0.456015  0.409364  0.787684  1
  O  O23  1  0.543985  0.909364  0.787684  1
  O  O24  1  0.939389  0.514022  0.747297  1
  O  O25  1  0.060611  0.014022  0.747297  1
  O  O26  1  0.933418  0.400788  0.002707  1
  O  O27  1  0.066582  0.900788  0.002707  1
  O  O28  1  0.993463  0.500306  0.507436  1
  O  O29  1  0.006537  0.000306  0.507436  1
  O  O30  1  0.675491  0.049382  0.098006  1
  O  O31  1  0.324509  0.549382  0.098006  1
  O  O32  1  0.794804  0.868901  0.360480  1
  O  O33  1  0.205196  0.368901  0.360480  1
  O  O34  1  0.011134  0.183395  0.220134  1
  O  O35  1  0.988866  0.683395  0.220134  1
  O  O36  1  0.522596  0.212669  0.235900  1
  O  O37  1  0.477404  0.712669  0.235900  1
