# generated using pymatgen
data_Sr10CdSi4Hg
_symmetry_space_group_name_H-M   'P 1'
_cell_length_a   10.10028441
_cell_length_b   10.10028377
_cell_length_c   10.10028352
_cell_angle_alpha   132.01603232
_cell_angle_beta   132.01603349
_cell_angle_gamma   70.20370313
_symmetry_Int_Tables_number   1
_chemical_formula_structural   Sr10CdSi4Hg
_chemical_formula_sum   'Sr10 Cd1 Si4 Hg1'
_cell_volume   557.49021473
_cell_formula_units_Z   1
loop_
 _symmetry_equiv_pos_site_id
 _symmetry_equiv_pos_as_xyz
  1  'x, y, z'
loop_
 _atom_site_type_symbol
 _atom_site_label
 _atom_site_symmetry_multiplicity
 _atom_site_fract_x
 _atom_site_fract_y
 _atom_site_fract_z
 _atom_site_occupancy
  Sr  Sr0  1  0.538216  0.042927  0.851130  1
  Sr  Sr1  1  0.191795  0.687085  0.148870  1
  Sr  Sr2  1  0.042927  0.191795  0.504711  1
  Sr  Sr3  1  0.687085  0.538216  0.495289  1
  Sr  Sr4  1  0.457073  0.961784  0.148870  1
  Sr  Sr5  1  0.812915  0.308205  0.851130  1
  Sr  Sr6  1  0.961784  0.812915  0.504711  1
  Sr  Sr7  1  0.308205  0.457073  0.495289  1
  Sr  Sr8  1  0.502518  0.502518  0.000000  1
  Sr  Sr9  1  0.997482  0.997482  0.000000  1
  Cd  Cd10  1  0.750000  0.750000  0.000000  1
  Si  Si11  1  0.606498  0.893502  0.500000  1
  Si  Si12  1  0.393502  0.106498  0.500000  1
  Si  Si13  1  0.106498  0.606498  0.712995  1
  Si  Si14  1  0.893502  0.393502  0.287005  1
  Hg  Hg15  1  0.250000  0.250000  0.000000  1
