# generated using pymatgen
data_La2Tb2Y2CoI10
_symmetry_space_group_name_H-M   'P 1'
_cell_length_a   7.83192491
_cell_length_b   9.85721323
_cell_length_c   9.78352785
_cell_angle_alpha   106.88983562
_cell_angle_beta   95.89440022
_cell_angle_gamma   105.57609492
_symmetry_Int_Tables_number   1
_chemical_formula_structural   La2Tb2Y2CoI10
_chemical_formula_sum   'La2 Tb2 Y2 Co1 I10'
_cell_volume   682.66523165
_cell_formula_units_Z   1
loop_
 _symmetry_equiv_pos_site_id
 _symmetry_equiv_pos_as_xyz
  1  'x, y, z'
loop_
 _atom_site_type_symbol
 _atom_site_label
 _atom_site_symmetry_multiplicity
 _atom_site_fract_x
 _atom_site_fract_y
 _atom_site_fract_z
 _atom_site_occupancy
  La  La0  1  0.887095  0.958317  0.229916  1
  La  La1  1  0.112905  0.041683  0.770084  1
  Tb  Tb2  1  0.028413  0.716688  0.914238  1
  Tb  Tb3  1  0.971587  0.283312  0.085762  1
  Y  Y4  1  0.654438  0.875155  0.837050  1
  Y  Y5  1  0.345562  0.124845  0.162950  1
  Co  Co6  1  0.000000  0.000000  0.000000  1
  I  I7  1  0.650316  0.552664  0.730116  1
  I  I8  1  0.349684  0.447336  0.269884  1
  I  I9  1  0.729384  0.909374  0.540964  1
  I  I10  1  0.270616  0.090626  0.459036  1
  I  I11  1  0.082716  0.378387  0.822932  1
  I  I12  1  0.917284  0.621613  0.177068  1
  I  I13  1  0.445465  0.816911  0.089126  1
  I  I14  1  0.554535  0.183089  0.910874  1
  I  I15  1  0.226541  0.736884  0.656539  1
  I  I16  1  0.773459  0.263116  0.343461  1
