# generated using pymatgen
data_Nd3Tm2ThGa4
_symmetry_space_group_name_H-M   'P 1'
_cell_length_a   7.71602940
_cell_length_b   7.71602940
_cell_length_c   4.51717900
_cell_angle_alpha   90.00000000
_cell_angle_beta   90.00000000
_cell_angle_gamma   90.06913190
_symmetry_Int_Tables_number   1
_chemical_formula_structural   Nd3Tm2ThGa4
_chemical_formula_sum   'Nd3 Tm2 Th1 Ga4'
_cell_volume   268.93958619
_cell_formula_units_Z   1
loop_
 _symmetry_equiv_pos_site_id
 _symmetry_equiv_pos_as_xyz
  1  'x, y, z'
loop_
 _atom_site_type_symbol
 _atom_site_label
 _atom_site_symmetry_multiplicity
 _atom_site_fract_x
 _atom_site_fract_y
 _atom_site_fract_z
 _atom_site_occupancy
  Nd  Nd0  1  0.675381  0.175381  0.500000  1
  Nd  Nd1  1  0.175928  0.324757  0.500000  1
  Nd  Nd2  1  0.824757  0.675928  0.500000  1
  Tm  Tm3  1  0.999626  0.000645  0.000000  1
  Tm  Tm4  1  0.500645  0.499626  0.000000  1
  Th  Th5  1  0.325288  0.825288  0.500000  1
  Ga  Ga6  1  0.879904  0.379904  0.000000  1
  Ga  Ga7  1  0.378805  0.118558  0.000000  1
  Ga  Ga8  1  0.618558  0.878805  0.000000  1
  Ga  Ga9  1  0.121108  0.621108  0.000000  1
