# generated using pymatgen
data_SiTc11MoP3
_symmetry_space_group_name_H-M   'P 1'
_cell_length_a   7.23503294
_cell_length_b   7.17224340
_cell_length_c   7.23653607
_cell_angle_alpha   96.86729258
_cell_angle_beta   96.71414316
_cell_angle_gamma   140.45767872
_symmetry_Int_Tables_number   1
_chemical_formula_structural   SiTc11MoP3
_chemical_formula_sum   'Si1 Tc11 Mo1 P3'
_cell_volume   223.98823866
_cell_formula_units_Z   1
loop_
 _symmetry_equiv_pos_site_id
 _symmetry_equiv_pos_as_xyz
  1  'x, y, z'
loop_
 _atom_site_type_symbol
 _atom_site_label
 _atom_site_symmetry_multiplicity
 _atom_site_fract_x
 _atom_site_fract_y
 _atom_site_fract_z
 _atom_site_occupancy
  Si  Si0  1  0.210072  0.501677  0.710425  1
  Tc  Tc1  1  0.996622  0.352451  0.345602  1
  Tc  Tc2  1  0.991647  0.647648  0.642868  1
  Tc  Tc3  1  0.649902  0.001131  0.649551  1
  Tc  Tc4  1  0.492840  0.080789  0.995566  1
  Tc  Tc5  1  0.915079  0.917568  0.411759  1
  Tc  Tc6  1  0.516061  0.509553  0.596465  1
  Tc  Tc7  1  0.087436  0.490426  0.008449  1
  Tc  Tc8  1  0.707100  0.900957  0.999068  1
  Tc  Tc9  1  0.097467  0.099154  0.805878  1
  Tc  Tc10  1  0.292499  0.295213  0.199704  1
  Tc  Tc11  1  0.904214  0.704283  0.996604  1
  Mo  Mo12  1  0.350317  0.999878  0.349891  1
  P  P13  1  0.497341  0.205971  0.712023  1
  P  P14  1  0.507203  0.794110  0.292708  1
  P  P15  1  0.784200  0.499192  0.283437  1
