# generated using pymatgen
data_Y7Tm(Sc3Si4)4
_symmetry_space_group_name_H-M   'P 1'
_cell_length_a   7.08785244
_cell_length_b   7.38745566
_cell_length_c   13.98350051
_cell_angle_alpha   89.97093773
_cell_angle_beta   90.01038603
_cell_angle_gamma   90.03888701
_symmetry_Int_Tables_number   1
_chemical_formula_structural   Y7Tm(Sc3Si4)4
_chemical_formula_sum   'Y7 Tm1 Sc12 Si16'
_cell_volume   732.19253075
_cell_formula_units_Z   1
loop_
 _symmetry_equiv_pos_site_id
 _symmetry_equiv_pos_as_xyz
  1  'x, y, z'
loop_
 _atom_site_type_symbol
 _atom_site_label
 _atom_site_symmetry_multiplicity
 _atom_site_fract_x
 _atom_site_fract_y
 _atom_site_fract_z
 _atom_site_occupancy
  Y  Y0  1  0.011735  0.175578  0.096752  1
  Y  Y1  1  0.988285  0.824360  0.903124  1
  Y  Y2  1  0.488287  0.675575  0.903394  1
  Y  Y3  1  0.988156  0.824107  0.596736  1
  Y  Y4  1  0.511740  0.324440  0.096734  1
  Y  Y5  1  0.011877  0.175609  0.403392  1
  Y  Y6  1  0.511652  0.324668  0.403560  1
  Tm  Tm7  1  0.487894  0.676252  0.597254  1
  Sc  Sc8  1  0.160761  0.502327  0.749845  1
  Sc  Sc9  1  0.839644  0.497864  0.250000  1
  Sc  Sc10  1  0.339540  0.002119  0.250033  1
  Sc  Sc11  1  0.660297  0.997571  0.749789  1
  Sc  Sc12  1  0.330878  0.177064  0.625310  1
  Sc  Sc13  1  0.668821  0.822849  0.374800  1
  Sc  Sc14  1  0.169411  0.676832  0.374730  1
  Sc  Sc15  1  0.669152  0.823264  0.125368  1
  Sc  Sc16  1  0.830469  0.323632  0.625327  1
  Sc  Sc17  1  0.330747  0.176824  0.874482  1
  Sc  Sc18  1  0.830691  0.323255  0.874446  1
  Sc  Sc19  1  0.169345  0.676779  0.125376  1
  Si  Si20  1  0.033199  0.116944  0.749950  1
  Si  Si21  1  0.966762  0.883155  0.250029  1
  Si  Si22  1  0.466766  0.616840  0.250033  1
  Si  Si23  1  0.533006  0.383968  0.749645  1
  Si  Si24  1  0.285885  0.872870  0.749415  1
  Si  Si25  1  0.714900  0.126145  0.250019  1
  Si  Si26  1  0.214941  0.373736  0.250000  1
  Si  Si27  1  0.784233  0.626458  0.749491  1
  Si  Si28  1  0.159238  0.465368  0.539685  1
  Si  Si29  1  0.841898  0.535632  0.460716  1
  Si  Si30  1  0.342736  0.963606  0.460939  1
  Si  Si31  1  0.842386  0.535497  0.039398  1
  Si  Si32  1  0.657106  0.034346  0.539678  1
  Si  Si33  1  0.157509  0.464452  0.960549  1
  Si  Si34  1  0.657671  0.035474  0.960586  1
  Si  Si35  1  0.342384  0.964539  0.039414  1
