# generated using pymatgen
data_Tb2Y2Ga17GeRh6
_symmetry_space_group_name_H-M   'P 1'
_cell_length_a   7.59414702
_cell_length_b   7.57390329
_cell_length_c   9.51779600
_cell_angle_alpha   90.07005038
_cell_angle_beta   89.84120998
_cell_angle_gamma   119.78094143
_symmetry_Int_Tables_number   1
_chemical_formula_structural   Tb2Y2Ga17GeRh6
_chemical_formula_sum   'Tb2 Y2 Ga17 Ge1 Rh6'
_cell_volume   475.13665010
_cell_formula_units_Z   1
loop_
 _symmetry_equiv_pos_site_id
 _symmetry_equiv_pos_as_xyz
  1  'x, y, z'
loop_
 _atom_site_type_symbol
 _atom_site_label
 _atom_site_symmetry_multiplicity
 _atom_site_fract_x
 _atom_site_fract_y
 _atom_site_fract_z
 _atom_site_occupancy
  Tb  Tb0  1  0.670944  0.999607  0.248683  1
  Tb  Tb1  1  0.331053  0.003042  0.750036  1
  Y  Y2  1  0.996777  0.666637  0.248733  1
  Y  Y3  1  0.003384  0.331505  0.752201  1
  Ga  Ga4  1  0.128143  0.124209  0.251083  1
  Ga  Ga5  1  0.874242  0.875855  0.749786  1
  Ga  Ga6  1  0.999138  0.669913  0.918280  1
  Ga  Ga7  1  0.999694  0.665938  0.579507  1
  Ga  Ga8  1  0.334354  0.999646  0.421083  1
  Ga  Ga9  1  0.001149  0.334807  0.422776  1
  Ga  Ga10  1  0.665084  0.999073  0.579439  1
  Ga  Ga11  1  0.660502  0.995018  0.918432  1
  Ga  Ga12  1  0.333961  0.999480  0.079968  1
  Ga  Ga13  1  0.332911  0.331942  0.563881  1
  Ga  Ga14  1  0.668160  0.668450  0.436707  1
  Ga  Ga15  1  0.667256  0.667768  0.064718  1
  Ga  Ga16  1  0.336947  0.333108  0.934524  1
  Ga  Ga17  1  0.342990  0.548972  0.251619  1
  Ga  Ga18  1  0.662360  0.452495  0.749227  1
  Ga  Ga19  1  0.546907  0.338640  0.249995  1
  Ga  Ga20  1  0.451230  0.659651  0.749405  1
  Ge  Ge21  1  0.998443  0.334553  0.080648  1
  Rh  Rh22  1  0.674856  0.328785  0.000112  1
  Rh  Rh23  1  0.321723  0.664726  0.000634  1
  Rh  Rh24  1  0.327430  0.671067  0.499776  1
  Rh  Rh25  1  0.672280  0.328307  0.498934  1
  Rh  Rh26  1  0.998933  0.006208  0.000435  1
  Rh  Rh27  1  0.999149  0.000599  0.499378  1
