# generated using pymatgen
data_CsP2IrRu
_symmetry_space_group_name_H-M   'P 1'
_cell_length_a   7.68677127
_cell_length_b   7.68677100
_cell_length_c   7.68676988
_cell_angle_alpha   149.79284822
_cell_angle_beta   149.79284692
_cell_angle_gamma   43.24556704
_symmetry_Int_Tables_number   1
_chemical_formula_structural   CsP2IrRu
_chemical_formula_sum   'Cs1 P2 Ir1 Ru1'
_cell_volume   114.66564215
_cell_formula_units_Z   1
loop_
 _symmetry_equiv_pos_site_id
 _symmetry_equiv_pos_as_xyz
  1  'x, y, z'
loop_
 _atom_site_type_symbol
 _atom_site_label
 _atom_site_symmetry_multiplicity
 _atom_site_fract_x
 _atom_site_fract_y
 _atom_site_fract_z
 _atom_site_occupancy
  Cs  Cs0  1  0.000000  0.000000  0.000000  1
  P  P1  1  0.335214  0.335214  0.000000  1
  P  P2  1  0.664786  0.664786  0.000000  1
  Ir  Ir3  1  0.250000  0.750000  0.500000  1
  Ru  Ru4  1  0.750000  0.250000  0.500000  1
