# generated using pymatgen
data_Cs6PrInBr12
_symmetry_space_group_name_H-M   'P 1'
_cell_length_a   10.05508928
_cell_length_b   10.06056415
_cell_length_c   8.33438900
_cell_angle_alpha   90.00000000
_cell_angle_beta   90.00000000
_cell_angle_gamma   90.31380025
_symmetry_Int_Tables_number   1
_chemical_formula_structural   Cs6PrInBr12
_chemical_formula_sum   'Cs6 Pr1 In1 Br12'
_cell_volume   843.09306887
_cell_formula_units_Z   1
loop_
 _symmetry_equiv_pos_site_id
 _symmetry_equiv_pos_as_xyz
  1  'x, y, z'
loop_
 _atom_site_type_symbol
 _atom_site_label
 _atom_site_symmetry_multiplicity
 _atom_site_fract_x
 _atom_site_fract_y
 _atom_site_fract_z
 _atom_site_occupancy
  Cs  Cs0  1  0.000000  0.000000  0.500000  1
  Cs  Cs1  1  0.000000  0.000000  0.000000  1
  Cs  Cs2  1  0.237367  0.586223  0.500000  1
  Cs  Cs3  1  0.762633  0.413777  0.500000  1
  Cs  Cs4  1  0.415899  0.231112  0.000000  1
  Cs  Cs5  1  0.584101  0.768888  0.000000  1
  Pr  Pr6  1  0.000000  0.500000  0.000000  1
  In  In7  1  0.500000  0.000000  0.500000  1
  Br  Br8  1  0.686090  0.057791  0.733978  1
  Br  Br9  1  0.313910  0.942209  0.733978  1
  Br  Br10  1  0.940099  0.698225  0.247989  1
  Br  Br11  1  0.059901  0.301775  0.247989  1
  Br  Br12  1  0.313910  0.942209  0.266022  1
  Br  Br13  1  0.686090  0.057791  0.266022  1
  Br  Br14  1  0.059901  0.301775  0.752011  1
  Br  Br15  1  0.940099  0.698225  0.752011  1
  Br  Br16  1  0.567556  0.738265  0.500000  1
  Br  Br17  1  0.432444  0.261735  0.500000  1
  Br  Br18  1  0.280504  0.571705  0.000000  1
  Br  Br19  1  0.719496  0.428295  0.000000  1
