# generated using pymatgen
data_Pr3Y5Cd2IrRu
_symmetry_space_group_name_H-M   'P 1'
_cell_length_a   9.79478351
_cell_length_b   9.79478249
_cell_length_c   9.83676400
_cell_angle_alpha   59.85811506
_cell_angle_beta   59.85811855
_cell_angle_gamma   59.80427202
_symmetry_Int_Tables_number   1
_chemical_formula_structural   Pr3Y5Cd2IrRu
_chemical_formula_sum   'Pr6 Y10 Cd4 Ir2 Ru2'
_cell_volume   664.88786817
_cell_formula_units_Z   2
loop_
 _symmetry_equiv_pos_site_id
 _symmetry_equiv_pos_as_xyz
  1  'x, y, z'
loop_
 _atom_site_type_symbol
 _atom_site_label
 _atom_site_symmetry_multiplicity
 _atom_site_fract_x
 _atom_site_fract_y
 _atom_site_fract_z
 _atom_site_occupancy
  Pr  Pr0  1  0.940859  0.556647  0.560196  1
  Pr  Pr1  1  0.556647  0.940859  0.942298  1
  Pr  Pr2  1  0.556647  0.940859  0.560196  1
  Pr  Pr3  1  0.940859  0.556647  0.942298  1
  Pr  Pr4  1  0.559417  0.559417  0.940583  1
  Pr  Pr5  1  0.942491  0.942491  0.557509  1
  Y  Y6  1  0.346630  0.346630  0.346258  1
  Y  Y7  1  0.346630  0.346630  0.960482  1
  Y  Y8  1  0.346657  0.960749  0.346297  1
  Y  Y9  1  0.960749  0.346657  0.346297  1
  Y  Y10  1  0.813639  0.187355  0.187370  1
  Y  Y11  1  0.187355  0.813639  0.811636  1
  Y  Y12  1  0.187355  0.813639  0.187370  1
  Y  Y13  1  0.813639  0.187355  0.811636  1
  Y  Y14  1  0.186931  0.186931  0.813069  1
  Y  Y15  1  0.811800  0.811800  0.188200  1
  Cd  Cd16  1  0.579171  0.579171  0.579252  1
  Cd  Cd17  1  0.579171  0.579171  0.262406  1
  Cd  Cd18  1  0.579104  0.261883  0.579506  1
  Cd  Cd19  1  0.261883  0.579104  0.579506  1
  Ir  Ir20  1  0.142206  0.578590  0.139602  1
  Ir  Ir21  1  0.578590  0.142206  0.139602  1
  Ru  Ru22  1  0.140785  0.140785  0.138199  1
  Ru  Ru23  1  0.140785  0.140785  0.580232  1
