# generated using pymatgen
data_Li2Tb16In2Ir3Pd
_symmetry_space_group_name_H-M   'P 1'
_cell_length_a   9.68404430
_cell_length_b   9.67505507
_cell_length_c   9.67505518
_cell_angle_alpha   60.28876672
_cell_angle_beta   60.36577577
_cell_angle_gamma   60.36577230
_symmetry_Int_Tables_number   1
_chemical_formula_structural   Li2Tb16In2Ir3Pd
_chemical_formula_sum   'Li2 Tb16 In2 Ir3 Pd1'
_cell_volume   645.91736294
_cell_formula_units_Z   1
loop_
 _symmetry_equiv_pos_site_id
 _symmetry_equiv_pos_as_xyz
  1  'x, y, z'
loop_
 _atom_site_type_symbol
 _atom_site_label
 _atom_site_symmetry_multiplicity
 _atom_site_fract_x
 _atom_site_fract_y
 _atom_site_fract_z
 _atom_site_occupancy
  Li  Li0  1  0.326329  0.322505  0.322505  1
  Li  Li1  1  0.027867  0.322292  0.322292  1
  Tb  Tb2  1  0.102145  0.702476  0.101518  1
  Tb  Tb3  1  0.941983  0.940198  0.554870  1
  Tb  Tb4  1  0.941983  0.554870  0.940198  1
  Tb  Tb5  1  0.314053  0.687453  0.313483  1
  Tb  Tb6  1  0.931838  0.566200  0.566200  1
  Tb  Tb7  1  0.314053  0.313483  0.687453  1
  Tb  Tb8  1  0.099149  0.096661  0.096661  1
  Tb  Tb9  1  0.559292  0.561862  0.939367  1
  Tb  Tb10  1  0.102145  0.101518  0.702476  1
  Tb  Tb11  1  0.688971  0.313524  0.688699  1
  Tb  Tb12  1  0.688971  0.688699  0.313524  1
  Tb  Tb13  1  0.691462  0.311834  0.311834  1
  Tb  Tb14  1  0.314324  0.688070  0.688070  1
  Tb  Tb15  1  0.559292  0.939367  0.561862  1
  Tb  Tb16  1  0.696106  0.103197  0.103197  1
  Tb  Tb17  1  0.550702  0.944333  0.944333  1
  In  In18  1  0.328264  0.005775  0.333831  1
  In  In19  1  0.328264  0.333831  0.005775  1
  Ir  Ir20  1  0.888899  0.892486  0.324211  1
  Ir  Ir21  1  0.324054  0.891312  0.891312  1
  Ir  Ir22  1  0.888899  0.324211  0.892486  1
  Pd  Pd23  1  0.890956  0.893844  0.893844  1
