# generated using pymatgen
data_Ca2Pr17NdGa12
_symmetry_space_group_name_H-M   'P 1'
_cell_length_a   7.93488600
_cell_length_b   7.93488600
_cell_length_c   14.71727400
_cell_angle_alpha   90.00000000
_cell_angle_beta   90.00000000
_cell_angle_gamma   90.00000000
_symmetry_Int_Tables_number   1
_chemical_formula_structural   Ca2Pr17NdGa12
_chemical_formula_sum   'Ca2 Pr17 Nd1 Ga12'
_cell_volume   926.63512552
_cell_formula_units_Z   1
loop_
 _symmetry_equiv_pos_site_id
 _symmetry_equiv_pos_as_xyz
  1  'x, y, z'
loop_
 _atom_site_type_symbol
 _atom_site_label
 _atom_site_symmetry_multiplicity
 _atom_site_fract_x
 _atom_site_fract_y
 _atom_site_fract_z
 _atom_site_occupancy
  Ca  Ca0  1  0.000000  0.500000  0.244420  1
  Ca  Ca1  1  0.500000  0.000000  0.253811  1
  Pr  Pr2  1  0.815475  0.840189  0.604455  1
  Pr  Pr3  1  0.176283  0.831271  0.102173  1
  Pr  Pr4  1  0.168092  0.823256  0.397129  1
  Pr  Pr5  1  0.831908  0.176744  0.397129  1
  Pr  Pr6  1  0.676744  0.668092  0.397129  1
  Pr  Pr7  1  0.659811  0.315475  0.604455  1
  Pr  Pr8  1  0.340189  0.684525  0.604455  1
  Pr  Pr9  1  0.668729  0.676283  0.102173  1
  Pr  Pr10  1  0.683664  0.339738  0.896210  1
  Pr  Pr11  1  0.839738  0.816336  0.896210  1
  Pr  Pr12  1  0.323256  0.331908  0.397129  1
  Pr  Pr13  1  0.184525  0.159811  0.604455  1
  Pr  Pr14  1  0.823717  0.168729  0.102173  1
  Pr  Pr15  1  0.316336  0.660262  0.896210  1
  Pr  Pr16  1  0.331271  0.323717  0.102173  1
  Pr  Pr17  1  0.160262  0.183664  0.896210  1
  Pr  Pr18  1  0.500000  0.000000  0.787569  1
  Nd  Nd19  1  0.000000  0.500000  0.713998  1
  Ga  Ga20  1  0.617633  0.382553  0.249647  1
  Ga  Ga21  1  0.118651  0.879927  0.750507  1
  Ga  Ga22  1  0.379927  0.381349  0.750507  1
  Ga  Ga23  1  0.382367  0.617447  0.249647  1
  Ga  Ga24  1  0.882553  0.882367  0.249647  1
  Ga  Ga25  1  0.620073  0.618651  0.750507  1
  Ga  Ga26  1  0.000000  0.500000  0.500987  1
  Ga  Ga27  1  0.881349  0.120073  0.750507  1
  Ga  Ga28  1  0.500000  0.000000  0.490072  1
  Ga  Ga29  1  0.500000  0.000000  0.000398  1
  Ga  Ga30  1  0.117447  0.117633  0.249647  1
  Ga  Ga31  1  0.000000  0.500000  0.008260  1
