# generated using pymatgen
data_Mg2Co3(TcB2)2
_symmetry_space_group_name_H-M   'P 1'
_cell_length_a   2.95142100
_cell_length_b   8.23746300
_cell_length_c   9.34633500
_cell_angle_alpha   90.00000000
_cell_angle_beta   90.00000000
_cell_angle_gamma   90.00000000
_symmetry_Int_Tables_number   1
_chemical_formula_structural   Mg2Co3(TcB2)2
_chemical_formula_sum   'Mg4 Co6 Tc4 B8'
_cell_volume   227.23016472
_cell_formula_units_Z   2
loop_
 _symmetry_equiv_pos_site_id
 _symmetry_equiv_pos_as_xyz
  1  'x, y, z'
loop_
 _atom_site_type_symbol
 _atom_site_label
 _atom_site_symmetry_multiplicity
 _atom_site_fract_x
 _atom_site_fract_y
 _atom_site_fract_z
 _atom_site_occupancy
  Mg  Mg0  1  0.500000  0.661689  0.818180  1
  Mg  Mg1  1  0.500000  0.338311  0.181820  1
  Mg  Mg2  1  0.500000  0.161689  0.681820  1
  Mg  Mg3  1  0.500000  0.838311  0.318180  1
  Co  Co4  1  0.000000  0.408521  0.744146  1
  Co  Co5  1  0.000000  0.591479  0.255854  1
  Co  Co6  1  0.000000  0.908521  0.755854  1
  Co  Co7  1  0.000000  0.091479  0.244146  1
  Co  Co8  1  0.000000  0.000000  0.500000  1
  Co  Co9  1  0.000000  0.500000  0.000000  1
  Tc  Tc10  1  0.000000  0.664843  0.546871  1
  Tc  Tc11  1  0.000000  0.335157  0.453129  1
  Tc  Tc12  1  0.000000  0.164843  0.953129  1
  Tc  Tc13  1  0.000000  0.835157  0.046871  1
  B  B14  1  0.500000  0.863422  0.601991  1
  B  B15  1  0.500000  0.136578  0.398009  1
  B  B16  1  0.500000  0.363422  0.898009  1
  B  B17  1  0.500000  0.636578  0.101991  1
  B  B18  1  0.500000  0.964683  0.905472  1
  B  B19  1  0.500000  0.035317  0.094528  1
  B  B20  1  0.500000  0.464683  0.594528  1
  B  B21  1  0.500000  0.535317  0.405472  1
