# generated using pymatgen
data_Dy3Tm3Si24Os3Ru5
_symmetry_space_group_name_H-M   'P 1'
_cell_length_a   10.10752261
_cell_length_b   10.10678591
_cell_length_c   8.13220561
_cell_angle_alpha   89.95823343
_cell_angle_beta   90.03900274
_cell_angle_gamma   132.52967138
_symmetry_Int_Tables_number   1
_chemical_formula_structural   Dy3Tm3Si24Os3Ru5
_chemical_formula_sum   'Dy3 Tm3 Si24 Os3 Ru5'
_cell_volume   612.19629654
_cell_formula_units_Z   1
loop_
 _symmetry_equiv_pos_site_id
 _symmetry_equiv_pos_as_xyz
  1  'x, y, z'
loop_
 _atom_site_type_symbol
 _atom_site_label
 _atom_site_symmetry_multiplicity
 _atom_site_fract_x
 _atom_site_fract_y
 _atom_site_fract_z
 _atom_site_occupancy
  Dy  Dy0  1  0.997712  0.497759  0.249794  1
  Dy  Dy1  1  0.497877  0.997623  0.249638  1
  Dy  Dy2  1  0.002364  0.502095  0.750371  1
  Tm  Tm3  1  0.500027  0.499988  0.500078  1
  Tm  Tm4  1  0.000027  0.999980  0.999944  1
  Tm  Tm5  1  0.501869  0.002012  0.750173  1
  Si  Si6  1  0.795435  0.203583  0.500593  1
  Si  Si7  1  0.296210  0.704619  0.999471  1
  Si  Si8  1  0.204620  0.796246  0.500536  1
  Si  Si9  1  0.704278  0.294628  0.999392  1
  Si  Si10  1  0.332111  0.331887  0.833400  1
  Si  Si11  1  0.668159  0.667943  0.166652  1
  Si  Si12  1  0.166984  0.167131  0.332179  1
  Si  Si13  1  0.832907  0.833059  0.667768  1
  Si  Si14  1  0.121371  0.888514  0.728359  1
  Si  Si15  1  0.111607  0.878669  0.271264  1
  Si  Si16  1  0.612999  0.379416  0.227641  1
  Si  Si17  1  0.620492  0.387043  0.772841  1
  Si  Si18  1  0.878539  0.111882  0.270106  1
  Si  Si19  1  0.888159  0.121432  0.729486  1
  Si  Si20  1  0.388432  0.621892  0.772326  1
  Si  Si21  1  0.378134  0.611687  0.228041  1
  Si  Si22  1  0.344593  0.111758  0.505736  1
  Si  Si23  1  0.887789  0.654831  0.494703  1
  Si  Si24  1  0.388348  0.155933  0.003495  1
  Si  Si25  1  0.844694  0.612020  0.996091  1
  Si  Si26  1  0.655763  0.888385  0.494940  1
  Si  Si27  1  0.111976  0.344888  0.505481  1
  Si  Si28  1  0.613171  0.846133  0.994658  1
  Si  Si29  1  0.153411  0.386439  0.004924  1
  Os  Os30  1  0.668551  0.329340  0.500874  1
  Os  Os31  1  0.170630  0.831487  0.999344  1
  Os  Os32  1  0.331508  0.670721  0.500665  1
  Ru  Ru33  1  0.829238  0.168526  0.999084  1
  Ru  Ru34  1  0.127882  0.127734  0.626826  1
  Ru  Ru35  1  0.872378  0.872203  0.372974  1
  Ru  Ru36  1  0.373822  0.374196  0.128336  1
  Ru  Ru37  1  0.625935  0.626314  0.871818  1
