# generated using pymatgen
data_LiSm6Co15(P6Rh)2
_symmetry_space_group_name_H-M   'P 1'
_cell_length_a   3.75998400
_cell_length_b   10.68204700
_cell_length_c   12.40716800
_cell_angle_alpha   90.00000000
_cell_angle_beta   90.00000000
_cell_angle_gamma   90.00000000
_symmetry_Int_Tables_number   1
_chemical_formula_structural   LiSm6Co15(P6Rh)2
_chemical_formula_sum   'Li1 Sm6 Co15 P12 Rh2'
_cell_volume   498.32553790
_cell_formula_units_Z   1
loop_
 _symmetry_equiv_pos_site_id
 _symmetry_equiv_pos_as_xyz
  1  'x, y, z'
loop_
 _atom_site_type_symbol
 _atom_site_label
 _atom_site_symmetry_multiplicity
 _atom_site_fract_x
 _atom_site_fract_y
 _atom_site_fract_z
 _atom_site_occupancy
  Li  Li0  1  0.500000  0.500000  0.152001  1
  Sm  Sm1  1  0.000000  0.500000  0.518838  1
  Sm  Sm2  1  0.500000  0.000000  0.475438  1
  Sm  Sm3  1  0.500000  0.818715  0.206553  1
  Sm  Sm4  1  0.500000  0.181285  0.206553  1
  Sm  Sm5  1  0.000000  0.685905  0.795231  1
  Sm  Sm6  1  0.000000  0.314095  0.795231  1
  Co  Co7  1  0.000000  0.000000  0.294947  1
  Co  Co8  1  0.000000  0.500000  0.989276  1
  Co  Co9  1  0.500000  0.000000  0.013284  1
  Co  Co10  1  0.500000  0.331024  0.997952  1
  Co  Co11  1  0.500000  0.668976  0.997952  1
  Co  Co12  1  0.000000  0.165932  0.006562  1
  Co  Co13  1  0.000000  0.834068  0.006562  1
  Co  Co14  1  0.500000  0.294973  0.430111  1
  Co  Co15  1  0.500000  0.705027  0.430111  1
  Co  Co16  1  0.000000  0.199168  0.568479  1
  Co  Co17  1  0.000000  0.800832  0.568479  1
  Co  Co18  1  0.500000  0.881757  0.708455  1
  Co  Co19  1  0.500000  0.118243  0.708455  1
  Co  Co20  1  0.000000  0.621126  0.292887  1
  Co  Co21  1  0.000000  0.378874  0.292887  1
  P  P22  1  0.500000  0.500000  0.893524  1
  P  P23  1  0.000000  0.000000  0.115422  1
  P  P24  1  0.500000  0.500000  0.342299  1
  P  P25  1  0.000000  0.000000  0.651142  1
  P  P26  1  0.500000  0.299321  0.612270  1
  P  P27  1  0.500000  0.700679  0.612270  1
  P  P28  1  0.000000  0.191943  0.384781  1
  P  P29  1  0.000000  0.808057  0.384781  1
  P  P30  1  0.500000  0.845846  0.896672  1
  P  P31  1  0.500000  0.154154  0.896672  1
  P  P32  1  0.000000  0.656078  0.105270  1
  P  P33  1  0.000000  0.343922  0.105270  1
  Rh  Rh34  1  0.000000  0.000000  0.840415  1
  Rh  Rh35  1  0.500000  0.500000  0.702970  1
