# generated using pymatgen
data_Na3MnCr3O8
_symmetry_space_group_name_H-M   'P 1'
_cell_length_a   6.44130999
_cell_length_b   6.44131055
_cell_length_c   6.44130707
_cell_angle_alpha   55.42615231
_cell_angle_beta   55.42616422
_cell_angle_gamma   55.42615315
_symmetry_Int_Tables_number   1
_chemical_formula_structural   Na3MnCr3O8
_chemical_formula_sum   'Na3 Mn1 Cr3 O8'
_cell_volume   168.90137624
_cell_formula_units_Z   1
loop_
 _symmetry_equiv_pos_site_id
 _symmetry_equiv_pos_as_xyz
  1  'x, y, z'
loop_
 _atom_site_type_symbol
 _atom_site_label
 _atom_site_symmetry_multiplicity
 _atom_site_fract_x
 _atom_site_fract_y
 _atom_site_fract_z
 _atom_site_occupancy
  Na  Na0  1  0.500000  0.000000  0.000000  1
  Na  Na1  1  0.000000  0.500000  0.000000  1
  Na  Na2  1  0.000000  0.000000  0.500000  1
  Mn  Mn3  1  0.000000  0.000000  0.000000  1
  Cr  Cr4  1  0.500000  0.500000  0.000000  1
  Cr  Cr5  1  0.000000  0.500000  0.500000  1
  Cr  Cr6  1  0.500000  0.000000  0.500000  1
  O  O7  1  0.776727  0.256954  0.776728  1
  O  O8  1  0.256955  0.776727  0.776727  1
  O  O9  1  0.776727  0.776728  0.256953  1
  O  O10  1  0.268028  0.268028  0.268028  1
  O  O11  1  0.731972  0.731972  0.731972  1
  O  O12  1  0.223273  0.223272  0.743047  1
  O  O13  1  0.743045  0.223273  0.223273  1
  O  O14  1  0.223273  0.743046  0.223272  1
