# generated using pymatgen
data_Ho2TmTh(CdCu2)2
_symmetry_space_group_name_H-M   'P 1'
_cell_length_a   3.67763300
_cell_length_b   7.62142401
_cell_length_c   7.62142410
_cell_angle_alpha   91.02726065
_cell_angle_beta   90.00000000
_cell_angle_gamma   90.00000000
_symmetry_Int_Tables_number   1
_chemical_formula_structural   Ho2TmTh(CdCu2)2
_chemical_formula_sum   'Ho2 Tm1 Th1 Cd2 Cu4'
_cell_volume   213.58504195
_cell_formula_units_Z   1
loop_
 _symmetry_equiv_pos_site_id
 _symmetry_equiv_pos_as_xyz
  1  'x, y, z'
loop_
 _atom_site_type_symbol
 _atom_site_label
 _atom_site_symmetry_multiplicity
 _atom_site_fract_x
 _atom_site_fract_y
 _atom_site_fract_z
 _atom_site_occupancy
  Ho  Ho0  1  0.500000  0.330287  0.176017  1
  Ho  Ho1  1  0.500000  0.676017  0.830287  1
  Tm  Tm2  1  0.500000  0.824071  0.324071  1
  Th  Th3  1  0.500000  0.171913  0.671913  1
  Cd  Cd4  1  0.000000  0.997025  0.006810  1
  Cd  Cd5  1  0.000000  0.506810  0.497025  1
  Cu  Cu6  1  0.000000  0.621266  0.121266  1
  Cu  Cu7  1  0.000000  0.382740  0.882740  1
  Cu  Cu8  1  0.000000  0.873889  0.615983  1
  Cu  Cu9  1  0.000000  0.115983  0.373889  1
