# generated using pymatgen
data_Li4ScGeP11Ir19
_symmetry_space_group_name_H-M   'P 1'
_cell_length_a   12.59784688
_cell_length_b   12.57923891
_cell_length_c   3.90912500
_cell_angle_alpha   90.00000000
_cell_angle_beta   90.00000000
_cell_angle_gamma   119.55580312
_symmetry_Int_Tables_number   1
_chemical_formula_structural   Li4ScGeP11Ir19
_chemical_formula_sum   'Li4 Sc1 Ge1 P11 Ir19'
_cell_volume   538.87426302
_cell_formula_units_Z   1
loop_
 _symmetry_equiv_pos_site_id
 _symmetry_equiv_pos_as_xyz
  1  'x, y, z'
loop_
 _atom_site_type_symbol
 _atom_site_label
 _atom_site_symmetry_multiplicity
 _atom_site_fract_x
 _atom_site_fract_y
 _atom_site_fract_z
 _atom_site_occupancy
  Li  Li0  1  0.341335  0.670625  0.000000  1
  Li  Li1  1  0.668155  0.335538  0.000000  1
  Li  Li2  1  0.825368  0.998942  0.500000  1
  Li  Li3  1  0.997306  0.823539  0.500000  1
  Sc  Sc4  1  0.174432  0.174734  0.500000  1
  Ge  Ge5  1  0.173730  0.494373  0.500000  1
  P  P6  1  0.178788  0.999893  0.000000  1
  P  P7  1  0.994298  0.174075  0.000000  1
  P  P8  1  0.820749  0.820240  0.000000  1
  P  P9  1  0.511600  0.687243  0.500000  1
  P  P10  1  0.310168  0.825447  0.500000  1
  P  P11  1  0.688630  0.512000  0.500000  1
  P  P12  1  0.822505  0.309115  0.500000  1
  P  P13  1  0.490729  0.175437  0.500000  1
  P  P14  1  0.640567  0.999199  0.000000  1
  P  P15  1  0.002022  0.642659  0.000000  1
  P  P16  1  0.360674  0.361556  0.000000  1
  Ir  Ir17  1  0.461269  0.006927  0.000000  1
  Ir  Ir18  1  0.003991  0.458371  0.000000  1
  Ir  Ir19  1  0.546832  0.540406  0.000000  1
  Ir  Ir20  1  0.363611  0.488328  0.500000  1
  Ir  Ir21  1  0.505881  0.868181  0.500000  1
  Ir  Ir22  1  0.119203  0.651429  0.500000  1
  Ir  Ir23  1  0.865854  0.503863  0.500000  1
  Ir  Ir24  1  0.640809  0.128504  0.500000  1
  Ir  Ir25  1  0.493868  0.358193  0.500000  1
  Ir  Ir26  1  0.179093  0.361700  0.000000  1
  Ir  Ir27  1  0.622241  0.804571  0.000000  1
  Ir  Ir28  1  0.200501  0.825195  0.000000  1
  Ir  Ir29  1  0.808669  0.624495  0.000000  1
  Ir  Ir30  1  0.816026  0.194421  0.000000  1
  Ir  Ir31  1  0.371009  0.183323  0.000000  1
  Ir  Ir32  1  0.293033  0.006847  0.500000  1
  Ir  Ir33  1  0.995754  0.281647  0.500000  1
  Ir  Ir34  1  0.709745  0.709286  0.500000  1
  Ir  Ir35  1  0.001558  0.999702  0.000000  1
