# generated using pymatgen
data_Yb2Y6Si8Pd3Pt5
_symmetry_space_group_name_H-M   'P 1'
_cell_length_a   4.30443200
_cell_length_b   7.43476812
_cell_length_c   14.13710402
_cell_angle_alpha   89.95070492
_cell_angle_beta   90.00000000
_cell_angle_gamma   90.00000000
_symmetry_Int_Tables_number   1
_chemical_formula_structural   Yb2Y6Si8Pd3Pt5
_chemical_formula_sum   'Yb2 Y6 Si8 Pd3 Pt5'
_cell_volume   452.42185099
_cell_formula_units_Z   1
loop_
 _symmetry_equiv_pos_site_id
 _symmetry_equiv_pos_as_xyz
  1  'x, y, z'
loop_
 _atom_site_type_symbol
 _atom_site_label
 _atom_site_symmetry_multiplicity
 _atom_site_fract_x
 _atom_site_fract_y
 _atom_site_fract_z
 _atom_site_occupancy
  Yb  Yb0  1  0.500000  0.799986  0.748880  1
  Yb  Yb1  1  0.000000  0.200024  0.751261  1
  Y  Y2  1  0.500000  0.792992  0.249852  1
  Y  Y3  1  0.000000  0.205284  0.249983  1
  Y  Y4  1  0.500000  0.705161  0.998661  1
  Y  Y5  1  0.000000  0.294227  0.500985  1
  Y  Y6  1  0.500000  0.700640  0.502297  1
  Y  Y7  1  0.000000  0.299529  0.998354  1
  Si  Si8  1  0.500000  0.405187  0.644715  1
  Si  Si9  1  0.000000  0.594553  0.855249  1
  Si  Si10  1  0.500000  0.407982  0.352059  1
  Si  Si11  1  0.000000  0.589384  0.145663  1
  Si  Si12  1  0.500000  0.093839  0.093763  1
  Si  Si13  1  0.000000  0.908544  0.407352  1
  Si  Si14  1  0.500000  0.087459  0.909786  1
  Si  Si15  1  0.000000  0.913000  0.590307  1
  Pd  Pd16  1  0.000000  0.581074  0.345314  1
  Pd  Pd17  1  0.500000  0.419928  0.839457  1
  Pd  Pd18  1  0.000000  0.580398  0.659707  1
  Pt  Pt19  1  0.500000  0.080821  0.604931  1
  Pt  Pt20  1  0.000000  0.919315  0.895233  1
  Pt  Pt21  1  0.500000  0.076627  0.391312  1
  Pt  Pt22  1  0.000000  0.922462  0.109190  1
  Pt  Pt23  1  0.500000  0.421586  0.155689  1
