# generated using pymatgen
data_YbTmTaIr3
_symmetry_space_group_name_H-M   'P 1'
_cell_length_a   5.21452543
_cell_length_b   5.63013234
_cell_length_c   5.63013200
_cell_angle_alpha   60.00000197
_cell_angle_beta   57.32651368
_cell_angle_gamma   57.32651484
_symmetry_Int_Tables_number   1
_chemical_formula_structural   YbTmTaIr3
_chemical_formula_sum   'Yb1 Tm1 Ta1 Ir3'
_cell_volume   111.93104670
_cell_formula_units_Z   1
loop_
 _symmetry_equiv_pos_site_id
 _symmetry_equiv_pos_as_xyz
  1  'x, y, z'
loop_
 _atom_site_type_symbol
 _atom_site_label
 _atom_site_symmetry_multiplicity
 _atom_site_fract_x
 _atom_site_fract_y
 _atom_site_fract_z
 _atom_site_occupancy
  Yb  Yb0  1  0.750142  0.749953  0.749953  1
  Tm  Tm1  1  0.501679  0.499440  0.499440  1
  Ta  Ta2  1  0.622721  0.125760  0.125760  1
  Ir  Ir3  1  0.125153  0.124287  0.124287  1
  Ir  Ir4  1  0.125153  0.124287  0.626273  1
  Ir  Ir5  1  0.125153  0.626273  0.124287  1
