# generated using pymatgen
data_Cs3Pa2Br10N
_symmetry_space_group_name_H-M   'P 1'
_cell_length_a   8.15240500
_cell_length_b   8.15240500
_cell_length_c   20.64358700
_cell_angle_alpha   90.00000000
_cell_angle_beta   90.00000000
_cell_angle_gamma   90.00000000
_symmetry_Int_Tables_number   1
_chemical_formula_structural   Cs3Pa2Br10N
_chemical_formula_sum   'Cs6 Pa4 Br20 N2'
_cell_volume   1372.00803649
_cell_formula_units_Z   2
loop_
 _symmetry_equiv_pos_site_id
 _symmetry_equiv_pos_as_xyz
  1  'x, y, z'
loop_
 _atom_site_type_symbol
 _atom_site_label
 _atom_site_symmetry_multiplicity
 _atom_site_fract_x
 _atom_site_fract_y
 _atom_site_fract_z
 _atom_site_occupancy
  Cs  Cs0  1  0.500000  0.500000  0.000000  1
  Cs  Cs1  1  0.000000  0.000000  0.500000  1
  Cs  Cs2  1  0.000000  0.500000  0.250000  1
  Cs  Cs3  1  0.500000  0.000000  0.750000  1
  Cs  Cs4  1  0.500000  0.000000  0.250000  1
  Cs  Cs5  1  0.000000  0.500000  0.750000  1
  Pa  Pa6  1  0.500000  0.500000  0.402156  1
  Pa  Pa7  1  0.000000  0.000000  0.902156  1
  Pa  Pa8  1  0.500000  0.500000  0.597844  1
  Pa  Pa9  1  0.000000  0.000000  0.097844  1
  Br  Br10  1  0.785579  0.688057  0.394686  1
  Br  Br11  1  0.214421  0.311943  0.394686  1
  Br  Br12  1  0.714421  0.188057  0.894686  1
  Br  Br13  1  0.285579  0.811943  0.894686  1
  Br  Br14  1  0.688057  0.214421  0.394686  1
  Br  Br15  1  0.311943  0.785579  0.394686  1
  Br  Br16  1  0.188057  0.285579  0.894686  1
  Br  Br17  1  0.811943  0.714421  0.894686  1
  Br  Br18  1  0.214421  0.311943  0.605314  1
  Br  Br19  1  0.785579  0.688057  0.605314  1
  Br  Br20  1  0.285579  0.811943  0.105314  1
  Br  Br21  1  0.714421  0.188057  0.105314  1
  Br  Br22  1  0.311943  0.785579  0.605314  1
  Br  Br23  1  0.688057  0.214421  0.605314  1
  Br  Br24  1  0.811943  0.714421  0.105314  1
  Br  Br25  1  0.188057  0.285579  0.105314  1
  Br  Br26  1  0.500000  0.500000  0.264716  1
  Br  Br27  1  0.000000  0.000000  0.764716  1
  Br  Br28  1  0.500000  0.500000  0.735284  1
  Br  Br29  1  0.000000  0.000000  0.235284  1
  N  N30  1  0.500000  0.500000  0.500000  1
  N  N31  1  0.000000  0.000000  0.000000  1
