# generated using pymatgen
data_Sc20Si7Sb9
_symmetry_space_group_name_H-M   'P 1'
_cell_length_a   7.36698596
_cell_length_b   7.40881123
_cell_length_c   14.27041900
_cell_angle_alpha   90.00000000
_cell_angle_beta   90.00000000
_cell_angle_gamma   89.08096710
_symmetry_Int_Tables_number   1
_chemical_formula_structural   Sc20Si7Sb9
_chemical_formula_sum   'Sc20 Si7 Sb9'
_cell_volume   778.78795392
_cell_formula_units_Z   1
loop_
 _symmetry_equiv_pos_site_id
 _symmetry_equiv_pos_as_xyz
  1  'x, y, z'
loop_
 _atom_site_type_symbol
 _atom_site_label
 _atom_site_symmetry_multiplicity
 _atom_site_fract_x
 _atom_site_fract_y
 _atom_site_fract_z
 _atom_site_occupancy
  Sc  Sc0  1  0.210432  0.991890  0.750000  1
  Sc  Sc1  1  0.788801  0.001587  0.250000  1
  Sc  Sc2  1  0.287605  0.494123  0.250000  1
  Sc  Sc3  1  0.702913  0.510053  0.750000  1
  Sc  Sc4  1  0.043808  0.691971  0.612175  1
  Sc  Sc5  1  0.956998  0.319283  0.384441  1
  Sc  Sc6  1  0.454454  0.176275  0.383527  1
  Sc  Sc7  1  0.956998  0.319283  0.115559  1
  Sc  Sc8  1  0.542483  0.822246  0.612053  1
  Sc  Sc9  1  0.043808  0.691971  0.887825  1
  Sc  Sc10  1  0.542483  0.822246  0.887947  1
  Sc  Sc11  1  0.454454  0.176275  0.116473  1
  Sc  Sc12  1  0.395468  0.337142  0.629195  1
  Sc  Sc13  1  0.616089  0.661004  0.367273  1
  Sc  Sc14  1  0.119257  0.836260  0.367914  1
  Sc  Sc15  1  0.616089  0.661004  0.132727  1
  Sc  Sc16  1  0.868280  0.151405  0.627307  1
  Sc  Sc17  1  0.395468  0.337142  0.870805  1
  Sc  Sc18  1  0.868280  0.151405  0.872693  1
  Sc  Sc19  1  0.119257  0.836260  0.132086  1
  Si  Si20  1  0.917768  0.614348  0.250000  1
  Si  Si21  1  0.416933  0.884257  0.250000  1
  Si  Si22  1  0.580246  0.112799  0.750000  1
  Si  Si23  1  0.355137  0.648839  0.750000  1
  Si  Si24  1  0.658923  0.360859  0.250000  1
  Si  Si25  1  0.158717  0.135420  0.250000  1
  Si  Si26  1  0.839912  0.863397  0.750000  1
  Sb  Sb27  1  0.078649  0.381394  0.750000  1
  Sb  Sb28  1  0.222919  0.033319  0.539927  1
  Sb  Sb29  1  0.773980  0.968997  0.456593  1
  Sb  Sb30  1  0.275628  0.526350  0.459521  1
  Sb  Sb31  1  0.773980  0.968997  0.043407  1
  Sb  Sb32  1  0.732618  0.476266  0.540482  1
  Sb  Sb33  1  0.222919  0.033319  0.960073  1
  Sb  Sb34  1  0.732618  0.476266  0.959518  1
  Sb  Sb35  1  0.275628  0.526350  0.040479  1
