# generated using pymatgen
data_Dy2Y3Tm3Au4
_symmetry_space_group_name_H-M   'P 1'
_cell_length_a   4.91474300
_cell_length_b   7.14096233
_cell_length_c   8.92914192
_cell_angle_alpha   90.02886626
_cell_angle_beta   90.00000000
_cell_angle_gamma   90.00000000
_symmetry_Int_Tables_number   1
_chemical_formula_structural   Dy2Y3Tm3Au4
_chemical_formula_sum   'Dy2 Y3 Tm3 Au4'
_cell_volume   313.37707737
_cell_formula_units_Z   1
loop_
 _symmetry_equiv_pos_site_id
 _symmetry_equiv_pos_as_xyz
  1  'x, y, z'
loop_
 _atom_site_type_symbol
 _atom_site_label
 _atom_site_symmetry_multiplicity
 _atom_site_fract_x
 _atom_site_fract_y
 _atom_site_fract_z
 _atom_site_occupancy
  Dy  Dy0  1  0.750000  0.484562  0.677446  1
  Dy  Dy1  1  0.750000  0.985184  0.823865  1
  Y  Y2  1  0.250000  0.015141  0.176345  1
  Y  Y3  1  0.250000  0.512795  0.322871  1
  Y  Y4  1  0.750000  0.851451  0.420701  1
  Tm  Tm5  1  0.250000  0.147790  0.580614  1
  Tm  Tm6  1  0.250000  0.647491  0.920681  1
  Tm  Tm7  1  0.750000  0.351926  0.078117  1
  Au  Au8  1  0.250000  0.745796  0.604430  1
  Au  Au9  1  0.250000  0.246998  0.898631  1
  Au  Au10  1  0.750000  0.752672  0.096652  1
  Au  Au11  1  0.750000  0.258192  0.399647  1
