# generated using pymatgen
data_Ca5Sc3(P3Rh4)4
_symmetry_space_group_name_H-M   'P 1'
_cell_length_a   12.86286000
_cell_length_b   12.86286041
_cell_length_c   3.92419100
_cell_angle_alpha   90.00000000
_cell_angle_beta   90.00000000
_cell_angle_gamma   119.99999894
_symmetry_Int_Tables_number   1
_chemical_formula_structural   Ca5Sc3(P3Rh4)4
_chemical_formula_sum   'Ca5 Sc3 P12 Rh16'
_cell_volume   562.28419096
_cell_formula_units_Z   1
loop_
 _symmetry_equiv_pos_site_id
 _symmetry_equiv_pos_as_xyz
  1  'x, y, z'
loop_
 _atom_site_type_symbol
 _atom_site_label
 _atom_site_symmetry_multiplicity
 _atom_site_fract_x
 _atom_site_fract_y
 _atom_site_fract_z
 _atom_site_occupancy
  Ca  Ca0  1  0.333333  0.666667  0.500000  1
  Ca  Ca1  1  0.666667  0.333333  0.500000  1
  Ca  Ca2  1  0.000000  0.814888  0.000000  1
  Ca  Ca3  1  0.185112  0.185112  0.000000  1
  Ca  Ca4  1  0.814888  0.000000  0.000000  1
  Sc  Sc5  1  0.000000  0.442270  0.500000  1
  Sc  Sc6  1  0.557730  0.557730  0.500000  1
  Sc  Sc7  1  0.442270  0.000000  0.500000  1
  P  P8  1  0.000000  0.641136  0.500000  1
  P  P9  1  0.358864  0.358864  0.500000  1
  P  P10  1  0.641136  0.000000  0.500000  1
  P  P11  1  0.518099  0.689427  0.000000  1
  P  P12  1  0.310573  0.828672  0.000000  1
  P  P13  1  0.171328  0.481901  0.000000  1
  P  P14  1  0.481901  0.171328  0.000000  1
  P  P15  1  0.689427  0.518099  0.000000  1
  P  P16  1  0.828672  0.310573  0.000000  1
  P  P17  1  0.000000  0.178850  0.500000  1
  P  P18  1  0.821150  0.821150  0.500000  1
  P  P19  1  0.178850  0.000000  0.500000  1
  Rh  Rh20  1  0.513452  0.872577  0.000000  1
  Rh  Rh21  1  0.127423  0.640876  0.000000  1
  Rh  Rh22  1  0.359124  0.486548  0.000000  1
  Rh  Rh23  1  0.486548  0.359124  0.000000  1
  Rh  Rh24  1  0.872577  0.513452  0.000000  1
  Rh  Rh25  1  0.640876  0.127423  0.000000  1
  Rh  Rh26  1  0.000000  0.278756  0.000000  1
  Rh  Rh27  1  0.721244  0.721244  0.000000  1
  Rh  Rh28  1  0.278756  0.000000  0.000000  1
  Rh  Rh29  1  0.625562  0.804842  0.500000  1
  Rh  Rh30  1  0.195158  0.820721  0.500000  1
  Rh  Rh31  1  0.179279  0.374438  0.500000  1
  Rh  Rh32  1  0.374438  0.179279  0.500000  1
  Rh  Rh33  1  0.804842  0.625562  0.500000  1
  Rh  Rh34  1  0.820721  0.195158  0.500000  1
  Rh  Rh35  1  0.000000  0.000000  0.500000  1
