# generated using pymatgen
data_Th6Sc4Ru5Rh
_symmetry_space_group_name_H-M   'P 1'
_cell_length_a   6.12319300
_cell_length_b   8.24176363
_cell_length_c   8.24176359
_cell_angle_alpha   119.95670595
_cell_angle_beta   90.00000000
_cell_angle_gamma   90.00000000
_symmetry_Int_Tables_number   1
_chemical_formula_structural   Th6Sc4Ru5Rh
_chemical_formula_sum   'Th6 Sc4 Ru5 Rh1'
_cell_volume   360.36133540
_cell_formula_units_Z   1
loop_
 _symmetry_equiv_pos_site_id
 _symmetry_equiv_pos_as_xyz
  1  'x, y, z'
loop_
 _atom_site_type_symbol
 _atom_site_label
 _atom_site_symmetry_multiplicity
 _atom_site_fract_x
 _atom_site_fract_y
 _atom_site_fract_z
 _atom_site_occupancy
  Th  Th0  1  0.750000  0.743188  0.743188  1
  Th  Th1  1  0.250000  0.258667  0.258667  1
  Th  Th2  1  0.750000  0.995774  0.257926  1
  Th  Th3  1  0.250000  0.999327  0.741135  1
  Th  Th4  1  0.750000  0.257926  0.995774  1
  Th  Th5  1  0.250000  0.741135  0.999327  1
  Sc  Sc6  1  0.001411  0.667636  0.333094  1
  Sc  Sc7  1  0.001411  0.333094  0.667636  1
  Sc  Sc8  1  0.498589  0.333094  0.667636  1
  Sc  Sc9  1  0.498589  0.667636  0.333094  1
  Ru  Ru10  1  0.250000  0.613221  0.613221  1
  Ru  Ru11  1  0.750000  0.999751  0.612284  1
  Ru  Ru12  1  0.250000  0.001081  0.386879  1
  Ru  Ru13  1  0.750000  0.612284  0.999751  1
  Ru  Ru14  1  0.250000  0.386879  0.001081  1
  Rh  Rh15  1  0.750000  0.389307  0.389307  1
