# generated using pymatgen
data_HfTa2B2Os5
_symmetry_space_group_name_H-M   'P 1'
_cell_length_a   9.54046848
_cell_length_b   9.54046793
_cell_length_c   3.07146600
_cell_angle_alpha   90.00000000
_cell_angle_beta   90.00000000
_cell_angle_gamma   90.09600484
_symmetry_Int_Tables_number   1
_chemical_formula_structural   HfTa2B2Os5
_chemical_formula_sum   'Hf2 Ta4 B4 Os10'
_cell_volume   279.56608162
_cell_formula_units_Z   2
loop_
 _symmetry_equiv_pos_site_id
 _symmetry_equiv_pos_as_xyz
  1  'x, y, z'
loop_
 _atom_site_type_symbol
 _atom_site_label
 _atom_site_symmetry_multiplicity
 _atom_site_fract_x
 _atom_site_fract_y
 _atom_site_fract_z
 _atom_site_occupancy
  Hf  Hf0  1  0.823190  0.676810  0.000000  1
  Hf  Hf1  1  0.176810  0.323190  0.000000  1
  Ta  Ta2  1  0.323086  0.823086  0.000000  1
  Ta  Ta3  1  0.676914  0.176914  0.000000  1
  Ta  Ta4  1  0.500000  0.500000  0.000000  1
  Ta  Ta5  1  0.000000  0.000000  0.000000  1
  B  B6  1  0.621568  0.878432  0.000000  1
  B  B7  1  0.378432  0.121568  0.000000  1
  B  B8  1  0.120830  0.620830  0.000000  1
  B  B9  1  0.879170  0.379170  0.000000  1
  Os  Os10  1  0.567855  0.719608  0.500000  1
  Os  Os11  1  0.432145  0.280392  0.500000  1
  Os  Os12  1  0.074379  0.782877  0.500000  1
  Os  Os13  1  0.925621  0.217123  0.500000  1
  Os  Os14  1  0.282877  0.574379  0.500000  1
  Os  Os15  1  0.717123  0.425621  0.500000  1
  Os  Os16  1  0.219608  0.067855  0.500000  1
  Os  Os17  1  0.780392  0.932145  0.500000  1
  Os  Os18  1  0.500000  0.000000  0.500000  1
  Os  Os19  1  0.000000  0.500000  0.500000  1
