# generated using pymatgen
data_CsBaCaReN4
_symmetry_space_group_name_H-M   'P 1'
_cell_length_a   10.98253769
_cell_length_b   10.58767732
_cell_length_c   8.33160118
_cell_angle_alpha   68.82293442
_cell_angle_beta   64.88784567
_cell_angle_gamma   45.93662961
_symmetry_Int_Tables_number   1
_chemical_formula_structural   CsBaCaReN4
_chemical_formula_sum   'Cs4 Ba4 Ca4 Re4 N16'
_cell_volume   627.08536325
_cell_formula_units_Z   4
loop_
 _symmetry_equiv_pos_site_id
 _symmetry_equiv_pos_as_xyz
  1  'x, y, z'
loop_
 _atom_site_type_symbol
 _atom_site_label
 _atom_site_symmetry_multiplicity
 _atom_site_fract_x
 _atom_site_fract_y
 _atom_site_fract_z
 _atom_site_occupancy
  Cs  Cs0  1  0.566630  0.927465  0.921042  1
  Cs  Cs1  1  0.927548  0.565629  0.587027  1
  Cs  Cs2  1  0.320733  0.681108  0.677794  1
  Cs  Cs3  1  0.114955  0.108487  0.885721  1
  Ba  Ba4  1  0.131401  0.138330  0.371313  1
  Ba  Ba5  1  0.353826  0.364769  0.143299  1
  Ba  Ba6  1  0.685947  0.314053  0.314600  1
  Ba  Ba7  1  0.890382  0.886890  0.106525  1
  Ca  Ca8  1  0.333366  0.339038  0.665897  1
  Ca  Ca9  1  0.902977  0.909439  0.598685  1
  Ca  Ca10  1  0.662724  0.664566  0.339484  1
  Ca  Ca11  1  0.579470  0.598404  0.913320  1
  Re  Re12  1  0.508811  0.003815  0.479977  1
  Re  Re13  1  0.998012  0.503162  0.015212  1
  Re  Re14  1  0.744786  0.251145  0.750095  1
  Re  Re15  1  0.249309  0.745517  0.254754  1
  N  N16  1  0.997377  0.664722  0.832287  1
  N  N17  1  0.681590  0.299354  0.980001  1
  N  N18  1  0.663235  0.022076  0.484135  1
  N  N19  1  0.524224  0.820981  0.635537  1
  N  N20  1  0.257918  0.573115  0.426059  1
  N  N21  1  0.753277  0.413064  0.573989  1
  N  N22  1  0.963878  0.035130  0.707494  1
  N  N23  1  0.562865  0.964507  0.252684  1
  N  N24  1  0.429269  0.732476  0.239893  1
  N  N25  1  0.962849  0.563435  0.221216  1
  N  N26  1  0.286136  0.693020  0.043268  1
  N  N27  1  0.821544  0.501850  0.046184  1
  N  N28  1  0.215317  0.283138  0.977512  1
  N  N29  1  0.590841  0.244840  0.725370  1
  N  N30  1  0.284640  0.215527  0.526030  1
  N  N31  1  0.034162  0.970949  0.303593  1
