# generated using pymatgen
data_La2Th(AgSn)4
_symmetry_space_group_name_H-M   'P 1'
_cell_length_a   9.01120180
_cell_length_b   9.01120077
_cell_length_c   9.01120160
_cell_angle_alpha   149.48487137
_cell_angle_beta   130.66398561
_cell_angle_gamma   59.12833310
_symmetry_Int_Tables_number   1
_chemical_formula_structural   La2Th(AgSn)4
_chemical_formula_sum   'La2 Th1 Ag4 Sn4'
_cell_volume   279.61301951
_cell_formula_units_Z   1
loop_
 _symmetry_equiv_pos_site_id
 _symmetry_equiv_pos_as_xyz
  1  'x, y, z'
loop_
 _atom_site_type_symbol
 _atom_site_label
 _atom_site_symmetry_multiplicity
 _atom_site_fract_x
 _atom_site_fract_y
 _atom_site_fract_z
 _atom_site_occupancy
  La  La0  1  0.627475  0.127475  0.500000  1
  La  La1  1  0.999310  0.999310  0.000000  1
  Th  Th2  1  0.372504  0.872504  0.500000  1
  Ag  Ag3  1  0.636225  0.330835  0.305390  1
  Ag  Ag4  1  0.363053  0.669775  0.693278  1
  Ag  Ag5  1  0.025444  0.330835  0.694610  1
  Ag  Ag6  1  0.976498  0.669775  0.306722  1
  Sn  Sn7  1  0.217822  0.217822  0.000000  1
  Sn  Sn8  1  0.784113  0.784113  0.000000  1
  Sn  Sn9  1  0.690924  0.498778  0.192147  1
  Sn  Sn10  1  0.306631  0.498778  0.807853  1
