# generated using pymatgen
data_TmZn2InCuIr
_symmetry_space_group_name_H-M   'P 1'
_cell_length_a   5.34328792
_cell_length_b   5.24948451
_cell_length_c   5.24948440
_cell_angle_alpha   59.30900070
_cell_angle_beta   58.62784686
_cell_angle_gamma   58.62785661
_symmetry_Int_Tables_number   1
_chemical_formula_structural   TmZn2InCuIr
_chemical_formula_sum   'Tm1 Zn2 In1 Cu1 Ir1'
_cell_volume   101.38643029
_cell_formula_units_Z   1
loop_
 _symmetry_equiv_pos_site_id
 _symmetry_equiv_pos_as_xyz
  1  'x, y, z'
loop_
 _atom_site_type_symbol
 _atom_site_label
 _atom_site_symmetry_multiplicity
 _atom_site_fract_x
 _atom_site_fract_y
 _atom_site_fract_z
 _atom_site_occupancy
  Tm  Tm0  1  0.250164  0.253912  0.253912  1
  Zn  Zn1  1  0.626746  0.623356  0.123557  1
  Zn  Zn2  1  0.626746  0.123557  0.623356  1
  In  In3  1  0.999338  0.999886  0.999886  1
  Cu  Cu4  1  0.123566  0.624619  0.624619  1
  Ir  Ir5  1  0.623441  0.624670  0.624670  1
