# generated using pymatgen
data_Sr2ErTm3Se8
_symmetry_space_group_name_H-M   'P 1'
_cell_length_a   4.12768200
_cell_length_b   12.58230800
_cell_length_c   14.89771100
_cell_angle_alpha   90.00000000
_cell_angle_beta   90.00000000
_cell_angle_gamma   90.00000000
_symmetry_Int_Tables_number   1
_chemical_formula_structural   Sr2ErTm3Se8
_chemical_formula_sum   'Sr4 Er2 Tm6 Se16'
_cell_volume   773.72403616
_cell_formula_units_Z   2
loop_
 _symmetry_equiv_pos_site_id
 _symmetry_equiv_pos_as_xyz
  1  'x, y, z'
loop_
 _atom_site_type_symbol
 _atom_site_label
 _atom_site_symmetry_multiplicity
 _atom_site_fract_x
 _atom_site_fract_y
 _atom_site_fract_z
 _atom_site_occupancy
  Sr  Sr0  1  0.750000  0.741277  0.165351  1
  Sr  Sr1  1  0.750000  0.241277  0.334649  1
  Sr  Sr2  1  0.250000  0.258513  0.835457  1
  Sr  Sr3  1  0.250000  0.758513  0.664543  1
  Er  Er4  1  0.250000  0.936386  0.889338  1
  Er  Er5  1  0.250000  0.436387  0.610662  1
  Tm  Tm6  1  0.750000  0.081745  0.597751  1
  Tm  Tm7  1  0.750000  0.581745  0.902249  1
  Tm  Tm8  1  0.250000  0.918304  0.402217  1
  Tm  Tm9  1  0.250000  0.418304  0.097783  1
  Tm  Tm10  1  0.750000  0.062983  0.111657  1
  Tm  Tm11  1  0.750000  0.562983  0.388343  1
  Se  Se12  1  0.750000  0.293155  0.671760  1
  Se  Se13  1  0.750000  0.793155  0.828240  1
  Se  Se14  1  0.250000  0.706055  0.329380  1
  Se  Se15  1  0.250000  0.206055  0.170620  1
  Se  Se16  1  0.750000  0.371480  0.971174  1
  Se  Se17  1  0.750000  0.871480  0.528826  1
  Se  Se18  1  0.250000  0.629052  0.028973  1
  Se  Se19  1  0.250000  0.129052  0.471027  1
  Se  Se20  1  0.750000  0.973973  0.285340  1
  Se  Se21  1  0.750000  0.473973  0.214660  1
  Se  Se22  1  0.250000  0.026345  0.714955  1
  Se  Se23  1  0.250000  0.526345  0.785045  1
  Se  Se24  1  0.750000  0.088620  0.923925  1
  Se  Se25  1  0.750000  0.588620  0.576075  1
  Se  Se26  1  0.250000  0.912115  0.078296  1
  Se  Se27  1  0.250000  0.412115  0.421704  1
