# generated using pymatgen
data_Tb3Ho(TmGa5)2
_symmetry_space_group_name_H-M   'P 1'
_cell_length_a   6.09216515
_cell_length_b   9.62265823
_cell_length_c   11.49543900
_cell_angle_alpha   90.00000000
_cell_angle_beta   90.00000000
_cell_angle_gamma   90.02521515
_symmetry_Int_Tables_number   1
_chemical_formula_structural   Tb3Ho(TmGa5)2
_chemical_formula_sum   'Tb6 Ho2 Tm4 Ga20'
_cell_volume   673.89502185
_cell_formula_units_Z   2
loop_
 _symmetry_equiv_pos_site_id
 _symmetry_equiv_pos_as_xyz
  1  'x, y, z'
loop_
 _atom_site_type_symbol
 _atom_site_label
 _atom_site_symmetry_multiplicity
 _atom_site_fract_x
 _atom_site_fract_y
 _atom_site_fract_z
 _atom_site_occupancy
  Tb  Tb0  1  0.109234  0.009677  0.648714  1
  Tb  Tb1  1  0.390766  0.490323  0.148714  1
  Tb  Tb2  1  0.109228  0.490359  0.648373  1
  Tb  Tb3  1  0.390772  0.009641  0.148373  1
  Tb  Tb4  1  0.890659  0.990283  0.351432  1
  Tb  Tb5  1  0.609341  0.509717  0.851432  1
  Ho  Ho6  1  0.890756  0.509612  0.351350  1
  Ho  Ho7  1  0.609244  0.990388  0.851350  1
  Tm  Tm8  1  0.848613  0.750056  0.074532  1
  Tm  Tm9  1  0.651387  0.749944  0.574532  1
  Tm  Tm10  1  0.151611  0.249977  0.925436  1
  Tm  Tm11  1  0.348389  0.250023  0.425436  1
  Ga  Ga12  1  0.875609  0.052937  0.089491  1
  Ga  Ga13  1  0.624391  0.447063  0.589491  1
  Ga  Ga14  1  0.124350  0.553021  0.910384  1
  Ga  Ga15  1  0.375650  0.946979  0.410384  1
  Ga  Ga16  1  0.124694  0.947113  0.910289  1
  Ga  Ga17  1  0.375306  0.552887  0.410289  1
  Ga  Ga18  1  0.875683  0.447097  0.089915  1
  Ga  Ga19  1  0.624317  0.052903  0.589915  1
  Ga  Ga20  1  0.171574  0.749763  0.251818  1
  Ga  Ga21  1  0.328426  0.750237  0.751818  1
  Ga  Ga22  1  0.827976  0.249723  0.748439  1
  Ga  Ga23  1  0.672024  0.250277  0.248439  1
  Ga  Ga24  1  0.373229  0.750130  0.004030  1
  Ga  Ga25  1  0.126771  0.749870  0.504030  1
  Ga  Ga26  1  0.626864  0.249667  0.995641  1
  Ga  Ga27  1  0.873136  0.250333  0.495641  1
  Ga  Ga28  1  0.601472  0.749624  0.299172  1
  Ga  Ga29  1  0.898528  0.750376  0.799172  1
  Ga  Ga30  1  0.399012  0.249920  0.700985  1
  Ga  Ga31  1  0.100988  0.250080  0.200985  1
