# generated using pymatgen
data_La2HoHf3(SnRh)6
_symmetry_space_group_name_H-M   'P 1'
_cell_length_a   7.50806000
_cell_length_b   7.50622401
_cell_length_c   7.73094100
_cell_angle_alpha   90.00000000
_cell_angle_beta   90.00000000
_cell_angle_gamma   120.00935193
_symmetry_Int_Tables_number   1
_chemical_formula_structural   La2HoHf3(SnRh)6
_chemical_formula_sum   'La2 Ho1 Hf3 Sn6 Rh6'
_cell_volume   377.28654028
_cell_formula_units_Z   1
loop_
 _symmetry_equiv_pos_site_id
 _symmetry_equiv_pos_as_xyz
  1  'x, y, z'
loop_
 _atom_site_type_symbol
 _atom_site_label
 _atom_site_symmetry_multiplicity
 _atom_site_fract_x
 _atom_site_fract_y
 _atom_site_fract_z
 _atom_site_occupancy
  La  La0  1  0.999348  0.409130  0.750000  1
  La  La1  1  0.590297  0.590693  0.750000  1
  Ho  Ho2  1  0.404643  0.000214  0.750000  1
  Hf  Hf3  1  0.998404  0.393527  0.250000  1
  Hf  Hf4  1  0.605610  0.605963  0.250000  1
  Hf  Hf5  1  0.396673  0.000563  0.250000  1
  Sn  Sn6  1  0.264336  0.261646  0.484904  1
  Sn  Sn7  1  0.003652  0.738863  0.485050  1
  Sn  Sn8  1  0.003652  0.738863  0.014950  1
  Sn  Sn9  1  0.732505  0.999583  0.490779  1
  Sn  Sn10  1  0.732505  0.999583  0.009221  1
  Sn  Sn11  1  0.264336  0.261646  0.015096  1
  Rh  Rh12  1  0.333828  0.667980  0.452278  1
  Rh  Rh13  1  0.665767  0.331929  0.453287  1
  Rh  Rh14  1  0.333828  0.667980  0.047722  1
  Rh  Rh15  1  0.008737  0.999967  0.750000  1
  Rh  Rh16  1  0.996111  0.999941  0.250000  1
  Rh  Rh17  1  0.665767  0.331929  0.046713  1
