# generated using pymatgen
data_Sm2MgSi6(Pd7Pt3)2
_symmetry_space_group_name_H-M   'P 1'
_cell_length_a   8.70523784
_cell_length_b   8.73964498
_cell_length_c   8.73964400
_cell_angle_alpha   59.99999614
_cell_angle_beta   59.86916331
_cell_angle_gamma   59.86916871
_symmetry_Int_Tables_number   1
_chemical_formula_structural   Sm2MgSi6(Pd7Pt3)2
_chemical_formula_sum   'Sm2 Mg1 Si6 Pd14 Pt6'
_cell_volume   469.23617557
_cell_formula_units_Z   1
loop_
 _symmetry_equiv_pos_site_id
 _symmetry_equiv_pos_as_xyz
  1  'x, y, z'
loop_
 _atom_site_type_symbol
 _atom_site_label
 _atom_site_symmetry_multiplicity
 _atom_site_fract_x
 _atom_site_fract_y
 _atom_site_fract_z
 _atom_site_occupancy
  Sm  Sm0  1  0.249459  0.250180  0.250180  1
  Sm  Sm1  1  0.750541  0.749820  0.749820  1
  Mg  Mg2  1  0.000000  0.000000  0.000000  1
  Si  Si3  1  0.731376  0.267730  0.267730  1
  Si  Si4  1  0.268624  0.732270  0.732270  1
  Si  Si5  1  0.268624  0.732270  0.266836  1
  Si  Si6  1  0.731376  0.267730  0.733164  1
  Si  Si7  1  0.268624  0.266836  0.732270  1
  Si  Si8  1  0.731376  0.733164  0.267730  1
  Pd  Pd9  1  0.848672  0.383776  0.383776  1
  Pd  Pd10  1  0.151328  0.616224  0.616224  1
  Pd  Pd11  1  0.342379  0.000126  0.000126  1
  Pd  Pd12  1  0.657621  0.999874  0.999874  1
  Pd  Pd13  1  0.000000  0.343109  0.656891  1
  Pd  Pd14  1  0.000000  0.656891  0.343109  1
  Pd  Pd15  1  0.000000  0.343109  0.000000  1
  Pd  Pd16  1  0.657621  0.999874  0.342632  1
  Pd  Pd17  1  0.000000  0.656891  0.000000  1
  Pd  Pd18  1  0.342379  0.000126  0.657368  1
  Pd  Pd19  1  0.000000  0.000000  0.343109  1
  Pd  Pd20  1  0.000000  0.000000  0.656891  1
  Pd  Pd21  1  0.657621  0.342632  0.999874  1
  Pd  Pd22  1  0.342379  0.657368  0.000126  1
  Pt  Pt23  1  0.382051  0.385838  0.385838  1
  Pt  Pt24  1  0.617949  0.614162  0.614162  1
  Pt  Pt25  1  0.382051  0.385838  0.846273  1
  Pt  Pt26  1  0.382051  0.846273  0.385838  1
  Pt  Pt27  1  0.617949  0.614162  0.153727  1
  Pt  Pt28  1  0.617949  0.153727  0.614162  1
