# generated using pymatgen
data_La3Dy2Sc3(P3Ir4)4
_symmetry_space_group_name_H-M   'P 1'
_cell_length_a   12.94216765
_cell_length_b   12.93084725
_cell_length_c   4.01108200
_cell_angle_alpha   90.00000000
_cell_angle_beta   90.00000000
_cell_angle_gamma   119.97107105
_symmetry_Int_Tables_number   1
_chemical_formula_structural   La3Dy2Sc3(P3Ir4)4
_chemical_formula_sum   'La3 Dy2 Sc3 P12 Ir16'
_cell_volume   581.50399312
_cell_formula_units_Z   1
loop_
 _symmetry_equiv_pos_site_id
 _symmetry_equiv_pos_as_xyz
  1  'x, y, z'
loop_
 _atom_site_type_symbol
 _atom_site_label
 _atom_site_symmetry_multiplicity
 _atom_site_fract_x
 _atom_site_fract_y
 _atom_site_fract_z
 _atom_site_occupancy
  La  La0  1  0.333348  0.666395  0.500000  1
  La  La1  1  0.666652  0.333046  0.500000  1
  La  La2  1  0.000000  0.813737  0.000000  1
  Dy  Dy3  1  0.189329  0.189618  0.000000  1
  Dy  Dy4  1  0.810671  0.000288  0.000000  1
  Sc  Sc5  1  0.000000  0.442244  0.500000  1
  Sc  Sc6  1  0.555399  0.555640  0.500000  1
  Sc  Sc7  1  0.444601  0.000241  0.500000  1
  P  P8  1  0.000000  0.641401  0.500000  1
  P  P9  1  0.355200  0.355297  0.500000  1
  P  P10  1  0.644800  0.000097  0.500000  1
  P  P11  1  0.519450  0.686657  0.000000  1
  P  P12  1  0.313023  0.833494  0.000000  1
  P  P13  1  0.166916  0.479378  0.000000  1
  P  P14  1  0.480550  0.167207  0.000000  1
  P  P15  1  0.686977  0.520471  0.000000  1
  P  P16  1  0.833084  0.312462  0.000000  1
  P  P17  1  0.000000  0.177126  0.500000  1
  P  P18  1  0.820994  0.823872  0.500000  1
  P  P19  1  0.179006  0.002878  0.500000  1
  Ir  Ir20  1  0.512791  0.870260  0.000000  1
  Ir  Ir21  1  0.129610  0.641843  0.000000  1
  Ir  Ir22  1  0.356950  0.486475  0.000000  1
  Ir  Ir23  1  0.487209  0.357468  0.000000  1
  Ir  Ir24  1  0.870390  0.512233  0.000000  1
  Ir  Ir25  1  0.643050  0.129525  0.000000  1
  Ir  Ir26  1  0.000000  0.276988  0.000000  1
  Ir  Ir27  1  0.719859  0.721879  0.000000  1
  Ir  Ir28  1  0.280141  0.002021  0.000000  1
  Ir  Ir29  1  0.629353  0.808538  0.500000  1
  Ir  Ir30  1  0.196606  0.822197  0.500000  1
  Ir  Ir31  1  0.178113  0.370108  0.500000  1
  Ir  Ir32  1  0.370647  0.179185  0.500000  1
  Ir  Ir33  1  0.803394  0.625591  0.500000  1
  Ir  Ir34  1  0.821887  0.191995  0.500000  1
  Ir  Ir35  1  0.000000  0.002146  0.500000  1
