# generated using pymatgen
data_Tm6Sc4SnSb5
_symmetry_space_group_name_H-M   'P 1'
_cell_length_a   8.71587800
_cell_length_b   8.70880424
_cell_length_c   6.08936500
_cell_angle_alpha   90.00000000
_cell_angle_beta   90.00000000
_cell_angle_gamma   120.02688040
_symmetry_Int_Tables_number   1
_chemical_formula_structural   Tm6Sc4SnSb5
_chemical_formula_sum   'Tm6 Sc4 Sn1 Sb5'
_cell_volume   400.17929093
_cell_formula_units_Z   1
loop_
 _symmetry_equiv_pos_site_id
 _symmetry_equiv_pos_as_xyz
  1  'x, y, z'
loop_
 _atom_site_type_symbol
 _atom_site_label
 _atom_site_symmetry_multiplicity
 _atom_site_fract_x
 _atom_site_fract_y
 _atom_site_fract_z
 _atom_site_occupancy
  Tm  Tm0  1  0.243823  0.000000  0.250000  1
  Tm  Tm1  1  0.756807  0.000000  0.750000  1
  Tm  Tm2  1  0.998706  0.242805  0.250000  1
  Tm  Tm3  1  0.755901  0.757195  0.250000  1
  Tm  Tm4  1  0.244325  0.243551  0.750000  1
  Tm  Tm5  1  0.000774  0.756449  0.750000  1
  Sc  Sc6  1  0.333389  0.666916  0.000049  1
  Sc  Sc7  1  0.666474  0.333084  0.499951  1
  Sc  Sc8  1  0.666474  0.333084  0.000049  1
  Sc  Sc9  1  0.333389  0.666916  0.499951  1
  Sn  Sn10  1  0.603772  0.000000  0.250000  1
  Sb  Sb11  1  0.396049  0.000000  0.750000  1
  Sb  Sb12  1  0.999784  0.604977  0.250000  1
  Sb  Sb13  1  0.394806  0.395023  0.250000  1
  Sb  Sb14  1  0.605161  0.604794  0.750000  1
  Sb  Sb15  1  0.000367  0.395206  0.750000  1
