# generated using pymatgen
data_NbInI10
_symmetry_space_group_name_H-M   'P 1'
_cell_length_a   9.48397667
_cell_length_b   8.99455392
_cell_length_c   10.44189668
_cell_angle_alpha   100.35696638
_cell_angle_beta   92.79016490
_cell_angle_gamma   122.08803206
_symmetry_Int_Tables_number   1
_chemical_formula_structural   NbInI10
_chemical_formula_sum   'Nb1 In1 I10'
_cell_volume   731.17256623
_cell_formula_units_Z   1
loop_
 _symmetry_equiv_pos_site_id
 _symmetry_equiv_pos_as_xyz
  1  'x, y, z'
loop_
 _atom_site_type_symbol
 _atom_site_label
 _atom_site_symmetry_multiplicity
 _atom_site_fract_x
 _atom_site_fract_y
 _atom_site_fract_z
 _atom_site_occupancy
  Nb  Nb0  1  0.841819  0.768164  0.800652  1
  In  In1  1  0.208040  0.238533  0.238869  1
  I  I2  1  0.946655  0.434741  0.099908  1
  I  I3  1  0.731408  0.740103  0.029550  1
  I  I4  1  0.270240  0.008548  0.327426  1
  I  I5  1  0.752407  0.973714  0.719532  1
  I  I6  1  0.170832  0.141306  0.959882  1
  I  I7  1  0.031850  0.614982  0.891471  1
  I  I8  1  0.461039  0.596298  0.326358  1
  I  I9  1  0.915262  0.212435  0.314399  1
  I  I10  1  0.593479  0.454375  0.651527  1
  I  I11  1  0.076967  0.816803  0.640424  1
