# generated using pymatgen
data_Zr16Re3Ni4Pt
_symmetry_space_group_name_H-M   'P 1'
_cell_length_a   8.75057687
_cell_length_b   8.75057536
_cell_length_c   8.75698874
_cell_angle_alpha   60.02421793
_cell_angle_beta   60.02421748
_cell_angle_gamma   59.99999917
_symmetry_Int_Tables_number   1
_chemical_formula_structural   Zr16Re3Ni4Pt
_chemical_formula_sum   'Zr16 Re3 Ni4 Pt1'
_cell_volume   474.32057198
_cell_formula_units_Z   1
loop_
 _symmetry_equiv_pos_site_id
 _symmetry_equiv_pos_as_xyz
  1  'x, y, z'
loop_
 _atom_site_type_symbol
 _atom_site_label
 _atom_site_symmetry_multiplicity
 _atom_site_fract_x
 _atom_site_fract_y
 _atom_site_fract_z
 _atom_site_occupancy
  Zr  Zr0  1  0.189238  0.603232  0.604297  1
  Zr  Zr1  1  0.603232  0.189238  0.604297  1
  Zr  Zr2  1  0.603232  0.603232  0.604297  1
  Zr  Zr3  1  0.602031  0.602031  0.193909  1
  Zr  Zr4  1  0.453458  0.453458  0.047141  1
  Zr  Zr5  1  0.047466  0.047466  0.454730  1
  Zr  Zr6  1  0.453458  0.045943  0.047141  1
  Zr  Zr7  1  0.047466  0.450337  0.454730  1
  Zr  Zr8  1  0.045943  0.453458  0.047141  1
  Zr  Zr9  1  0.450337  0.047466  0.454730  1
  Zr  Zr10  1  0.816195  0.816195  0.176303  1
  Zr  Zr11  1  0.185576  0.185576  0.813456  1
  Zr  Zr12  1  0.816195  0.191307  0.176303  1
  Zr  Zr13  1  0.185576  0.815393  0.813456  1
  Zr  Zr14  1  0.191307  0.816195  0.176303  1
  Zr  Zr15  1  0.815393  0.185576  0.813456  1
  Re  Re16  1  0.502870  0.830647  0.835837  1
  Re  Re17  1  0.830647  0.502870  0.835837  1
  Re  Re18  1  0.830647  0.830647  0.835837  1
  Ni  Ni19  1  0.826581  0.389831  0.393757  1
  Ni  Ni20  1  0.389831  0.826581  0.393757  1
  Ni  Ni21  1  0.389831  0.389831  0.393757  1
  Ni  Ni22  1  0.391598  0.391598  0.825205  1
  Pt  Pt23  1  0.831891  0.831891  0.504327  1
