# generated using pymatgen
data_Tb16InHg3(RuRh)2
_symmetry_space_group_name_H-M   'P 1'
_cell_length_a   9.64241129
_cell_length_b   9.69950840
_cell_length_c   9.65015188
_cell_angle_alpha   59.83066990
_cell_angle_beta   59.66549620
_cell_angle_gamma   59.80392696
_symmetry_Int_Tables_number   1
_chemical_formula_structural   Tb16InHg3(RuRh)2
_chemical_formula_sum   'Tb16 In1 Hg3 Ru2 Rh2'
_cell_volume   634.81290903
_cell_formula_units_Z   1
loop_
 _symmetry_equiv_pos_site_id
 _symmetry_equiv_pos_as_xyz
  1  'x, y, z'
loop_
 _atom_site_type_symbol
 _atom_site_label
 _atom_site_symmetry_multiplicity
 _atom_site_fract_x
 _atom_site_fract_y
 _atom_site_fract_z
 _atom_site_occupancy
  Tb  Tb0  1  0.811127  0.807503  0.189169  1
  Tb  Tb1  1  0.810965  0.190067  0.808902  1
  Tb  Tb2  1  0.188187  0.191001  0.811410  1
  Tb  Tb3  1  0.650649  0.049460  0.650206  1
  Tb  Tb4  1  0.063896  0.059876  0.440292  1
  Tb  Tb5  1  0.442558  0.436197  0.060877  1
  Tb  Tb6  1  0.650649  0.649687  0.650206  1
  Tb  Tb7  1  0.811127  0.192201  0.189169  1
  Tb  Tb8  1  0.188187  0.809402  0.811410  1
  Tb  Tb9  1  0.049129  0.650024  0.650822  1
  Tb  Tb10  1  0.442558  0.060368  0.060877  1
  Tb  Tb11  1  0.439053  0.061640  0.437667  1
  Tb  Tb12  1  0.062940  0.439015  0.059032  1
  Tb  Tb13  1  0.652073  0.650178  0.047572  1
  Tb  Tb14  1  0.190134  0.809675  0.190516  1
  Tb  Tb15  1  0.063896  0.435937  0.440292  1
  In  In16  1  0.742760  0.418868  0.419502  1
  Hg  Hg17  1  0.414830  0.415018  0.415321  1
  Hg  Hg18  1  0.414937  0.414743  0.755575  1
  Hg  Hg19  1  0.414830  0.754829  0.415321  1
  Ru  Ru20  1  0.857195  0.422511  0.858025  1
  Ru  Ru21  1  0.857195  0.862272  0.858025  1
  Rh  Rh22  1  0.856428  0.859915  0.423745  1
  Rh  Rh23  1  0.424702  0.859615  0.856069  1
