# generated using pymatgen
data_DyLu3Ni3Os5
_symmetry_space_group_name_H-M   'P 1'
_cell_length_a   5.15134704
_cell_length_b   5.19356260
_cell_length_c   8.67540700
_cell_angle_alpha   90.00000000
_cell_angle_beta   90.00726298
_cell_angle_gamma   120.27144868
_symmetry_Int_Tables_number   1
_chemical_formula_structural   DyLu3Ni3Os5
_chemical_formula_sum   'Dy1 Lu3 Ni3 Os5'
_cell_volume   200.45284750
_cell_formula_units_Z   1
loop_
 _symmetry_equiv_pos_site_id
 _symmetry_equiv_pos_as_xyz
  1  'x, y, z'
loop_
 _atom_site_type_symbol
 _atom_site_label
 _atom_site_symmetry_multiplicity
 _atom_site_fract_x
 _atom_site_fract_y
 _atom_site_fract_z
 _atom_site_occupancy
  Dy  Dy0  1  0.324816  0.662409  0.437004  1
  Lu  Lu1  1  0.657266  0.328632  0.566024  1
  Lu  Lu2  1  0.658003  0.329001  0.934264  1
  Lu  Lu3  1  0.325831  0.662915  0.062382  1
  Ni  Ni4  1  0.189459  0.348642  0.751893  1
  Ni  Ni5  1  0.189459  0.840818  0.751893  1
  Ni  Ni6  1  0.341679  0.170840  0.247890  1
  Os  Os7  1  0.831823  0.659877  0.248546  1
  Os  Os8  1  0.684701  0.842351  0.750856  1
  Os  Os9  1  0.982796  0.991399  0.997432  1
  Os  Os10  1  0.831823  0.171945  0.248546  1
  Os  Os11  1  0.982344  0.991173  0.503268  1
