# generated using pymatgen
data_YLu2Sc(Co4P3)2
_symmetry_space_group_name_H-M   'P 1'
_cell_length_a   3.70250700
_cell_length_b   10.62136100
_cell_length_c   12.30810300
_cell_angle_alpha   90.00000000
_cell_angle_beta   90.00000000
_cell_angle_gamma   90.00000000
_symmetry_Int_Tables_number   1
_chemical_formula_structural   YLu2Sc(Co4P3)2
_chemical_formula_sum   'Y2 Lu4 Sc2 Co16 P12'
_cell_volume   484.02431631
_cell_formula_units_Z   2
loop_
 _symmetry_equiv_pos_site_id
 _symmetry_equiv_pos_as_xyz
  1  'x, y, z'
loop_
 _atom_site_type_symbol
 _atom_site_label
 _atom_site_symmetry_multiplicity
 _atom_site_fract_x
 _atom_site_fract_y
 _atom_site_fract_z
 _atom_site_occupancy
  Y  Y0  1  0.000000  0.500000  0.528271  1
  Y  Y1  1  0.500000  0.000000  0.471729  1
  Lu  Lu2  1  0.500000  0.823151  0.205205  1
  Lu  Lu3  1  0.500000  0.176849  0.205205  1
  Lu  Lu4  1  0.000000  0.676849  0.794795  1
  Lu  Lu5  1  0.000000  0.323151  0.794795  1
  Sc  Sc6  1  0.500000  0.500000  0.156794  1
  Sc  Sc7  1  0.000000  0.000000  0.843206  1
  Co  Co8  1  0.500000  0.500000  0.707437  1
  Co  Co9  1  0.000000  0.000000  0.292563  1
  Co  Co10  1  0.000000  0.500000  0.987485  1
  Co  Co11  1  0.500000  0.000000  0.012515  1
  Co  Co12  1  0.500000  0.331113  0.994719  1
  Co  Co13  1  0.500000  0.668887  0.994719  1
  Co  Co14  1  0.000000  0.168887  0.005281  1
  Co  Co15  1  0.000000  0.831113  0.005281  1
  Co  Co16  1  0.500000  0.295194  0.432575  1
  Co  Co17  1  0.500000  0.704806  0.432575  1
  Co  Co18  1  0.000000  0.204806  0.567425  1
  Co  Co19  1  0.000000  0.795194  0.567425  1
  Co  Co20  1  0.500000  0.876849  0.704014  1
  Co  Co21  1  0.500000  0.123151  0.704014  1
  Co  Co22  1  0.000000  0.623151  0.295986  1
  Co  Co23  1  0.000000  0.376849  0.295986  1
  P  P24  1  0.500000  0.500000  0.885560  1
  P  P25  1  0.000000  0.000000  0.114440  1
  P  P26  1  0.500000  0.500000  0.360025  1
  P  P27  1  0.000000  0.000000  0.639975  1
  P  P28  1  0.500000  0.310163  0.617258  1
  P  P29  1  0.500000  0.689837  0.617258  1
  P  P30  1  0.000000  0.189837  0.382742  1
  P  P31  1  0.000000  0.810163  0.382742  1
  P  P32  1  0.500000  0.838215  0.891151  1
  P  P33  1  0.500000  0.161785  0.891151  1
  P  P34  1  0.000000  0.661785  0.108849  1
  P  P35  1  0.000000  0.338215  0.108849  1
