# generated using pymatgen
data_DyEr9(SiBi2)2
_symmetry_space_group_name_H-M   'P 1'
_cell_length_a   7.99524864
_cell_length_b   9.10425600
_cell_length_c   12.03384901
_cell_angle_alpha   90.00000000
_cell_angle_beta   90.11482452
_cell_angle_gamma   90.00000000
_symmetry_Int_Tables_number   1
_chemical_formula_structural   DyEr9(SiBi2)2
_chemical_formula_sum   'Dy2 Er18 Si4 Bi8'
_cell_volume   875.95162228
_cell_formula_units_Z   2
loop_
 _symmetry_equiv_pos_site_id
 _symmetry_equiv_pos_as_xyz
  1  'x, y, z'
loop_
 _atom_site_type_symbol
 _atom_site_label
 _atom_site_symmetry_multiplicity
 _atom_site_fract_x
 _atom_site_fract_y
 _atom_site_fract_z
 _atom_site_occupancy
  Dy  Dy0  1  0.659275  0.750000  0.711859  1
  Dy  Dy1  1  0.340725  0.250000  0.288141  1
  Er  Er2  1  0.158575  0.250000  0.789341  1
  Er  Er3  1  0.841425  0.750000  0.210659  1
  Er  Er4  1  0.133864  0.750000  0.795541  1
  Er  Er5  1  0.866136  0.250000  0.204459  1
  Er  Er6  1  0.633422  0.250000  0.705156  1
  Er  Er7  1  0.366578  0.750000  0.294844  1
  Er  Er8  1  0.541193  0.750000  0.000420  1
  Er  Er9  1  0.458807  0.250000  0.999580  1
  Er  Er10  1  0.041729  0.250000  0.499281  1
  Er  Er11  1  0.958271  0.750000  0.500719  1
  Er  Er12  1  0.818802  0.447173  0.935442  1
  Er  Er13  1  0.181198  0.552827  0.064558  1
  Er  Er14  1  0.318724  0.552231  0.564321  1
  Er  Er15  1  0.181198  0.947173  0.064558  1
  Er  Er16  1  0.681276  0.447769  0.435679  1
  Er  Er17  1  0.818802  0.052827  0.935442  1
  Er  Er18  1  0.681276  0.052231  0.435679  1
  Er  Er19  1  0.318724  0.947769  0.564321  1
  Si  Si20  1  0.915629  0.750000  0.979885  1
  Si  Si21  1  0.084371  0.250000  0.020115  1
  Si  Si22  1  0.416659  0.250000  0.519931  1
  Si  Si23  1  0.583341  0.750000  0.480069  1
  Bi  Bi24  1  0.928648  0.010521  0.672882  1
  Bi  Bi25  1  0.071352  0.989479  0.327118  1
  Bi  Bi26  1  0.426984  0.990491  0.827368  1
  Bi  Bi27  1  0.071352  0.510521  0.327118  1
  Bi  Bi28  1  0.573016  0.009509  0.172632  1
  Bi  Bi29  1  0.928648  0.489479  0.672882  1
  Bi  Bi30  1  0.573016  0.490491  0.172632  1
  Bi  Bi31  1  0.426984  0.509509  0.827368  1
