# generated using pymatgen
data_LiY5(P2Ru3)6
_symmetry_space_group_name_H-M   'P 1'
_cell_length_a   12.61453012
_cell_length_b   12.42045513
_cell_length_c   3.97098600
_cell_angle_alpha   90.00000000
_cell_angle_beta   90.00000000
_cell_angle_gamma   119.49235308
_symmetry_Int_Tables_number   1
_chemical_formula_structural   LiY5(P2Ru3)6
_chemical_formula_sum   'Li1 Y5 P12 Ru18'
_cell_volume   541.54744209
_cell_formula_units_Z   1
loop_
 _symmetry_equiv_pos_site_id
 _symmetry_equiv_pos_as_xyz
  1  'x, y, z'
loop_
 _atom_site_type_symbol
 _atom_site_label
 _atom_site_symmetry_multiplicity
 _atom_site_fract_x
 _atom_site_fract_y
 _atom_site_fract_z
 _atom_site_occupancy
  Li  Li0  1  0.000000  0.561907  0.000000  1
  Y  Y1  1  0.000000  0.181501  0.500000  1
  Y  Y2  1  0.817065  0.815977  0.500000  1
  Y  Y3  1  0.182935  0.998912  0.500000  1
  Y  Y4  1  0.658521  0.328831  0.000000  1
  Y  Y5  1  0.341479  0.670312  0.000000  1
  P  P6  1  0.000000  0.807468  0.000000  1
  P  P7  1  0.181772  0.183587  0.000000  1
  P  P8  1  0.818228  0.001814  0.000000  1
  P  P9  1  0.692006  0.173190  0.500000  1
  P  P10  1  0.819256  0.518640  0.500000  1
  P  P11  1  0.473120  0.306497  0.500000  1
  P  P12  1  0.180744  0.699384  0.500000  1
  P  P13  1  0.526880  0.833377  0.500000  1
  P  P14  1  0.307994  0.481184  0.500000  1
  P  P15  1  0.000000  0.368052  0.000000  1
  P  P16  1  0.625842  0.624976  0.000000  1
  P  P17  1  0.374158  0.999134  0.000000  1
  Ru  Ru18  1  0.444074  0.444522  0.000000  1
  Ru  Ru19  1  0.555926  0.000448  0.000000  1
  Ru  Ru20  1  0.000000  0.710920  0.500000  1
  Ru  Ru21  1  0.280407  0.283495  0.500000  1
  Ru  Ru22  1  0.719593  0.003087  0.500000  1
  Ru  Ru23  1  0.805953  0.186836  0.000000  1
  Ru  Ru24  1  0.812926  0.618325  0.000000  1
  Ru  Ru25  1  0.372212  0.188727  0.000000  1
  Ru  Ru26  1  0.187074  0.805398  0.000000  1
  Ru  Ru27  1  0.627788  0.816514  0.000000  1
  Ru  Ru28  1  0.194047  0.380882  0.000000  1
  Ru  Ru29  1  0.876592  0.367828  0.500000  1
  Ru  Ru30  1  0.630568  0.508759  0.500000  1
  Ru  Ru31  1  0.491944  0.128154  0.500000  1
  Ru  Ru32  1  0.369432  0.878192  0.500000  1
  Ru  Ru33  1  0.508056  0.636210  0.500000  1
  Ru  Ru34  1  0.123408  0.491236  0.500000  1
  Ru  Ru35  1  0.000000  0.995723  0.000000  1
