# generated using pymatgen
data_Ca12YbSm(InN4)2
_symmetry_space_group_name_H-M   'P 1'
_cell_length_a   3.58734800
_cell_length_b   12.09782086
_cell_length_c   11.64499884
_cell_angle_alpha   90.04332853
_cell_angle_beta   90.00000000
_cell_angle_gamma   90.00000000
_symmetry_Int_Tables_number   1
_chemical_formula_structural   Ca12YbSm(InN4)2
_chemical_formula_sum   'Ca12 Yb1 Sm1 In2 N8'
_cell_volume   505.38224844
_cell_formula_units_Z   1
loop_
 _symmetry_equiv_pos_site_id
 _symmetry_equiv_pos_as_xyz
  1  'x, y, z'
loop_
 _atom_site_type_symbol
 _atom_site_label
 _atom_site_symmetry_multiplicity
 _atom_site_fract_x
 _atom_site_fract_y
 _atom_site_fract_z
 _atom_site_occupancy
  Ca  Ca0  1  0.499297  0.670632  0.238480  1
  Ca  Ca1  1  0.499297  0.329368  0.761520  1
  Ca  Ca2  1  0.500700  0.169981  0.265347  1
  Ca  Ca3  1  0.500700  0.830019  0.734653  1
  Ca  Ca4  1  0.000755  0.929995  0.266234  1
  Ca  Ca5  1  0.000755  0.070005  0.733766  1
  Ca  Ca6  1  0.999484  0.426070  0.241287  1
  Ca  Ca7  1  0.999484  0.573930  0.758713  1
  Ca  Ca8  1  0.001267  0.766183  0.478366  1
  Ca  Ca9  1  0.001267  0.233817  0.521634  1
  Ca  Ca10  1  0.998583  0.259290  0.023031  1
  Ca  Ca11  1  0.998583  0.740710  0.976969  1
  Yb  Yb12  1  0.501092  0.000000  0.500000  1
  Sm  Sm13  1  0.499090  0.500000  0.000000  1
  In  In14  1  0.506593  0.500000  0.500000  1
  In  In15  1  0.493105  0.000000  0.000000  1
  N  N16  1  0.998847  0.596069  0.121965  1
  N  N17  1  0.998847  0.403931  0.878035  1
  N  N18  1  0.001051  0.101069  0.372037  1
  N  N19  1  0.001051  0.898931  0.627963  1
  N  N20  1  0.500999  0.832233  0.356889  1
  N  N21  1  0.500999  0.167767  0.643111  1
  N  N22  1  0.499077  0.337239  0.137932  1
  N  N23  1  0.499077  0.662761  0.862068  1
