# generated using pymatgen
data_Zn5Co3Sb2(RhO8)2
_symmetry_space_group_name_H-M   'P 1'
_cell_length_a   6.08093213
_cell_length_b   10.47189779
_cell_length_c   6.20239202
_cell_angle_alpha   73.95535776
_cell_angle_beta   60.64679110
_cell_angle_gamma   90.00083731
_symmetry_Int_Tables_number   1
_chemical_formula_structural   Zn5Co3Sb2(RhO8)2
_chemical_formula_sum   'Zn5 Co3 Sb2 Rh2 O16'
_cell_volume   326.48731748
_cell_formula_units_Z   1
loop_
 _symmetry_equiv_pos_site_id
 _symmetry_equiv_pos_as_xyz
  1  'x, y, z'
loop_
 _atom_site_type_symbol
 _atom_site_label
 _atom_site_symmetry_multiplicity
 _atom_site_fract_x
 _atom_site_fract_y
 _atom_site_fract_z
 _atom_site_occupancy
  Zn  Zn0  1  0.708078  0.571657  0.093203  1
  Zn  Zn1  1  0.793006  0.928387  0.904919  1
  Zn  Zn2  1  0.990118  0.500013  0.500246  1
  Zn  Zn3  1  0.197535  0.071629  0.094704  1
  Zn  Zn4  1  0.300540  0.428364  0.907106  1
  Co  Co5  1  0.749028  0.248887  0.500546  1
  Co  Co6  1  0.503814  0.999943  0.499834  1
  Co  Co7  1  0.750300  0.751146  0.499435  1
  Sb  Sb8  1  0.749928  0.249522  0.000130  1
  Sb  Sb9  1  0.250839  0.750457  0.999898  1
  Rh  Rh10  1  0.250482  0.249388  0.500314  1
  Rh  Rh11  1  0.251503  0.750610  0.499744  1
  O  O12  1  0.396072  0.129897  0.712358  1
  O  O13  1  0.893885  0.631607  0.709844  1
  O  O14  1  0.102823  0.368476  0.290416  1
  O  O15  1  0.609302  0.869984  0.287331  1
  O  O16  1  0.394976  0.135559  0.246266  1
  O  O17  1  0.901790  0.636315  0.237412  1
  O  O18  1  0.857032  0.133804  0.240513  1
  O  O19  1  0.362080  0.637735  0.244854  1
  O  O20  1  0.618014  0.362735  0.246564  1
  O  O21  1  0.135999  0.863169  0.247405  1
  O  O22  1  0.638483  0.363730  0.762639  1
  O  O23  1  0.141981  0.864464  0.753716  1
  O  O24  1  0.882735  0.136894  0.752484  1
  O  O25  1  0.365176  0.637267  0.753476  1
  O  O26  1  0.106224  0.362202  0.755378  1
  O  O27  1  0.598259  0.866157  0.759264  1
