# generated using pymatgen
data_Pr16Hg4IrPd3
_symmetry_space_group_name_H-M   'P 1'
_cell_length_a   10.06991243
_cell_length_b   10.06716453
_cell_length_c   10.06716500
_cell_angle_alpha   60.00000174
_cell_angle_beta   60.00902821
_cell_angle_gamma   60.00902947
_symmetry_Int_Tables_number   1
_chemical_formula_structural   Pr16Hg4IrPd3
_chemical_formula_sum   'Pr16 Hg4 Ir1 Pd3'
_cell_volume   721.74587423
_cell_formula_units_Z   1
loop_
 _symmetry_equiv_pos_site_id
 _symmetry_equiv_pos_as_xyz
  1  'x, y, z'
loop_
 _atom_site_type_symbol
 _atom_site_label
 _atom_site_symmetry_multiplicity
 _atom_site_fract_x
 _atom_site_fract_y
 _atom_site_fract_z
 _atom_site_occupancy
  Pr  Pr0  1  0.352814  0.347963  0.347963  1
  Pr  Pr1  1  0.352814  0.347963  0.951260  1
  Pr  Pr2  1  0.352814  0.951260  0.347963  1
  Pr  Pr3  1  0.935981  0.354673  0.354673  1
  Pr  Pr4  1  0.805374  0.190371  0.190371  1
  Pr  Pr5  1  0.198231  0.805457  0.805457  1
  Pr  Pr6  1  0.198231  0.805457  0.190855  1
  Pr  Pr7  1  0.805374  0.190371  0.813885  1
  Pr  Pr8  1  0.198231  0.190855  0.805457  1
  Pr  Pr9  1  0.805374  0.813885  0.190371  1
  Pr  Pr10  1  0.938109  0.564497  0.564497  1
  Pr  Pr11  1  0.568948  0.936127  0.936127  1
  Pr  Pr12  1  0.568948  0.936127  0.558799  1
  Pr  Pr13  1  0.938109  0.564497  0.932897  1
  Pr  Pr14  1  0.568948  0.558799  0.936127  1
  Pr  Pr15  1  0.938109  0.932897  0.564497  1
  Hg  Hg16  1  0.580015  0.585029  0.585029  1
  Hg  Hg17  1  0.580015  0.585029  0.249926  1
  Hg  Hg18  1  0.580015  0.249926  0.585029  1
  Hg  Hg19  1  0.251415  0.582861  0.582861  1
  Ir  Ir20  1  0.570308  0.143230  0.143230  1
  Pd  Pd21  1  0.137274  0.145825  0.145825  1
  Pd  Pd22  1  0.137274  0.145825  0.571075  1
  Pd  Pd23  1  0.137274  0.571075  0.145825  1
