# generated using pymatgen
data_Tm6Zn21SiPd2
_symmetry_space_group_name_H-M   'P 1'
_cell_length_a   9.06161170
_cell_length_b   9.05394822
_cell_length_c   9.05394900
_cell_angle_alpha   60.00000082
_cell_angle_beta   60.02797265
_cell_angle_gamma   60.02797752
_symmetry_Int_Tables_number   1
_chemical_formula_structural   Tm6Zn21SiPd2
_chemical_formula_sum   'Tm6 Zn21 Si1 Pd2'
_cell_volume   525.47252399
_cell_formula_units_Z   1
loop_
 _symmetry_equiv_pos_site_id
 _symmetry_equiv_pos_as_xyz
  1  'x, y, z'
loop_
 _atom_site_type_symbol
 _atom_site_label
 _atom_site_symmetry_multiplicity
 _atom_site_fract_x
 _atom_site_fract_y
 _atom_site_fract_z
 _atom_site_occupancy
  Tm  Tm0  1  0.709544  0.284902  0.284902  1
  Tm  Tm1  1  0.709544  0.284902  0.720652  1
  Tm  Tm2  1  0.709544  0.720652  0.284902  1
  Tm  Tm3  1  0.285019  0.714703  0.714703  1
  Tm  Tm4  1  0.285019  0.714703  0.285573  1
  Tm  Tm5  1  0.285019  0.285573  0.714703  1
  Zn  Zn6  1  0.121080  0.631701  0.123610  1
  Zn  Zn7  1  0.121080  0.123610  0.631701  1
  Zn  Zn8  1  0.121080  0.123610  0.123610  1
  Zn  Zn9  1  0.372783  0.875739  0.875739  1
  Zn  Zn10  1  0.876978  0.357096  0.882963  1
  Zn  Zn11  1  0.876978  0.882963  0.357096  1
  Zn  Zn12  1  0.876978  0.882963  0.882963  1
  Zn  Zn13  1  0.499953  0.999581  0.999581  1
  Zn  Zn14  1  0.499953  0.999581  0.500885  1
  Zn  Zn15  1  0.499953  0.500885  0.999581  1
  Zn  Zn16  1  0.999590  0.499483  0.499483  1
  Zn  Zn17  1  0.999590  0.499483  0.001444  1
  Zn  Zn18  1  0.999590  0.001444  0.499483  1
  Zn  Zn19  1  0.000657  0.333114  0.333114  1
  Zn  Zn20  1  0.333117  0.008991  0.328945  1
  Zn  Zn21  1  0.333117  0.328945  0.008991  1
  Zn  Zn22  1  0.333117  0.328945  0.328945  1
  Zn  Zn23  1  0.988294  0.670569  0.670569  1
  Zn  Zn24  1  0.670949  0.990076  0.669487  1
  Zn  Zn25  1  0.670949  0.669487  0.990076  1
  Zn  Zn26  1  0.670949  0.669487  0.669487  1
  Si  Si27  1  0.499569  0.500144  0.500144  1
  Pd  Pd28  1  0.629238  0.123588  0.123588  1
  Pd  Pd29  1  0.020772  0.993076  0.993076  1
