# generated using pymatgen
data_Hf6Al8Fe6Si8Ru
_symmetry_space_group_name_H-M   'P 1'
_cell_length_a   8.35966589
_cell_length_b   8.35966469
_cell_length_c   8.35966500
_cell_angle_alpha   59.99999482
_cell_angle_beta   59.99999958
_cell_angle_gamma   59.99999268
_symmetry_Int_Tables_number   1
_chemical_formula_structural   Hf6Al8Fe6Si8Ru
_chemical_formula_sum   'Hf6 Al8 Fe6 Si8 Ru1'
_cell_volume   413.09659238
_cell_formula_units_Z   1
loop_
 _symmetry_equiv_pos_site_id
 _symmetry_equiv_pos_as_xyz
  1  'x, y, z'
loop_
 _atom_site_type_symbol
 _atom_site_label
 _atom_site_symmetry_multiplicity
 _atom_site_fract_x
 _atom_site_fract_y
 _atom_site_fract_z
 _atom_site_occupancy
  Hf  Hf0  1  0.694907  0.305092  0.305092  1
  Hf  Hf1  1  0.305092  0.694907  0.694907  1
  Hf  Hf2  1  0.305092  0.694907  0.305092  1
  Hf  Hf3  1  0.305092  0.305092  0.694907  1
  Hf  Hf4  1  0.694907  0.305092  0.694907  1
  Hf  Hf5  1  0.694907  0.694907  0.305092  1
  Al  Al6  1  0.124361  0.124361  0.124361  1
  Al  Al7  1  0.124361  0.124361  0.626915  1
  Al  Al8  1  0.626915  0.124361  0.124361  1
  Al  Al9  1  0.124361  0.626915  0.124361  1
  Al  Al10  1  0.875638  0.875638  0.875638  1
  Al  Al11  1  0.875638  0.875638  0.373088  1
  Al  Al12  1  0.875638  0.373088  0.875638  1
  Al  Al13  1  0.373088  0.875638  0.875638  1
  Fe  Fe14  1  0.500000  0.000000  0.000000  1
  Fe  Fe15  1  0.000000  0.500000  0.500000  1
  Fe  Fe16  1  0.000000  0.500000  0.000000  1
  Fe  Fe17  1  0.000000  0.000000  0.500000  1
  Fe  Fe18  1  0.500000  0.000000  0.500000  1
  Fe  Fe19  1  0.500000  0.500000  0.000000  1
  Si  Si20  1  0.342689  0.342689  0.342689  1
  Si  Si21  1  0.342689  0.342689  0.971931  1
  Si  Si22  1  0.971931  0.342689  0.342689  1
  Si  Si23  1  0.342689  0.971931  0.342689  1
  Si  Si24  1  0.657311  0.657311  0.657311  1
  Si  Si25  1  0.657311  0.657311  0.028069  1
  Si  Si26  1  0.657311  0.028069  0.657311  1
  Si  Si27  1  0.028069  0.657311  0.657311  1
  Ru  Ru28  1  0.000000  0.000000  0.000000  1
