# generated using pymatgen
data_CaLa7(Tm3Pt4)4
_symmetry_space_group_name_H-M   'P 1'
_cell_length_a   7.63630191
_cell_length_b   7.69543413
_cell_length_c   14.63307800
_cell_angle_alpha   90.03946820
_cell_angle_beta   89.88677096
_cell_angle_gamma   90.08917726
_symmetry_Int_Tables_number   1
_chemical_formula_structural   CaLa7(Tm3Pt4)4
_chemical_formula_sum   'Ca1 La7 Tm12 Pt16'
_cell_volume   859.90490653
_cell_formula_units_Z   1
loop_
 _symmetry_equiv_pos_site_id
 _symmetry_equiv_pos_as_xyz
  1  'x, y, z'
loop_
 _atom_site_type_symbol
 _atom_site_label
 _atom_site_symmetry_multiplicity
 _atom_site_fract_x
 _atom_site_fract_y
 _atom_site_fract_z
 _atom_site_occupancy
  Ca  Ca0  1  0.000596  0.823525  0.596968  1
  La  La1  1  0.503287  0.678474  0.594806  1
  La  La2  1  0.001627  0.823242  0.903330  1
  La  La3  1  0.496853  0.323401  0.096393  1
  La  La4  1  0.997508  0.173227  0.405870  1
  La  La5  1  0.495647  0.323265  0.404660  1
  La  La6  1  0.998194  0.177170  0.096146  1
  La  La7  1  0.502493  0.675811  0.901858  1
  Tm  Tm8  1  0.661476  0.163417  0.622666  1
  Tm  Tm9  1  0.157588  0.333331  0.875130  1
  Tm  Tm10  1  0.342802  0.834384  0.123791  1
  Tm  Tm11  1  0.844536  0.668315  0.379201  1
  Tm  Tm12  1  0.340067  0.834189  0.376766  1
  Tm  Tm13  1  0.841005  0.665277  0.124236  1
  Tm  Tm14  1  0.658254  0.165479  0.874683  1
  Tm  Tm15  1  0.158774  0.335048  0.623508  1
  Tm  Tm16  1  0.824354  0.504690  0.748089  1
  Tm  Tm17  1  0.319022  0.995869  0.747036  1
  Tm  Tm18  1  0.175631  0.497146  0.250695  1
  Tm  Tm19  1  0.678066  0.002528  0.250916  1
  Pt  Pt20  1  0.671293  0.961685  0.454591  1
  Pt  Pt21  1  0.175975  0.537533  0.045338  1
  Pt  Pt22  1  0.324817  0.038203  0.954776  1
  Pt  Pt23  1  0.825083  0.461774  0.546315  1
  Pt  Pt24  1  0.324732  0.041125  0.544800  1
  Pt  Pt25  1  0.823842  0.462014  0.954758  1
  Pt  Pt26  1  0.676453  0.961789  0.044284  1
  Pt  Pt27  1  0.176841  0.536842  0.455271  1
  Pt  Pt28  1  0.456472  0.370917  0.748511  1
  Pt  Pt29  1  0.955429  0.128677  0.749829  1
  Pt  Pt30  1  0.545962  0.629871  0.251195  1
  Pt  Pt31  1  0.045723  0.870081  0.250583  1
  Pt  Pt32  1  0.688971  0.865360  0.749409  1
  Pt  Pt33  1  0.190357  0.635748  0.751617  1
  Pt  Pt34  1  0.309766  0.135916  0.250499  1
  Pt  Pt35  1  0.810502  0.364676  0.251477  1
