# generated using pymatgen
data_Ho4Sc2Al17Si7Os8
_symmetry_space_group_name_H-M   'P 1'
_cell_length_a   8.64722908
_cell_length_b   8.65073713
_cell_length_c   9.44289900
_cell_angle_alpha   90.00000000
_cell_angle_beta   90.00000000
_cell_angle_gamma   120.05047283
_symmetry_Int_Tables_number   1
_chemical_formula_structural   Ho4Sc2Al17Si7Os8
_chemical_formula_sum   'Ho4 Sc2 Al17 Si7 Os8'
_cell_volume   611.42747502
_cell_formula_units_Z   1
loop_
 _symmetry_equiv_pos_site_id
 _symmetry_equiv_pos_as_xyz
  1  'x, y, z'
loop_
 _atom_site_type_symbol
 _atom_site_label
 _atom_site_symmetry_multiplicity
 _atom_site_fract_x
 _atom_site_fract_y
 _atom_site_fract_z
 _atom_site_occupancy
  Ho  Ho0  1  0.613042  0.808335  0.250000  1
  Ho  Ho1  1  0.385960  0.190347  0.750000  1
  Ho  Ho2  1  0.194740  0.806158  0.250000  1
  Ho  Ho3  1  0.803566  0.190648  0.750000  1
  Sc  Sc4  1  0.196024  0.395748  0.250000  1
  Sc  Sc5  1  0.803439  0.607776  0.750000  1
  Al  Al6  1  0.164530  0.330017  0.576300  1
  Al  Al7  1  0.833983  0.670594  0.423000  1
  Al  Al8  1  0.671447  0.833501  0.578866  1
  Al  Al9  1  0.833983  0.670594  0.077000  1
  Al  Al10  1  0.329641  0.167478  0.421245  1
  Al  Al11  1  0.164530  0.330017  0.923700  1
  Al  Al12  1  0.161836  0.832720  0.577676  1
  Al  Al13  1  0.329641  0.167478  0.078755  1
  Al  Al14  1  0.837224  0.165666  0.420478  1
  Al  Al15  1  0.671447  0.833501  0.921134  1
  Al  Al16  1  0.837224  0.165666  0.079522  1
  Al  Al17  1  0.161836  0.832720  0.922324  1
  Al  Al18  1  0.122696  0.564337  0.750000  1
  Al  Al19  1  0.562605  0.435924  0.250000  1
  Al  Al20  1  0.440147  0.565276  0.750000  1
  Al  Al21  1  0.005321  0.010282  0.250000  1
  Al  Al22  1  0.994507  0.989961  0.750000  1
  Si  Si23  1  0.332436  0.662499  0.042359  1
  Si  Si24  1  0.667898  0.338156  0.956652  1
  Si  Si25  1  0.667898  0.338156  0.543348  1
  Si  Si26  1  0.332436  0.662499  0.457641  1
  Si  Si27  1  0.565811  0.126375  0.250000  1
  Si  Si28  1  0.435497  0.871612  0.750000  1
  Si  Si29  1  0.876851  0.434395  0.250000  1
  Os  Os30  1  0.500929  0.001046  0.000881  1
  Os  Os31  1  0.998828  0.499207  0.006924  1
  Os  Os32  1  0.500929  0.001046  0.499119  1
  Os  Os33  1  0.500564  0.500344  0.000295  1
  Os  Os34  1  0.998828  0.499207  0.493076  1
  Os  Os35  1  0.500564  0.500344  0.499705  1
  Os  Os36  1  0.000579  0.000182  0.000130  1
  Os  Os37  1  0.000579  0.000182  0.499870  1
