# generated using pymatgen
data_Tm4Tc3Ru5
_symmetry_space_group_name_H-M   'P 1'
_cell_length_a   5.24640410
_cell_length_b   5.26325294
_cell_length_c   8.95231400
_cell_angle_alpha   90.00000000
_cell_angle_beta   90.00000000
_cell_angle_gamma   120.10628385
_symmetry_Int_Tables_number   1
_chemical_formula_structural   Tm4Tc3Ru5
_chemical_formula_sum   'Tm4 Tc3 Ru5'
_cell_volume   213.85322215
_cell_formula_units_Z   1
loop_
 _symmetry_equiv_pos_site_id
 _symmetry_equiv_pos_as_xyz
  1  'x, y, z'
loop_
 _atom_site_type_symbol
 _atom_site_label
 _atom_site_symmetry_multiplicity
 _atom_site_fract_x
 _atom_site_fract_y
 _atom_site_fract_z
 _atom_site_occupancy
  Tm  Tm0  1  0.336811  0.668406  0.433417  1
  Tm  Tm1  1  0.669094  0.334547  0.564677  1
  Tm  Tm2  1  0.669094  0.334547  0.935323  1
  Tm  Tm3  1  0.336811  0.668406  0.066583  1
  Tc  Tc4  1  0.163521  0.336716  0.750000  1
  Tc  Tc5  1  0.163521  0.826807  0.750000  1
  Tc  Tc6  1  0.331802  0.165900  0.250000  1
  Ru  Ru7  1  0.817888  0.650664  0.250000  1
  Ru  Ru8  1  0.647529  0.823765  0.750000  1
  Ru  Ru9  1  0.023021  0.011510  0.001732  1
  Ru  Ru10  1  0.817888  0.167223  0.250000  1
  Ru  Ru11  1  0.023021  0.011510  0.498268  1
