# generated using pymatgen
data_Ti8Co7Si14Ir
_symmetry_space_group_name_H-M   'P 1'
_cell_length_a   9.22308788
_cell_length_b   9.22678923
_cell_length_c   9.19945424
_cell_angle_alpha   94.22362337
_cell_angle_beta   94.16416926
_cell_angle_gamma   148.66929554
_symmetry_Int_Tables_number   1
_chemical_formula_structural   Ti8Co7Si14Ir
_chemical_formula_sum   'Ti8 Co7 Si14 Ir1'
_cell_volume   391.85896210
_cell_formula_units_Z   1
loop_
 _symmetry_equiv_pos_site_id
 _symmetry_equiv_pos_as_xyz
  1  'x, y, z'
loop_
 _atom_site_type_symbol
 _atom_site_label
 _atom_site_symmetry_multiplicity
 _atom_site_fract_x
 _atom_site_fract_y
 _atom_site_fract_z
 _atom_site_occupancy
  Ti  Ti0  1  0.135518  0.135523  0.270911  1
  Ti  Ti1  1  0.864959  0.864986  0.729916  1
  Ti  Ti2  1  0.862961  0.132208  0.000522  1
  Ti  Ti3  1  0.137641  0.868428  0.000506  1
  Ti  Ti4  1  0.502069  0.692042  0.193454  1
  Ti  Ti5  1  0.498066  0.307499  0.808272  1
  Ti  Ti6  1  0.310219  0.500791  0.808322  1
  Ti  Ti7  1  0.691424  0.501393  0.193387  1
  Co  Co8  1  0.103045  0.603077  0.206189  1
  Co  Co9  1  0.100148  0.899232  0.500013  1
  Co  Co10  1  0.400126  0.601011  0.499975  1
  Co  Co11  1  0.596958  0.398500  0.496902  1
  Co  Co12  1  0.900188  0.098622  0.496894  1
  Co  Co13  1  0.898875  0.398835  0.798596  1
  Co  Co14  1  0.599302  0.099299  0.198262  1
  Si  Si15  1  0.294192  0.294168  0.588205  1
  Si  Si16  1  0.705920  0.705896  0.411604  1
  Si  Si17  1  0.725122  0.317570  0.006398  1
  Si  Si18  1  0.281252  0.688659  0.006599  1
  Si  Si19  1  0.999108  0.291922  0.292093  1
  Si  Si20  1  0.985336  0.699481  0.705949  1
  Si  Si21  1  0.720462  0.006499  0.706065  1
  Si  Si22  1  0.293168  0.000349  0.292126  1
  Si  Si23  1  0.503044  0.907556  0.405467  1
  Si  Si24  1  0.510782  0.107725  0.588143  1
  Si  Si25  1  0.077192  0.480249  0.587906  1
  Si  Si26  1  0.902554  0.498040  0.405485  1
  Si  Si27  1  0.749314  0.749634  0.000438  1
  Si  Si28  1  0.251255  0.250967  0.000428  1
  Ir  Ir29  1  0.399800  0.899840  0.800976  1
