# generated using pymatgen
data_KNb(IO3)6
_symmetry_space_group_name_H-M   'P 1'
_cell_length_a   7.84213509
_cell_length_b   7.84213574
_cell_length_c   7.84213700
_cell_angle_alpha   97.69079278
_cell_angle_beta   97.69078604
_cell_angle_gamma   97.69078731
_symmetry_Int_Tables_number   1
_chemical_formula_structural   KNb(IO3)6
_chemical_formula_sum   'K1 Nb1 I6 O18'
_cell_volume   467.95929645
_cell_formula_units_Z   1
loop_
 _symmetry_equiv_pos_site_id
 _symmetry_equiv_pos_as_xyz
  1  'x, y, z'
loop_
 _atom_site_type_symbol
 _atom_site_label
 _atom_site_symmetry_multiplicity
 _atom_site_fract_x
 _atom_site_fract_y
 _atom_site_fract_z
 _atom_site_occupancy
  K  K0  1  0.638592  0.638592  0.638592  1
  Nb  Nb1  1  0.008034  0.008034  0.008034  1
  I  I2  1  0.627626  0.834237  0.201710  1
  I  I3  1  0.201710  0.627626  0.834237  1
  I  I4  1  0.834237  0.201710  0.627626  1
  I  I5  1  0.375307  0.167640  0.788593  1
  I  I6  1  0.788593  0.375307  0.167640  1
  I  I7  1  0.167640  0.788593  0.375307  1
  O  O8  1  0.792842  0.843853  0.045293  1
  O  O9  1  0.045293  0.792842  0.843853  1
  O  O10  1  0.843853  0.045293  0.792842  1
  O  O11  1  0.204970  0.155893  0.946280  1
  O  O12  1  0.946280  0.204970  0.155893  1
  O  O13  1  0.155893  0.946280  0.204970  1
  O  O14  1  0.597409  0.598029  0.187698  1
  O  O15  1  0.187698  0.597409  0.598029  1
  O  O16  1  0.598029  0.187698  0.597409  1
  O  O17  1  0.404528  0.403755  0.807723  1
  O  O18  1  0.807723  0.404528  0.403755  1
  O  O19  1  0.403755  0.807723  0.404528  1
  O  O20  1  0.784390  0.896192  0.402496  1
  O  O21  1  0.402496  0.784390  0.896192  1
  O  O22  1  0.896192  0.402496  0.784390  1
  O  O23  1  0.211405  0.098710  0.596353  1
  O  O24  1  0.596353  0.211405  0.098710  1
  O  O25  1  0.098710  0.596353  0.211405  1
