# generated using pymatgen
data_Lu3Zn3Sn2Au
_symmetry_space_group_name_H-M   'P 1'
_cell_length_a   6.98977300
_cell_length_b   6.98977276
_cell_length_c   4.38701800
_cell_angle_alpha   90.00000000
_cell_angle_beta   90.00000000
_cell_angle_gamma   119.99999639
_symmetry_Int_Tables_number   1
_chemical_formula_structural   Lu3Zn3Sn2Au
_chemical_formula_sum   'Lu3 Zn3 Sn2 Au1'
_cell_volume   185.62060881
_cell_formula_units_Z   1
loop_
 _symmetry_equiv_pos_site_id
 _symmetry_equiv_pos_as_xyz
  1  'x, y, z'
loop_
 _atom_site_type_symbol
 _atom_site_label
 _atom_site_symmetry_multiplicity
 _atom_site_fract_x
 _atom_site_fract_y
 _atom_site_fract_z
 _atom_site_occupancy
  Lu  Lu0  1  0.589071  0.000000  0.000000  1
  Lu  Lu1  1  0.000000  0.589071  0.000000  1
  Lu  Lu2  1  0.410929  0.410929  0.000000  1
  Zn  Zn3  1  0.230469  0.000000  0.500000  1
  Zn  Zn4  1  0.000000  0.230469  0.500000  1
  Zn  Zn5  1  0.769531  0.769531  0.500000  1
  Sn  Sn6  1  0.333333  0.666667  0.500000  1
  Sn  Sn7  1  0.666667  0.333333  0.500000  1
  Au  Au8  1  0.000000  0.000000  0.000000  1
