# generated using pymatgen
data_La8Si3Ge5Pd8
_symmetry_space_group_name_H-M   'P 1'
_cell_length_a   6.01031464
_cell_length_b   8.07203024
_cell_length_c   11.07025465
_cell_angle_alpha   87.78130599
_cell_angle_beta   90.01324139
_cell_angle_gamma   89.94996876
_symmetry_Int_Tables_number   1
_chemical_formula_structural   La8Si3Ge5Pd8
_chemical_formula_sum   'La8 Si3 Ge5 Pd8'
_cell_volume   536.67544173
_cell_formula_units_Z   1
loop_
 _symmetry_equiv_pos_site_id
 _symmetry_equiv_pos_as_xyz
  1  'x, y, z'
loop_
 _atom_site_type_symbol
 _atom_site_label
 _atom_site_symmetry_multiplicity
 _atom_site_fract_x
 _atom_site_fract_y
 _atom_site_fract_z
 _atom_site_occupancy
  La  La0  1  0.362054  0.964378  0.139989  1
  La  La1  1  0.638691  0.034724  0.860219  1
  La  La2  1  0.858796  0.535070  0.860798  1
  La  La3  1  0.143328  0.464376  0.139334  1
  La  La4  1  0.867127  0.828157  0.370285  1
  La  La5  1  0.132640  0.172766  0.631803  1
  La  La6  1  0.366513  0.672847  0.631467  1
  La  La7  1  0.632634  0.327347  0.369534  1
  Si  Si8  1  0.353432  0.372316  0.860623  1
  Si  Si9  1  0.145830  0.873921  0.859777  1
  Si  Si10  1  0.856813  0.127345  0.138170  1
  Ge  Ge11  1  0.857068  0.537165  0.578322  1
  Ge  Ge12  1  0.140684  0.460938  0.422920  1
  Ge  Ge13  1  0.357096  0.965190  0.422666  1
  Ge  Ge14  1  0.642200  0.037752  0.577825  1
  Ge  Ge15  1  0.651822  0.626054  0.140855  1
  Pd  Pd16  1  0.909384  0.846290  0.050148  1
  Pd  Pd17  1  0.100573  0.160134  0.946956  1
  Pd  Pd18  1  0.394023  0.658476  0.944272  1
  Pd  Pd19  1  0.597299  0.332677  0.049841  1
  Pd  Pd20  1  0.903829  0.822843  0.677632  1
  Pd  Pd21  1  0.095422  0.177399  0.321547  1
  Pd  Pd22  1  0.397388  0.678931  0.327389  1
  Pd  Pd23  1  0.595355  0.322904  0.677629  1
