# generated using pymatgen
data_La2MgSi4(AsPd10)2
_symmetry_space_group_name_H-M   'P 1'
_cell_length_a   8.83104162
_cell_length_b   8.83104164
_cell_length_c   8.75893000
_cell_angle_alpha   60.26975356
_cell_angle_beta   60.26975351
_cell_angle_gamma   59.46049836
_symmetry_Int_Tables_number   1
_chemical_formula_structural   La2MgSi4(AsPd10)2
_chemical_formula_sum   'La2 Mg1 Si4 As2 Pd20'
_cell_volume   482.95035381
_cell_formula_units_Z   1
loop_
 _symmetry_equiv_pos_site_id
 _symmetry_equiv_pos_as_xyz
  1  'x, y, z'
loop_
 _atom_site_type_symbol
 _atom_site_label
 _atom_site_symmetry_multiplicity
 _atom_site_fract_x
 _atom_site_fract_y
 _atom_site_fract_z
 _atom_site_occupancy
  La  La0  1  0.750000  0.750000  0.750000  1
  La  La1  1  0.250000  0.250000  0.250000  1
  Mg  Mg2  1  0.000000  0.000000  0.000000  1
  Si  Si3  1  0.735449  0.264551  0.735449  1
  Si  Si4  1  0.264551  0.735449  0.264551  1
  Si  Si5  1  0.264551  0.735449  0.735449  1
  Si  Si6  1  0.735449  0.264551  0.264551  1
  As  As7  1  0.735966  0.735966  0.264034  1
  As  As8  1  0.264034  0.264034  0.735966  1
  Pd  Pd9  1  0.612315  0.612315  0.619210  1
  Pd  Pd10  1  0.387685  0.387685  0.380790  1
  Pd  Pd11  1  0.156161  0.619210  0.612315  1
  Pd  Pd12  1  0.619210  0.156161  0.612315  1
  Pd  Pd13  1  0.843839  0.380790  0.387685  1
  Pd  Pd14  1  0.380790  0.843839  0.387685  1
  Pd  Pd15  1  0.612315  0.612315  0.156161  1
  Pd  Pd16  1  0.387685  0.387685  0.843839  1
  Pd  Pd17  1  0.000000  0.000000  0.655470  1
  Pd  Pd18  1  0.000000  0.000000  0.344530  1
  Pd  Pd19  1  0.344530  0.655470  0.000000  1
  Pd  Pd20  1  0.655470  0.344530  0.000000  1
  Pd  Pd21  1  0.006575  0.654871  0.993425  1
  Pd  Pd22  1  0.654871  0.006575  0.345129  1
  Pd  Pd23  1  0.993425  0.345129  0.006575  1
  Pd  Pd24  1  0.345129  0.993425  0.654871  1
  Pd  Pd25  1  0.654871  0.006575  0.993425  1
  Pd  Pd26  1  0.345129  0.993425  0.006575  1
  Pd  Pd27  1  0.006575  0.654871  0.345129  1
  Pd  Pd28  1  0.993425  0.345129  0.654871  1
