# generated using pymatgen
data_Y4Er(SiBi)2
_symmetry_space_group_name_H-M   'P 1'
_cell_length_a   8.65391506
_cell_length_b   8.65391522
_cell_length_c   7.92233000
_cell_angle_alpha   90.00000000
_cell_angle_beta   90.00000000
_cell_angle_gamma   125.60200603
_symmetry_Int_Tables_number   1
_chemical_formula_structural   Y4Er(SiBi)2
_chemical_formula_sum   'Y8 Er2 Si4 Bi4'
_cell_volume   482.40485995
_cell_formula_units_Z   2
loop_
 _symmetry_equiv_pos_site_id
 _symmetry_equiv_pos_as_xyz
  1  'x, y, z'
loop_
 _atom_site_type_symbol
 _atom_site_label
 _atom_site_symmetry_multiplicity
 _atom_site_fract_x
 _atom_site_fract_y
 _atom_site_fract_z
 _atom_site_occupancy
  Y  Y0  1  0.042893  0.286950  0.335455  1
  Y  Y1  1  0.957107  0.713050  0.664545  1
  Y  Y2  1  0.457107  0.213050  0.835455  1
  Y  Y3  1  0.786950  0.542893  0.164545  1
  Y  Y4  1  0.542893  0.786950  0.164545  1
  Y  Y5  1  0.213050  0.457107  0.835455  1
  Y  Y6  1  0.713050  0.957107  0.664545  1
  Y  Y7  1  0.286950  0.042893  0.335455  1
  Er  Er8  1  0.000000  0.000000  0.000000  1
  Er  Er9  1  0.500000  0.500000  0.500000  1
  Si  Si10  1  0.365407  0.365407  0.133421  1
  Si  Si11  1  0.634593  0.634593  0.866579  1
  Si  Si12  1  0.134593  0.134593  0.633421  1
  Si  Si13  1  0.865407  0.865407  0.366579  1
  Bi  Bi14  1  0.792655  0.207345  0.000000  1
  Bi  Bi15  1  0.207345  0.792655  0.000000  1
  Bi  Bi16  1  0.707345  0.292655  0.500000  1
  Bi  Bi17  1  0.292655  0.707345  0.500000  1
