# generated using pymatgen
data_Tm5ZrGa7Co16
_symmetry_space_group_name_H-M   'P 1'
_cell_length_a   8.41698962
_cell_length_b   8.41233217
_cell_length_c   8.41233200
_cell_angle_alpha   60.03664285
_cell_angle_beta   59.98168248
_cell_angle_gamma   59.98168175
_symmetry_Int_Tables_number   1
_chemical_formula_structural   Tm5ZrGa7Co16
_chemical_formula_sum   'Tm5 Zr1 Ga7 Co16'
_cell_volume   421.18642707
_cell_formula_units_Z   1
loop_
 _symmetry_equiv_pos_site_id
 _symmetry_equiv_pos_as_xyz
  1  'x, y, z'
loop_
 _atom_site_type_symbol
 _atom_site_label
 _atom_site_symmetry_multiplicity
 _atom_site_fract_x
 _atom_site_fract_y
 _atom_site_fract_z
 _atom_site_occupancy
  Tm  Tm0  1  0.280356  0.719644  0.719644  1
  Tm  Tm1  1  0.283060  0.716940  0.281555  1
  Tm  Tm2  1  0.283060  0.281555  0.716940  1
  Tm  Tm3  1  0.718445  0.281555  0.716940  1
  Tm  Tm4  1  0.718445  0.716940  0.281555  1
  Zr  Zr5  1  0.728164  0.271836  0.271836  1
  Ga  Ga6  1  0.500119  0.999881  0.999881  1
  Ga  Ga7  1  0.000119  0.499881  0.499881  1
  Ga  Ga8  1  0.999550  0.499747  0.000450  1
  Ga  Ga9  1  0.999550  0.000450  0.499747  1
  Ga  Ga10  1  0.500253  0.000450  0.499747  1
  Ga  Ga11  1  0.500253  0.499747  0.000450  1
  Ga  Ga12  1  0.000582  0.999418  0.999418  1
  Co  Co13  1  0.323497  0.322788  0.322788  1
  Co  Co14  1  0.322100  0.321263  0.034540  1
  Co  Co15  1  0.030928  0.322788  0.322788  1
  Co  Co16  1  0.322100  0.034540  0.321263  1
  Co  Co17  1  0.678737  0.677900  0.677900  1
  Co  Co18  1  0.677212  0.676503  0.969072  1
  Co  Co19  1  0.677212  0.969072  0.676503  1
  Co  Co20  1  0.965460  0.677900  0.677900  1
  Co  Co21  1  0.119487  0.127431  0.127431  1
  Co  Co22  1  0.125132  0.125974  0.623763  1
  Co  Co23  1  0.625650  0.127431  0.127431  1
  Co  Co24  1  0.125132  0.623763  0.125974  1
  Co  Co25  1  0.874026  0.874868  0.874868  1
  Co  Co26  1  0.872569  0.880513  0.374350  1
  Co  Co27  1  0.872569  0.374350  0.880513  1
  Co  Co28  1  0.376237  0.874868  0.874868  1
