# generated using pymatgen
data_Lu2Tc(BRu)4
_symmetry_space_group_name_H-M   'P 1'
_cell_length_a   3.06673100
_cell_length_b   8.68952951
_cell_length_c   10.14362602
_cell_angle_alpha   90.33141759
_cell_angle_beta   90.00000000
_cell_angle_gamma   90.00000000
_symmetry_Int_Tables_number   1
_chemical_formula_structural   Lu2Tc(BRu)4
_chemical_formula_sum   'Lu4 Tc2 B8 Ru8'
_cell_volume   270.30738388
_cell_formula_units_Z   2
loop_
 _symmetry_equiv_pos_site_id
 _symmetry_equiv_pos_as_xyz
  1  'x, y, z'
loop_
 _atom_site_type_symbol
 _atom_site_label
 _atom_site_symmetry_multiplicity
 _atom_site_fract_x
 _atom_site_fract_y
 _atom_site_fract_z
 _atom_site_occupancy
  Lu  Lu0  1  0.500000  0.840415  0.178976  1
  Lu  Lu1  1  0.500000  0.159585  0.821024  1
  Lu  Lu2  1  0.500000  0.658407  0.684640  1
  Lu  Lu3  1  0.500000  0.341593  0.315360  1
  Tc  Tc4  1  0.000000  0.659097  0.953250  1
  Tc  Tc5  1  0.000000  0.340903  0.046750  1
  B  B6  1  0.500000  0.965847  0.589446  1
  B  B7  1  0.500000  0.034153  0.410554  1
  B  B8  1  0.500000  0.848333  0.902421  1
  B  B9  1  0.500000  0.151667  0.097579  1
  B  B10  1  0.500000  0.646717  0.398497  1
  B  B11  1  0.500000  0.353283  0.601503  1
  B  B12  1  0.500000  0.465011  0.914126  1
  B  B13  1  0.500000  0.534989  0.085874  1
  Ru  Ru14  1  0.000000  0.842187  0.454085  1
  Ru  Ru15  1  0.000000  0.157813  0.545915  1
  Ru  Ru16  1  0.000000  0.000000  0.000000  1
  Ru  Ru17  1  0.000000  0.404558  0.759738  1
  Ru  Ru18  1  0.000000  0.595442  0.240262  1
  Ru  Ru19  1  0.000000  0.500000  0.500000  1
  Ru  Ru20  1  0.000000  0.907215  0.738223  1
  Ru  Ru21  1  0.000000  0.092785  0.261777  1
