# generated using pymatgen
data_Hf5ZrBBr12
_symmetry_space_group_name_H-M   'P 1'
_cell_length_a   8.60299563
_cell_length_b   8.58771966
_cell_length_c   8.61838026
_cell_angle_alpha   106.96628534
_cell_angle_beta   106.79915865
_cell_angle_gamma   106.71424836
_symmetry_Int_Tables_number   1
_chemical_formula_structural   Hf5ZrBBr12
_chemical_formula_sum   'Hf5 Zr1 B1 Br12'
_cell_volume   532.75908562
_cell_formula_units_Z   1
loop_
 _symmetry_equiv_pos_site_id
 _symmetry_equiv_pos_as_xyz
  1  'x, y, z'
loop_
 _atom_site_type_symbol
 _atom_site_label
 _atom_site_symmetry_multiplicity
 _atom_site_fract_x
 _atom_site_fract_y
 _atom_site_fract_z
 _atom_site_occupancy
  Hf  Hf0  1  0.972095  0.713213  0.904764  1
  Hf  Hf1  1  0.285148  0.095216  0.028065  1
  Hf  Hf2  1  0.093967  0.029071  0.284225  1
  Hf  Hf3  1  0.906407  0.973731  0.716973  1
  Hf  Hf4  1  0.716227  0.906801  0.972642  1
  Zr  Zr5  1  0.027593  0.286998  0.095012  1
  B  B6  1  0.000286  0.997027  0.999139  1
  Br  Br7  1  0.919975  0.311100  0.771416  1
  Br  Br8  1  0.680893  0.218966  0.076934  1
  Br  Br9  1  0.439933  0.139941  0.363848  1
  Br  Br10  1  0.859906  0.635777  0.559268  1
  Br  Br11  1  0.221662  0.077475  0.688846  1
  Br  Br12  1  0.635934  0.559177  0.859752  1
  Br  Br13  1  0.370175  0.441955  0.140579  1
  Br  Br14  1  0.777906  0.921893  0.310842  1
  Br  Br15  1  0.142476  0.364082  0.446801  1
  Br  Br16  1  0.559864  0.859970  0.636296  1
  Br  Br17  1  0.311237  0.777201  0.921792  1
  Br  Br18  1  0.078316  0.690406  0.222808  1
