# generated using pymatgen
data_Pa8Cr(FeO8)3
_symmetry_space_group_name_H-M   'P 1'
_cell_length_a   5.39572100
_cell_length_b   5.37106444
_cell_length_c   15.96134400
_cell_angle_alpha   90.05463890
_cell_angle_beta   90.00000000
_cell_angle_gamma   90.00000000
_symmetry_Int_Tables_number   1
_chemical_formula_structural   Pa8Cr(FeO8)3
_chemical_formula_sum   'Pa8 Cr1 Fe3 O24'
_cell_volume   462.57175246
_cell_formula_units_Z   1
loop_
 _symmetry_equiv_pos_site_id
 _symmetry_equiv_pos_as_xyz
  1  'x, y, z'
loop_
 _atom_site_type_symbol
 _atom_site_label
 _atom_site_symmetry_multiplicity
 _atom_site_fract_x
 _atom_site_fract_y
 _atom_site_fract_z
 _atom_site_occupancy
  Pa  Pa0  1  0.253591  0.435417  0.658499  1
  Pa  Pa1  1  0.247050  0.944291  0.842017  1
  Pa  Pa2  1  0.247050  0.055709  0.157983  1
  Pa  Pa3  1  0.253591  0.564583  0.341501  1
  Pa  Pa4  1  0.743821  0.064832  0.340762  1
  Pa  Pa5  1  0.756050  0.557658  0.158153  1
  Pa  Pa6  1  0.756050  0.442342  0.841847  1
  Pa  Pa7  1  0.743821  0.935168  0.659238  1
  Cr  Cr8  1  0.794965  0.500000  0.500000  1
  Fe  Fe9  1  0.301181  0.500000  0.000000  1
  Fe  Fe10  1  0.195868  0.000000  0.500000  1
  Fe  Fe11  1  0.699831  0.000000  0.000000  1
  O  O12  1  0.058646  0.636829  0.907604  1
  O  O13  1  0.442574  0.126940  0.592785  1
  O  O14  1  0.442574  0.873060  0.407215  1
  O  O15  1  0.058646  0.363171  0.092396  1
  O  O16  1  0.943830  0.862801  0.091052  1
  O  O17  1  0.552720  0.372399  0.409319  1
  O  O18  1  0.552720  0.627601  0.590681  1
  O  O19  1  0.943830  0.137199  0.908948  1
  O  O20  1  0.023710  0.801533  0.248527  1
  O  O21  1  0.478922  0.305157  0.249435  1
  O  O22  1  0.478922  0.694843  0.750565  1
  O  O23  1  0.023710  0.198467  0.751473  1
  O  O24  1  0.980439  0.696538  0.747863  1
  O  O25  1  0.523186  0.194983  0.751673  1
  O  O26  1  0.523186  0.805017  0.248327  1
  O  O27  1  0.980439  0.303462  0.252137  1
  O  O28  1  0.040772  0.709890  0.582073  1
  O  O29  1  0.450423  0.234813  0.913731  1
  O  O30  1  0.450423  0.765187  0.086269  1
  O  O31  1  0.040772  0.290110  0.417927  1
  O  O32  1  0.956474  0.791515  0.409483  1
  O  O33  1  0.551870  0.265174  0.087086  1
  O  O34  1  0.551870  0.734826  0.912914  1
  O  O35  1  0.956474  0.208485  0.590517  1
