# generated using pymatgen
data_Re5Ir2Os
_symmetry_space_group_name_H-M   'P 1'
_cell_length_a   5.56441545
_cell_length_b   5.55536953
_cell_length_c   4.41480900
_cell_angle_alpha   90.00000000
_cell_angle_beta   90.00000000
_cell_angle_gamma   119.94624312
_symmetry_Int_Tables_number   1
_chemical_formula_structural   Re5Ir2Os
_chemical_formula_sum   'Re5 Ir2 Os1'
_cell_volume   118.25242321
_cell_formula_units_Z   1
loop_
 _symmetry_equiv_pos_site_id
 _symmetry_equiv_pos_as_xyz
  1  'x, y, z'
loop_
 _atom_site_type_symbol
 _atom_site_label
 _atom_site_symmetry_multiplicity
 _atom_site_fract_x
 _atom_site_fract_y
 _atom_site_fract_z
 _atom_site_occupancy
  Re  Re0  1  0.838429  0.161922  0.250000  1
  Re  Re1  1  0.838428  0.676507  0.250000  1
  Re  Re2  1  0.163739  0.324238  0.750001  1
  Re  Re3  1  0.163738  0.839500  0.750001  1
  Re  Re4  1  0.676237  0.838118  0.750001  1
  Ir  Ir5  1  0.330782  0.665390  0.250000  1
  Ir  Ir6  1  0.665237  0.332618  0.750001  1
  Os  Os7  1  0.323407  0.161704  0.250000  1
