# generated using pymatgen
data_Sc11Rh4
_symmetry_space_group_name_H-M   'P 1'
_cell_length_a   9.48833512
_cell_length_b   9.48833589
_cell_length_c   9.48833600
_cell_angle_alpha   59.99999960
_cell_angle_beta   59.99999693
_cell_angle_gamma   60.00000264
_symmetry_Int_Tables_number   1
_chemical_formula_structural   Sc11Rh4
_chemical_formula_sum   'Sc22 Rh8'
_cell_volume   604.02528704
_cell_formula_units_Z   2
loop_
 _symmetry_equiv_pos_site_id
 _symmetry_equiv_pos_as_xyz
  1  'x, y, z'
loop_
 _atom_site_type_symbol
 _atom_site_label
 _atom_site_symmetry_multiplicity
 _atom_site_fract_x
 _atom_site_fract_y
 _atom_site_fract_z
 _atom_site_occupancy
  Sc  Sc0  1  0.801677  0.801677  0.198323  1
  Sc  Sc1  1  0.198323  0.801677  0.198323  1
  Sc  Sc2  1  0.801677  0.198323  0.198323  1
  Sc  Sc3  1  0.198323  0.198323  0.801677  1
  Sc  Sc4  1  0.801677  0.198323  0.801677  1
  Sc  Sc5  1  0.198323  0.801677  0.801677  1
  Sc  Sc6  1  0.617112  0.617112  0.148664  1
  Sc  Sc7  1  0.617112  0.148664  0.617112  1
  Sc  Sc8  1  0.148664  0.617112  0.617112  1
  Sc  Sc9  1  0.617112  0.617112  0.617112  1
  Sc  Sc10  1  0.382888  0.382888  0.851336  1
  Sc  Sc11  1  0.382888  0.851336  0.382888  1
  Sc  Sc12  1  0.851336  0.382888  0.382888  1
  Sc  Sc13  1  0.382888  0.382888  0.382888  1
  Sc  Sc14  1  0.842849  0.842849  0.471451  1
  Sc  Sc15  1  0.842849  0.471451  0.842849  1
  Sc  Sc16  1  0.471451  0.842849  0.842849  1
  Sc  Sc17  1  0.842849  0.842849  0.842849  1
  Sc  Sc18  1  0.157151  0.157151  0.528549  1
  Sc  Sc19  1  0.157151  0.528549  0.157151  1
  Sc  Sc20  1  0.528549  0.157151  0.157151  1
  Sc  Sc21  1  0.157151  0.157151  0.157151  1
  Rh  Rh22  1  0.000000  0.000000  0.000000  1
  Rh  Rh23  1  0.500000  0.500000  0.500000  1
  Rh  Rh24  1  0.000000  0.000000  0.500000  1
  Rh  Rh25  1  0.500000  0.000000  0.500000  1
  Rh  Rh26  1  0.000000  0.500000  0.500000  1
  Rh  Rh27  1  0.500000  0.500000  0.000000  1
  Rh  Rh28  1  0.000000  0.500000  0.000000  1
  Rh  Rh29  1  0.500000  0.000000  0.000000  1
