# generated using pymatgen
data_Tm3Al2Ga3Cu
_symmetry_space_group_name_H-M   'P 1'
_cell_length_a   6.89571900
_cell_length_b   6.89571829
_cell_length_c   4.25605600
_cell_angle_alpha   90.00000000
_cell_angle_beta   90.00000000
_cell_angle_gamma   119.68821217
_symmetry_Int_Tables_number   1
_chemical_formula_structural   Tm3Al2Ga3Cu
_chemical_formula_sum   'Tm3 Al2 Ga3 Cu1'
_cell_volume   175.81378926
_cell_formula_units_Z   1
loop_
 _symmetry_equiv_pos_site_id
 _symmetry_equiv_pos_as_xyz
  1  'x, y, z'
loop_
 _atom_site_type_symbol
 _atom_site_label
 _atom_site_symmetry_multiplicity
 _atom_site_fract_x
 _atom_site_fract_y
 _atom_site_fract_z
 _atom_site_occupancy
  Tm  Tm0  1  0.587395  0.997883  0.000000  1
  Tm  Tm1  1  0.997883  0.587395  0.000000  1
  Tm  Tm2  1  0.411592  0.411592  0.000000  1
  Al  Al3  1  0.237628  0.004471  0.500000  1
  Al  Al4  1  0.004471  0.237628  0.500000  1
  Ga  Ga5  1  0.758948  0.758948  0.500000  1
  Ga  Ga6  1  0.329373  0.667308  0.500000  1
  Ga  Ga7  1  0.667308  0.329373  0.500000  1
  Cu  Cu8  1  0.005400  0.005400  0.000000  1
