# generated using pymatgen
data_Rb4NbAsBr12
_symmetry_space_group_name_H-M   'P 1'
_cell_length_a   13.43270347
_cell_length_b   13.43276334
_cell_length_c   13.43307465
_cell_angle_alpha   131.61964869
_cell_angle_beta   131.62268350
_cell_angle_gamma   70.82853969
_symmetry_Int_Tables_number   1
_chemical_formula_structural   Rb4NbAsBr12
_chemical_formula_sum   'Rb8 Nb2 As2 Br24'
_cell_volume   1326.66293079
_cell_formula_units_Z   2
loop_
 _symmetry_equiv_pos_site_id
 _symmetry_equiv_pos_as_xyz
  1  'x, y, z'
loop_
 _atom_site_type_symbol
 _atom_site_label
 _atom_site_symmetry_multiplicity
 _atom_site_fract_x
 _atom_site_fract_y
 _atom_site_fract_z
 _atom_site_occupancy
  Rb  Rb0  1  0.374307  0.336643  0.460502  1
  Rb  Rb1  1  0.086183  0.625698  0.962325  1
  Rb  Rb2  1  0.876138  0.913797  0.539500  1
  Rb  Rb3  1  0.086635  0.126134  0.462336  1
  Rb  Rb4  1  0.375693  0.913357  0.039498  1
  Rb  Rb5  1  0.663817  0.624302  0.537675  1
  Rb  Rb6  1  0.663365  0.123866  0.037664  1
  Rb  Rb7  1  0.873862  0.336203  0.960500  1
  Nb  Nb8  1  0.249978  0.749989  0.499972  1
  Nb  Nb9  1  0.500022  0.500011  0.000028  1
  As  As10  1  0.749990  0.249998  0.500020  1
  As  As11  1  0.000010  0.000002  0.999980  1
  Br  Br12  1  0.015900  0.768354  0.290043  1
  Br  Br13  1  0.018207  0.247056  0.258078  1
  Br  Br14  1  0.274134  0.984057  0.752425  1
  Br  Br15  1  0.997047  0.238969  0.728871  1
  Br  Br16  1  0.133560  0.633568  0.499994  1
  Br  Br17  1  0.271678  0.524137  0.790045  1
  Br  Br18  1  0.478322  0.725863  0.709955  1
  Br  Br19  1  0.510109  0.268192  0.271164  1
  Br  Br20  1  0.475866  0.265943  0.747575  1
  Br  Br21  1  0.616440  0.616432  0.000006  1
  Br  Br22  1  0.518388  0.728293  0.252444  1
  Br  Br23  1  0.122457  0.122447  0.999997  1
  Br  Br24  1  0.877529  0.877541  0.999999  1
  Br  Br25  1  0.988956  0.760076  0.741894  1
  Br  Br26  1  0.752953  0.011031  0.771129  1
  Br  Br27  1  0.239891  0.981808  0.228836  1
  Br  Br28  1  0.734100  0.481646  0.209957  1
  Br  Br29  1  0.231612  0.521707  0.247556  1
  Br  Br30  1  0.366390  0.866400  0.499994  1
  Br  Br31  1  0.872471  0.372459  0.500001  1
  Br  Br32  1  0.383610  0.383600  0.000006  1
  Br  Br33  1  0.627543  0.127553  0.500003  1
  Br  Br34  1  0.761044  0.489924  0.758106  1
  Br  Br35  1  0.731793  0.002944  0.241922  1
