# generated using pymatgen
data_TiNb4Al(B2Ru5)2
_symmetry_space_group_name_H-M   'P 1'
_cell_length_a   9.33547800
_cell_length_b   9.33547800
_cell_length_c   3.00885000
_cell_angle_alpha   90.00000000
_cell_angle_beta   90.00000000
_cell_angle_gamma   90.00000000
_symmetry_Int_Tables_number   1
_chemical_formula_structural   TiNb4Al(B2Ru5)2
_chemical_formula_sum   'Ti1 Nb4 Al1 B4 Ru10'
_cell_volume   262.22473614
_cell_formula_units_Z   1
loop_
 _symmetry_equiv_pos_site_id
 _symmetry_equiv_pos_as_xyz
  1  'x, y, z'
loop_
 _atom_site_type_symbol
 _atom_site_label
 _atom_site_symmetry_multiplicity
 _atom_site_fract_x
 _atom_site_fract_y
 _atom_site_fract_z
 _atom_site_occupancy
  Ti  Ti0  1  0.500000  0.500000  0.000000  1
  Nb  Nb1  1  0.824006  0.678603  0.000000  1
  Nb  Nb2  1  0.175994  0.321397  0.000000  1
  Nb  Nb3  1  0.321397  0.824006  0.000000  1
  Nb  Nb4  1  0.678603  0.175994  0.000000  1
  Al  Al5  1  0.000000  0.000000  0.000000  1
  B  B6  1  0.626733  0.878670  0.000000  1
  B  B7  1  0.373267  0.121330  0.000000  1
  B  B8  1  0.121330  0.626733  0.000000  1
  B  B9  1  0.878670  0.373267  0.000000  1
  Ru  Ru10  1  0.569584  0.716621  0.500000  1
  Ru  Ru11  1  0.430416  0.283379  0.500000  1
  Ru  Ru12  1  0.068928  0.784848  0.500000  1
  Ru  Ru13  1  0.931072  0.215152  0.500000  1
  Ru  Ru14  1  0.283379  0.569584  0.500000  1
  Ru  Ru15  1  0.716621  0.430416  0.500000  1
  Ru  Ru16  1  0.215152  0.068928  0.500000  1
  Ru  Ru17  1  0.784848  0.931072  0.500000  1
  Ru  Ru18  1  0.500000  0.000000  0.500000  1
  Ru  Ru19  1  0.000000  0.500000  0.500000  1
