# generated using pymatgen
data_Al4NiOs2Pd
_symmetry_space_group_name_H-M   'P 1'
_cell_length_a   3.04479900
_cell_length_b   3.04479900
_cell_length_c   11.74210200
_cell_angle_alpha   90.00000000
_cell_angle_beta   90.00000000
_cell_angle_gamma   90.00000000
_symmetry_Int_Tables_number   1
_chemical_formula_structural   Al4NiOs2Pd
_chemical_formula_sum   'Al4 Ni1 Os2 Pd1'
_cell_volume   108.85869038
_cell_formula_units_Z   1
loop_
 _symmetry_equiv_pos_site_id
 _symmetry_equiv_pos_as_xyz
  1  'x, y, z'
loop_
 _atom_site_type_symbol
 _atom_site_label
 _atom_site_symmetry_multiplicity
 _atom_site_fract_x
 _atom_site_fract_y
 _atom_site_fract_z
 _atom_site_occupancy
  Al  Al0  1  0.000000  0.000000  0.863743  1
  Al  Al1  1  0.000000  0.000000  0.136257  1
  Al  Al2  1  0.000000  0.000000  0.378932  1
  Al  Al3  1  0.000000  0.000000  0.621068  1
  Ni  Ni4  1  0.500000  0.500000  0.500000  1
  Os  Os5  1  0.500000  0.500000  0.257092  1
  Os  Os6  1  0.500000  0.500000  0.742908  1
  Pd  Pd7  1  0.500000  0.500000  0.000000  1
