# generated using pymatgen
data_Rb2NaGdCl6
_symmetry_space_group_name_H-M   'P 1'
_cell_length_a   7.59356499
_cell_length_b   7.59356460
_cell_length_c   7.59356480
_cell_angle_alpha   60.82629811
_cell_angle_beta   60.82630117
_cell_angle_gamma   60.82630158
_symmetry_Int_Tables_number   1
_chemical_formula_structural   Rb2NaGdCl6
_chemical_formula_sum   'Rb2 Na1 Gd1 Cl6'
_cell_volume   315.38447422
_cell_formula_units_Z   1
loop_
 _symmetry_equiv_pos_site_id
 _symmetry_equiv_pos_as_xyz
  1  'x, y, z'
loop_
 _atom_site_type_symbol
 _atom_site_label
 _atom_site_symmetry_multiplicity
 _atom_site_fract_x
 _atom_site_fract_y
 _atom_site_fract_z
 _atom_site_occupancy
  Rb  Rb0  1  0.254861  0.254861  0.254861  1
  Rb  Rb1  1  0.745139  0.745139  0.745139  1
  Na  Na2  1  0.000000  0.000000  0.000000  1
  Gd  Gd3  1  0.500000  0.500000  0.500000  1
  Cl  Cl4  1  0.738368  0.323763  0.189781  1
  Cl  Cl5  1  0.676236  0.810220  0.261632  1
  Cl  Cl6  1  0.189780  0.738368  0.323763  1
  Cl  Cl7  1  0.810219  0.261632  0.676237  1
  Cl  Cl8  1  0.323763  0.189780  0.738368  1
  Cl  Cl9  1  0.261632  0.676237  0.810219  1
