# generated using pymatgen
data_TbFe4P3W
_symmetry_space_group_name_H-M   'P 1'
_cell_length_a   3.71413100
_cell_length_b   10.47782600
_cell_length_c   11.98359600
_cell_angle_alpha   90.00000000
_cell_angle_beta   90.00000000
_cell_angle_gamma   90.00000000
_symmetry_Int_Tables_number   1
_chemical_formula_structural   TbFe4P3W
_chemical_formula_sum   'Tb4 Fe16 P12 W4'
_cell_volume   466.35384195
_cell_formula_units_Z   4
loop_
 _symmetry_equiv_pos_site_id
 _symmetry_equiv_pos_as_xyz
  1  'x, y, z'
loop_
 _atom_site_type_symbol
 _atom_site_label
 _atom_site_symmetry_multiplicity
 _atom_site_fract_x
 _atom_site_fract_y
 _atom_site_fract_z
 _atom_site_occupancy
  Tb  Tb0  1  0.250000  0.582186  0.706572  1
  Tb  Tb1  1  0.250000  0.917814  0.206572  1
  Tb  Tb2  1  0.750000  0.417814  0.293428  1
  Tb  Tb3  1  0.750000  0.082186  0.793428  1
  Fe  Fe4  1  0.250000  0.406840  0.492059  1
  Fe  Fe5  1  0.250000  0.093160  0.992059  1
  Fe  Fe6  1  0.750000  0.593160  0.507941  1
  Fe  Fe7  1  0.750000  0.906840  0.007941  1
  Fe  Fe8  1  0.250000  0.218348  0.176777  1
  Fe  Fe9  1  0.250000  0.281652  0.676777  1
  Fe  Fe10  1  0.750000  0.781652  0.823223  1
  Fe  Fe11  1  0.750000  0.718348  0.323223  1
  Fe  Fe12  1  0.250000  0.877138  0.701017  1
  Fe  Fe13  1  0.250000  0.622862  0.201017  1
  Fe  Fe14  1  0.750000  0.122862  0.298983  1
  Fe  Fe15  1  0.750000  0.377138  0.798983  1
  Fe  Fe16  1  0.250000  0.462824  0.933616  1
  Fe  Fe17  1  0.250000  0.037176  0.433616  1
  Fe  Fe18  1  0.750000  0.537176  0.066384  1
  Fe  Fe19  1  0.750000  0.962824  0.566384  1
  P  P20  1  0.250000  0.425442  0.114339  1
  P  P21  1  0.250000  0.074558  0.614339  1
  P  P22  1  0.750000  0.574558  0.885661  1
  P  P23  1  0.750000  0.925442  0.385661  1
  P  P24  1  0.250000  0.266352  0.866565  1
  P  P25  1  0.250000  0.233648  0.366565  1
  P  P26  1  0.750000  0.733648  0.133435  1
  P  P27  1  0.750000  0.766352  0.633435  1
  P  P28  1  0.250000  0.593464  0.390868  1
  P  P29  1  0.250000  0.906536  0.890868  1
  P  P30  1  0.750000  0.406536  0.609132  1
  P  P31  1  0.750000  0.093464  0.109132  1
  W  W32  1  0.250000  0.704020  0.988122  1
  W  W33  1  0.250000  0.795980  0.488122  1
  W  W34  1  0.750000  0.295980  0.011878  1
  W  W35  1  0.750000  0.204020  0.511878  1
