# generated using pymatgen
data_NdTh2(AlRh)3
_symmetry_space_group_name_H-M   'P 1'
_cell_length_a   7.23630946
_cell_length_b   7.13914791
_cell_length_c   4.15075000
_cell_angle_alpha   90.00000000
_cell_angle_beta   90.00000000
_cell_angle_gamma   119.55681856
_symmetry_Int_Tables_number   1
_chemical_formula_structural   NdTh2(AlRh)3
_chemical_formula_sum   'Nd1 Th2 Al3 Rh3'
_cell_volume   186.52751999
_cell_formula_units_Z   1
loop_
 _symmetry_equiv_pos_site_id
 _symmetry_equiv_pos_as_xyz
  1  'x, y, z'
loop_
 _atom_site_type_symbol
 _atom_site_label
 _atom_site_symmetry_multiplicity
 _atom_site_fract_x
 _atom_site_fract_y
 _atom_site_fract_z
 _atom_site_occupancy
  Nd  Nd0  1  0.000000  0.419246  0.500000  1
  Th  Th1  1  0.580132  0.582807  0.500000  1
  Th  Th2  1  0.419868  0.002675  0.500000  1
  Al  Al3  1  0.000000  0.762185  0.000000  1
  Al  Al4  1  0.220843  0.228608  0.000000  1
  Al  Al5  1  0.779157  0.007765  0.000000  1
  Rh  Rh6  1  0.359236  0.687189  0.000000  1
  Rh  Rh7  1  0.640764  0.327952  0.000000  1
  Rh  Rh8  1  0.000000  0.981572  0.500000  1
