# generated using pymatgen
data_Tc6Se7Br4
_symmetry_space_group_name_H-M   'P 1'
_cell_length_a   12.10831336
_cell_length_b   12.10831411
_cell_length_c   12.10831488
_cell_angle_alpha   51.19796879
_cell_angle_beta   51.19796745
_cell_angle_gamma   51.19796193
_symmetry_Int_Tables_number   1
_chemical_formula_structural   Tc6Se7Br4
_chemical_formula_sum   'Tc12 Se14 Br8'
_cell_volume   994.93492783
_cell_formula_units_Z   2
loop_
 _symmetry_equiv_pos_site_id
 _symmetry_equiv_pos_as_xyz
  1  'x, y, z'
loop_
 _atom_site_type_symbol
 _atom_site_label
 _atom_site_symmetry_multiplicity
 _atom_site_fract_x
 _atom_site_fract_y
 _atom_site_fract_z
 _atom_site_occupancy
  Tc  Tc0  1  0.527799  0.392992  0.683045  1
  Tc  Tc1  1  0.392992  0.683045  0.527799  1
  Tc  Tc2  1  0.683045  0.527799  0.392992  1
  Tc  Tc3  1  0.183045  0.892992  0.027799  1
  Tc  Tc4  1  0.892992  0.027799  0.183045  1
  Tc  Tc5  1  0.027799  0.183045  0.892992  1
  Tc  Tc6  1  0.473215  0.608588  0.316590  1
  Tc  Tc7  1  0.608588  0.316590  0.473215  1
  Tc  Tc8  1  0.316590  0.473215  0.608588  1
  Tc  Tc9  1  0.816590  0.108588  0.973215  1
  Tc  Tc10  1  0.108588  0.973215  0.816590  1
  Tc  Tc11  1  0.973215  0.816590  0.108588  1
  Se  Se12  1  0.801858  0.247907  0.545273  1
  Se  Se13  1  0.247907  0.545273  0.801858  1
  Se  Se14  1  0.545273  0.801858  0.247907  1
  Se  Se15  1  0.045273  0.747907  0.301858  1
  Se  Se16  1  0.747907  0.301858  0.045273  1
  Se  Se17  1  0.301858  0.045273  0.747907  1
  Se  Se18  1  0.197776  0.753476  0.453869  1
  Se  Se19  1  0.753476  0.453869  0.197776  1
  Se  Se20  1  0.453869  0.197776  0.753476  1
  Se  Se21  1  0.953869  0.253476  0.697776  1
  Se  Se22  1  0.253476  0.697776  0.953869  1
  Se  Se23  1  0.697776  0.953869  0.253476  1
  Se  Se24  1  0.598414  0.598414  0.598414  1
  Se  Se25  1  0.098414  0.098414  0.098414  1
  Br  Br26  1  0.952725  0.549308  0.248918  1
  Br  Br27  1  0.549308  0.248918  0.952725  1
  Br  Br28  1  0.248918  0.952725  0.549308  1
  Br  Br29  1  0.748918  0.049308  0.452725  1
  Br  Br30  1  0.049308  0.452725  0.748918  1
  Br  Br31  1  0.452725  0.748918  0.049308  1
  Br  Br32  1  0.398209  0.398209  0.398209  1
  Br  Br33  1  0.898209  0.898209  0.898209  1
