# generated using pymatgen
data_Ho4GaIr6Ru
_symmetry_space_group_name_H-M   'P 1'
_cell_length_a   5.44797042
_cell_length_b   5.44796924
_cell_length_c   8.37357703
_cell_angle_alpha   90.00047588
_cell_angle_beta   89.99952161
_cell_angle_gamma   120.00064001
_symmetry_Int_Tables_number   1
_chemical_formula_structural   Ho4GaIr6Ru
_chemical_formula_sum   'Ho4 Ga1 Ir6 Ru1'
_cell_volume   215.23269220
_cell_formula_units_Z   1
loop_
 _symmetry_equiv_pos_site_id
 _symmetry_equiv_pos_as_xyz
  1  'x, y, z'
loop_
 _atom_site_type_symbol
 _atom_site_label
 _atom_site_symmetry_multiplicity
 _atom_site_fract_x
 _atom_site_fract_y
 _atom_site_fract_z
 _atom_site_occupancy
  Ho  Ho0  1  0.666679  0.333321  0.569577  1
  Ho  Ho1  1  0.333321  0.666679  0.430423  1
  Ho  Ho2  1  0.333319  0.666681  0.061235  1
  Ho  Ho3  1  0.666681  0.333319  0.938765  1
  Ga  Ga4  1  0.000000  0.000000  0.500000  1
  Ir  Ir5  1  0.170435  0.340818  0.748420  1
  Ir  Ir6  1  0.170423  0.829577  0.748423  1
  Ir  Ir7  1  0.659182  0.829565  0.748420  1
  Ir  Ir8  1  0.829565  0.659182  0.251580  1
  Ir  Ir9  1  0.829577  0.170423  0.251577  1
  Ir  Ir10  1  0.340818  0.170435  0.251580  1
  Ru  Ru11  1  0.000000  0.000000  0.000000  1
