# generated using pymatgen
data_Tb3AlAg2Pd3
_symmetry_space_group_name_H-M   'P 1'
_cell_length_a   7.48541660
_cell_length_b   7.35620936
_cell_length_c   3.91686500
_cell_angle_alpha   90.00000000
_cell_angle_beta   90.00000000
_cell_angle_gamma   119.43062685
_symmetry_Int_Tables_number   1
_chemical_formula_structural   Tb3AlAg2Pd3
_chemical_formula_sum   'Tb3 Al1 Ag2 Pd3'
_cell_volume   187.84624666
_cell_formula_units_Z   1
loop_
 _symmetry_equiv_pos_site_id
 _symmetry_equiv_pos_as_xyz
  1  'x, y, z'
loop_
 _atom_site_type_symbol
 _atom_site_label
 _atom_site_symmetry_multiplicity
 _atom_site_fract_x
 _atom_site_fract_y
 _atom_site_fract_z
 _atom_site_occupancy
  Tb  Tb0  1  0.000000  0.600476  0.500000  1
  Tb  Tb1  1  0.409779  0.400416  0.500000  1
  Tb  Tb2  1  0.590221  0.990637  0.500000  1
  Al  Al3  1  0.000000  0.254904  0.000000  1
  Ag  Ag4  1  0.748481  0.746921  0.000000  1
  Ag  Ag5  1  0.251519  0.998441  0.000000  1
  Pd  Pd6  1  0.318501  0.643046  0.000000  1
  Pd  Pd7  1  0.681499  0.324543  0.000000  1
  Pd  Pd8  1  0.000000  0.040617  0.500000  1
