# generated using pymatgen
data_Rb8Tb3YF20
_symmetry_space_group_name_H-M   'P 1'
_cell_length_a   6.97774661
_cell_length_b   7.48485100
_cell_length_c   11.52914810
_cell_angle_alpha   90.00000000
_cell_angle_beta   90.07342597
_cell_angle_gamma   90.00000000
_symmetry_Int_Tables_number   1
_chemical_formula_structural   Rb8Tb3YF20
_chemical_formula_sum   'Rb8 Tb3 Y1 F20'
_cell_volume   602.13686233
_cell_formula_units_Z   1
loop_
 _symmetry_equiv_pos_site_id
 _symmetry_equiv_pos_as_xyz
  1  'x, y, z'
loop_
 _atom_site_type_symbol
 _atom_site_label
 _atom_site_symmetry_multiplicity
 _atom_site_fract_x
 _atom_site_fract_y
 _atom_site_fract_z
 _atom_site_occupancy
  Rb  Rb0  1  0.532477  0.498667  0.828784  1
  Rb  Rb1  1  0.467966  0.501516  0.171169  1
  Rb  Rb2  1  0.032245  0.501490  0.671521  1
  Rb  Rb3  1  0.467966  0.998484  0.171169  1
  Rb  Rb4  1  0.967562  0.498642  0.328536  1
  Rb  Rb5  1  0.532477  0.001333  0.828784  1
  Rb  Rb6  1  0.967562  0.001358  0.328536  1
  Rb  Rb7  1  0.032245  0.998510  0.671521  1
  Tb  Tb8  1  0.559457  0.750000  0.501835  1
  Tb  Tb9  1  0.440309  0.250000  0.498413  1
  Tb  Tb10  1  0.059432  0.250000  0.998243  1
  Y  Y11  1  0.940770  0.750000  0.001409  1
  F  F12  1  0.847437  0.750000  0.817668  1
  F  F13  1  0.152570  0.250000  0.182829  1
  F  F14  1  0.347522  0.250000  0.682856  1
  F  F15  1  0.652344  0.750000  0.317294  1
  F  F16  1  0.374958  0.750000  0.658599  1
  F  F17  1  0.624984  0.250000  0.341479  1
  F  F18  1  0.875125  0.250000  0.841263  1
  F  F19  1  0.124083  0.750000  0.157969  1
  F  F20  1  0.875882  0.750000  0.516160  1
  F  F21  1  0.123950  0.250000  0.484094  1
  F  F22  1  0.375712  0.250000  0.983887  1
  F  F23  1  0.625212  0.750000  0.016040  1
  F  F24  1  0.640149  0.034033  0.572368  1
  F  F25  1  0.359602  0.965950  0.427735  1
  F  F26  1  0.140323  0.965429  0.928055  1
  F  F27  1  0.359602  0.534050  0.427735  1
  F  F28  1  0.859800  0.033852  0.071813  1
  F  F29  1  0.640149  0.465967  0.572368  1
  F  F30  1  0.859800  0.466148  0.071813  1
  F  F31  1  0.140323  0.534571  0.928055  1
