# generated using pymatgen
data_Mg2TaNb3(SbRh)6
_symmetry_space_group_name_H-M   'P 1'
_cell_length_a   7.63321510
_cell_length_b   7.62469392
_cell_length_c   7.62442816
_cell_angle_alpha   119.90189919
_cell_angle_beta   99.65627718
_cell_angle_gamma   99.66528176
_symmetry_Int_Tables_number   1
_chemical_formula_structural   Mg2TaNb3(SbRh)6
_chemical_formula_sum   'Mg2 Ta1 Nb3 Sb6 Rh6'
_cell_volume   362.43158627
_cell_formula_units_Z   1
loop_
 _symmetry_equiv_pos_site_id
 _symmetry_equiv_pos_as_xyz
  1  'x, y, z'
loop_
 _atom_site_type_symbol
 _atom_site_label
 _atom_site_symmetry_multiplicity
 _atom_site_fract_x
 _atom_site_fract_y
 _atom_site_fract_z
 _atom_site_occupancy
  Mg  Mg0  1  0.003569  0.837028  0.667221  1
  Mg  Mg1  1  0.503546  0.667395  0.836890  1
  Ta  Ta2  1  0.499054  0.000795  0.498979  1
  Nb  Nb3  1  0.998772  0.499483  0.000762  1
  Nb  Nb4  1  0.499207  0.331056  0.165042  1
  Nb  Nb5  1  0.998616  0.164652  0.331026  1
  Sb  Sb6  1  0.255498  0.909564  0.071140  1
  Sb  Sb7  1  0.746769  0.748760  0.254455  1
  Sb  Sb8  1  0.247303  0.585538  0.428631  1
  Sb  Sb9  1  0.747778  0.429388  0.586669  1
  Sb  Sb10  1  0.245986  0.255178  0.749648  1
  Sb  Sb11  1  0.755701  0.071793  0.909776  1
  Rh  Rh12  1  0.369453  0.624431  0.140907  1
  Rh  Rh13  1  0.867789  0.442352  0.275232  1
  Rh  Rh14  1  0.369504  0.273472  0.443251  1
  Rh  Rh15  1  0.864879  0.136597  0.620126  1
  Rh  Rh16  1  0.388484  0.978074  0.791500  1
  Rh  Rh17  1  0.888094  0.794445  0.978748  1
