# generated using pymatgen
data_CsTc2Mo4Se7
_symmetry_space_group_name_H-M   'P 1'
_cell_length_a   9.95943456
_cell_length_b   9.95049373
_cell_length_c   9.96354984
_cell_angle_alpha   60.83115504
_cell_angle_beta   60.80654047
_cell_angle_gamma   61.00883915
_symmetry_Int_Tables_number   1
_chemical_formula_structural   CsTc2Mo4Se7
_chemical_formula_sum   'Cs2 Tc4 Mo8 Se14'
_cell_volume   712.07742056
_cell_formula_units_Z   2
loop_
 _symmetry_equiv_pos_site_id
 _symmetry_equiv_pos_as_xyz
  1  'x, y, z'
loop_
 _atom_site_type_symbol
 _atom_site_label
 _atom_site_symmetry_multiplicity
 _atom_site_fract_x
 _atom_site_fract_y
 _atom_site_fract_z
 _atom_site_occupancy
  Cs  Cs0  1  0.119882  0.122185  0.123602  1
  Cs  Cs1  1  0.878286  0.881463  0.880726  1
  Tc  Tc2  1  0.612110  0.306910  0.439376  1
  Tc  Tc3  1  0.307634  0.439060  0.611258  1
  Tc  Tc4  1  0.439976  0.611257  0.307836  1
  Tc  Tc5  1  0.387416  0.694489  0.560593  1
  Mo  Mo6  1  0.694709  0.561078  0.387324  1
  Mo  Mo7  1  0.560038  0.387314  0.694514  1
  Mo  Mo8  1  0.376883  0.203480  0.502668  1
  Mo  Mo9  1  0.204702  0.502809  0.376607  1
  Mo  Mo10  1  0.504035  0.376378  0.203864  1
  Mo  Mo11  1  0.624186  0.796140  0.496938  1
  Mo  Mo12  1  0.797011  0.497300  0.622978  1
  Mo  Mo13  1  0.497180  0.622693  0.796363  1
  Se  Se14  1  0.668837  0.316682  0.916587  1
  Se  Se15  1  0.086692  0.328684  0.684149  1
  Se  Se16  1  0.276784  0.277933  0.276716  1
  Se  Se17  1  0.723164  0.724207  0.723139  1
  Se  Se18  1  0.854345  0.259737  0.517112  1
  Se  Se19  1  0.259134  0.522148  0.850377  1
  Se  Se20  1  0.512532  0.854657  0.264879  1
  Se  Se21  1  0.150330  0.732267  0.482441  1
  Se  Se22  1  0.732229  0.481160  0.147073  1
  Se  Se23  1  0.479329  0.146940  0.731967  1
  Se  Se24  1  0.332852  0.683575  0.085640  1
  Se  Se25  1  0.684628  0.085135  0.330425  1
  Se  Se26  1  0.917598  0.670647  0.316150  1
  Se  Se27  1  0.317502  0.913672  0.668698  1
