# generated using pymatgen
data_Ba6TmLuIrO12
_symmetry_space_group_name_H-M   'P 1'
_cell_length_a   9.46146472
_cell_length_b   9.46146419
_cell_length_c   7.44350967
_cell_angle_alpha   67.68293337
_cell_angle_beta   67.68293399
_cell_angle_gamma   36.98189776
_symmetry_Int_Tables_number   1
_chemical_formula_structural   Ba6TmLuIrO12
_chemical_formula_sum   'Ba6 Tm1 Lu1 Ir1 O12'
_cell_volume   367.30902122
_cell_formula_units_Z   1
loop_
 _symmetry_equiv_pos_site_id
 _symmetry_equiv_pos_as_xyz
  1  'x, y, z'
loop_
 _atom_site_type_symbol
 _atom_site_label
 _atom_site_symmetry_multiplicity
 _atom_site_fract_x
 _atom_site_fract_y
 _atom_site_fract_z
 _atom_site_occupancy
  Ba  Ba0  1  0.881959  0.881959  0.704575  1
  Ba  Ba1  1  0.210668  0.210668  0.712018  1
  Ba  Ba2  1  0.551420  0.551420  0.708148  1
  Ba  Ba3  1  0.455521  0.455521  0.287982  1
  Ba  Ba4  1  0.785217  0.785217  0.294662  1
  Ba  Ba5  1  0.114709  0.114709  0.292803  1
  Tm  Tm6  1  0.667363  0.667363  0.001481  1
  Lu  Lu7  1  0.999208  0.999208  0.998716  1
  Ir  Ir8  1  0.333720  0.333720  0.999855  1
  O  O9  1  0.940038  0.940038  0.326313  1
  O  O10  1  0.285251  0.285251  0.293049  1
  O  O11  1  0.615723  0.615723  0.328364  1
  O  O12  1  0.381985  0.381985  0.706713  1
  O  O13  1  0.726804  0.726804  0.671525  1
  O  O14  1  0.050134  0.050134  0.673992  1
  O  O15  1  0.487432  0.026351  0.998689  1
  O  O16  1  0.834008  0.331678  0.000173  1
  O  O17  1  0.178808  0.642002  0.001040  1
  O  O18  1  0.026351  0.487432  0.998689  1
  O  O19  1  0.331678  0.834008  0.000173  1
  O  O20  1  0.642002  0.178808  0.001040  1
