# generated using pymatgen
data_Rb5Sr(MoH9)3
_symmetry_space_group_name_H-M   'P 1'
_cell_length_a   10.13315653
_cell_length_b   9.86741483
_cell_length_c   5.76943200
_cell_angle_alpha   90.00000000
_cell_angle_beta   90.00000000
_cell_angle_gamma   119.13622330
_symmetry_Int_Tables_number   1
_chemical_formula_structural   Rb5Sr(MoH9)3
_chemical_formula_sum   'Rb5 Sr1 Mo3 H27'
_cell_volume   503.87927435
_cell_formula_units_Z   1
loop_
 _symmetry_equiv_pos_site_id
 _symmetry_equiv_pos_as_xyz
  1  'x, y, z'
loop_
 _atom_site_type_symbol
 _atom_site_label
 _atom_site_symmetry_multiplicity
 _atom_site_fract_x
 _atom_site_fract_y
 _atom_site_fract_z
 _atom_site_occupancy
  Rb  Rb0  1  0.749874  0.763969  0.500000  1
  Rb  Rb1  1  0.250126  0.014095  0.500000  1
  Rb  Rb2  1  0.000000  0.595803  0.000000  1
  Rb  Rb3  1  0.376227  0.393285  0.000000  1
  Rb  Rb4  1  0.623773  0.017058  0.000000  1
  Sr  Sr5  1  0.000000  0.253354  0.500000  1
  Mo  Mo6  1  0.681502  0.311117  0.500000  1
  Mo  Mo7  1  0.318498  0.629616  0.500000  1
  Mo  Mo8  1  0.000000  0.026034  0.000000  1
  H  H9  1  0.809934  0.303126  0.702412  1
  H  H10  1  0.645624  0.439165  0.681914  1
  H  H11  1  0.554560  0.204548  0.722999  1
  H  H12  1  0.190066  0.493193  0.297588  1
  H  H13  1  0.554560  0.204548  0.277001  1
  H  H14  1  0.809934  0.303126  0.297588  1
  H  H15  1  0.645624  0.439165  0.318086  1
  H  H16  1  0.354376  0.793542  0.681914  1
  H  H17  1  0.445440  0.649989  0.722999  1
  H  H18  1  0.170837  0.024741  0.000000  1
  H  H19  1  0.829163  0.853904  0.000000  1
  H  H20  1  0.000000  0.205562  0.000000  1
  H  H21  1  0.878995  0.026103  0.223997  1
  H  H22  1  0.121005  0.147108  0.776003  1
  H  H23  1  0.000000  0.893001  0.795685  1
  H  H24  1  0.000000  0.893001  0.204315  1
  H  H25  1  0.121005  0.147108  0.223997  1
  H  H26  1  0.878995  0.026103  0.776003  1
  H  H27  1  0.154425  0.646629  0.500000  1
  H  H28  1  0.383463  0.833710  0.500000  1
  H  H29  1  0.346393  0.467757  0.500000  1
  H  H30  1  0.616537  0.450247  0.500000  1
  H  H31  1  0.845575  0.492205  0.500000  1
  H  H32  1  0.653607  0.121364  0.500000  1
  H  H33  1  0.190066  0.493193  0.702412  1
  H  H34  1  0.354376  0.793542  0.318086  1
  H  H35  1  0.445440  0.649989  0.277001  1
