# generated using pymatgen
data_TbNd3Ni4(BO2)20
_symmetry_space_group_name_H-M   'P 1'
_cell_length_a   7.64374119
_cell_length_b   8.69198698
_cell_length_c   9.53811905
_cell_angle_alpha   93.40053098
_cell_angle_beta   90.04804714
_cell_angle_gamma   90.07000692
_symmetry_Int_Tables_number   1
_chemical_formula_structural   TbNd3Ni4(BO2)20
_chemical_formula_sum   'Tb1 Nd3 Ni4 B20 O40'
_cell_volume   632.58942730
_cell_formula_units_Z   1
loop_
 _symmetry_equiv_pos_site_id
 _symmetry_equiv_pos_as_xyz
  1  'x, y, z'
loop_
 _atom_site_type_symbol
 _atom_site_label
 _atom_site_symmetry_multiplicity
 _atom_site_fract_x
 _atom_site_fract_y
 _atom_site_fract_z
 _atom_site_occupancy
  Tb  Tb0  1  0.684656  0.316173  0.261629  1
  Nd  Nd1  1  0.182858  0.182079  0.236781  1
  Nd  Nd2  1  0.318923  0.680858  0.736105  1
  Nd  Nd3  1  0.818919  0.819107  0.763815  1
  Ni  Ni4  1  0.911100  0.897807  0.372573  1
  Ni  Ni5  1  0.411244  0.602087  0.128639  1
  Ni  Ni6  1  0.089023  0.103108  0.627736  1
  Ni  Ni7  1  0.589682  0.397746  0.873184  1
  B  B8  1  0.812603  0.567146  0.089480  1
  B  B9  1  0.312897  0.931352  0.412937  1
  B  B10  1  0.186897  0.431010  0.912580  1
  B  B11  1  0.686650  0.068957  0.587312  1
  B  B12  1  0.099799  0.657161  0.501009  1
  B  B13  1  0.599653  0.842110  0.999261  1
  B  B14  1  0.896380  0.340499  0.495811  1
  B  B15  1  0.404828  0.157838  0.002989  1
  B  B16  1  0.032851  0.779501  0.056241  1
  B  B17  1  0.534150  0.721101  0.444280  1
  B  B18  1  0.965313  0.221480  0.945073  1
  B  B19  1  0.466768  0.279436  0.554376  1
  B  B20  1  0.823784  0.018229  0.107610  1
  B  B21  1  0.326456  0.483633  0.392425  1
  B  B22  1  0.175473  0.984366  0.894356  1
  B  B23  1  0.674333  0.516129  0.605081  1
  B  B24  1  0.077320  0.586859  0.241124  1
  B  B25  1  0.577330  0.913829  0.259516  1
  B  B26  1  0.922525  0.412022  0.757158  1
  B  B27  1  0.422434  0.088486  0.741239  1
  O  O28  1  0.943004  0.260019  0.376451  1
  O  O29  1  0.456871  0.236603  0.121935  1
  O  O30  1  0.050857  0.737668  0.619425  1
  O  O31  1  0.551084  0.761095  0.880820  1
  O  O32  1  0.151909  0.003296  0.430985  1
  O  O33  1  0.652028  0.493502  0.073175  1
  O  O34  1  0.847959  0.997492  0.569913  1
  O  O35  1  0.348116  0.502662  0.930980  1
  O  O36  1  0.874506  0.683306  0.011549  1
  O  O37  1  0.376121  0.815972  0.490446  1
  O  O38  1  0.123415  0.316402  0.991019  1
  O  O39  1  0.623793  0.183801  0.508926  1
  O  O40  1  0.725187  0.957057  0.985742  1
  O  O41  1  0.226222  0.542886  0.514131  1
  O  O42  1  0.276024  0.044925  0.015914  1
  O  O43  1  0.769960  0.454344  0.481607  1
  O  O44  1  0.890137  0.174743  0.081803  1
  O  O45  1  0.395407  0.327765  0.417093  1
  O  O46  1  0.107028  0.828045  0.920029  1
  O  O47  1  0.607735  0.672615  0.580443  1
  O  O48  1  0.971802  0.915515  0.149268  1
  O  O49  1  0.472853  0.586646  0.350638  1
  O  O50  1  0.027061  0.085933  0.852782  1
  O  O51  1  0.526917  0.414569  0.648203  1
  O  O52  1  0.151575  0.684266  0.135138  1
  O  O53  1  0.652835  0.817028  0.365414  1
  O  O54  1  0.847352  0.315439  0.863725  1
  O  O55  1  0.347474  0.184962  0.634643  1
  O  O56  1  0.911111  0.512557  0.197062  1
  O  O57  1  0.410607  0.985178  0.304479  1
  O  O58  1  0.089260  0.483948  0.803304  1
  O  O59  1  0.588502  0.015551  0.695904  1
  O  O60  1  0.035498  0.687149  0.370833  1
  O  O61  1  0.535701  0.812762  0.129614  1
  O  O62  1  0.963590  0.312553  0.626016  1
  O  O63  1  0.465496  0.188397  0.871672  1
  O  O64  1  0.210290  0.467502  0.267308  1
  O  O65  1  0.708526  0.035102  0.232824  1
  O  O66  1  0.791261  0.531910  0.729826  1
  O  O67  1  0.290084  0.968724  0.768643  1
