# generated using pymatgen
data_Lu4BeAl2Os5
_symmetry_space_group_name_H-M   'P 1'
_cell_length_a   5.22945021
_cell_length_b   5.26975005
_cell_length_c   8.68225100
_cell_angle_alpha   90.00000000
_cell_angle_beta   90.00000000
_cell_angle_gamma   119.87027581
_symmetry_Int_Tables_number   1
_chemical_formula_structural   Lu4BeAl2Os5
_chemical_formula_sum   'Lu4 Be1 Al2 Os5'
_cell_volume   207.47952240
_cell_formula_units_Z   1
loop_
 _symmetry_equiv_pos_site_id
 _symmetry_equiv_pos_as_xyz
  1  'x, y, z'
loop_
 _atom_site_type_symbol
 _atom_site_label
 _atom_site_symmetry_multiplicity
 _atom_site_fract_x
 _atom_site_fract_y
 _atom_site_fract_z
 _atom_site_occupancy
  Lu  Lu0  1  0.331981  0.667971  0.437518  1
  Lu  Lu1  1  0.655407  0.324399  0.559370  1
  Lu  Lu2  1  0.655407  0.324399  0.940630  1
  Lu  Lu3  1  0.331981  0.667971  0.062482  1
  Be  Be4  1  0.194980  0.856088  0.750000  1
  Al  Al5  1  0.187922  0.343750  0.750000  1
  Al  Al6  1  0.327281  0.164616  0.250000  1
  Os  Os7  1  0.830306  0.652259  0.250000  1
  Os  Os8  1  0.673001  0.836433  0.750000  1
  Os  Os9  1  0.991015  0.992085  0.992502  1
  Os  Os10  1  0.829704  0.177947  0.250000  1
  Os  Os11  1  0.991015  0.992085  0.507498  1
