# generated using pymatgen
data_NaNb2Cr(Co4P3)2
_symmetry_space_group_name_H-M   'P 1'
_cell_length_a   11.89508793
_cell_length_b   11.89508780
_cell_length_c   3.57707100
_cell_angle_alpha   90.00000000
_cell_angle_beta   90.00000000
_cell_angle_gamma   119.80668461
_symmetry_Int_Tables_number   1
_chemical_formula_structural   NaNb2Cr(Co4P3)2
_chemical_formula_sum   'Na2 Nb4 Cr2 Co16 P12'
_cell_volume   439.17357759
_cell_formula_units_Z   2
loop_
 _symmetry_equiv_pos_site_id
 _symmetry_equiv_pos_as_xyz
  1  'x, y, z'
loop_
 _atom_site_type_symbol
 _atom_site_label
 _atom_site_symmetry_multiplicity
 _atom_site_fract_x
 _atom_site_fract_y
 _atom_site_fract_z
 _atom_site_occupancy
  Na  Na0  1  0.331054  0.666078  0.000000  1
  Na  Na1  1  0.666078  0.331054  0.000000  1
  Nb  Nb2  1  0.819413  0.000644  0.500000  1
  Nb  Nb3  1  0.000644  0.819413  0.500000  1
  Nb  Nb4  1  0.178431  0.178431  0.500000  1
  Nb  Nb5  1  0.554819  0.554819  0.000000  1
  Cr  Cr6  1  0.445928  0.000209  0.000000  1
  Cr  Cr7  1  0.000209  0.445928  0.000000  1
  Co  Co8  1  0.279049  0.998862  0.500000  1
  Co  Co9  1  0.998862  0.279049  0.500000  1
  Co  Co10  1  0.724688  0.724688  0.500000  1
  Co  Co11  1  0.634624  0.810662  0.000000  1
  Co  Co12  1  0.194840  0.826192  0.000000  1
  Co  Co13  1  0.170966  0.366030  0.000000  1
  Co  Co14  1  0.366030  0.170966  0.000000  1
  Co  Co15  1  0.810662  0.634624  0.000000  1
  Co  Co16  1  0.826192  0.194840  0.000000  1
  Co  Co17  1  0.524010  0.878895  0.500000  1
  Co  Co18  1  0.124663  0.648011  0.500000  1
  Co  Co19  1  0.348046  0.473689  0.500000  1
  Co  Co20  1  0.473689  0.348046  0.500000  1
  Co  Co21  1  0.878895  0.524010  0.500000  1
  Co  Co22  1  0.648011  0.124663  0.500000  1
  Co  Co23  1  0.000670  0.000670  0.000000  1
  P  P24  1  0.173328  0.998755  0.000000  1
  P  P25  1  0.998755  0.173328  0.000000  1
  P  P26  1  0.828135  0.828135  0.000000  1
  P  P27  1  0.515379  0.688494  0.500000  1
  P  P28  1  0.317976  0.834628  0.500000  1
  P  P29  1  0.163852  0.482333  0.500000  1
  P  P30  1  0.482333  0.163852  0.500000  1
  P  P31  1  0.688494  0.515379  0.500000  1
  P  P32  1  0.834628  0.317976  0.500000  1
  P  P33  1  0.644470  0.003190  0.000000  1
  P  P34  1  0.003190  0.644470  0.000000  1
  P  P35  1  0.348988  0.348988  0.000000  1
