# generated using pymatgen
data_Gd10RuRh5
_symmetry_space_group_name_H-M   'P 1'
_cell_length_a   10.97893700
_cell_length_b   10.97893700
_cell_length_c   6.41757200
_cell_angle_alpha   90.00000000
_cell_angle_beta   90.00000000
_cell_angle_gamma   90.00000000
_symmetry_Int_Tables_number   1
_chemical_formula_structural   Gd10RuRh5
_chemical_formula_sum   'Gd20 Ru2 Rh10'
_cell_volume   773.55524614
_cell_formula_units_Z   2
loop_
 _symmetry_equiv_pos_site_id
 _symmetry_equiv_pos_as_xyz
  1  'x, y, z'
loop_
 _atom_site_type_symbol
 _atom_site_label
 _atom_site_symmetry_multiplicity
 _atom_site_fract_x
 _atom_site_fract_y
 _atom_site_fract_z
 _atom_site_occupancy
  Gd  Gd0  1  0.088621  0.292428  0.120436  1
  Gd  Gd1  1  0.792428  0.411379  0.120436  1
  Gd  Gd2  1  0.207572  0.588621  0.120436  1
  Gd  Gd3  1  0.911379  0.707572  0.120436  1
  Gd  Gd4  1  0.411379  0.792428  0.379564  1
  Gd  Gd5  1  0.588621  0.207572  0.379564  1
  Gd  Gd6  1  0.292428  0.088621  0.379564  1
  Gd  Gd7  1  0.707572  0.911379  0.379564  1
  Gd  Gd8  1  0.410897  0.207516  0.884114  1
  Gd  Gd9  1  0.707516  0.089103  0.884114  1
  Gd  Gd10  1  0.292484  0.910897  0.884114  1
  Gd  Gd11  1  0.589103  0.792484  0.884114  1
  Gd  Gd12  1  0.089103  0.707516  0.615886  1
  Gd  Gd13  1  0.910897  0.292484  0.615886  1
  Gd  Gd14  1  0.207516  0.410897  0.615886  1
  Gd  Gd15  1  0.792484  0.589103  0.615886  1
  Gd  Gd16  1  0.000000  0.000000  0.999793  1
  Gd  Gd17  1  0.500000  0.500000  0.999793  1
  Gd  Gd18  1  0.500000  0.500000  0.500207  1
  Gd  Gd19  1  0.000000  0.000000  0.500207  1
  Ru  Ru20  1  0.000000  0.500000  0.375460  1
  Ru  Ru21  1  0.500000  0.000000  0.124540  1
  Rh  Rh22  1  0.153828  0.846172  0.250000  1
  Rh  Rh23  1  0.346172  0.346172  0.250000  1
  Rh  Rh24  1  0.653828  0.653828  0.250000  1
  Rh  Rh25  1  0.846172  0.153828  0.250000  1
  Rh  Rh26  1  0.346722  0.653278  0.750000  1
  Rh  Rh27  1  0.153278  0.153278  0.750000  1
  Rh  Rh28  1  0.846722  0.846722  0.750000  1
  Rh  Rh29  1  0.653278  0.346722  0.750000  1
  Rh  Rh30  1  0.500000  0.000000  0.625182  1
  Rh  Rh31  1  0.000000  0.500000  0.874818  1
