# generated using pymatgen
data_Ho6Er10Ni3Ag4Os
_symmetry_space_group_name_H-M   'P 1'
_cell_length_a   9.45054267
_cell_length_b   9.45054282
_cell_length_c   9.45054347
_cell_angle_alpha   59.28352150
_cell_angle_beta   59.28351899
_cell_angle_gamma   59.28351627
_symmetry_Int_Tables_number   1
_chemical_formula_structural   Ho6Er10Ni3Ag4Os
_chemical_formula_sum   'Ho6 Er10 Ni3 Ag4 Os1'
_cell_volume   587.09843310
_cell_formula_units_Z   1
loop_
 _symmetry_equiv_pos_site_id
 _symmetry_equiv_pos_as_xyz
  1  'x, y, z'
loop_
 _atom_site_type_symbol
 _atom_site_label
 _atom_site_symmetry_multiplicity
 _atom_site_fract_x
 _atom_site_fract_y
 _atom_site_fract_z
 _atom_site_occupancy
  Ho  Ho0  1  0.935735  0.565044  0.565044  1
  Ho  Ho1  1  0.556219  0.938927  0.938927  1
  Ho  Ho2  1  0.565044  0.935735  0.565044  1
  Ho  Ho3  1  0.938927  0.556219  0.938927  1
  Ho  Ho4  1  0.565044  0.565044  0.935735  1
  Ho  Ho5  1  0.938927  0.938927  0.556219  1
  Er  Er6  1  0.348737  0.348737  0.348737  1
  Er  Er7  1  0.354047  0.354047  0.947728  1
  Er  Er8  1  0.354047  0.947728  0.354047  1
  Er  Er9  1  0.947728  0.354047  0.354047  1
  Er  Er10  1  0.810445  0.187914  0.187914  1
  Er  Er11  1  0.188207  0.810892  0.810892  1
  Er  Er12  1  0.187914  0.810445  0.187914  1
  Er  Er13  1  0.810892  0.188207  0.810892  1
  Er  Er14  1  0.187914  0.187914  0.810445  1
  Er  Er15  1  0.810892  0.810892  0.188207  1
  Ni  Ni16  1  0.142279  0.142279  0.573809  1
  Ni  Ni17  1  0.142279  0.573809  0.142279  1
  Ni  Ni18  1  0.573809  0.142279  0.142279  1
  Ag  Ag19  1  0.581449  0.581449  0.581449  1
  Ag  Ag20  1  0.580632  0.580632  0.254706  1
  Ag  Ag21  1  0.580632  0.254706  0.580632  1
  Ag  Ag22  1  0.254706  0.580632  0.580632  1
  Os  Os23  1  0.143490  0.143490  0.143490  1
