# generated using pymatgen
data_DyY(Hg2O)2
_symmetry_space_group_name_H-M   'P 1'
_cell_length_a   5.57623000
_cell_length_b   5.58111355
_cell_length_c   11.04139822
_cell_angle_alpha   86.22237278
_cell_angle_beta   90.00384910
_cell_angle_gamma   89.99776274
_symmetry_Int_Tables_number   1
_chemical_formula_structural   DyY(Hg2O)2
_chemical_formula_sum   'Dy2 Y2 Hg8 O4'
_cell_volume   342.87907208
_cell_formula_units_Z   2
loop_
 _symmetry_equiv_pos_site_id
 _symmetry_equiv_pos_as_xyz
  1  'x, y, z'
loop_
 _atom_site_type_symbol
 _atom_site_label
 _atom_site_symmetry_multiplicity
 _atom_site_fract_x
 _atom_site_fract_y
 _atom_site_fract_z
 _atom_site_occupancy
  Dy  Dy0  1  0.574807  0.487917  0.097739  1
  Dy  Dy1  1  0.074779  0.988659  0.098031  1
  Y  Y2  1  0.574726  0.011569  0.900918  1
  Y  Y3  1  0.074772  0.512290  0.901188  1
  Hg  Hg4  1  0.575167  0.968619  0.275387  1
  Hg  Hg5  1  0.075164  0.964310  0.417187  1
  Hg  Hg6  1  0.575192  0.035256  0.582209  1
  Hg  Hg7  1  0.075060  0.031987  0.724417  1
  Hg  Hg8  1  0.075339  0.457699  0.276166  1
  Hg  Hg9  1  0.575275  0.479035  0.417331  1
  Hg  Hg10  1  0.075357  0.522358  0.583057  1
  Hg  Hg11  1  0.575420  0.541607  0.723693  1
  O  O12  1  0.824095  0.249691  0.000220  1
  O  O13  1  0.825400  0.749658  0.001150  1
  O  O14  1  0.325397  0.249691  0.000195  1
  O  O15  1  0.324092  0.749655  0.001115  1
