# generated using pymatgen
data_DyAl2PdPt4
_symmetry_space_group_name_H-M   'P 1'
_cell_length_a   4.12474680
_cell_length_b   4.12474502
_cell_length_c   8.16015800
_cell_angle_alpha   104.63952325
_cell_angle_beta   104.63953115
_cell_angle_gamma   90.00000548
_symmetry_Int_Tables_number   1
_chemical_formula_structural   DyAl2PdPt4
_chemical_formula_sum   'Dy1 Al2 Pd1 Pt4'
_cell_volume   129.66208071
_cell_formula_units_Z   1
loop_
 _symmetry_equiv_pos_site_id
 _symmetry_equiv_pos_as_xyz
  1  'x, y, z'
loop_
 _atom_site_type_symbol
 _atom_site_label
 _atom_site_symmetry_multiplicity
 _atom_site_fract_x
 _atom_site_fract_y
 _atom_site_fract_z
 _atom_site_occupancy
  Dy  Dy0  1  0.000000  0.000000  0.000000  1
  Al  Al1  1  0.747081  0.747081  0.494162  1
  Al  Al2  1  0.252919  0.252919  0.505838  1
  Pd  Pd3  1  0.500000  0.500000  0.000000  1
  Pt  Pt4  1  0.643928  0.143929  0.287859  1
  Pt  Pt5  1  0.143929  0.643928  0.287859  1
  Pt  Pt6  1  0.856071  0.356071  0.712140  1
  Pt  Pt7  1  0.356071  0.856071  0.712140  1
