# generated using pymatgen
data_Pr6Y3HoPb6
_symmetry_space_group_name_H-M   'P 1'
_cell_length_a   9.32818500
_cell_length_b   9.32818509
_cell_length_c   6.81625200
_cell_angle_alpha   90.00000000
_cell_angle_beta   90.00000000
_cell_angle_gamma   120.00000322
_symmetry_Int_Tables_number   1
_chemical_formula_structural   Pr6Y3HoPb6
_chemical_formula_sum   'Pr6 Y3 Ho1 Pb6'
_cell_volume   513.65386611
_cell_formula_units_Z   1
loop_
 _symmetry_equiv_pos_site_id
 _symmetry_equiv_pos_as_xyz
  1  'x, y, z'
loop_
 _atom_site_type_symbol
 _atom_site_label
 _atom_site_symmetry_multiplicity
 _atom_site_fract_x
 _atom_site_fract_y
 _atom_site_fract_z
 _atom_site_occupancy
  Pr  Pr0  1  0.239756  0.999976  0.250029  1
  Pr  Pr1  1  0.239756  0.239780  0.749971  1
  Pr  Pr2  1  0.000024  0.760244  0.749971  1
  Pr  Pr3  1  0.000024  0.239780  0.250029  1
  Pr  Pr4  1  0.760220  0.760244  0.250029  1
  Pr  Pr5  1  0.760220  0.999976  0.749971  1
  Y  Y6  1  0.333333  0.666667  0.000000  1
  Y  Y7  1  0.666667  0.333333  0.500000  1
  Y  Y8  1  0.666667  0.333333  0.000000  1
  Ho  Ho9  1  0.333333  0.666667  0.500000  1
  Pb  Pb10  1  0.600836  0.999922  0.250073  1
  Pb  Pb11  1  0.600836  0.600914  0.749927  1
  Pb  Pb12  1  0.000078  0.399164  0.749927  1
  Pb  Pb13  1  0.000078  0.600914  0.250073  1
  Pb  Pb14  1  0.399086  0.399164  0.250073  1
  Pb  Pb15  1  0.399086  0.999922  0.749927  1
