# generated using pymatgen
data_Ho3Zn2AgGe2Au
_symmetry_space_group_name_H-M   'P 1'
_cell_length_a   4.25447100
_cell_length_b   7.11408446
_cell_length_c   7.00228905
_cell_angle_alpha   120.52956364
_cell_angle_beta   90.00000000
_cell_angle_gamma   90.00000000
_symmetry_Int_Tables_number   1
_chemical_formula_structural   Ho3Zn2AgGe2Au
_chemical_formula_sum   'Ho3 Zn2 Ag1 Ge2 Au1'
_cell_volume   182.55466332
_cell_formula_units_Z   1
loop_
 _symmetry_equiv_pos_site_id
 _symmetry_equiv_pos_as_xyz
  1  'x, y, z'
loop_
 _atom_site_type_symbol
 _atom_site_label
 _atom_site_symmetry_multiplicity
 _atom_site_fract_x
 _atom_site_fract_y
 _atom_site_fract_z
 _atom_site_occupancy
  Ho  Ho0  1  0.000000  0.420852  0.000000  1
  Ho  Ho1  1  0.000000  0.582522  0.586248  1
  Ho  Ho2  1  0.000000  0.996275  0.413752  1
  Zn  Zn3  1  0.500000  0.245990  0.246471  1
  Zn  Zn4  1  0.500000  0.999518  0.753529  1
  Ag  Ag5  1  0.500000  0.746215  0.000000  1
  Ge  Ge6  1  0.500000  0.666176  0.342033  1
  Ge  Ge7  1  0.500000  0.324142  0.657967  1
  Au  Au8  1  0.000000  0.018408  0.000000  1
