# generated using pymatgen
data_Ta12Al3Si5(RuC)4
_symmetry_space_group_name_H-M   'P 1'
_cell_length_a   8.22210335
_cell_length_b   8.22091027
_cell_length_c   8.22210301
_cell_angle_alpha   60.04966617
_cell_angle_beta   60.03776731
_cell_angle_gamma   60.04965897
_symmetry_Int_Tables_number   1
_chemical_formula_structural   Ta12Al3Si5(RuC)4
_chemical_formula_sum   'Ta12 Al3 Si5 Ru4 C4'
_cell_volume   393.38730625
_cell_formula_units_Z   1
loop_
 _symmetry_equiv_pos_site_id
 _symmetry_equiv_pos_as_xyz
  1  'x, y, z'
loop_
 _atom_site_type_symbol
 _atom_site_label
 _atom_site_symmetry_multiplicity
 _atom_site_fract_x
 _atom_site_fract_y
 _atom_site_fract_z
 _atom_site_occupancy
  Ta  Ta0  1  0.559328  0.941134  0.559328  1
  Ta  Ta1  1  0.312792  0.688929  0.686359  1
  Ta  Ta2  1  0.691508  0.310470  0.311507  1
  Ta  Ta3  1  0.311400  0.692489  0.311400  1
  Ta  Ta4  1  0.686359  0.688929  0.312792  1
  Ta  Ta5  1  0.311507  0.310470  0.691508  1
  Ta  Ta6  1  0.565508  0.556581  0.939015  1
  Ta  Ta7  1  0.939015  0.556581  0.565508  1
  Ta  Ta8  1  0.564338  0.939285  0.938310  1
  Ta  Ta9  1  0.938310  0.939285  0.564338  1
  Ta  Ta10  1  0.687773  0.312040  0.687773  1
  Ta  Ta11  1  0.936713  0.562046  0.936713  1
  Al  Al12  1  0.919158  0.915927  0.249291  1
  Al  Al13  1  0.249291  0.915927  0.919158  1
  Al  Al14  1  0.333091  0.333196  0.333091  1
  Si  Si15  1  0.917030  0.911789  0.917030  1
  Si  Si16  1  0.992934  0.337435  0.337641  1
  Si  Si17  1  0.336746  0.995136  0.336746  1
  Si  Si18  1  0.337641  0.337435  0.992934  1
  Si  Si19  1  0.917736  0.252304  0.917736  1
  Ru  Ru20  1  0.127668  0.133455  0.127668  1
  Ru  Ru21  1  0.625852  0.124661  0.117474  1
  Ru  Ru22  1  0.121532  0.619263  0.121532  1
  Ru  Ru23  1  0.117474  0.124661  0.625852  1
  C  C24  1  0.625140  0.625586  0.625140  1
  C  C25  1  0.124433  0.625266  0.624669  1
  C  C26  1  0.625053  0.124454  0.625053  1
  C  C27  1  0.624669  0.625266  0.124433  1
