# generated using pymatgen
data_La4Nd2Zn4IrPd12
_symmetry_space_group_name_H-M   'P 1'
_cell_length_a   8.42957272
_cell_length_b   8.42957247
_cell_length_c   8.42794229
_cell_angle_alpha   109.42513016
_cell_angle_beta   109.42513218
_cell_angle_gamma   109.57126382
_symmetry_Int_Tables_number   1
_chemical_formula_structural   La4Nd2Zn4IrPd12
_chemical_formula_sum   'La4 Nd2 Zn4 Ir1 Pd12'
_cell_volume   460.96495337
_cell_formula_units_Z   1
loop_
 _symmetry_equiv_pos_site_id
 _symmetry_equiv_pos_as_xyz
  1  'x, y, z'
loop_
 _atom_site_type_symbol
 _atom_site_label
 _atom_site_symmetry_multiplicity
 _atom_site_fract_x
 _atom_site_fract_y
 _atom_site_fract_z
 _atom_site_occupancy
  La  La0  1  0.703175  0.703175  0.999055  1
  La  La1  1  0.298932  0.999493  0.298425  1
  La  La2  1  0.999493  0.298932  0.298425  1
  La  La3  1  0.295880  0.295880  0.999055  1
  Nd  Nd4  1  0.700947  0.999579  0.700526  1
  Nd  Nd5  1  0.999579  0.700947  0.700526  1
  Zn  Zn6  1  0.999271  0.999271  0.502509  1
  Zn  Zn7  1  0.999340  0.499340  0.998680  1
  Zn  Zn8  1  0.499340  0.999340  0.998680  1
  Zn  Zn9  1  0.503238  0.503238  0.502509  1
  Ir  Ir10  1  0.000078  0.000078  0.000155  1
  Pd  Pd11  1  0.332171  0.332171  0.664343  1
  Pd  Pd12  1  0.667520  0.999751  0.332424  1
  Pd  Pd13  1  0.999751  0.667520  0.332424  1
  Pd  Pd14  1  0.667928  0.331550  0.999477  1
  Pd  Pd15  1  0.332672  0.664904  0.332424  1
  Pd  Pd16  1  0.999645  0.332021  0.667845  1
  Pd  Pd17  1  0.331550  0.667928  0.999477  1
  Pd  Pd18  1  0.332021  0.999645  0.667845  1
  Pd  Pd19  1  0.664904  0.332672  0.332424  1
  Pd  Pd20  1  0.668543  0.668543  0.337085  1
  Pd  Pd21  1  0.668200  0.335824  0.667845  1
  Pd  Pd22  1  0.335824  0.668200  0.667845  1
