# generated using pymatgen
data_Li6Tb2LuIn3
_symmetry_space_group_name_H-M   'P 1'
_cell_length_a   4.77836900
_cell_length_b   6.73131500
_cell_length_c   14.41738700
_cell_angle_alpha   90.00000000
_cell_angle_beta   89.99958033
_cell_angle_gamma   90.00000000
_symmetry_Int_Tables_number   1
_chemical_formula_structural   Li6Tb2LuIn3
_chemical_formula_sum   'Li12 Tb4 Lu2 In6'
_cell_volume   463.73102748
_cell_formula_units_Z   2
loop_
 _symmetry_equiv_pos_site_id
 _symmetry_equiv_pos_as_xyz
  1  'x, y, z'
loop_
 _atom_site_type_symbol
 _atom_site_label
 _atom_site_symmetry_multiplicity
 _atom_site_fract_x
 _atom_site_fract_y
 _atom_site_fract_z
 _atom_site_occupancy
  Li  Li0  1  0.500021  0.246622  0.999328  1
  Li  Li1  1  0.500021  0.753377  0.999328  1
  Li  Li2  1  0.000211  0.251469  0.166782  1
  Li  Li3  1  0.000211  0.748530  0.166782  1
  Li  Li4  1  0.500212  0.248529  0.333202  1
  Li  Li5  1  0.500212  0.751472  0.333202  1
  Li  Li6  1  0.000003  0.253402  0.500678  1
  Li  Li7  1  0.000003  0.746597  0.500678  1
  Li  Li8  1  0.499761  0.250479  0.667966  1
  Li  Li9  1  0.499761  0.749522  0.667966  1
  Li  Li10  1  0.999772  0.249530  0.832042  1
  Li  Li11  1  0.999772  0.750469  0.832042  1
  Tb  Tb12  1  0.000019  0.500000  0.000513  1
  Tb  Tb13  1  0.500226  0.000000  0.167200  1
  Tb  Tb14  1  0.000226  0.500000  0.332785  1
  Tb  Tb15  1  0.500000  0.000000  0.499476  1
  Lu  Lu16  1  0.999743  0.500000  0.666201  1
  Lu  Lu17  1  0.499757  0.000000  0.833810  1
  In  In18  1  0.000008  0.000000  0.999883  1
  In  In19  1  0.500104  0.500000  0.166503  1
  In  In20  1  0.000099  0.000000  0.333498  1
  In  In21  1  0.500003  0.500000  0.500103  1
  In  In22  1  0.999907  0.000000  0.666857  1
  In  In23  1  0.499937  0.500000  0.833177  1
