# generated using pymatgen
data_NaSrCaAlAs3
_symmetry_space_group_name_H-M   'P 1'
_cell_length_a   8.21079303
_cell_length_b   8.21079465
_cell_length_c   11.59798713
_cell_angle_alpha   76.45700770
_cell_angle_beta   76.45701130
_cell_angle_gamma   69.45948040
_symmetry_Int_Tables_number   1
_chemical_formula_structural   NaSrCaAlAs3
_chemical_formula_sum   'Na4 Sr4 Ca4 Al4 As12'
_cell_volume   701.84091218
_cell_formula_units_Z   4
loop_
 _symmetry_equiv_pos_site_id
 _symmetry_equiv_pos_as_xyz
  1  'x, y, z'
loop_
 _atom_site_type_symbol
 _atom_site_label
 _atom_site_symmetry_multiplicity
 _atom_site_fract_x
 _atom_site_fract_y
 _atom_site_fract_z
 _atom_site_occupancy
  Na  Na0  1  0.297662  0.702338  0.000000  1
  Na  Na1  1  0.354984  0.354984  0.232837  1
  Na  Na2  1  0.645016  0.645016  0.767163  1
  Na  Na3  1  0.702338  0.297662  0.000000  1
  Sr  Sr4  1  0.744720  0.192959  0.686395  1
  Sr  Sr5  1  0.255280  0.807041  0.313605  1
  Sr  Sr6  1  0.192959  0.744720  0.686395  1
  Sr  Sr7  1  0.807041  0.255280  0.313605  1
  Ca  Ca8  1  0.500000  0.000000  0.500000  1
  Ca  Ca9  1  0.000000  0.500000  0.000000  1
  Ca  Ca10  1  0.500000  0.000000  0.000000  1
  Ca  Ca11  1  0.000000  0.500000  0.500000  1
  Al  Al12  1  0.698326  0.698326  0.268345  1
  Al  Al13  1  0.090011  0.090011  0.881022  1
  Al  Al14  1  0.909989  0.909989  0.118978  1
  Al  Al15  1  0.301674  0.301674  0.731655  1
  As  As16  1  0.026405  0.602541  0.229260  1
  As  As17  1  0.592470  0.592470  0.128462  1
  As  As18  1  0.973595  0.397459  0.770740  1
  As  As19  1  0.098247  0.098247  0.484851  1
  As  As20  1  0.595209  0.595209  0.493643  1
  As  As21  1  0.900952  0.900952  0.903627  1
  As  As22  1  0.099048  0.099048  0.096373  1
  As  As23  1  0.407530  0.407530  0.871538  1
  As  As24  1  0.602541  0.026405  0.229260  1
  As  As25  1  0.901753  0.901753  0.515149  1
  As  As26  1  0.397459  0.973595  0.770740  1
  As  As27  1  0.404791  0.404791  0.506357  1
