# generated using pymatgen
data_HoEr9In8RuPt3
_symmetry_space_group_name_H-M   'P 1'
_cell_length_a   3.57181600
_cell_length_b   8.12675654
_cell_length_c   18.22377516
_cell_angle_alpha   90.03774289
_cell_angle_beta   90.00000000
_cell_angle_gamma   90.00000000
_symmetry_Int_Tables_number   1
_chemical_formula_structural   HoEr9In8RuPt3
_chemical_formula_sum   'Ho1 Er9 In8 Ru1 Pt3'
_cell_volume   528.98649186
_cell_formula_units_Z   1
loop_
 _symmetry_equiv_pos_site_id
 _symmetry_equiv_pos_as_xyz
  1  'x, y, z'
loop_
 _atom_site_type_symbol
 _atom_site_label
 _atom_site_symmetry_multiplicity
 _atom_site_fract_x
 _atom_site_fract_y
 _atom_site_fract_z
 _atom_site_occupancy
  Ho  Ho0  1  0.000000  0.500941  0.499108  1
  Er  Er1  1  0.000000  0.116284  0.412577  1
  Er  Er2  1  0.000000  0.883690  0.585296  1
  Er  Er3  1  0.000000  0.384187  0.914889  1
  Er  Er4  1  0.000000  0.618042  0.086869  1
  Er  Er5  1  0.000000  0.235062  0.222430  1
  Er  Er6  1  0.000000  0.757432  0.778775  1
  Er  Er7  1  0.000000  0.257435  0.721505  1
  Er  Er8  1  0.000000  0.749245  0.278282  1
  Er  Er9  1  0.000000  0.999505  0.000555  1
  In  In10  1  0.500000  0.423015  0.350870  1
  In  In11  1  0.500000  0.575143  0.648259  1
  In  In12  1  0.500000  0.075112  0.852016  1
  In  In13  1  0.500000  0.930472  0.149610  1
  In  In14  1  0.500000  0.292809  0.066328  1
  In  In15  1  0.500000  0.708041  0.933875  1
  In  In16  1  0.500000  0.208755  0.566863  1
  In  In17  1  0.500000  0.794707  0.430777  1
  Ru  Ru18  1  0.500000  0.018421  0.304108  1
  Pt  Pt19  1  0.500000  0.976432  0.696540  1
  Pt  Pt20  1  0.500000  0.476598  0.803683  1
  Pt  Pt21  1  0.500000  0.518672  0.196784  1
