# generated using pymatgen
data_Tb5HoMn6O18
_symmetry_space_group_name_H-M   'P 1'
_cell_length_a   6.24240500
_cell_length_b   6.24240411
_cell_length_c   11.56967600
_cell_angle_alpha   90.00000000
_cell_angle_beta   90.00000000
_cell_angle_gamma   120.00000999
_symmetry_Int_Tables_number   1
_chemical_formula_structural   Tb5HoMn6O18
_chemical_formula_sum   'Tb5 Ho1 Mn6 O18'
_cell_volume   390.44117131
_cell_formula_units_Z   1
loop_
 _symmetry_equiv_pos_site_id
 _symmetry_equiv_pos_as_xyz
  1  'x, y, z'
loop_
 _atom_site_type_symbol
 _atom_site_label
 _atom_site_symmetry_multiplicity
 _atom_site_fract_x
 _atom_site_fract_y
 _atom_site_fract_z
 _atom_site_occupancy
  Tb  Tb0  1  0.666667  0.333333  0.230530  1
  Tb  Tb1  1  0.333333  0.666667  0.730456  1
  Tb  Tb2  1  0.666667  0.333333  0.730456  1
  Tb  Tb3  1  0.333333  0.666667  0.230530  1
  Tb  Tb4  1  0.000000  0.000000  0.774179  1
  Ho  Ho5  1  0.000000  0.000000  0.274034  1
  Mn  Mn6  1  0.666984  0.000000  0.498900  1
  Mn  Mn7  1  0.667102  0.667102  0.999612  1
  Mn  Mn8  1  0.000000  0.332898  0.999612  1
  Mn  Mn9  1  0.000000  0.666984  0.498900  1
  Mn  Mn10  1  0.333016  0.333016  0.498900  1
  Mn  Mn11  1  0.332898  0.000000  0.999612  1
  O  O12  1  0.666667  0.333333  0.019883  1
  O  O13  1  0.333333  0.666667  0.519159  1
  O  O14  1  0.666667  0.333333  0.519159  1
  O  O15  1  0.333333  0.666667  0.019883  1
  O  O16  1  0.000000  0.000000  0.975358  1
  O  O17  1  0.000000  0.000000  0.474242  1
  O  O18  1  0.359128  0.000000  0.835690  1
  O  O19  1  0.356371  0.356371  0.334936  1
  O  O20  1  0.000000  0.643629  0.334936  1
  O  O21  1  0.000000  0.359128  0.835690  1
  O  O22  1  0.640872  0.640872  0.835690  1
  O  O23  1  0.643629  0.000000  0.334936  1
  O  O24  1  0.304599  0.000000  0.163864  1
  O  O25  1  0.306914  0.306914  0.663044  1
  O  O26  1  0.000000  0.693086  0.663044  1
  O  O27  1  0.000000  0.304599  0.163864  1
  O  O28  1  0.695401  0.695401  0.163864  1
  O  O29  1  0.693086  0.000000  0.663044  1
