# generated using pymatgen
data_Tb8Ge(PdPt2)8
_symmetry_space_group_name_H-M   'P 1'
_cell_length_a   8.35968604
_cell_length_b   8.37121800
_cell_length_c   8.39486604
_cell_angle_alpha   89.99800425
_cell_angle_beta   89.98882432
_cell_angle_gamma   89.99989032
_symmetry_Int_Tables_number   1
_chemical_formula_structural   Tb8Ge(PdPt2)8
_chemical_formula_sum   'Tb8 Ge1 Pd8 Pt16'
_cell_volume   587.47904595
_cell_formula_units_Z   1
loop_
 _symmetry_equiv_pos_site_id
 _symmetry_equiv_pos_as_xyz
  1  'x, y, z'
loop_
 _atom_site_type_symbol
 _atom_site_label
 _atom_site_symmetry_multiplicity
 _atom_site_fract_x
 _atom_site_fract_y
 _atom_site_fract_z
 _atom_site_occupancy
  Tb  Tb0  1  0.252780  0.252771  0.253507  1
  Tb  Tb1  1  0.746584  0.746268  0.746256  1
  Tb  Tb2  1  0.746649  0.746727  0.253780  1
  Tb  Tb3  1  0.747149  0.253586  0.746636  1
  Tb  Tb4  1  0.252832  0.253024  0.746491  1
  Tb  Tb5  1  0.253290  0.747077  0.253880  1
  Tb  Tb6  1  0.253384  0.746827  0.746123  1
  Tb  Tb7  1  0.747170  0.253126  0.253401  1
  Ge  Ge8  1  0.000297  0.001418  0.000342  1
  Pd  Pd9  1  0.500231  0.999960  0.740072  1
  Pd  Pd10  1  0.740596  0.999944  0.500174  1
  Pd  Pd11  1  0.999946  0.500157  0.259616  1
  Pd  Pd12  1  0.999962  0.500194  0.740420  1
  Pd  Pd13  1  0.500037  0.500000  0.746985  1
  Pd  Pd14  1  0.999924  0.711141  0.999795  1
  Pd  Pd15  1  0.999571  0.999621  0.290378  1
  Pd  Pd16  1  0.999614  0.999616  0.710089  1
  Pt  Pt17  1  0.259324  0.499749  0.000054  1
  Pt  Pt18  1  0.740776  0.499774  0.000012  1
  Pt  Pt19  1  0.000118  0.259468  0.500233  1
  Pt  Pt20  1  0.500049  0.259021  0.000079  1
  Pt  Pt21  1  0.000113  0.740069  0.500210  1
  Pt  Pt22  1  0.500044  0.739971  0.000082  1
  Pt  Pt23  1  0.500152  0.999952  0.259919  1
  Pt  Pt24  1  0.259389  0.999951  0.500068  1
  Pt  Pt25  1  0.252252  0.500059  0.500017  1
  Pt  Pt26  1  0.747700  0.500046  0.499990  1
  Pt  Pt27  1  0.499911  0.252823  0.499749  1
  Pt  Pt28  1  0.499932  0.747384  0.499805  1
  Pt  Pt29  1  0.500042  0.500009  0.252705  1
  Pt  Pt30  1  0.289123  0.999427  0.999625  1
  Pt  Pt31  1  0.711134  0.999456  0.999699  1
  Pt  Pt32  1  0.999926  0.291381  0.999808  1
