# generated using pymatgen
data_Ba4TeIr3O16
_symmetry_space_group_name_H-M   'P 1'
_cell_length_a   5.22140200
_cell_length_b   5.94746800
_cell_length_c   13.54728100
_cell_angle_alpha   90.00000000
_cell_angle_beta   90.00000000
_cell_angle_gamma   89.99774273
_symmetry_Int_Tables_number   1
_chemical_formula_structural   Ba4TeIr3O16
_chemical_formula_sum   'Ba4 Te1 Ir3 O16'
_cell_volume   420.69890751
_cell_formula_units_Z   1
loop_
 _symmetry_equiv_pos_site_id
 _symmetry_equiv_pos_as_xyz
  1  'x, y, z'
loop_
 _atom_site_type_symbol
 _atom_site_label
 _atom_site_symmetry_multiplicity
 _atom_site_fract_x
 _atom_site_fract_y
 _atom_site_fract_z
 _atom_site_occupancy
  Ba  Ba0  1  0.250000  0.000000  0.162068  1
  Ba  Ba1  1  0.750000  0.000000  0.837442  1
  Ba  Ba2  1  0.250000  0.500000  0.663335  1
  Ba  Ba3  1  0.750000  0.500000  0.337845  1
  Te  Te4  1  0.250000  0.500000  0.934329  1
  Ir  Ir5  1  0.250000  0.000000  0.433850  1
  Ir  Ir6  1  0.750000  0.000000  0.564750  1
  Ir  Ir7  1  0.750000  0.500000  0.065366  1
  O  O8  1  0.356737  0.207290  0.336972  1
  O  O9  1  0.854945  0.208205  0.660649  1
  O  O10  1  0.936767  0.168922  0.457392  1
  O  O11  1  0.436039  0.169919  0.540953  1
  O  O12  1  0.430784  0.323650  0.044763  1
  O  O13  1  0.933273  0.321445  0.958828  1
  O  O14  1  0.862589  0.296897  0.162986  1
  O  O15  1  0.357436  0.291076  0.837965  1
  O  O16  1  0.637411  0.703103  0.162986  1
  O  O17  1  0.142564  0.708924  0.837965  1
  O  O18  1  0.069216  0.676350  0.044763  1
  O  O19  1  0.566727  0.678555  0.958828  1
  O  O20  1  0.563233  0.831078  0.457392  1
  O  O21  1  0.063961  0.830081  0.540953  1
  O  O22  1  0.143263  0.792710  0.336972  1
  O  O23  1  0.645055  0.791795  0.660649  1
