# generated using pymatgen
data_Zr10BeSiBi5Pb
_symmetry_space_group_name_H-M   'P 1'
_cell_length_a   8.80764818
_cell_length_b   8.80319925
_cell_length_c   5.92773422
_cell_angle_alpha   90.03600164
_cell_angle_beta   89.98201471
_cell_angle_gamma   119.98329807
_symmetry_Int_Tables_number   1
_chemical_formula_structural   Zr10BeSiBi5Pb
_chemical_formula_sum   'Zr10 Be1 Si1 Bi5 Pb1'
_cell_volume   398.10059503
_cell_formula_units_Z   1
loop_
 _symmetry_equiv_pos_site_id
 _symmetry_equiv_pos_as_xyz
  1  'x, y, z'
loop_
 _atom_site_type_symbol
 _atom_site_label
 _atom_site_symmetry_multiplicity
 _atom_site_fract_x
 _atom_site_fract_y
 _atom_site_fract_z
 _atom_site_occupancy
  Zr  Zr0  1  0.666110  0.333280  0.501229  1
  Zr  Zr1  1  0.333890  0.667171  0.501229  1
  Zr  Zr2  1  0.333064  0.666552  0.998773  1
  Zr  Zr3  1  0.666936  0.333487  0.998773  1
  Zr  Zr4  1  0.749166  0.748968  0.255256  1
  Zr  Zr5  1  0.250834  0.999801  0.255256  1
  Zr  Zr6  1  0.000000  0.250556  0.254634  1
  Zr  Zr7  1  0.252322  0.252715  0.745179  1
  Zr  Zr8  1  0.747678  0.000393  0.745179  1
  Zr  Zr9  1  0.000000  0.748327  0.744905  1
  Be  Be10  1  0.000000  0.000454  0.499799  1
  Si  Si11  1  0.000000  0.000258  0.999816  1
  Bi  Bi12  1  0.392453  0.393104  0.249103  1
  Bi  Bi13  1  0.607547  0.000651  0.249103  1
  Bi  Bi14  1  0.000000  0.604666  0.249801  1
  Bi  Bi15  1  0.608100  0.608315  0.750851  1
  Bi  Bi16  1  0.391900  0.000215  0.750851  1
  Pb  Pb17  1  0.000000  0.391086  0.750265  1
