# generated using pymatgen
data_Sm3MnGaCo9B4
_symmetry_space_group_name_H-M   'P 1'
_cell_length_a   5.16498500
_cell_length_b   5.16498456
_cell_length_c   9.65077600
_cell_angle_alpha   90.00000000
_cell_angle_beta   90.00000000
_cell_angle_gamma   119.99999642
_symmetry_Int_Tables_number   1
_chemical_formula_structural   Sm3MnGaCo9B4
_chemical_formula_sum   'Sm3 Mn1 Ga1 Co9 B4'
_cell_volume   222.96206346
_cell_formula_units_Z   1
loop_
 _symmetry_equiv_pos_site_id
 _symmetry_equiv_pos_as_xyz
  1  'x, y, z'
loop_
 _atom_site_type_symbol
 _atom_site_label
 _atom_site_symmetry_multiplicity
 _atom_site_fract_x
 _atom_site_fract_y
 _atom_site_fract_z
 _atom_site_occupancy
  Sm  Sm0  1  0.000000  0.000000  0.000000  1
  Sm  Sm1  1  0.000000  0.000000  0.658787  1
  Sm  Sm2  1  0.000000  0.000000  0.341213  1
  Mn  Mn3  1  0.666667  0.333333  0.000000  1
  Ga  Ga4  1  0.333333  0.666667  0.000000  1
  Co  Co5  1  0.500222  0.499778  0.500000  1
  Co  Co6  1  0.500222  0.000445  0.500000  1
  Co  Co7  1  0.999555  0.499778  0.500000  1
  Co  Co8  1  0.500519  0.499481  0.791628  1
  Co  Co9  1  0.500519  0.001039  0.791628  1
  Co  Co10  1  0.998961  0.499481  0.791628  1
  Co  Co11  1  0.500519  0.499481  0.208372  1
  Co  Co12  1  0.500519  0.001039  0.208372  1
  Co  Co13  1  0.998961  0.499481  0.208372  1
  B  B14  1  0.666667  0.333333  0.650011  1
  B  B15  1  0.333333  0.666667  0.649607  1
  B  B16  1  0.333333  0.666667  0.350393  1
  B  B17  1  0.666667  0.333333  0.349989  1
