# generated using pymatgen
data_DyEr9Os4
_symmetry_space_group_name_H-M   'P 1'
_cell_length_a   6.30460570
_cell_length_b   7.32570239
_cell_length_c   8.36501573
_cell_angle_alpha   96.93427459
_cell_angle_beta   112.17044621
_cell_angle_gamma   90.04145912
_symmetry_Int_Tables_number   1
_chemical_formula_structural   DyEr9Os4
_chemical_formula_sum   'Dy1 Er9 Os4'
_cell_volume   354.71216131
_cell_formula_units_Z   1
loop_
 _symmetry_equiv_pos_site_id
 _symmetry_equiv_pos_as_xyz
  1  'x, y, z'
loop_
 _atom_site_type_symbol
 _atom_site_label
 _atom_site_symmetry_multiplicity
 _atom_site_fract_x
 _atom_site_fract_y
 _atom_site_fract_z
 _atom_site_occupancy
  Dy  Dy0  1  0.792089  0.583876  0.815888  1
  Er  Er1  1  0.976396  0.915959  0.183897  1
  Er  Er2  1  0.207736  0.415863  0.184070  1
  Er  Er3  1  0.023914  0.084057  0.816336  1
  Er  Er4  1  0.203632  0.683590  0.564252  1
  Er  Er5  1  0.639784  0.816499  0.435646  1
  Er  Er6  1  0.795987  0.316250  0.435373  1
  Er  Er7  1  0.360114  0.183593  0.564225  1
  Er  Er8  1  0.420380  0.750020  0.000108  1
  Er  Er9  1  0.579549  0.249989  0.000100  1
  Os  Os10  1  0.602109  0.923454  0.780099  1
  Os  Os11  1  0.822221  0.577307  0.219967  1
  Os  Os12  1  0.397568  0.077018  0.219822  1
  Os  Os13  1  0.178520  0.422523  0.780214  1
