# generated using pymatgen
data_Cs4Cd(SnAu3)2
_symmetry_space_group_name_H-M   'P 1'
_cell_length_a   11.05474878
_cell_length_b   11.05474913
_cell_length_c   11.05474853
_cell_angle_alpha   37.54226328
_cell_angle_beta   37.54226090
_cell_angle_gamma   37.54226467
_symmetry_Int_Tables_number   1
_chemical_formula_structural   Cs4Cd(SnAu3)2
_chemical_formula_sum   'Cs4 Cd1 Sn2 Au6'
_cell_volume   449.90033917
_cell_formula_units_Z   1
loop_
 _symmetry_equiv_pos_site_id
 _symmetry_equiv_pos_as_xyz
  1  'x, y, z'
loop_
 _atom_site_type_symbol
 _atom_site_label
 _atom_site_symmetry_multiplicity
 _atom_site_fract_x
 _atom_site_fract_y
 _atom_site_fract_z
 _atom_site_occupancy
  Cs  Cs0  1  0.812282  0.812282  0.812282  1
  Cs  Cs1  1  0.685503  0.685503  0.685503  1
  Cs  Cs2  1  0.314497  0.314497  0.314497  1
  Cs  Cs3  1  0.187718  0.187718  0.187718  1
  Cd  Cd4  1  0.000000  0.000000  0.000000  1
  Sn  Sn5  1  0.446700  0.446700  0.446700  1
  Sn  Sn6  1  0.553300  0.553300  0.553300  1
  Au  Au7  1  0.789039  0.789039  0.188066  1
  Au  Au8  1  0.210961  0.811934  0.210961  1
  Au  Au9  1  0.789039  0.188066  0.789039  1
  Au  Au10  1  0.811934  0.210961  0.210961  1
  Au  Au11  1  0.188066  0.789039  0.789039  1
  Au  Au12  1  0.210961  0.210961  0.811934  1
