# generated using pymatgen
data_Dy15Tm(LuSn4)4
_symmetry_space_group_name_H-M   'P 1'
_cell_length_a   8.00892124
_cell_length_b   8.16523999
_cell_length_c   15.46986200
_cell_angle_alpha   90.02602619
_cell_angle_beta   89.95714757
_cell_angle_gamma   90.05779071
_symmetry_Int_Tables_number   1
_chemical_formula_structural   Dy15Tm(LuSn4)4
_chemical_formula_sum   'Dy15 Tm1 Lu4 Sn16'
_cell_volume   1011.64707319
_cell_formula_units_Z   1
loop_
 _symmetry_equiv_pos_site_id
 _symmetry_equiv_pos_as_xyz
  1  'x, y, z'
loop_
 _atom_site_type_symbol
 _atom_site_label
 _atom_site_symmetry_multiplicity
 _atom_site_fract_x
 _atom_site_fract_y
 _atom_site_fract_z
 _atom_site_occupancy
  Dy  Dy0  1  0.865278  0.662248  0.623223  1
  Dy  Dy1  1  0.634457  0.162100  0.377417  1
  Dy  Dy2  1  0.135528  0.337751  0.121357  1
  Dy  Dy3  1  0.634474  0.162719  0.122814  1
  Dy  Dy4  1  0.134300  0.337367  0.377455  1
  Dy  Dy5  1  0.365801  0.837653  0.622946  1
  Dy  Dy6  1  0.865807  0.662206  0.877902  1
  Dy  Dy7  1  0.518810  0.320384  0.903552  1
  Dy  Dy8  1  0.019953  0.179021  0.597301  1
  Dy  Dy9  1  0.480762  0.679540  0.403634  1
  Dy  Dy10  1  0.980187  0.820566  0.096480  1
  Dy  Dy11  1  0.481418  0.680274  0.095349  1
  Dy  Dy12  1  0.980746  0.820626  0.403262  1
  Dy  Dy13  1  0.519367  0.320798  0.597266  1
  Dy  Dy14  1  0.018788  0.178471  0.903118  1
  Tm  Tm15  1  0.364531  0.838467  0.876130  1
  Lu  Lu16  1  0.197253  0.503502  0.750577  1
  Lu  Lu17  1  0.696291  0.996520  0.750352  1
  Lu  Lu18  1  0.803664  0.496709  0.250103  1
  Lu  Lu19  1  0.303360  0.003001  0.249478  1
  Sn  Sn20  1  0.294557  0.036035  0.041064  1
  Sn  Sn21  1  0.793984  0.463543  0.458190  1
  Sn  Sn22  1  0.707082  0.963111  0.542545  1
  Sn  Sn23  1  0.207160  0.538848  0.957219  1
  Sn  Sn24  1  0.702579  0.962455  0.957508  1
  Sn  Sn25  1  0.205726  0.536384  0.542527  1
  Sn  Sn26  1  0.293776  0.036410  0.457895  1
  Sn  Sn27  1  0.794243  0.463222  0.042353  1
  Sn  Sn28  1  0.561593  0.618661  0.750512  1
  Sn  Sn29  1  0.061857  0.881824  0.750681  1
  Sn  Sn30  1  0.438210  0.382339  0.249911  1
  Sn  Sn31  1  0.938564  0.118237  0.249551  1
  Sn  Sn32  1  0.329155  0.149971  0.750460  1
  Sn  Sn33  1  0.828959  0.349547  0.750415  1
  Sn  Sn34  1  0.670857  0.849423  0.249771  1
  Sn  Sn35  1  0.170923  0.650070  0.249685  1
