# generated using pymatgen
data_NaLa4(FeP)10
_symmetry_space_group_name_H-M   'P 1'
_cell_length_a   8.51565800
_cell_length_b   8.11208815
_cell_length_c   8.51565800
_cell_angle_alpha   58.34019842
_cell_angle_beta   90.00000000
_cell_angle_gamma   58.34019842
_symmetry_Int_Tables_number   1
_chemical_formula_structural   NaLa4(FeP)10
_chemical_formula_sum   'Na1 La4 Fe10 P10'
_cell_volume   394.18372882
_cell_formula_units_Z   1
loop_
 _symmetry_equiv_pos_site_id
 _symmetry_equiv_pos_as_xyz
  1  'x, y, z'
loop_
 _atom_site_type_symbol
 _atom_site_label
 _atom_site_symmetry_multiplicity
 _atom_site_fract_x
 _atom_site_fract_y
 _atom_site_fract_z
 _atom_site_occupancy
  Na  Na0  1  0.000000  0.000000  0.000000  1
  La  La1  1  0.197227  0.000000  0.605016  1
  La  La2  1  0.394984  0.000000  0.197227  1
  La  La3  1  0.605016  0.000000  0.802773  1
  La  La4  1  0.802773  0.000000  0.394984  1
  Fe  Fe5  1  0.948986  0.500499  0.849232  1
  Fe  Fe6  1  0.150768  0.499501  0.449485  1
  Fe  Fe7  1  0.349731  0.499501  0.051014  1
  Fe  Fe8  1  0.550515  0.500499  0.650269  1
  Fe  Fe9  1  0.750000  0.500000  0.250000  1
  Fe  Fe10  1  0.849232  0.500499  0.550515  1
  Fe  Fe11  1  0.051014  0.499501  0.150768  1
  Fe  Fe12  1  0.250000  0.500000  0.750000  1
  Fe  Fe13  1  0.449485  0.499501  0.349731  1
  Fe  Fe14  1  0.650269  0.500499  0.948986  1
  P  P15  1  0.151353  0.298767  0.750206  1
  P  P16  1  0.351666  0.296669  0.351666  1
  P  P17  1  0.549880  0.298767  0.951026  1
  P  P18  1  0.750206  0.298767  0.549880  1
  P  P19  1  0.951026  0.298767  0.151353  1
  P  P20  1  0.648334  0.703331  0.648334  1
  P  P21  1  0.848647  0.701233  0.249794  1
  P  P22  1  0.048973  0.701233  0.848647  1
  P  P23  1  0.249794  0.701233  0.450120  1
  P  P24  1  0.450120  0.701233  0.048973  1
