# generated using pymatgen
data_Sr6Er2MnNiO12
_symmetry_space_group_name_H-M   'P 1'
_cell_length_a   6.81892284
_cell_length_b   6.81892152
_cell_length_c   6.81892297
_cell_angle_alpha   92.47168135
_cell_angle_beta   92.47168521
_cell_angle_gamma   92.47167636
_symmetry_Int_Tables_number   1
_chemical_formula_structural   Sr6Er2MnNiO12
_chemical_formula_sum   'Sr6 Er2 Mn1 Ni1 O12'
_cell_volume   316.15297078
_cell_formula_units_Z   1
loop_
 _symmetry_equiv_pos_site_id
 _symmetry_equiv_pos_as_xyz
  1  'x, y, z'
loop_
 _atom_site_type_symbol
 _atom_site_label
 _atom_site_symmetry_multiplicity
 _atom_site_fract_x
 _atom_site_fract_y
 _atom_site_fract_z
 _atom_site_occupancy
  Sr  Sr0  1  0.746296  0.386250  0.122728  1
  Sr  Sr1  1  0.613749  0.877272  0.253705  1
  Sr  Sr2  1  0.122727  0.746296  0.386250  1
  Sr  Sr3  1  0.877273  0.253704  0.613749  1
  Sr  Sr4  1  0.386250  0.122728  0.746295  1
  Sr  Sr5  1  0.253704  0.613750  0.877272  1
  Er  Er6  1  0.256293  0.256293  0.256293  1
  Er  Er7  1  0.743707  0.743707  0.743707  1
  Mn  Mn8  1  0.000000  0.000000  0.000000  1
  Ni  Ni9  1  0.500000  0.500000  0.500000  1
  O  O10  1  0.918264  0.723954  0.040359  1
  O  O11  1  0.276045  0.959640  0.081737  1
  O  O12  1  0.401335  0.543781  0.203778  1
  O  O13  1  0.959641  0.081736  0.276045  1
  O  O14  1  0.543781  0.203778  0.401335  1
  O  O15  1  0.796222  0.598665  0.456219  1
  O  O16  1  0.203778  0.401335  0.543780  1
  O  O17  1  0.456220  0.796221  0.598665  1
  O  O18  1  0.040359  0.918264  0.723954  1
  O  O19  1  0.598665  0.456219  0.796222  1
  O  O20  1  0.723954  0.040360  0.918263  1
  O  O21  1  0.081736  0.276046  0.959640  1
