# generated using pymatgen
data_Zr2Al2PtAu
_symmetry_space_group_name_H-M   'P 1'
_cell_length_a   6.83420500
_cell_length_b   6.83420599
_cell_length_c   8.20584700
_cell_angle_alpha   90.00000000
_cell_angle_beta   90.00000000
_cell_angle_gamma   120.00000004
_symmetry_Int_Tables_number   1
_chemical_formula_structural   Zr2Al2PtAu
_chemical_formula_sum   'Zr6 Al6 Pt3 Au3'
_cell_volume   331.91747139
_cell_formula_units_Z   3
loop_
 _symmetry_equiv_pos_site_id
 _symmetry_equiv_pos_as_xyz
  1  'x, y, z'
loop_
 _atom_site_type_symbol
 _atom_site_label
 _atom_site_symmetry_multiplicity
 _atom_site_fract_x
 _atom_site_fract_y
 _atom_site_fract_z
 _atom_site_occupancy
  Zr  Zr0  1  0.004805  0.590868  0.754331  1
  Zr  Zr1  1  0.003866  0.590239  0.245607  1
  Zr  Zr2  1  0.586373  0.996134  0.245607  1
  Zr  Zr3  1  0.586062  0.995195  0.754331  1
  Zr  Zr4  1  0.409761  0.413627  0.245607  1
  Zr  Zr5  1  0.409132  0.413938  0.754331  1
  Al  Al6  1  0.998382  0.244158  0.500057  1
  Al  Al7  1  0.751601  0.756993  0.000220  1
  Al  Al8  1  0.005391  0.248399  0.000220  1
  Al  Al9  1  0.245776  0.001618  0.500057  1
  Al  Al10  1  0.243007  0.994609  0.000220  1
  Al  Al11  1  0.755842  0.754224  0.500057  1
  Pt  Pt12  1  0.000000  0.000000  0.249588  1
  Pt  Pt13  1  0.000000  0.000000  0.750625  1
  Pt  Pt14  1  0.333333  0.666667  0.000549  1
  Au  Au15  1  0.333333  0.666667  0.499409  1
  Au  Au16  1  0.666667  0.333333  0.500347  1
  Au  Au17  1  0.666667  0.333333  0.998835  1
