# generated using pymatgen
data_Tb8Ho4CuNi4Sn
_symmetry_space_group_name_H-M   'P 1'
_cell_length_a   8.35262411
_cell_length_b   8.35262336
_cell_length_c   8.35262437
_cell_angle_alpha   112.55909867
_cell_angle_beta   109.22562114
_cell_angle_gamma   106.68292204
_symmetry_Int_Tables_number   1
_chemical_formula_structural   Tb8Ho4CuNi4Sn
_chemical_formula_sum   'Tb8 Ho4 Cu1 Ni4 Sn1'
_cell_volume   447.39591547
_cell_formula_units_Z   1
loop_
 _symmetry_equiv_pos_site_id
 _symmetry_equiv_pos_as_xyz
  1  'x, y, z'
loop_
 _atom_site_type_symbol
 _atom_site_label
 _atom_site_symmetry_multiplicity
 _atom_site_fract_x
 _atom_site_fract_y
 _atom_site_fract_z
 _atom_site_occupancy
  Tb  Tb0  1  0.412788  0.218328  0.194458  1
  Tb  Tb1  1  0.587212  0.781672  0.805542  1
  Tb  Tb2  1  0.023869  0.218328  0.805542  1
  Tb  Tb3  1  0.976131  0.781672  0.194458  1
  Tb  Tb4  1  0.180230  0.294538  0.474768  1
  Tb  Tb5  1  0.819770  0.705462  0.525232  1
  Tb  Tb6  1  0.180230  0.705462  0.885692  1
  Tb  Tb7  1  0.819770  0.294538  0.114308  1
  Ho  Ho8  1  0.324228  0.632160  0.307933  1
  Ho  Ho9  1  0.675772  0.367840  0.692067  1
  Ho  Ho10  1  0.324228  0.016294  0.692067  1
  Ho  Ho11  1  0.675772  0.983706  0.307933  1
  Cu  Cu12  1  0.000000  0.000000  0.000000  1
  Ni  Ni13  1  0.360048  0.000000  0.360048  1
  Ni  Ni14  1  0.639952  0.000000  0.639952  1
  Ni  Ni15  1  0.126558  0.626558  0.500000  1
  Ni  Ni16  1  0.873442  0.373442  0.500000  1
  Sn  Sn17  1  0.500000  0.500000  0.000000  1
