# generated using pymatgen
data_Nd4DyOs2
_symmetry_space_group_name_H-M   'P 1'
_cell_length_a   8.73791673
_cell_length_b   8.73791580
_cell_length_c   7.42274505
_cell_angle_alpha   83.57338457
_cell_angle_beta   83.57338517
_cell_angle_gamma   44.42940475
_symmetry_Int_Tables_number   1
_chemical_formula_structural   Nd4DyOs2
_chemical_formula_sum   'Nd8 Dy2 Os4'
_cell_volume   393.82131683
_cell_formula_units_Z   2
loop_
 _symmetry_equiv_pos_site_id
 _symmetry_equiv_pos_as_xyz
  1  'x, y, z'
loop_
 _atom_site_type_symbol
 _atom_site_label
 _atom_site_symmetry_multiplicity
 _atom_site_fract_x
 _atom_site_fract_y
 _atom_site_fract_z
 _atom_site_occupancy
  Nd  Nd0  1  0.206052  0.975201  0.583765  1
  Nd  Nd1  1  0.024799  0.793948  0.916235  1
  Nd  Nd2  1  0.206720  0.360957  0.315406  1
  Nd  Nd3  1  0.639043  0.793280  0.184594  1
  Nd  Nd4  1  0.793280  0.639043  0.684594  1
  Nd  Nd5  1  0.360957  0.206720  0.815406  1
  Nd  Nd6  1  0.975201  0.206052  0.083765  1
  Nd  Nd7  1  0.793948  0.024799  0.416235  1
  Dy  Dy8  1  0.571308  0.428692  0.750000  1
  Dy  Dy9  1  0.428692  0.571308  0.250000  1
  Os  Os10  1  0.183344  0.601937  0.573582  1
  Os  Os11  1  0.398063  0.816656  0.926418  1
  Os  Os12  1  0.816656  0.398063  0.426418  1
  Os  Os13  1  0.601937  0.183344  0.073582  1
