# generated using pymatgen
data_TbHoEr2(OsC2)2
_symmetry_space_group_name_H-M   'P 1'
_cell_length_a   5.11170500
_cell_length_b   6.43987491
_cell_length_c   9.73306064
_cell_angle_alpha   90.16867397
_cell_angle_beta   90.00000000
_cell_angle_gamma   90.00000000
_symmetry_Int_Tables_number   1
_chemical_formula_structural   TbHoEr2(OsC2)2
_chemical_formula_sum   'Tb2 Ho2 Er4 Os4 C8'
_cell_volume   320.39871195
_cell_formula_units_Z   2
loop_
 _symmetry_equiv_pos_site_id
 _symmetry_equiv_pos_as_xyz
  1  'x, y, z'
loop_
 _atom_site_type_symbol
 _atom_site_label
 _atom_site_symmetry_multiplicity
 _atom_site_fract_x
 _atom_site_fract_y
 _atom_site_fract_z
 _atom_site_occupancy
  Tb  Tb0  1  0.250000  0.527080  0.216701  1
  Tb  Tb1  1  0.750000  0.472920  0.783299  1
  Ho  Ho2  1  0.750000  0.973137  0.718078  1
  Ho  Ho3  1  0.250000  0.026863  0.281922  1
  Er  Er4  1  0.250000  0.680601  0.552995  1
  Er  Er5  1  0.750000  0.319399  0.447005  1
  Er  Er6  1  0.750000  0.819585  0.053083  1
  Er  Er7  1  0.250000  0.180415  0.946917  1
  Os  Os8  1  0.250000  0.724720  0.866084  1
  Os  Os9  1  0.750000  0.275280  0.133916  1
  Os  Os10  1  0.750000  0.776413  0.365980  1
  Os  Os11  1  0.250000  0.223587  0.634020  1
  C  C12  1  0.250000  0.459275  0.758252  1
  C  C13  1  0.750000  0.540725  0.241748  1
  C  C14  1  0.750000  0.040956  0.258635  1
  C  C15  1  0.250000  0.959044  0.741365  1
  C  C16  1  0.250000  0.830077  0.053954  1
  C  C17  1  0.750000  0.169923  0.946046  1
  C  C18  1  0.750000  0.673725  0.553813  1
  C  C19  1  0.250000  0.326275  0.446187  1
