# generated using pymatgen
data_CaFe2(P2O7)2
_symmetry_space_group_name_H-M   'P 1'
_cell_length_a   4.85919438
_cell_length_b   7.12385271
_cell_length_c   7.95296916
_cell_angle_alpha   89.38040397
_cell_angle_beta   87.36694396
_cell_angle_gamma   72.52954408
_symmetry_Int_Tables_number   1
_chemical_formula_structural   CaFe2(P2O7)2
_chemical_formula_sum   'Ca1 Fe2 P4 O14'
_cell_volume   262.32378544
_cell_formula_units_Z   1
loop_
 _symmetry_equiv_pos_site_id
 _symmetry_equiv_pos_as_xyz
  1  'x, y, z'
loop_
 _atom_site_type_symbol
 _atom_site_label
 _atom_site_symmetry_multiplicity
 _atom_site_fract_x
 _atom_site_fract_y
 _atom_site_fract_z
 _atom_site_occupancy
  Ca  Ca0  1  0.500000  0.000000  0.000000  1
  Fe  Fe1  1  0.000000  0.500000  0.000000  1
  Fe  Fe2  1  0.500000  0.000000  0.500000  1
  P  P3  1  0.114141  0.777650  0.290671  1
  P  P4  1  0.885859  0.222350  0.709329  1
  P  P5  1  0.466617  0.622348  0.756380  1
  P  P6  1  0.533383  0.377652  0.243620  1
  O  O7  1  0.994993  0.768243  0.113266  1
  O  O8  1  0.005007  0.231757  0.886734  1
  O  O9  1  0.681181  0.092616  0.720395  1
  O  O10  1  0.318819  0.907384  0.279605  1
  O  O11  1  0.409964  0.799866  0.643136  1
  O  O12  1  0.590036  0.200134  0.356864  1
  O  O13  1  0.192681  0.567055  0.797512  1
  O  O14  1  0.807319  0.432945  0.202488  1
  O  O15  1  0.389652  0.335868  0.082767  1
  O  O16  1  0.610348  0.664132  0.917233  1
  O  O17  1  0.883847  0.826294  0.430894  1
  O  O18  1  0.116153  0.173706  0.569106  1
  O  O19  1  0.695943  0.443095  0.659999  1
  O  O20  1  0.304057  0.556905  0.340001  1
