# generated using pymatgen
data_Ce3Ho(RuC4)2
_symmetry_space_group_name_H-M   'P 1'
_cell_length_a   5.34524980
_cell_length_b   6.70892926
_cell_length_c   6.81160666
_cell_angle_alpha   70.42945028
_cell_angle_beta   66.89837172
_cell_angle_gamma   66.52377797
_symmetry_Int_Tables_number   1
_chemical_formula_structural   Ce3Ho(RuC4)2
_chemical_formula_sum   'Ce3 Ho1 Ru2 C8'
_cell_volume   201.41047433
_cell_formula_units_Z   1
loop_
 _symmetry_equiv_pos_site_id
 _symmetry_equiv_pos_as_xyz
  1  'x, y, z'
loop_
 _atom_site_type_symbol
 _atom_site_label
 _atom_site_symmetry_multiplicity
 _atom_site_fract_x
 _atom_site_fract_y
 _atom_site_fract_z
 _atom_site_occupancy
  Ce  Ce0  1  0.150898  0.498165  0.200037  1
  Ce  Ce1  1  0.846968  0.504629  0.801437  1
  Ce  Ce2  1  0.651440  0.194672  0.502448  1
  Ho  Ho3  1  0.355296  0.794559  0.494850  1
  Ru  Ru4  1  0.247557  0.002938  0.000957  1
  Ru  Ru5  1  0.748548  0.002938  0.000957  1
  C  C6  1  0.375397  0.471218  0.777987  1
  C  C7  1  0.620057  0.536524  0.223363  1
  C  C8  1  0.876484  0.784810  0.462222  1
  C  C9  1  0.128436  0.207086  0.536043  1
  C  C10  1  0.423478  0.256899  0.896143  1
  C  C11  1  0.571607  0.751399  0.105388  1
  C  C12  1  0.924237  0.902379  0.249145  1
  C  C13  1  0.079597  0.091785  0.749021  1
