# generated using pymatgen
data_TbCe3(BRu)16
_symmetry_space_group_name_H-M   'P 1'
_cell_length_a   9.25772501
_cell_length_b   7.50955186
_cell_length_c   7.50955261
_cell_angle_alpha   89.88769201
_cell_angle_beta   113.97750888
_cell_angle_gamma   113.97750980
_symmetry_Int_Tables_number   1
_chemical_formula_structural   TbCe3(BRu)16
_chemical_formula_sum   'Tb1 Ce3 B16 Ru16'
_cell_volume   427.45023640
_cell_formula_units_Z   1
loop_
 _symmetry_equiv_pos_site_id
 _symmetry_equiv_pos_as_xyz
  1  'x, y, z'
loop_
 _atom_site_type_symbol
 _atom_site_label
 _atom_site_symmetry_multiplicity
 _atom_site_fract_x
 _atom_site_fract_y
 _atom_site_fract_z
 _atom_site_occupancy
  Tb  Tb0  1  0.249999  0.125000  0.875000  1
  Ce  Ce1  1  0.750000  0.874999  0.124999  1
  Ce  Ce2  1  0.249999  0.624999  0.375000  1
  Ce  Ce3  1  0.750000  0.375000  0.625000  1
  B  B4  1  0.914415  0.288918  0.065478  1
  B  B5  1  0.414586  0.565821  0.124836  1
  B  B6  1  0.085414  0.210251  0.151236  1
  B  B7  1  0.584174  0.149863  0.209484  1
  B  B8  1  0.413398  0.064779  0.287856  1
  B  B9  1  0.914415  0.625497  0.348936  1
  B  B10  1  0.585585  0.651063  0.374504  1
  B  B11  1  0.085414  0.875164  0.434179  1
  B  B12  1  0.915826  0.125310  0.565690  1
  B  B13  1  0.413398  0.348619  0.625542  1
  B  B14  1  0.086602  0.374458  0.651381  1
  B  B15  1  0.585585  0.934521  0.711081  1
  B  B16  1  0.414586  0.848764  0.789749  1
  B  B17  1  0.915826  0.790516  0.850138  1
  B  B18  1  0.584174  0.434310  0.874689  1
  B  B19  1  0.086602  0.712144  0.935221  1
  Ru  Ru20  1  0.872423  0.550446  0.036614  1
  Ru  Ru21  1  0.372623  0.833238  0.050576  1
  Ru  Ru22  1  0.127377  0.949424  0.166762  1
  Ru  Ru23  1  0.627336  0.462658  0.177932  1
  Ru  Ru24  1  0.373425  0.336062  0.322166  1
  Ru  Ru25  1  0.872423  0.321977  0.335810  1
  Ru  Ru26  1  0.627577  0.963387  0.449554  1
  Ru  Ru27  1  0.127377  0.177954  0.460615  1
  Ru  Ru28  1  0.872664  0.822069  0.537341  1
  Ru  Ru29  1  0.373425  0.037363  0.551258  1
  Ru  Ru30  1  0.126575  0.677834  0.663938  1
  Ru  Ru31  1  0.627577  0.664191  0.678022  1
  Ru  Ru32  1  0.372623  0.539385  0.822046  1
  Ru  Ru33  1  0.872664  0.050595  0.835322  1
  Ru  Ru34  1  0.627336  0.164679  0.949404  1
  Ru  Ru35  1  0.126575  0.448742  0.962637  1
