# generated using pymatgen
data_KFe6Se7
_symmetry_space_group_name_H-M   'P 1'
_cell_length_a   9.34451689
_cell_length_b   9.34451740
_cell_length_c   9.34451641
_cell_angle_alpha   59.55329259
_cell_angle_beta   59.55329028
_cell_angle_gamma   59.55329316
_symmetry_Int_Tables_number   1
_chemical_formula_structural   KFe6Se7
_chemical_formula_sum   'K2 Fe12 Se14'
_cell_volume   571.11333144
_cell_formula_units_Z   2
loop_
 _symmetry_equiv_pos_site_id
 _symmetry_equiv_pos_as_xyz
  1  'x, y, z'
loop_
 _atom_site_type_symbol
 _atom_site_label
 _atom_site_symmetry_multiplicity
 _atom_site_fract_x
 _atom_site_fract_y
 _atom_site_fract_z
 _atom_site_occupancy
  K  K0  1  0.374014  0.374014  0.374014  1
  K  K1  1  0.625986  0.625986  0.625986  1
  Fe  Fe2  1  0.307267  0.119901  0.988725  1
  Fe  Fe3  1  0.198403  0.880111  0.060137  1
  Fe  Fe4  1  0.880111  0.060137  0.198403  1
  Fe  Fe5  1  0.939863  0.801597  0.119889  1
  Fe  Fe6  1  0.801597  0.119889  0.939863  1
  Fe  Fe7  1  0.119889  0.939863  0.801597  1
  Fe  Fe8  1  0.988725  0.307267  0.119901  1
  Fe  Fe9  1  0.880099  0.011275  0.692733  1
  Fe  Fe10  1  0.119901  0.988725  0.307267  1
  Fe  Fe11  1  0.011275  0.692733  0.880099  1
  Fe  Fe12  1  0.692733  0.880099  0.011275  1
  Fe  Fe13  1  0.060137  0.198403  0.880111  1
  Se  Se14  1  0.983214  0.237546  0.639516  1
  Se  Se15  1  0.237546  0.639516  0.983214  1
  Se  Se16  1  0.639516  0.983214  0.237546  1
  Se  Se17  1  0.016786  0.762454  0.360484  1
  Se  Se18  1  0.762454  0.360484  0.016786  1
  Se  Se19  1  0.360484  0.016786  0.762454  1
  Se  Se20  1  0.172053  0.412349  0.811567  1
  Se  Se21  1  0.412349  0.811567  0.172053  1
  Se  Se22  1  0.811567  0.172053  0.412349  1
  Se  Se23  1  0.827947  0.587651  0.188433  1
  Se  Se24  1  0.587651  0.188433  0.827947  1
  Se  Se25  1  0.188433  0.827947  0.587651  1
  Se  Se26  1  0.782037  0.782037  0.782037  1
  Se  Se27  1  0.217963  0.217963  0.217963  1
