# generated using pymatgen
data_Cs2Ta2OF10
_symmetry_space_group_name_H-M   'P 1'
_cell_length_a   5.45249500
_cell_length_b   7.68943080
_cell_length_c   14.35788611
_cell_angle_alpha   80.11751936
_cell_angle_beta   90.00000000
_cell_angle_gamma   90.00000000
_symmetry_Int_Tables_number   1
_chemical_formula_structural   Cs2Ta2OF10
_chemical_formula_sum   'Cs4 Ta4 O2 F20'
_cell_volume   593.04487781
_cell_formula_units_Z   2
loop_
 _symmetry_equiv_pos_site_id
 _symmetry_equiv_pos_as_xyz
  1  'x, y, z'
loop_
 _atom_site_type_symbol
 _atom_site_label
 _atom_site_symmetry_multiplicity
 _atom_site_fract_x
 _atom_site_fract_y
 _atom_site_fract_z
 _atom_site_occupancy
  Cs  Cs0  1  0.416871  0.231310  0.592523  1
  Cs  Cs1  1  0.583129  0.231310  0.092523  1
  Cs  Cs2  1  0.583129  0.768690  0.407477  1
  Cs  Cs3  1  0.416871  0.768690  0.907477  1
  Ta  Ta4  1  0.017069  0.291149  0.335803  1
  Ta  Ta5  1  0.982931  0.291149  0.835803  1
  Ta  Ta6  1  0.017069  0.708851  0.164197  1
  Ta  Ta7  1  0.982931  0.708851  0.664197  1
  O  O8  1  0.089815  0.500000  0.750000  1
  O  O9  1  0.910185  0.500000  0.250000  1
  F  F10  1  0.728901  0.847262  0.182096  1
  F  F11  1  0.695204  0.583724  0.631970  1
  F  F12  1  0.164568  0.792092  0.270860  1
  F  F13  1  0.837945  0.086982  0.917365  1
  F  F14  1  0.304796  0.416276  0.368030  1
  F  F15  1  0.162055  0.913018  0.082635  1
  F  F16  1  0.164568  0.207908  0.229140  1
  F  F17  1  0.271099  0.847262  0.682096  1
  F  F18  1  0.835432  0.207908  0.729140  1
  F  F19  1  0.695204  0.416276  0.868030  1
  F  F20  1  0.162055  0.086982  0.417365  1
  F  F21  1  0.150659  0.358760  0.943729  1
  F  F22  1  0.271099  0.152738  0.817904  1
  F  F23  1  0.849341  0.641240  0.056271  1
  F  F24  1  0.835432  0.792092  0.770860  1
  F  F25  1  0.728901  0.152738  0.317904  1
  F  F26  1  0.837945  0.913018  0.582635  1
  F  F27  1  0.849341  0.358760  0.443729  1
  F  F28  1  0.304796  0.583724  0.131970  1
  F  F29  1  0.150659  0.641240  0.556271  1
