# generated using pymatgen
data_Zr3Sc4NbOs8
_symmetry_space_group_name_H-M   'P 1'
_cell_length_a   6.47078900
_cell_length_b   4.58527700
_cell_length_c   9.18191400
_cell_angle_alpha   90.00000000
_cell_angle_beta   89.99945457
_cell_angle_gamma   90.00000000
_symmetry_Int_Tables_number   1
_chemical_formula_structural   Zr3Sc4NbOs8
_chemical_formula_sum   'Zr3 Sc4 Nb1 Os8'
_cell_volume   272.43069362
_cell_formula_units_Z   1
loop_
 _symmetry_equiv_pos_site_id
 _symmetry_equiv_pos_as_xyz
  1  'x, y, z'
loop_
 _atom_site_type_symbol
 _atom_site_label
 _atom_site_symmetry_multiplicity
 _atom_site_fract_x
 _atom_site_fract_y
 _atom_site_fract_z
 _atom_site_occupancy
  Zr  Zr0  1  0.250003  0.250001  0.124593  1
  Zr  Zr1  1  0.750002  0.749999  0.374994  1
  Zr  Zr2  1  0.249995  0.250001  0.625416  1
  Sc  Sc3  1  0.750002  0.250001  0.124470  1
  Sc  Sc4  1  0.250004  0.749999  0.375003  1
  Sc  Sc5  1  0.749997  0.250001  0.625531  1
  Sc  Sc6  1  0.249995  0.749999  0.875007  1
  Nb  Nb7  1  0.749999  0.749999  0.875016  1
  Os  Os8  1  0.503245  0.749999  0.119940  1
  Os  Os9  1  0.996761  0.749999  0.119942  1
  Os  Os10  1  0.500320  0.250001  0.374995  1
  Os  Os11  1  0.999676  0.250001  0.374991  1
  Os  Os12  1  0.996780  0.749999  0.630051  1
  Os  Os13  1  0.503221  0.749999  0.630051  1
  Os  Os14  1  0.992401  0.250001  0.875001  1
  Os  Os15  1  0.507600  0.250001  0.875001  1
