# generated using pymatgen
data_Ga3Sb9Pt4
_symmetry_space_group_name_H-M   'P 1'
_cell_length_a   8.12015445
_cell_length_b   8.12015305
_cell_length_c   9.33889014
_cell_angle_alpha   55.09892912
_cell_angle_beta   55.09893584
_cell_angle_gamma   69.73533155
_symmetry_Int_Tables_number   1
_chemical_formula_structural   Ga3Sb9Pt4
_chemical_formula_sum   'Ga3 Sb9 Pt4'
_cell_volume   414.02628868
_cell_formula_units_Z   1
loop_
 _symmetry_equiv_pos_site_id
 _symmetry_equiv_pos_as_xyz
  1  'x, y, z'
loop_
 _atom_site_type_symbol
 _atom_site_label
 _atom_site_symmetry_multiplicity
 _atom_site_fract_x
 _atom_site_fract_y
 _atom_site_fract_z
 _atom_site_occupancy
  Ga  Ga0  1  0.294453  0.294453  0.851333  1
  Ga  Ga1  1  0.662974  0.662974  0.191353  1
  Ga  Ga2  1  0.699241  0.699241  0.432069  1
  Sb  Sb3  1  0.360369  0.360369  0.504543  1
  Sb  Sb4  1  0.184981  0.506966  0.153065  1
  Sb  Sb5  1  0.808199  0.491442  0.849923  1
  Sb  Sb6  1  0.506966  0.184981  0.153065  1
  Sb  Sb7  1  0.491442  0.808199  0.849923  1
  Sb  Sb8  1  0.836729  0.160169  0.663381  1
  Sb  Sb9  1  0.158631  0.842085  0.342605  1
  Sb  Sb10  1  0.842085  0.158631  0.342605  1
  Sb  Sb11  1  0.160169  0.836729  0.663381  1
  Pt  Pt12  1  0.998102  0.497509  0.001090  1
  Pt  Pt13  1  0.497509  0.998102  0.001090  1
  Pt  Pt14  1  0.994866  0.503283  0.500288  1
  Pt  Pt15  1  0.503283  0.994866  0.500288  1
