# generated using pymatgen
data_Y8InAgIr2
_symmetry_space_group_name_H-M   'P 1'
_cell_length_a   9.64238353
_cell_length_b   9.66656294
_cell_length_c   9.64238334
_cell_angle_alpha   59.91701764
_cell_angle_beta   59.92135902
_cell_angle_gamma   59.91701958
_symmetry_Int_Tables_number   1
_chemical_formula_structural   Y8InAgIr2
_chemical_formula_sum   'Y16 In2 Ag2 Ir4'
_cell_volume   634.33969645
_cell_formula_units_Z   2
loop_
 _symmetry_equiv_pos_site_id
 _symmetry_equiv_pos_as_xyz
  1  'x, y, z'
loop_
 _atom_site_type_symbol
 _atom_site_label
 _atom_site_symmetry_multiplicity
 _atom_site_fract_x
 _atom_site_fract_y
 _atom_site_fract_z
 _atom_site_occupancy
  Y  Y0  1  0.810256  0.189744  0.810256  1
  Y  Y1  1  0.935696  0.562668  0.559973  1
  Y  Y2  1  0.559893  0.940107  0.559893  1
  Y  Y3  1  0.809057  0.192278  0.189661  1
  Y  Y4  1  0.193156  0.806844  0.193156  1
  Y  Y5  1  0.349977  0.949612  0.349977  1
  Y  Y6  1  0.935696  0.941662  0.559973  1
  Y  Y7  1  0.559973  0.941662  0.935696  1
  Y  Y8  1  0.189661  0.809004  0.809057  1
  Y  Y9  1  0.350646  0.349915  0.949525  1
  Y  Y10  1  0.559973  0.562668  0.935696  1
  Y  Y11  1  0.349977  0.350436  0.349977  1
  Y  Y12  1  0.189661  0.192278  0.809057  1
  Y  Y13  1  0.809057  0.809004  0.189661  1
  Y  Y14  1  0.937119  0.562881  0.937119  1
  Y  Y15  1  0.949525  0.349915  0.350646  1
  In  In16  1  0.584079  0.579297  0.257329  1
  In  In17  1  0.257329  0.579297  0.584079  1
  Ag  Ag18  1  0.583190  0.581714  0.583190  1
  Ag  Ag19  1  0.583190  0.251908  0.583190  1
  Ir  Ir20  1  0.142264  0.141144  0.575449  1
  Ir  Ir21  1  0.575449  0.141144  0.142264  1
  Ir  Ir22  1  0.142590  0.575292  0.142590  1
  Ir  Ir23  1  0.142590  0.139529  0.142590  1
