# generated using pymatgen
data_Er15Th(ZnNi)4
_symmetry_space_group_name_H-M   'P 1'
_cell_length_a   9.37819371
_cell_length_b   9.37819272
_cell_length_c   9.37819300
_cell_angle_alpha   60.10229811
_cell_angle_beta   60.10230864
_cell_angle_gamma   60.10229329
_symmetry_Int_Tables_number   1
_chemical_formula_structural   Er15Th(ZnNi)4
_chemical_formula_sum   'Er15 Th1 Zn4 Ni4'
_cell_volume   584.58545474
_cell_formula_units_Z   1
loop_
 _symmetry_equiv_pos_site_id
 _symmetry_equiv_pos_as_xyz
  1  'x, y, z'
loop_
 _atom_site_type_symbol
 _atom_site_label
 _atom_site_symmetry_multiplicity
 _atom_site_fract_x
 _atom_site_fract_y
 _atom_site_fract_z
 _atom_site_occupancy
  Er  Er0  1  0.603319  0.603319  0.189705  1
  Er  Er1  1  0.603319  0.189705  0.603319  1
  Er  Er2  1  0.189705  0.603319  0.603319  1
  Er  Er3  1  0.060938  0.439623  0.439623  1
  Er  Er4  1  0.442805  0.058436  0.058436  1
  Er  Er5  1  0.439623  0.060938  0.439623  1
  Er  Er6  1  0.058436  0.442805  0.058436  1
  Er  Er7  1  0.439623  0.439623  0.060938  1
  Er  Er8  1  0.058436  0.058436  0.442805  1
  Er  Er9  1  0.186156  0.815303  0.815303  1
  Er  Er10  1  0.814808  0.185792  0.185792  1
  Er  Er11  1  0.815303  0.186156  0.815303  1
  Er  Er12  1  0.185792  0.814808  0.185792  1
  Er  Er13  1  0.815303  0.815303  0.186156  1
  Er  Er14  1  0.185792  0.185792  0.814808  1
  Th  Th15  1  0.599993  0.599993  0.599993  1
  Zn  Zn16  1  0.829266  0.829266  0.829266  1
  Zn  Zn17  1  0.830676  0.830676  0.509456  1
  Zn  Zn18  1  0.830676  0.509456  0.830676  1
  Zn  Zn19  1  0.509456  0.830676  0.830676  1
  Ni  Ni20  1  0.394131  0.394131  0.394131  1
  Ni  Ni21  1  0.393263  0.393263  0.819919  1
  Ni  Ni22  1  0.393263  0.819919  0.393263  1
  Ni  Ni23  1  0.819919  0.393263  0.393263  1
