# generated using pymatgen
data_Nd2FeNiC4
_symmetry_space_group_name_H-M   'P 1'
_cell_length_a   3.81035704
_cell_length_b   3.81289699
_cell_length_c   7.43358889
_cell_angle_alpha   98.17845145
_cell_angle_beta   98.46373638
_cell_angle_gamma   90.04697021
_symmetry_Int_Tables_number   1
_chemical_formula_structural   Nd2FeNiC4
_chemical_formula_sum   'Nd2 Fe1 Ni1 C4'
_cell_volume   105.71017429
_cell_formula_units_Z   1
loop_
 _symmetry_equiv_pos_site_id
 _symmetry_equiv_pos_as_xyz
  1  'x, y, z'
loop_
 _atom_site_type_symbol
 _atom_site_label
 _atom_site_symmetry_multiplicity
 _atom_site_fract_x
 _atom_site_fract_y
 _atom_site_fract_z
 _atom_site_occupancy
  Nd  Nd0  1  0.929117  0.071705  0.504045  1
  Nd  Nd1  1  0.076640  0.924233  0.996292  1
  Fe  Fe2  1  0.490037  0.626636  0.694660  1
  Ni  Ni3  1  0.629673  0.482145  0.193539  1
  C  C4  1  0.150293  0.513784  0.275428  1
  C  C5  1  0.392323  0.560716  0.433050  1
  C  C6  1  0.510197  0.142117  0.773571  1
  C  C7  1  0.554722  0.411671  0.923213  1
