# generated using pymatgen
data_ErScTcB6
_symmetry_space_group_name_H-M   'P 1'
_cell_length_a   3.56857900
_cell_length_b   8.98188700
_cell_length_c   11.34203400
_cell_angle_alpha   90.00000000
_cell_angle_beta   90.00000000
_cell_angle_gamma   90.00000000
_symmetry_Int_Tables_number   1
_chemical_formula_structural   ErScTcB6
_chemical_formula_sum   'Er4 Sc4 Tc4 B24'
_cell_volume   363.54137648
_cell_formula_units_Z   4
loop_
 _symmetry_equiv_pos_site_id
 _symmetry_equiv_pos_as_xyz
  1  'x, y, z'
loop_
 _atom_site_type_symbol
 _atom_site_label
 _atom_site_symmetry_multiplicity
 _atom_site_fract_x
 _atom_site_fract_y
 _atom_site_fract_z
 _atom_site_occupancy
  Er  Er0  1  0.500000  0.322307  0.413985  1
  Er  Er1  1  0.500000  0.677693  0.586015  1
  Er  Er2  1  0.500000  0.177693  0.913985  1
  Er  Er3  1  0.500000  0.822307  0.086015  1
  Sc  Sc4  1  0.500000  0.444145  0.129785  1
  Sc  Sc5  1  0.500000  0.555855  0.870215  1
  Sc  Sc6  1  0.500000  0.055855  0.629785  1
  Sc  Sc7  1  0.500000  0.944145  0.370215  1
  Tc  Tc8  1  0.500000  0.140815  0.181612  1
  Tc  Tc9  1  0.500000  0.859185  0.818388  1
  Tc  Tc10  1  0.500000  0.359185  0.681612  1
  Tc  Tc11  1  0.500000  0.640815  0.318388  1
  B  B12  1  0.000000  0.096437  0.473608  1
  B  B13  1  0.000000  0.903563  0.526392  1
  B  B14  1  0.000000  0.403563  0.973608  1
  B  B15  1  0.000000  0.596437  0.026392  1
  B  B16  1  0.000000  0.129890  0.317156  1
  B  B17  1  0.000000  0.870110  0.682844  1
  B  B18  1  0.000000  0.370110  0.817156  1
  B  B19  1  0.000000  0.629890  0.182844  1
  B  B20  1  0.000000  0.054044  0.067228  1
  B  B21  1  0.000000  0.945956  0.932772  1
  B  B22  1  0.000000  0.445956  0.567228  1
  B  B23  1  0.000000  0.554044  0.432772  1
  B  B24  1  0.000000  0.481579  0.286221  1
  B  B25  1  0.000000  0.518421  0.713779  1
  B  B26  1  0.000000  0.018421  0.786221  1
  B  B27  1  0.000000  0.981579  0.213779  1
  B  B28  1  0.000000  0.253996  0.081041  1
  B  B29  1  0.000000  0.746004  0.918959  1
  B  B30  1  0.000000  0.246004  0.581041  1
  B  B31  1  0.000000  0.753996  0.418959  1
  B  B32  1  0.000000  0.295657  0.235116  1
  B  B33  1  0.000000  0.704343  0.764884  1
  B  B34  1  0.000000  0.204343  0.735116  1
  B  B35  1  0.000000  0.795657  0.264884  1
