# generated using pymatgen
data_K2Sr3Si3O10
_symmetry_space_group_name_H-M   'P 1'
_cell_length_a   7.73496279
_cell_length_b   7.73496295
_cell_length_c   10.19423862
_cell_angle_alpha   71.30282303
_cell_angle_beta   71.30281931
_cell_angle_gamma   92.01729775
_symmetry_Int_Tables_number   1
_chemical_formula_structural   K2Sr3Si3O10
_chemical_formula_sum   'K4 Sr6 Si6 O20'
_cell_volume   540.73276736
_cell_formula_units_Z   2
loop_
 _symmetry_equiv_pos_site_id
 _symmetry_equiv_pos_as_xyz
  1  'x, y, z'
loop_
 _atom_site_type_symbol
 _atom_site_label
 _atom_site_symmetry_multiplicity
 _atom_site_fract_x
 _atom_site_fract_y
 _atom_site_fract_z
 _atom_site_occupancy
  K  K0  1  0.219260  0.467766  0.518992  1
  K  K1  1  0.532234  0.780740  0.981008  1
  K  K2  1  0.780740  0.532234  0.481008  1
  K  K3  1  0.467766  0.219260  0.018992  1
  Sr  Sr4  1  0.376827  0.623173  0.750000  1
  Sr  Sr5  1  0.623173  0.376827  0.250000  1
  Sr  Sr6  1  0.224025  0.989620  0.519656  1
  Sr  Sr7  1  0.010380  0.775975  0.980344  1
  Sr  Sr8  1  0.775975  0.010380  0.480344  1
  Sr  Sr9  1  0.989620  0.224025  0.019656  1
  Si  Si10  1  0.573590  0.850863  0.291136  1
  Si  Si11  1  0.149137  0.426410  0.208864  1
  Si  Si12  1  0.426410  0.149137  0.708864  1
  Si  Si13  1  0.850863  0.573590  0.791136  1
  Si  Si14  1  0.167242  0.832758  0.250000  1
  Si  Si15  1  0.832758  0.167242  0.750000  1
  O  O16  1  0.702948  0.683804  0.726204  1
  O  O17  1  0.316196  0.297052  0.773796  1
  O  O18  1  0.297052  0.316196  0.273796  1
  O  O19  1  0.683804  0.702948  0.226204  1
  O  O20  1  0.127223  0.613463  0.261884  1
  O  O21  1  0.386537  0.872777  0.238116  1
  O  O22  1  0.872777  0.386537  0.738116  1
  O  O23  1  0.613463  0.127223  0.761884  1
  O  O24  1  0.495831  0.777867  0.474467  1
  O  O25  1  0.222133  0.504169  0.025533  1
  O  O26  1  0.504169  0.222133  0.525533  1
  O  O27  1  0.777867  0.495831  0.974467  1
  O  O28  1  0.060437  0.685473  0.732812  1
  O  O29  1  0.314527  0.939563  0.767188  1
  O  O30  1  0.939563  0.314527  0.267188  1
  O  O31  1  0.685473  0.060437  0.232812  1
  O  O32  1  0.149741  0.964247  0.097363  1
  O  O33  1  0.035753  0.850259  0.402637  1
  O  O34  1  0.850259  0.035753  0.902637  1
  O  O35  1  0.964247  0.149741  0.597363  1
