# generated using pymatgen
data_Hf9ReNiMo3
_symmetry_space_group_name_H-M   'P 1'
_cell_length_a   8.65919200
_cell_length_b   8.65919146
_cell_length_c   8.48465200
_cell_angle_alpha   90.00000000
_cell_angle_beta   90.00000000
_cell_angle_gamma   119.83476600
_symmetry_Int_Tables_number   1
_chemical_formula_structural   Hf9ReNiMo3
_chemical_formula_sum   'Hf18 Re2 Ni2 Mo6'
_cell_volume   551.87418016
_cell_formula_units_Z   2
loop_
 _symmetry_equiv_pos_site_id
 _symmetry_equiv_pos_as_xyz
  1  'x, y, z'
loop_
 _atom_site_type_symbol
 _atom_site_label
 _atom_site_symmetry_multiplicity
 _atom_site_fract_x
 _atom_site_fract_y
 _atom_site_fract_z
 _atom_site_occupancy
  Hf  Hf0  1  0.200321  0.799679  0.443591  1
  Hf  Hf1  1  0.199627  0.399417  0.444466  1
  Hf  Hf2  1  0.600583  0.800373  0.444466  1
  Hf  Hf3  1  0.800866  0.199134  0.559010  1
  Hf  Hf4  1  0.800091  0.600948  0.557566  1
  Hf  Hf5  1  0.399052  0.199909  0.557566  1
  Hf  Hf6  1  0.800866  0.199134  0.940990  1
  Hf  Hf7  1  0.800091  0.600948  0.942434  1
  Hf  Hf8  1  0.399052  0.199909  0.942434  1
  Hf  Hf9  1  0.200321  0.799679  0.056409  1
  Hf  Hf10  1  0.199627  0.399417  0.055534  1
  Hf  Hf11  1  0.600583  0.800373  0.055534  1
  Hf  Hf12  1  0.542117  0.457883  0.250000  1
  Hf  Hf13  1  0.542874  0.084431  0.250000  1
  Hf  Hf14  1  0.915569  0.457126  0.250000  1
  Hf  Hf15  1  0.457711  0.542289  0.750000  1
  Hf  Hf16  1  0.458590  0.915393  0.750000  1
  Hf  Hf17  1  0.084607  0.541410  0.750000  1
  Re  Re18  1  0.111052  0.224567  0.750000  1
  Re  Re19  1  0.775433  0.888948  0.750000  1
  Ni  Ni20  1  0.334040  0.665960  0.250000  1
  Ni  Ni21  1  0.666594  0.333406  0.750000  1
  Mo  Mo22  1  0.888237  0.111763  0.250000  1
  Mo  Mo23  1  0.887806  0.775762  0.250000  1
  Mo  Mo24  1  0.224238  0.112194  0.250000  1
  Mo  Mo25  1  0.110431  0.889569  0.750000  1
  Mo  Mo26  1  0.999812  0.000188  0.499670  1
  Mo  Mo27  1  0.999812  0.000188  0.000330  1
