# generated using pymatgen
data_Nd8Cd2CuRu
_symmetry_space_group_name_H-M   'P 1'
_cell_length_a   9.94836013
_cell_length_b   9.94835941
_cell_length_c   10.02300900
_cell_angle_alpha   59.75146400
_cell_angle_beta   59.75146643
_cell_angle_gamma   59.58909734
_symmetry_Int_Tables_number   1
_chemical_formula_structural   Nd8Cd2CuRu
_chemical_formula_sum   'Nd16 Cd4 Cu2 Ru2'
_cell_volume   696.60675734
_cell_formula_units_Z   2
loop_
 _symmetry_equiv_pos_site_id
 _symmetry_equiv_pos_as_xyz
  1  'x, y, z'
loop_
 _atom_site_type_symbol
 _atom_site_label
 _atom_site_symmetry_multiplicity
 _atom_site_fract_x
 _atom_site_fract_y
 _atom_site_fract_z
 _atom_site_occupancy
  Nd  Nd0  1  0.347770  0.347770  0.356564  1
  Nd  Nd1  1  0.347770  0.347770  0.947897  1
  Nd  Nd2  1  0.345137  0.957774  0.348545  1
  Nd  Nd3  1  0.957774  0.345137  0.348545  1
  Nd  Nd4  1  0.815963  0.188485  0.191871  1
  Nd  Nd5  1  0.188485  0.815963  0.803681  1
  Nd  Nd6  1  0.188485  0.815963  0.191871  1
  Nd  Nd7  1  0.815963  0.188485  0.803681  1
  Nd  Nd8  1  0.189212  0.189212  0.810788  1
  Nd  Nd9  1  0.806916  0.806916  0.193084  1
  Nd  Nd10  1  0.935316  0.558562  0.567871  1
  Nd  Nd11  1  0.558562  0.935316  0.938251  1
  Nd  Nd12  1  0.558562  0.935316  0.567871  1
  Nd  Nd13  1  0.935316  0.558562  0.938251  1
  Nd  Nd14  1  0.563104  0.563104  0.936896  1
  Nd  Nd15  1  0.937291  0.937291  0.562709  1
  Cd  Cd16  1  0.579636  0.579636  0.579552  1
  Cd  Cd17  1  0.579636  0.579636  0.261176  1
  Cd  Cd18  1  0.580918  0.259080  0.580001  1
  Cd  Cd19  1  0.259080  0.580918  0.580001  1
  Cu  Cu20  1  0.147680  0.573034  0.139643  1
  Cu  Cu21  1  0.573034  0.147680  0.139643  1
  Ru  Ru22  1  0.144196  0.144196  0.137035  1
  Ru  Ru23  1  0.144196  0.144196  0.574573  1
