# generated using pymatgen
data_Sr2Ho2Cu3Sb8
_symmetry_space_group_name_H-M   'P 1'
_cell_length_a   11.00360469
_cell_length_b   11.00360370
_cell_length_c   11.01225900
_cell_angle_alpha   147.09085351
_cell_angle_beta   147.09084549
_cell_angle_gamma   47.12613094
_symmetry_Int_Tables_number   1
_chemical_formula_structural   Sr2Ho2Cu3Sb8
_chemical_formula_sum   'Sr2 Ho2 Cu3 Sb8'
_cell_volume   392.23561645
_cell_formula_units_Z   1
loop_
 _symmetry_equiv_pos_site_id
 _symmetry_equiv_pos_as_xyz
  1  'x, y, z'
loop_
 _atom_site_type_symbol
 _atom_site_label
 _atom_site_symmetry_multiplicity
 _atom_site_fract_x
 _atom_site_fract_y
 _atom_site_fract_z
 _atom_site_occupancy
  Sr  Sr0  1  0.632218  0.632218  0.508173  1
  Sr  Sr1  1  0.124043  0.124043  0.491827  1
  Ho  Ho2  1  0.363794  0.866316  0.000000  1
  Ho  Ho3  1  0.866316  0.363794  0.000000  1
  Cu  Cu4  1  0.004718  0.004718  0.000000  1
  Cu  Cu5  1  0.006416  0.506416  0.500000  1
  Cu  Cu6  1  0.506416  0.006416  0.500000  1
  Sb  Sb7  1  0.331500  0.331500  0.507436  1
  Sb  Sb8  1  0.824064  0.824064  0.492564  1
  Sb  Sb9  1  0.682282  0.200666  0.000000  1
  Sb  Sb10  1  0.200666  0.682282  0.000000  1
  Sb  Sb11  1  0.240358  0.240358  0.000000  1
  Sb  Sb12  1  0.739854  0.739854  0.000000  1
  Sb  Sb13  1  0.738677  0.238677  0.500000  1
  Sb  Sb14  1  0.238677  0.738677  0.500000  1
