# generated using pymatgen
data_HoLu3Tc4F28
_symmetry_space_group_name_H-M   'P 1'
_cell_length_a   5.53442065
_cell_length_b   8.81764027
_cell_length_c   11.93362700
_cell_angle_alpha   62.73586689
_cell_angle_beta   90.02770362
_cell_angle_gamma   90.00073478
_symmetry_Int_Tables_number   1
_chemical_formula_structural   HoLu3Tc4F28
_chemical_formula_sum   'Ho1 Lu3 Tc4 F28'
_cell_volume   517.66867118
_cell_formula_units_Z   1
loop_
 _symmetry_equiv_pos_site_id
 _symmetry_equiv_pos_as_xyz
  1  'x, y, z'
loop_
 _atom_site_type_symbol
 _atom_site_label
 _atom_site_symmetry_multiplicity
 _atom_site_fract_x
 _atom_site_fract_y
 _atom_site_fract_z
 _atom_site_occupancy
  Ho  Ho0  1  0.741353  0.815632  0.264483  1
  Lu  Lu1  1  0.758756  0.816006  0.764144  1
  Lu  Lu2  1  0.258842  0.184240  0.735961  1
  Lu  Lu3  1  0.240609  0.186524  0.235621  1
  Tc  Tc4  1  0.758930  0.274284  0.955943  1
  Tc  Tc5  1  0.258304  0.726598  0.544812  1
  Tc  Tc6  1  0.242002  0.726612  0.041745  1
  Tc  Tc7  1  0.741333  0.271461  0.457490  1
  F  F8  1  0.445015  0.706373  0.915112  1
  F  F9  1  0.945125  0.292830  0.583650  1
  F  F10  1  0.555620  0.293923  0.082897  1
  F  F11  1  0.057511  0.705835  0.417517  1
  F  F12  1  0.442759  0.274007  0.548184  1
  F  F13  1  0.941689  0.725402  0.951737  1
  F  F14  1  0.556605  0.723732  0.455214  1
  F  F15  1  0.057375  0.275378  0.047258  1
  F  F16  1  0.775645  0.524497  0.857974  1
  F  F17  1  0.274762  0.475877  0.642307  1
  F  F18  1  0.224491  0.476185  0.141001  1
  F  F19  1  0.723614  0.520982  0.359250  1
  F  F20  1  0.755714  0.025648  0.052493  1
  F  F21  1  0.255774  0.975158  0.446614  1
  F  F22  1  0.244825  0.975516  0.945280  1
  F  F23  1  0.744432  0.022842  0.554754  1
  F  F24  1  0.970870  0.729033  0.641102  1
  F  F25  1  0.472288  0.271128  0.859103  1
  F  F26  1  0.028329  0.271035  0.360081  1
  F  F27  1  0.529051  0.727467  0.138112  1
  F  F28  1  0.047925  0.746706  0.173165  1
  F  F29  1  0.542870  0.251178  0.326533  1
  F  F30  1  0.957714  0.252503  0.825751  1
  F  F31  1  0.456636  0.747979  0.674996  1
  F  F32  1  0.415955  0.974838  0.232217  1
  F  F33  1  0.922771  0.032376  0.267437  1
  F  F34  1  0.577277  0.027251  0.767034  1
  F  F35  1  0.077230  0.972962  0.733029  1
