# generated using pymatgen
data_Lu12Mn2ReBi2
_symmetry_space_group_name_H-M   'P 1'
_cell_length_a   8.28568275
_cell_length_b   8.28568217
_cell_length_c   8.28568100
_cell_angle_alpha   108.38135497
_cell_angle_beta   108.38136091
_cell_angle_gamma   111.67365021
_symmetry_Int_Tables_number   1
_chemical_formula_structural   Lu12Mn2ReBi2
_chemical_formula_sum   'Lu12 Mn2 Re1 Bi2'
_cell_volume   437.40050427
_cell_formula_units_Z   1
loop_
 _symmetry_equiv_pos_site_id
 _symmetry_equiv_pos_as_xyz
  1  'x, y, z'
loop_
 _atom_site_type_symbol
 _atom_site_label
 _atom_site_symmetry_multiplicity
 _atom_site_fract_x
 _atom_site_fract_y
 _atom_site_fract_z
 _atom_site_occupancy
  Lu  Lu0  1  0.309288  0.309236  0.618520  1
  Lu  Lu1  1  0.690712  0.690764  0.381480  1
  Lu  Lu2  1  0.690716  0.309236  0.999948  1
  Lu  Lu3  1  0.309284  0.690764  0.000052  1
  Lu  Lu4  1  0.195031  0.427061  0.232029  1
  Lu  Lu5  1  0.804969  0.572939  0.767971  1
  Lu  Lu6  1  0.195032  0.963011  0.767978  1
  Lu  Lu7  1  0.963042  0.195026  0.768017  1
  Lu  Lu8  1  0.804968  0.036989  0.232022  1
  Lu  Lu9  1  0.036958  0.804974  0.231983  1
  Lu  Lu10  1  0.427009  0.195026  0.231985  1
  Lu  Lu11  1  0.572991  0.804974  0.768015  1
  Mn  Mn12  1  0.386130  0.386134  0.000004  1
  Mn  Mn13  1  0.613870  0.613866  0.999996  1
  Re  Re14  1  0.000000  0.000000  0.000000  1
  Bi  Bi15  1  0.000000  0.500000  0.500000  1
  Bi  Bi16  1  0.500000  0.000000  0.500000  1
