# generated using pymatgen
data_Dy6Tm3LuIn8
_symmetry_space_group_name_H-M   'P 1'
_cell_length_a   9.24645400
_cell_length_b   9.24645395
_cell_length_c   6.64443700
_cell_angle_alpha   90.00000000
_cell_angle_beta   90.00000000
_cell_angle_gamma   120.00000018
_symmetry_Int_Tables_number   1
_chemical_formula_structural   Dy6Tm3LuIn8
_chemical_formula_sum   'Dy6 Tm3 Lu1 In8'
_cell_volume   491.97070547
_cell_formula_units_Z   1
loop_
 _symmetry_equiv_pos_site_id
 _symmetry_equiv_pos_as_xyz
  1  'x, y, z'
loop_
 _atom_site_type_symbol
 _atom_site_label
 _atom_site_symmetry_multiplicity
 _atom_site_fract_x
 _atom_site_fract_y
 _atom_site_fract_z
 _atom_site_occupancy
  Dy  Dy0  1  0.289484  0.999950  0.750038  1
  Dy  Dy1  1  0.710466  0.999950  0.249962  1
  Dy  Dy2  1  0.000050  0.289534  0.750038  1
  Dy  Dy3  1  0.000050  0.710516  0.249962  1
  Dy  Dy4  1  0.710466  0.710516  0.750038  1
  Dy  Dy5  1  0.289484  0.289534  0.249962  1
  Tm  Tm6  1  0.333333  0.666667  0.500000  1
  Tm  Tm7  1  0.666667  0.333333  0.500000  1
  Tm  Tm8  1  0.666667  0.333333  0.000000  1
  Lu  Lu9  1  0.333333  0.666667  0.000000  1
  In  In10  1  0.000000  0.000000  0.500000  1
  In  In11  1  0.000000  0.000000  0.000000  1
  In  In12  1  0.627023  0.999925  0.750036  1
  In  In13  1  0.372903  0.999925  0.249964  1
  In  In14  1  0.000075  0.627097  0.750036  1
  In  In15  1  0.000075  0.372977  0.249964  1
  In  In16  1  0.372903  0.372977  0.750036  1
  In  In17  1  0.627023  0.627097  0.249964  1
