# generated using pymatgen
data_NaPr6RhBr12
_symmetry_space_group_name_H-M   'P 1'
_cell_length_a   9.64566341
_cell_length_b   9.64090885
_cell_length_c   9.64271249
_cell_angle_alpha   107.29975462
_cell_angle_beta   107.33594203
_cell_angle_gamma   107.33044490
_symmetry_Int_Tables_number   1
_chemical_formula_structural   NaPr6RhBr12
_chemical_formula_sum   'Na1 Pr6 Rh1 Br12'
_cell_volume   740.12537431
_cell_formula_units_Z   1
loop_
 _symmetry_equiv_pos_site_id
 _symmetry_equiv_pos_as_xyz
  1  'x, y, z'
loop_
 _atom_site_type_symbol
 _atom_site_label
 _atom_site_symmetry_multiplicity
 _atom_site_fract_x
 _atom_site_fract_y
 _atom_site_fract_z
 _atom_site_occupancy
  Na  Na0  1  0.500000  0.500000  0.500000  1
  Pr  Pr1  1  0.112446  0.322104  0.031904  1
  Pr  Pr2  1  0.322324  0.031913  0.112439  1
  Pr  Pr3  1  0.031816  0.112478  0.322186  1
  Pr  Pr4  1  0.968185  0.887522  0.677815  1
  Pr  Pr5  1  0.677676  0.968088  0.887561  1
  Pr  Pr6  1  0.887554  0.677896  0.968096  1
  Rh  Rh7  1  0.000000  0.000000  0.000000  1
  Br  Br8  1  0.218060  0.684974  0.072716  1
  Br  Br9  1  0.453689  0.373260  0.157027  1
  Br  Br10  1  0.684937  0.072681  0.218007  1
  Br  Br11  1  0.927293  0.782000  0.315016  1
  Br  Br12  1  0.157065  0.453721  0.373296  1
  Br  Br13  1  0.373252  0.157032  0.453694  1
  Br  Br14  1  0.626748  0.842968  0.546307  1
  Br  Br15  1  0.842936  0.546279  0.626704  1
  Br  Br16  1  0.072708  0.218000  0.684985  1
  Br  Br17  1  0.315064  0.927320  0.781993  1
  Br  Br18  1  0.546311  0.626740  0.842974  1
  Br  Br19  1  0.781940  0.315026  0.927284  1
