# generated using pymatgen
data_Ho4Al24NiPd8
_symmetry_space_group_name_H-M   'P 1'
_cell_length_a   7.51766373
_cell_length_b   7.51907374
_cell_length_c   13.13219455
_cell_angle_alpha   84.36444403
_cell_angle_beta   78.98414625
_cell_angle_gamma   60.11872834
_symmetry_Int_Tables_number   1
_chemical_formula_structural   Ho4Al24NiPd8
_chemical_formula_sum   'Ho4 Al24 Ni1 Pd8'
_cell_volume   631.76275236
_cell_formula_units_Z   1
loop_
 _symmetry_equiv_pos_site_id
 _symmetry_equiv_pos_as_xyz
  1  'x, y, z'
loop_
 _atom_site_type_symbol
 _atom_site_label
 _atom_site_symmetry_multiplicity
 _atom_site_fract_x
 _atom_site_fract_y
 _atom_site_fract_z
 _atom_site_occupancy
  Ho  Ho0  1  0.395141  0.165962  0.809149  1
  Ho  Ho1  1  0.604859  0.834038  0.190851  1
  Ho  Ho2  1  0.730986  0.497522  0.809321  1
  Ho  Ho3  1  0.269014  0.502478  0.190679  1
  Al  Al4  1  0.689539  0.826791  0.946538  1
  Al  Al5  1  0.310461  0.173209  0.053462  1
  Al  Al6  1  0.145866  0.833509  0.561520  1
  Al  Al7  1  0.854134  0.166491  0.438480  1
  Al  Al8  1  0.478905  0.167315  0.559362  1
  Al  Al9  1  0.521095  0.832685  0.440638  1
  Al  Al10  1  0.216371  0.166294  0.328994  1
  Al  Al11  1  0.783629  0.833706  0.671006  1
  Al  Al12  1  0.435377  0.506805  0.671089  1
  Al  Al13  1  0.564623  0.493195  0.328911  1
  Al  Al14  1  0.108699  0.159405  0.670285  1
  Al  Al15  1  0.891301  0.840595  0.329715  1
  Al  Al16  1  0.346354  0.498388  0.946656  1
  Al  Al17  1  0.653646  0.501612  0.053344  1
  Al  Al18  1  0.014565  0.174833  0.956203  1
  Al  Al19  1  0.985435  0.825167  0.043797  1
  Al  Al20  1  0.186928  0.498982  0.440766  1
  Al  Al21  1  0.813072  0.501018  0.559234  1
  Al  Al22  1  0.735607  0.165143  0.182938  1
  Al  Al23  1  0.264393  0.834857  0.817062  1
  Al  Al24  1  0.059765  0.623807  0.819669  1
  Al  Al25  1  0.940235  0.376193  0.180331  1
  Al  Al26  1  0.856297  0.039317  0.817098  1
  Al  Al27  1  0.143703  0.960683  0.182902  1
  Ni  Ni28  1  0.000000  0.500000  0.000000  1
  Pd  Pd29  1  0.118696  0.492907  0.639436  1
  Pd  Pd30  1  0.881304  0.507093  0.360564  1
  Pd  Pd31  1  0.657590  0.170937  0.000124  1
  Pd  Pd32  1  0.342410  0.829063  0.999876  1
  Pd  Pd33  1  0.537887  0.166667  0.361432  1
  Pd  Pd34  1  0.462113  0.833333  0.638568  1
  Pd  Pd35  1  0.777290  0.175824  0.638505  1
  Pd  Pd36  1  0.222710  0.824176  0.361495  1
