# generated using pymatgen
data_PuSeO6
_symmetry_space_group_name_H-M   'P 1'
_cell_length_a   5.77158100
_cell_length_b   6.97410601
_cell_length_c   13.45453736
_cell_angle_alpha   76.45919168
_cell_angle_beta   90.00000000
_cell_angle_gamma   90.00000000
_symmetry_Int_Tables_number   1
_chemical_formula_structural   PuSeO6
_chemical_formula_sum   'Pu4 Se4 O24'
_cell_volume   526.51317892
_cell_formula_units_Z   4
loop_
 _symmetry_equiv_pos_site_id
 _symmetry_equiv_pos_as_xyz
  1  'x, y, z'
loop_
 _atom_site_type_symbol
 _atom_site_label
 _atom_site_symmetry_multiplicity
 _atom_site_fract_x
 _atom_site_fract_y
 _atom_site_fract_z
 _atom_site_occupancy
  Pu  Pu0  1  0.220645  0.334228  0.852349  1
  Pu  Pu1  1  0.720645  0.665772  0.647651  1
  Pu  Pu2  1  0.779355  0.665772  0.147651  1
  Pu  Pu3  1  0.279355  0.334228  0.352349  1
  Se  Se4  1  0.052239  0.795864  0.386728  1
  Se  Se5  1  0.447761  0.795864  0.886728  1
  Se  Se6  1  0.947761  0.204136  0.613272  1
  Se  Se7  1  0.552239  0.204136  0.113272  1
  O  O8  1  0.488974  0.413230  0.787623  1
  O  O9  1  0.283586  0.649451  0.384679  1
  O  O10  1  0.049216  0.732242  0.088350  1
  O  O11  1  0.450784  0.732242  0.588350  1
  O  O12  1  0.549216  0.267758  0.411650  1
  O  O13  1  0.599090  0.823372  0.778798  1
  O  O14  1  0.511026  0.586770  0.212377  1
  O  O15  1  0.347674  0.010889  0.901392  1
  O  O16  1  0.099090  0.176628  0.721202  1
  O  O17  1  0.783586  0.350549  0.115321  1
  O  O18  1  0.950784  0.267758  0.911650  1
  O  O19  1  0.847674  0.989111  0.598608  1
  O  O20  1  0.988974  0.586770  0.712377  1
  O  O21  1  0.652326  0.989111  0.098608  1
  O  O22  1  0.400910  0.176628  0.221202  1
  O  O23  1  0.878026  0.698754  0.484395  1
  O  O24  1  0.152326  0.010889  0.401392  1
  O  O25  1  0.121974  0.301246  0.515605  1
  O  O26  1  0.216414  0.649451  0.884679  1
  O  O27  1  0.621974  0.698754  0.984395  1
  O  O28  1  0.900910  0.823372  0.278798  1
  O  O29  1  0.378026  0.301246  0.015605  1
  O  O30  1  0.011026  0.413230  0.287623  1
  O  O31  1  0.716414  0.350549  0.615321  1
