# generated using pymatgen
data_Tm4Al2VReB16
_symmetry_space_group_name_H-M   'P 1'
_cell_length_a   3.51509100
_cell_length_b   5.94281513
_cell_length_c   11.49828503
_cell_angle_alpha   90.25776653
_cell_angle_beta   90.00000000
_cell_angle_gamma   90.00000000
_symmetry_Int_Tables_number   1
_chemical_formula_structural   Tm4Al2VReB16
_chemical_formula_sum   'Tm4 Al2 V1 Re1 B16'
_cell_volume   240.19140797
_cell_formula_units_Z   1
loop_
 _symmetry_equiv_pos_site_id
 _symmetry_equiv_pos_as_xyz
  1  'x, y, z'
loop_
 _atom_site_type_symbol
 _atom_site_label
 _atom_site_symmetry_multiplicity
 _atom_site_fract_x
 _atom_site_fract_y
 _atom_site_fract_z
 _atom_site_occupancy
  Tm  Tm0  1  0.000000  0.627126  0.349118  1
  Tm  Tm1  1  0.000000  0.372468  0.651989  1
  Tm  Tm2  1  0.000000  0.128400  0.149451  1
  Tm  Tm3  1  0.000000  0.873218  0.851832  1
  Al  Al4  1  0.000000  0.137974  0.407534  1
  Al  Al5  1  0.000000  0.862360  0.590974  1
  V  V6  1  0.000000  0.370575  0.917570  1
  Re  Re7  1  0.000000  0.629317  0.082316  1
  B  B8  1  0.500000  0.787502  0.186250  1
  B  B9  1  0.500000  0.212121  0.813322  1
  B  B10  1  0.500000  0.290138  0.313473  1
  B  B11  1  0.500000  0.711037  0.686554  1
  B  B12  1  0.500000  0.866554  0.032263  1
  B  B13  1  0.500000  0.133679  0.967347  1
  B  B14  1  0.500000  0.366967  0.469807  1
  B  B15  1  0.500000  0.633466  0.530750  1
  B  B16  1  0.500000  0.885968  0.452651  1
  B  B17  1  0.500000  0.113951  0.547598  1
  B  B18  1  0.500000  0.384578  0.047251  1
  B  B19  1  0.500000  0.613953  0.951985  1
  B  B20  1  0.500000  0.973122  0.307205  1
  B  B21  1  0.500000  0.025835  0.693127  1
  B  B22  1  0.500000  0.476774  0.193242  1
  B  B23  1  0.500000  0.522917  0.806391  1
