# generated using pymatgen
data_Sm8Y5Tm7Sn16
_symmetry_space_group_name_H-M   'P 1'
_cell_length_a   8.03640256
_cell_length_b   8.20660385
_cell_length_c   15.48343500
_cell_angle_alpha   89.98225260
_cell_angle_beta   90.02148128
_cell_angle_gamma   89.96585932
_symmetry_Int_Tables_number   1
_chemical_formula_structural   Sm8Y5Tm7Sn16
_chemical_formula_sum   'Sm8 Y5 Tm7 Sn16'
_cell_volume   1021.15657978
_cell_formula_units_Z   1
loop_
 _symmetry_equiv_pos_site_id
 _symmetry_equiv_pos_as_xyz
  1  'x, y, z'
loop_
 _atom_site_type_symbol
 _atom_site_label
 _atom_site_symmetry_multiplicity
 _atom_site_fract_x
 _atom_site_fract_y
 _atom_site_fract_z
 _atom_site_occupancy
  Sm  Sm0  1  0.514926  0.321381  0.903229  1
  Sm  Sm1  1  0.014757  0.178643  0.596137  1
  Sm  Sm2  1  0.485291  0.678711  0.403935  1
  Sm  Sm3  1  0.984970  0.820977  0.096167  1
  Sm  Sm4  1  0.484228  0.678895  0.096462  1
  Sm  Sm5  1  0.984711  0.821031  0.403872  1
  Sm  Sm6  1  0.515773  0.321303  0.596474  1
  Sm  Sm7  1  0.015427  0.178688  0.903580  1
  Y  Y8  1  0.361317  0.836406  0.876883  1
  Y  Y9  1  0.861153  0.663668  0.623236  1
  Y  Y10  1  0.639010  0.163826  0.376811  1
  Y  Y11  1  0.138950  0.336423  0.123314  1
  Y  Y12  1  0.639710  0.163576  0.122976  1
  Tm  Tm13  1  0.140238  0.336895  0.376800  1
  Tm  Tm14  1  0.359659  0.836562  0.623649  1
  Tm  Tm15  1  0.860032  0.662990  0.875957  1
  Tm  Tm16  1  0.192928  0.503173  0.749686  1
  Tm  Tm17  1  0.692872  0.996738  0.750152  1
  Tm  Tm18  1  0.807306  0.497148  0.250044  1
  Tm  Tm19  1  0.306894  0.003046  0.250506  1
  Sn  Sn20  1  0.301093  0.039004  0.042204  1
  Sn  Sn21  1  0.803559  0.460205  0.457812  1
  Sn  Sn22  1  0.696101  0.960042  0.542408  1
  Sn  Sn23  1  0.196418  0.539808  0.957507  1
  Sn  Sn24  1  0.700560  0.958805  0.957538  1
  Sn  Sn25  1  0.200040  0.540055  0.541567  1
  Sn  Sn26  1  0.300632  0.039980  0.458810  1
  Sn  Sn27  1  0.801002  0.461975  0.040950  1
  Sn  Sn28  1  0.557920  0.621062  0.749772  1
  Sn  Sn29  1  0.058097  0.878940  0.750210  1
  Sn  Sn30  1  0.441130  0.379855  0.250203  1
  Sn  Sn31  1  0.942630  0.121101  0.250907  1
  Sn  Sn32  1  0.324005  0.146402  0.749449  1
  Sn  Sn33  1  0.824239  0.353313  0.750280  1
  Sn  Sn34  1  0.676483  0.852934  0.249998  1
  Sn  Sn35  1  0.175938  0.646442  0.250509  1
