# generated using pymatgen
data_Dy16Cd4OsPt3
_symmetry_space_group_name_H-M   'P 1'
_cell_length_a   9.71111026
_cell_length_b   9.71110948
_cell_length_c   9.71110961
_cell_angle_alpha   59.56964654
_cell_angle_beta   59.56964509
_cell_angle_gamma   59.56964585
_symmetry_Int_Tables_number   1
_chemical_formula_structural   Dy16Cd4OsPt3
_chemical_formula_sum   'Dy16 Cd4 Os1 Pt3'
_cell_volume   641.24184682
_cell_formula_units_Z   1
loop_
 _symmetry_equiv_pos_site_id
 _symmetry_equiv_pos_as_xyz
  1  'x, y, z'
loop_
 _atom_site_type_symbol
 _atom_site_label
 _atom_site_symmetry_multiplicity
 _atom_site_fract_x
 _atom_site_fract_y
 _atom_site_fract_z
 _atom_site_occupancy
  Dy  Dy0  1  0.351402  0.351402  0.351402  1
  Dy  Dy1  1  0.349692  0.349692  0.948058  1
  Dy  Dy2  1  0.349692  0.948058  0.349692  1
  Dy  Dy3  1  0.948058  0.349692  0.349692  1
  Dy  Dy4  1  0.814306  0.189091  0.189091  1
  Dy  Dy5  1  0.188856  0.809891  0.809891  1
  Dy  Dy6  1  0.189091  0.814306  0.189091  1
  Dy  Dy7  1  0.809891  0.188856  0.809891  1
  Dy  Dy8  1  0.189091  0.189091  0.814306  1
  Dy  Dy9  1  0.809891  0.809891  0.188856  1
  Dy  Dy10  1  0.935297  0.565525  0.565525  1
  Dy  Dy11  1  0.559161  0.937284  0.937284  1
  Dy  Dy12  1  0.565525  0.935297  0.565525  1
  Dy  Dy13  1  0.937284  0.559160  0.937284  1
  Dy  Dy14  1  0.565525  0.565525  0.935297  1
  Dy  Dy15  1  0.937284  0.937284  0.559160  1
  Cd  Cd16  1  0.580798  0.580798  0.580798  1
  Cd  Cd17  1  0.581237  0.581237  0.254415  1
  Cd  Cd18  1  0.581237  0.254415  0.581237  1
  Cd  Cd19  1  0.254415  0.581237  0.581237  1
  Os  Os20  1  0.143206  0.143206  0.143206  1
  Pt  Pt21  1  0.143415  0.143415  0.572231  1
  Pt  Pt22  1  0.143415  0.572231  0.143415  1
  Pt  Pt23  1  0.572231  0.143415  0.143415  1
