# generated using pymatgen
data_Pr3Sm2FeRuO12
_symmetry_space_group_name_H-M   'P 1'
_cell_length_a   7.06345660
_cell_length_b   7.06345645
_cell_length_c   7.58091602
_cell_angle_alpha   74.10294099
_cell_angle_beta   74.10294186
_cell_angle_gamma   50.74418067
_symmetry_Int_Tables_number   1
_chemical_formula_structural   Pr3Sm2FeRuO12
_chemical_formula_sum   'Pr3 Sm2 Fe1 Ru1 O12'
_cell_volume   279.09252172
_cell_formula_units_Z   1
loop_
 _symmetry_equiv_pos_site_id
 _symmetry_equiv_pos_as_xyz
  1  'x, y, z'
loop_
 _atom_site_type_symbol
 _atom_site_label
 _atom_site_symmetry_multiplicity
 _atom_site_fract_x
 _atom_site_fract_y
 _atom_site_fract_z
 _atom_site_occupancy
  Pr  Pr0  1  0.692705  0.694076  0.167400  1
  Pr  Pr1  1  0.305924  0.307295  0.832600  1
  Pr  Pr2  1  0.003038  0.996962  0.500000  1
  Sm  Sm3  1  0.307942  0.302476  0.358654  1
  Sm  Sm4  1  0.697524  0.692058  0.641346  1
  Fe  Fe5  1  0.751814  0.248186  0.000000  1
  Ru  Ru6  1  0.241183  0.758817  0.000000  1
  O  O7  1  0.094337  0.592755  0.573966  1
  O  O8  1  0.011234  0.990177  0.174820  1
  O  O9  1  0.407245  0.905663  0.426034  1
  O  O10  1  0.485678  0.512097  0.179079  1
  O  O11  1  0.102340  0.577192  0.082222  1
  O  O12  1  0.907693  0.403160  0.426336  1
  O  O13  1  0.009823  0.988766  0.825180  1
  O  O14  1  0.596840  0.092306  0.573664  1
  O  O15  1  0.487903  0.514322  0.820921  1
  O  O16  1  0.580591  0.106624  0.080732  1
  O  O17  1  0.422808  0.897660  0.917778  1
  O  O18  1  0.893376  0.419409  0.919268  1
