# generated using pymatgen
data_Tm6CrNi17As12
_symmetry_space_group_name_H-M   'P 1'
_cell_length_a   3.86691500
_cell_length_b   10.88035700
_cell_length_c   12.67406500
_cell_angle_alpha   90.00000000
_cell_angle_beta   90.00000000
_cell_angle_gamma   90.00000000
_symmetry_Int_Tables_number   1
_chemical_formula_structural   Tm6CrNi17As12
_chemical_formula_sum   'Tm6 Cr1 Ni17 As12'
_cell_volume   533.24120521
_cell_formula_units_Z   1
loop_
 _symmetry_equiv_pos_site_id
 _symmetry_equiv_pos_as_xyz
  1  'x, y, z'
loop_
 _atom_site_type_symbol
 _atom_site_label
 _atom_site_symmetry_multiplicity
 _atom_site_fract_x
 _atom_site_fract_y
 _atom_site_fract_z
 _atom_site_occupancy
  Tm  Tm0  1  0.000000  0.500000  0.523429  1
  Tm  Tm1  1  0.500000  0.000000  0.477184  1
  Tm  Tm2  1  0.500000  0.818155  0.207813  1
  Tm  Tm3  1  0.500000  0.181845  0.207813  1
  Tm  Tm4  1  0.000000  0.682872  0.793927  1
  Tm  Tm5  1  0.000000  0.317128  0.793927  1
  Cr  Cr6  1  0.500000  0.500000  0.151385  1
  Ni  Ni7  1  0.000000  0.000000  0.841673  1
  Ni  Ni8  1  0.500000  0.500000  0.701068  1
  Ni  Ni9  1  0.000000  0.000000  0.302244  1
  Ni  Ni10  1  0.000000  0.500000  0.983866  1
  Ni  Ni11  1  0.500000  0.000000  0.017843  1
  Ni  Ni12  1  0.500000  0.329604  0.995350  1
  Ni  Ni13  1  0.500000  0.670396  0.995350  1
  Ni  Ni14  1  0.000000  0.164070  0.003862  1
  Ni  Ni15  1  0.000000  0.835930  0.003862  1
  Ni  Ni16  1  0.500000  0.304394  0.427242  1
  Ni  Ni17  1  0.500000  0.695606  0.427242  1
  Ni  Ni18  1  0.000000  0.197472  0.572517  1
  Ni  Ni19  1  0.000000  0.802528  0.572517  1
  Ni  Ni20  1  0.500000  0.878183  0.706447  1
  Ni  Ni21  1  0.500000  0.121817  0.706447  1
  Ni  Ni22  1  0.000000  0.620634  0.292407  1
  Ni  Ni23  1  0.000000  0.379366  0.292407  1
  As  As24  1  0.500000  0.500000  0.878959  1
  As  As25  1  0.000000  0.000000  0.125730  1
  As  As26  1  0.500000  0.500000  0.344793  1
  As  As27  1  0.000000  0.000000  0.652151  1
  As  As28  1  0.500000  0.315773  0.614607  1
  As  As29  1  0.500000  0.684227  0.614607  1
  As  As30  1  0.000000  0.184835  0.386301  1
  As  As31  1  0.000000  0.815165  0.386301  1
  As  As32  1  0.500000  0.848316  0.888754  1
  As  As33  1  0.500000  0.151684  0.888754  1
  As  As34  1  0.000000  0.654209  0.110610  1
  As  As35  1  0.000000  0.345791  0.110610  1
