# generated using pymatgen
data_Th5Ni19
_symmetry_space_group_name_H-M   'P 1'
_cell_length_a   4.95194515
_cell_length_b   4.95194451
_cell_length_c   16.60278271
_cell_angle_alpha   81.42348830
_cell_angle_beta   81.42348883
_cell_angle_gamma   60.00000492
_symmetry_Int_Tables_number   1
_chemical_formula_structural   Th5Ni19
_chemical_formula_sum   'Th5 Ni19'
_cell_volume   347.31749884
_cell_formula_units_Z   1
loop_
 _symmetry_equiv_pos_site_id
 _symmetry_equiv_pos_as_xyz
  1  'x, y, z'
loop_
 _atom_site_type_symbol
 _atom_site_label
 _atom_site_symmetry_multiplicity
 _atom_site_fract_x
 _atom_site_fract_y
 _atom_site_fract_z
 _atom_site_occupancy
  Th  Th0  1  0.000000  0.000000  0.000000  1
  Th  Th1  1  0.077658  0.077658  0.767025  1
  Th  Th2  1  0.922342  0.922342  0.232975  1
  Th  Th3  1  0.150472  0.150472  0.548584  1
  Th  Th4  1  0.849528  0.849528  0.451416  1
  Ni  Ni5  1  0.500000  0.500000  0.500000  1
  Ni  Ni6  1  0.250980  0.250980  0.247059  1
  Ni  Ni7  1  0.749020  0.749020  0.752941  1
  Ni  Ni8  1  0.333299  0.333299  0.000103  1
  Ni  Ni9  1  0.666701  0.666701  0.999897  1
  Ni  Ni10  1  0.415490  0.415490  0.753530  1
  Ni  Ni11  1  0.584510  0.584510  0.246470  1
  Ni  Ni12  1  0.122566  0.623933  0.629569  1
  Ni  Ni13  1  0.623933  0.623933  0.629569  1
  Ni  Ni14  1  0.623933  0.122566  0.629569  1
  Ni  Ni15  1  0.877434  0.376067  0.370431  1
  Ni  Ni16  1  0.376067  0.376067  0.370431  1
  Ni  Ni17  1  0.376067  0.877434  0.370431  1
  Ni  Ni18  1  0.040728  0.540796  0.877680  1
  Ni  Ni19  1  0.540796  0.540796  0.877680  1
  Ni  Ni20  1  0.540796  0.040728  0.877680  1
  Ni  Ni21  1  0.959272  0.459204  0.122320  1
  Ni  Ni22  1  0.459204  0.459204  0.122320  1
  Ni  Ni23  1  0.459204  0.959272  0.122320  1
