# generated using pymatgen
data_CsMn(CuS2)2
_symmetry_space_group_name_H-M   'P 1'
_cell_length_a   9.79956421
_cell_length_b   9.79956368
_cell_length_c   7.51305500
_cell_angle_alpha   90.00000000
_cell_angle_beta   90.00000000
_cell_angle_gamma   147.29304803
_symmetry_Int_Tables_number   1
_chemical_formula_structural   CsMn(CuS2)2
_chemical_formula_sum   'Cs2 Mn2 Cu4 S8'
_cell_volume   389.85143282
_cell_formula_units_Z   2
loop_
 _symmetry_equiv_pos_site_id
 _symmetry_equiv_pos_as_xyz
  1  'x, y, z'
loop_
 _atom_site_type_symbol
 _atom_site_label
 _atom_site_symmetry_multiplicity
 _atom_site_fract_x
 _atom_site_fract_y
 _atom_site_fract_z
 _atom_site_occupancy
  Cs  Cs0  1  0.171376  0.540420  0.750000  1
  Cs  Cs1  1  0.540420  0.171376  0.250000  1
  Mn  Mn2  1  0.708453  0.497103  0.750000  1
  Mn  Mn3  1  0.497103  0.708453  0.250000  1
  Cu  Cu4  1  0.621082  0.621082  0.500000  1
  Cu  Cu5  1  0.998616  0.207740  0.250000  1
  Cu  Cu6  1  0.207740  0.998616  0.750000  1
  Cu  Cu7  1  0.621082  0.621082  0.000000  1
  S  S8  1  0.727974  0.937360  0.017338  1
  S  S9  1  0.387594  0.366794  0.750000  1
  S  S10  1  0.366794  0.387594  0.250000  1
  S  S11  1  0.937360  0.727974  0.517338  1
  S  S12  1  0.566825  0.174047  0.750000  1
  S  S13  1  0.937360  0.727974  0.982662  1
  S  S14  1  0.174047  0.566825  0.250000  1
  S  S15  1  0.727974  0.937360  0.482662  1
