# generated using pymatgen
data_Sr4ZrFe(RuO6)2
_symmetry_space_group_name_H-M   'P 1'
_cell_length_a   5.67209264
_cell_length_b   5.69043527
_cell_length_c   8.06676613
_cell_angle_alpha   90.00107454
_cell_angle_beta   89.79836877
_cell_angle_gamma   89.99831855
_symmetry_Int_Tables_number   1
_chemical_formula_structural   Sr4ZrFe(RuO6)2
_chemical_formula_sum   'Sr4 Zr1 Fe1 Ru2 O12'
_cell_volume   260.36678445
_cell_formula_units_Z   1
loop_
 _symmetry_equiv_pos_site_id
 _symmetry_equiv_pos_as_xyz
  1  'x, y, z'
loop_
 _atom_site_type_symbol
 _atom_site_label
 _atom_site_symmetry_multiplicity
 _atom_site_fract_x
 _atom_site_fract_y
 _atom_site_fract_z
 _atom_site_occupancy
  Sr  Sr0  1  0.486055  0.498177  0.236620  1
  Sr  Sr1  1  0.981228  0.001715  0.237378  1
  Sr  Sr2  1  0.513945  0.501823  0.763380  1
  Sr  Sr3  1  0.018772  0.998285  0.762622  1
  Zr  Zr4  1  0.000000  0.500000  0.500000  1
  Fe  Fe5  1  0.500000  0.000000  0.000000  1
  Ru  Ru6  1  0.500000  0.000000  0.500000  1
  Ru  Ru7  1  0.000000  0.500000  0.000000  1
  O  O8  1  0.234070  0.238597  0.023760  1
  O  O9  1  0.705926  0.280572  0.473862  1
  O  O10  1  0.781379  0.794823  0.526048  1
  O  O11  1  0.261942  0.733641  0.976211  1
  O  O12  1  0.765930  0.761403  0.976240  1
  O  O13  1  0.294074  0.719428  0.526138  1
  O  O14  1  0.218621  0.205177  0.473952  1
  O  O15  1  0.738058  0.266359  0.023789  1
  O  O16  1  0.004984  0.548408  0.243835  1
  O  O17  1  0.507571  0.950757  0.253766  1
  O  O18  1  0.995016  0.451592  0.756165  1
  O  O19  1  0.492429  0.049243  0.746234  1
