# generated using pymatgen
data_TmLu4(In2Au)2
_symmetry_space_group_name_H-M   'P 1'
_cell_length_a   3.61604400
_cell_length_b   8.09764400
_cell_length_c   18.15044000
_cell_angle_alpha   90.00000000
_cell_angle_beta   90.00000000
_cell_angle_gamma   90.00000000
_symmetry_Int_Tables_number   1
_chemical_formula_structural   TmLu4(In2Au)2
_chemical_formula_sum   'Tm2 Lu8 In8 Au4'
_cell_volume   531.47096539
_cell_formula_units_Z   2
loop_
 _symmetry_equiv_pos_site_id
 _symmetry_equiv_pos_as_xyz
  1  'x, y, z'
loop_
 _atom_site_type_symbol
 _atom_site_label
 _atom_site_symmetry_multiplicity
 _atom_site_fract_x
 _atom_site_fract_y
 _atom_site_fract_z
 _atom_site_occupancy
  Tm  Tm0  1  0.000000  0.000000  0.000000  1
  Tm  Tm1  1  0.000000  0.500000  0.500000  1
  Lu  Lu2  1  0.000000  0.119204  0.419022  1
  Lu  Lu3  1  0.000000  0.880796  0.580978  1
  Lu  Lu4  1  0.000000  0.380796  0.919022  1
  Lu  Lu5  1  0.000000  0.619204  0.080978  1
  Lu  Lu6  1  0.000000  0.241992  0.218829  1
  Lu  Lu7  1  0.000000  0.758008  0.781171  1
  Lu  Lu8  1  0.000000  0.258008  0.718829  1
  Lu  Lu9  1  0.000000  0.741992  0.281171  1
  In  In10  1  0.500000  0.423421  0.354164  1
  In  In11  1  0.500000  0.576579  0.645836  1
  In  In12  1  0.500000  0.076579  0.854164  1
  In  In13  1  0.500000  0.923421  0.145836  1
  In  In14  1  0.500000  0.291446  0.064860  1
  In  In15  1  0.500000  0.708554  0.935140  1
  In  In16  1  0.500000  0.208554  0.564860  1
  In  In17  1  0.500000  0.791446  0.435140  1
  Au  Au18  1  0.500000  0.029135  0.303142  1
  Au  Au19  1  0.500000  0.970865  0.696858  1
  Au  Au20  1  0.500000  0.470865  0.803142  1
  Au  Au21  1  0.500000  0.529135  0.196858  1
