# generated using pymatgen
data_TmHf5(Zr2Sn3)2
_symmetry_space_group_name_H-M   'P 1'
_cell_length_a   8.56108683
_cell_length_b   8.57533960
_cell_length_c   5.80854300
_cell_angle_alpha   90.00000000
_cell_angle_beta   90.00000000
_cell_angle_gamma   120.77773652
_symmetry_Int_Tables_number   1
_chemical_formula_structural   TmHf5(Zr2Sn3)2
_chemical_formula_sum   'Tm1 Hf5 Zr4 Sn6'
_cell_volume   366.37082273
_cell_formula_units_Z   1
loop_
 _symmetry_equiv_pos_site_id
 _symmetry_equiv_pos_as_xyz
  1  'x, y, z'
loop_
 _atom_site_type_symbol
 _atom_site_label
 _atom_site_symmetry_multiplicity
 _atom_site_fract_x
 _atom_site_fract_y
 _atom_site_fract_z
 _atom_site_occupancy
  Tm  Tm0  1  0.765597  0.765537  0.750000  1
  Hf  Hf1  1  0.001933  0.252006  0.750000  1
  Hf  Hf2  1  0.665078  0.332997  0.000281  1
  Hf  Hf3  1  0.333043  0.665313  0.000200  1
  Hf  Hf4  1  0.333043  0.665313  0.499800  1
  Hf  Hf5  1  0.665078  0.332997  0.499719  1
  Zr  Zr6  1  0.250666  0.001817  0.750000  1
  Zr  Zr7  1  0.238148  0.239129  0.250000  1
  Zr  Zr8  1  0.751140  0.999988  0.250000  1
  Zr  Zr9  1  0.998991  0.748618  0.250000  1
  Sn  Sn10  1  0.392182  0.392799  0.750000  1
  Sn  Sn11  1  0.607309  0.003078  0.750000  1
  Sn  Sn12  1  0.002035  0.604688  0.750000  1
  Sn  Sn13  1  0.604830  0.604885  0.250000  1
  Sn  Sn14  1  0.391667  0.999223  0.250000  1
  Sn  Sn15  1  0.999261  0.391615  0.250000  1
