# generated using pymatgen
data_Th5Co16(MoP4)3
_symmetry_space_group_name_H-M   'P 1'
_cell_length_a   12.23811500
_cell_length_b   12.23811620
_cell_length_c   3.81725100
_cell_angle_alpha   90.00000000
_cell_angle_beta   90.00000000
_cell_angle_gamma   120.00000487
_symmetry_Int_Tables_number   1
_chemical_formula_structural   Th5Co16(MoP4)3
_chemical_formula_sum   'Th5 Co16 Mo3 P12'
_cell_volume   495.11995492
_cell_formula_units_Z   1
loop_
 _symmetry_equiv_pos_site_id
 _symmetry_equiv_pos_as_xyz
  1  'x, y, z'
loop_
 _atom_site_type_symbol
 _atom_site_label
 _atom_site_symmetry_multiplicity
 _atom_site_fract_x
 _atom_site_fract_y
 _atom_site_fract_z
 _atom_site_occupancy
  Th  Th0  1  0.666667  0.333333  0.000000  1
  Th  Th1  1  0.333333  0.666667  0.000000  1
  Th  Th2  1  0.812640  0.812640  0.500000  1
  Th  Th3  1  0.187360  0.000000  0.500000  1
  Th  Th4  1  0.000000  0.187360  0.500000  1
  Co  Co5  1  0.874957  0.361293  0.500000  1
  Co  Co6  1  0.638707  0.513665  0.500000  1
  Co  Co7  1  0.486335  0.125043  0.500000  1
  Co  Co8  1  0.361293  0.874957  0.500000  1
  Co  Co9  1  0.513665  0.638707  0.500000  1
  Co  Co10  1  0.125043  0.486335  0.500000  1
  Co  Co11  1  0.803853  0.181360  0.000000  1
  Co  Co12  1  0.818640  0.622493  0.000000  1
  Co  Co13  1  0.377507  0.196147  0.000000  1
  Co  Co14  1  0.181360  0.803853  0.000000  1
  Co  Co15  1  0.622493  0.818640  0.000000  1
  Co  Co16  1  0.196147  0.377507  0.000000  1
  Co  Co17  1  0.280047  0.280047  0.500000  1
  Co  Co18  1  0.719953  0.000000  0.500000  1
  Co  Co19  1  0.000000  0.719953  0.500000  1
  Co  Co20  1  0.000000  0.000000  0.000000  1
  Mo  Mo21  1  0.441146  0.441146  0.000000  1
  Mo  Mo22  1  0.558854  0.000000  0.000000  1
  Mo  Mo23  1  0.000000  0.558854  0.000000  1
  P  P24  1  0.690392  0.163679  0.500000  1
  P  P25  1  0.836321  0.526713  0.500000  1
  P  P26  1  0.473287  0.309608  0.500000  1
  P  P27  1  0.163679  0.690392  0.500000  1
  P  P28  1  0.526713  0.836321  0.500000  1
  P  P29  1  0.309608  0.473287  0.500000  1
  P  P30  1  0.182733  0.182733  0.000000  1
  P  P31  1  0.817267  0.000000  0.000000  1
  P  P32  1  0.000000  0.817267  0.000000  1
  P  P33  1  0.630836  0.630836  0.000000  1
  P  P34  1  0.369164  0.000000  0.000000  1
  P  P35  1  0.000000  0.369164  0.000000  1
