# generated using pymatgen
data_Cd3CuP8(PbO7)4
_symmetry_space_group_name_H-M   'P 1'
_cell_length_a   8.66687941
_cell_length_b   5.55924435
_cell_length_c   14.27195800
_cell_angle_alpha   67.12639174
_cell_angle_beta   89.96731576
_cell_angle_gamma   89.86101125
_symmetry_Int_Tables_number   1
_chemical_formula_structural   Cd3CuP8(PbO7)4
_chemical_formula_sum   'Cd3 Cu1 P8 Pb4 O28'
_cell_volume   633.56657962
_cell_formula_units_Z   1
loop_
 _symmetry_equiv_pos_site_id
 _symmetry_equiv_pos_as_xyz
  1  'x, y, z'
loop_
 _atom_site_type_symbol
 _atom_site_label
 _atom_site_symmetry_multiplicity
 _atom_site_fract_x
 _atom_site_fract_y
 _atom_site_fract_z
 _atom_site_occupancy
  Cd  Cd0  1  0.349627  0.924395  0.904124  1
  Cd  Cd1  1  0.851334  0.079155  0.596789  1
  Cd  Cd2  1  0.646028  0.078320  0.100370  1
  Cu  Cu3  1  0.148593  0.894840  0.392338  1
  P  P4  1  0.535266  0.914845  0.333481  1
  P  P5  1  0.287770  0.288588  0.025353  1
  P  P6  1  0.208502  0.302885  0.514542  1
  P  P7  1  0.457149  0.101096  0.666152  1
  P  P8  1  0.960269  0.910389  0.830709  1
  P  P9  1  0.711133  0.711848  0.978578  1
  P  P10  1  0.037751  0.069371  0.174606  1
  P  P11  1  0.802645  0.712006  0.474898  1
  Pb  Pb12  1  0.685006  0.427097  0.772209  1
  Pb  Pb13  1  0.818161  0.428750  0.273580  1
  Pb  Pb14  1  0.316144  0.548396  0.236154  1
  Pb  Pb15  1  0.184176  0.584584  0.722990  1
  O  O16  1  0.558703  0.212209  0.285266  1
  O  O17  1  0.612781  0.945135  0.908493  1
  O  O18  1  0.124776  0.168888  0.247963  1
  O  O19  1  0.112097  0.085548  0.594066  1
  O  O20  1  0.869514  0.161053  0.164180  1
  O  O21  1  0.056566  0.774350  0.206139  1
  O  O22  1  0.628276  0.175055  0.655579  1
  O  O23  1  0.607309  0.776981  0.268394  1
  O  O24  1  0.912639  0.929772  0.406373  1
  O  O25  1  0.366104  0.830632  0.355105  1
  O  O26  1  0.109905  0.216873  0.062338  1
  O  O27  1  0.672999  0.457119  0.965551  1
  O  O28  1  0.204565  0.292888  0.409223  1
  O  O29  1  0.626597  0.812938  0.441287  1
  O  O30  1  0.430908  0.804818  0.704883  1
  O  O31  1  0.877967  0.784447  0.765157  1
  O  O32  1  0.809168  0.686024  0.586078  1
  O  O33  1  0.377750  0.222659  0.734566  1
  O  O34  1  0.824484  0.454459  0.460598  1
  O  O35  1  0.167558  0.573408  0.516147  1
  O  O36  1  0.934757  0.206737  0.790245  1
  O  O37  1  0.889474  0.784379  0.944682  1
  O  O38  1  0.385952  0.054492  0.094038  1
  O  O39  1  0.326830  0.542703  0.038636  1
  O  O40  1  0.705681  0.690076  0.089319  1
  O  O41  1  0.289865  0.312246  0.914301  1
  O  O42  1  0.387003  0.238398  0.552558  1
  O  O43  1  0.130219  0.829151  0.841961  1
