# generated using pymatgen
data_Ho8Tm2Ga3TcBi2
_symmetry_space_group_name_H-M   'P 1'
_cell_length_a   8.67944898
_cell_length_b   8.67944761
_cell_length_c   8.79187055
_cell_angle_alpha   125.87661341
_cell_angle_beta   125.87661180
_cell_angle_gamma   79.20678286
_symmetry_Int_Tables_number   1
_chemical_formula_structural   Ho8Tm2Ga3TcBi2
_chemical_formula_sum   'Ho8 Tm2 Ga3 Tc1 Bi2'
_cell_volume   422.36503996
_cell_formula_units_Z   1
loop_
 _symmetry_equiv_pos_site_id
 _symmetry_equiv_pos_as_xyz
  1  'x, y, z'
loop_
 _atom_site_type_symbol
 _atom_site_label
 _atom_site_symmetry_multiplicity
 _atom_site_fract_x
 _atom_site_fract_y
 _atom_site_fract_z
 _atom_site_occupancy
  Ho  Ho0  1  0.016158  0.502000  0.800548  1
  Ho  Ho1  1  0.715610  0.201451  0.199452  1
  Ho  Ho2  1  0.518169  0.705651  0.500000  1
  Ho  Ho3  1  0.193578  0.038880  0.500000  1
  Ho  Ho4  1  0.998000  0.483842  0.199452  1
  Ho  Ho5  1  0.298549  0.784390  0.800548  1
  Ho  Ho6  1  0.461120  0.306422  0.500000  1
  Ho  Ho7  1  0.794349  0.981831  0.500000  1
  Tm  Tm8  1  0.003297  0.007219  0.010516  1
  Tm  Tm9  1  0.492781  0.496703  0.989484  1
  Ga  Ga10  1  0.359275  0.854838  0.214112  1
  Ga  Ga11  1  0.645162  0.140725  0.785888  1
  Ga  Ga12  1  0.866010  0.633990  0.500000  1
  Tc  Tc13  1  0.126044  0.373956  0.500000  1
  Bi  Bi14  1  0.755951  0.744049  0.000000  1
  Bi  Bi15  1  0.255951  0.244049  0.000000  1
