# generated using pymatgen
data_Rb3TlPbCl6
_symmetry_space_group_name_H-M   'P 1'
_cell_length_a   9.15348944
_cell_length_b   9.15348920
_cell_length_c   9.15348900
_cell_angle_alpha   90.89287738
_cell_angle_beta   90.89287736
_cell_angle_gamma   90.89287527
_symmetry_Int_Tables_number   1
_chemical_formula_structural   Rb3TlPbCl6
_chemical_formula_sum   'Rb6 Tl2 Pb2 Cl12'
_cell_volume   766.65527932
_cell_formula_units_Z   2
loop_
 _symmetry_equiv_pos_site_id
 _symmetry_equiv_pos_as_xyz
  1  'x, y, z'
loop_
 _atom_site_type_symbol
 _atom_site_label
 _atom_site_symmetry_multiplicity
 _atom_site_fract_x
 _atom_site_fract_y
 _atom_site_fract_z
 _atom_site_occupancy
  Rb  Rb0  1  0.373972  0.126028  0.750000  1
  Rb  Rb1  1  0.126028  0.750000  0.373972  1
  Rb  Rb2  1  0.750000  0.373972  0.126028  1
  Rb  Rb3  1  0.626028  0.873972  0.250000  1
  Rb  Rb4  1  0.250000  0.626028  0.873972  1
  Rb  Rb5  1  0.873972  0.250000  0.626028  1
  Tl  Tl6  1  0.250000  0.250000  0.250000  1
  Tl  Tl7  1  0.750000  0.750000  0.750000  1
  Pb  Pb8  1  0.000000  0.000000  0.000000  1
  Pb  Pb9  1  0.500000  0.500000  0.500000  1
  Cl  Cl10  1  0.945376  0.078938  0.302218  1
  Cl  Cl11  1  0.078938  0.302218  0.945376  1
  Cl  Cl12  1  0.302218  0.945376  0.078938  1
  Cl  Cl13  1  0.578938  0.445376  0.802218  1
  Cl  Cl14  1  0.802218  0.578938  0.445376  1
  Cl  Cl15  1  0.445376  0.802218  0.578938  1
  Cl  Cl16  1  0.197782  0.421062  0.554624  1
  Cl  Cl17  1  0.421062  0.554624  0.197782  1
  Cl  Cl18  1  0.554624  0.197782  0.421062  1
  Cl  Cl19  1  0.921062  0.697782  0.054624  1
  Cl  Cl20  1  0.054624  0.921062  0.697782  1
  Cl  Cl21  1  0.697782  0.054624  0.921062  1
