# generated using pymatgen
data_ScV3ZnO8
_symmetry_space_group_name_H-M   'P 1'
_cell_length_a   5.95512232
_cell_length_b   6.03104578
_cell_length_c   9.62404904
_cell_angle_alpha   90.00835113
_cell_angle_beta   89.99155308
_cell_angle_gamma   120.40311214
_symmetry_Int_Tables_number   1
_chemical_formula_structural   ScV3ZnO8
_chemical_formula_sum   'Sc2 V6 Zn2 O16'
_cell_volume   298.12148685
_cell_formula_units_Z   2
loop_
 _symmetry_equiv_pos_site_id
 _symmetry_equiv_pos_as_xyz
  1  'x, y, z'
loop_
 _atom_site_type_symbol
 _atom_site_label
 _atom_site_symmetry_multiplicity
 _atom_site_fract_x
 _atom_site_fract_y
 _atom_site_fract_z
 _atom_site_occupancy
  Sc  Sc0  1  0.670039  0.335183  0.022737  1
  Sc  Sc1  1  0.330135  0.665020  0.522692  1
  V  V2  1  0.841502  0.163403  0.741918  1
  V  V3  1  0.842056  0.677888  0.741768  1
  V  V4  1  0.328389  0.164599  0.745719  1
  V  V5  1  0.671643  0.836050  0.245416  1
  V  V6  1  0.158526  0.321646  0.241826  1
  V  V7  1  0.158124  0.835737  0.241986  1
  Zn  Zn8  1  0.663151  0.331662  0.425110  1
  Zn  Zn9  1  0.336762  0.668515  0.925098  1
  O  O10  1  0.013850  0.006900  0.349805  1
  O  O11  1  0.986162  0.993158  0.849792  1
  O  O12  1  0.329370  0.664501  0.134897  1
  O  O13  1  0.670374  0.335174  0.634986  1
  O  O14  1  0.852928  0.179326  0.142549  1
  O  O15  1  0.666421  0.833009  0.645679  1
  O  O16  1  0.146876  0.326208  0.642540  1
  O  O17  1  0.852813  0.674046  0.142522  1
  O  O18  1  0.333543  0.166499  0.145588  1
  O  O19  1  0.147214  0.821175  0.642527  1
  O  O20  1  0.524961  0.488652  0.867171  1
  O  O21  1  0.032915  0.516383  0.366824  1
  O  O22  1  0.475159  0.963611  0.367011  1
  O  O23  1  0.524947  0.036544  0.867128  1
  O  O24  1  0.967111  0.483604  0.866747  1
  O  O25  1  0.475033  0.511513  0.366975  1
