# generated using pymatgen
data_La3ErZn4Si3Ge
_symmetry_space_group_name_H-M   'P 1'
_cell_length_a   4.25371100
_cell_length_b   4.25371144
_cell_length_c   16.79468200
_cell_angle_alpha   90.00000000
_cell_angle_beta   90.00000000
_cell_angle_gamma   120.00000439
_symmetry_Int_Tables_number   1
_chemical_formula_structural   La3ErZn4Si3Ge
_chemical_formula_sum   'La3 Er1 Zn4 Si3 Ge1'
_cell_volume   263.17122534
_cell_formula_units_Z   1
loop_
 _symmetry_equiv_pos_site_id
 _symmetry_equiv_pos_as_xyz
  1  'x, y, z'
loop_
 _atom_site_type_symbol
 _atom_site_label
 _atom_site_symmetry_multiplicity
 _atom_site_fract_x
 _atom_site_fract_y
 _atom_site_fract_z
 _atom_site_occupancy
  La  La0  1  0.000000  0.000000  0.250477  1
  La  La1  1  0.000000  0.000000  0.991476  1
  La  La2  1  0.000000  0.000000  0.509591  1
  Er  Er3  1  0.000000  0.000000  0.748262  1
  Zn  Zn4  1  0.333333  0.666667  0.129305  1
  Zn  Zn5  1  0.666667  0.333333  0.841799  1
  Zn  Zn6  1  0.666667  0.333333  0.653299  1
  Zn  Zn7  1  0.333333  0.666667  0.371998  1
  Si  Si8  1  0.333333  0.666667  0.628468  1
  Si  Si9  1  0.666667  0.333333  0.383328  1
  Si  Si10  1  0.666667  0.333333  0.117773  1
  Ge  Ge11  1  0.333333  0.666667  0.874222  1
