# generated using pymatgen
data_La6P13Rh20
_symmetry_space_group_name_H-M   'P 1'
_cell_length_a   13.54548800
_cell_length_b   13.54548775
_cell_length_c   3.99500400
_cell_angle_alpha   90.00000000
_cell_angle_beta   90.00000000
_cell_angle_gamma   119.99999573
_symmetry_Int_Tables_number   1
_chemical_formula_structural   La6P13Rh20
_chemical_formula_sum   'La6 P13 Rh20'
_cell_volume   634.80037187
_cell_formula_units_Z   1
loop_
 _symmetry_equiv_pos_site_id
 _symmetry_equiv_pos_as_xyz
  1  'x, y, z'
loop_
 _atom_site_type_symbol
 _atom_site_label
 _atom_site_symmetry_multiplicity
 _atom_site_fract_x
 _atom_site_fract_y
 _atom_site_fract_z
 _atom_site_occupancy
  La  La0  1  0.529520  0.718153  0.246831  1
  La  La1  1  0.281847  0.811367  0.246831  1
  La  La2  1  0.188633  0.470480  0.246831  1
  La  La3  1  0.470480  0.281847  0.753169  1
  La  La4  1  0.718153  0.188633  0.753169  1
  La  La5  1  0.811367  0.529520  0.753169  1
  P  P6  1  0.519679  0.132687  0.250568  1
  P  P7  1  0.867313  0.386994  0.250568  1
  P  P8  1  0.613006  0.480321  0.250568  1
  P  P9  1  0.948991  0.721570  0.255311  1
  P  P10  1  0.278430  0.227421  0.255311  1
  P  P11  1  0.772579  0.051009  0.255311  1
  P  P12  1  0.386994  0.519679  0.749432  1
  P  P13  1  0.480321  0.867313  0.749432  1
  P  P14  1  0.132687  0.613006  0.749432  1
  P  P15  1  0.721570  0.772579  0.744689  1
  P  P16  1  0.227421  0.948991  0.744689  1
  P  P17  1  0.051009  0.278430  0.744689  1
  P  P18  1  0.000000  0.000000  0.000000  1
  Rh  Rh19  1  0.333333  0.666667  0.751124  1
  Rh  Rh20  1  0.924449  0.248818  0.258015  1
  Rh  Rh21  1  0.751182  0.675631  0.258015  1
  Rh  Rh22  1  0.324369  0.075551  0.258015  1
  Rh  Rh23  1  0.439277  0.024464  0.752118  1
  Rh  Rh24  1  0.975536  0.414814  0.752118  1
  Rh  Rh25  1  0.585186  0.560723  0.752118  1
  Rh  Rh26  1  0.666667  0.333333  0.248876  1
  Rh  Rh27  1  0.092027  0.184413  0.244016  1
  Rh  Rh28  1  0.815587  0.907614  0.244016  1
  Rh  Rh29  1  0.092386  0.907973  0.244016  1
  Rh  Rh30  1  0.024464  0.585186  0.247882  1
  Rh  Rh31  1  0.414814  0.439277  0.247882  1
  Rh  Rh32  1  0.560723  0.975536  0.247882  1
  Rh  Rh33  1  0.675631  0.924449  0.741985  1
  Rh  Rh34  1  0.075551  0.751182  0.741985  1
  Rh  Rh35  1  0.248818  0.324369  0.741985  1
  Rh  Rh36  1  0.907973  0.815587  0.755984  1
  Rh  Rh37  1  0.184413  0.092386  0.755984  1
  Rh  Rh38  1  0.907614  0.092027  0.755984  1
