# generated using pymatgen
data_Zr6Al6GaNi16
_symmetry_space_group_name_H-M   'P 1'
_cell_length_a   8.30515015
_cell_length_b   8.30514950
_cell_length_c   8.32034200
_cell_angle_alpha   59.93946922
_cell_angle_beta   59.93947181
_cell_angle_gamma   59.95913905
_symmetry_Int_Tables_number   1
_chemical_formula_structural   Zr6Al6GaNi16
_chemical_formula_sum   'Zr6 Al6 Ga1 Ni16'
_cell_volume   405.31169292
_cell_formula_units_Z   1
loop_
 _symmetry_equiv_pos_site_id
 _symmetry_equiv_pos_as_xyz
  1  'x, y, z'
loop_
 _atom_site_type_symbol
 _atom_site_label
 _atom_site_symmetry_multiplicity
 _atom_site_fract_x
 _atom_site_fract_y
 _atom_site_fract_z
 _atom_site_occupancy
  Zr  Zr0  1  0.792279  0.207721  0.792857  1
  Zr  Zr1  1  0.792165  0.792165  0.207835  1
  Zr  Zr2  1  0.207721  0.792279  0.792857  1
  Zr  Zr3  1  0.207835  0.207835  0.792165  1
  Zr  Zr4  1  0.792279  0.207721  0.207143  1
  Zr  Zr5  1  0.207721  0.792279  0.207143  1
  Al  Al6  1  0.000000  0.500000  0.000000  1
  Al  Al7  1  0.500000  0.500000  0.500000  1
  Al  Al8  1  0.500000  0.000000  0.500000  1
  Al  Al9  1  0.000000  0.500000  0.500000  1
  Al  Al10  1  0.000000  0.000000  0.500000  1
  Al  Al11  1  0.500000  0.000000  0.000000  1
  Ga  Ga12  1  0.500000  0.500000  0.000000  1
  Ni  Ni13  1  0.168653  0.168653  0.169425  1
  Ni  Ni14  1  0.621589  0.621589  0.138593  1
  Ni  Ni15  1  0.378411  0.378411  0.381773  1
  Ni  Ni16  1  0.168193  0.492409  0.169699  1
  Ni  Ni17  1  0.168653  0.168653  0.493269  1
  Ni  Ni18  1  0.137415  0.620937  0.620823  1
  Ni  Ni19  1  0.620937  0.137415  0.620823  1
  Ni  Ni20  1  0.831347  0.831347  0.830575  1
  Ni  Ni21  1  0.862585  0.379063  0.379177  1
  Ni  Ni22  1  0.378411  0.378411  0.861407  1
  Ni  Ni23  1  0.379063  0.862585  0.379177  1
  Ni  Ni24  1  0.507591  0.831807  0.830301  1
  Ni  Ni25  1  0.621589  0.621589  0.618227  1
  Ni  Ni26  1  0.831347  0.831347  0.506731  1
  Ni  Ni27  1  0.492409  0.168193  0.169699  1
  Ni  Ni28  1  0.831807  0.507591  0.830301  1
