# generated using pymatgen
data_NaNdPbBr6
_symmetry_space_group_name_H-M   'P 1'
_cell_length_a   8.05657167
_cell_length_b   8.05652321
_cell_length_c   8.05638197
_cell_angle_alpha   56.78740053
_cell_angle_beta   56.78743157
_cell_angle_gamma   56.78816735
_symmetry_Int_Tables_number   1
_chemical_formula_structural   NaNdPbBr6
_chemical_formula_sum   'Na1 Nd1 Pb1 Br6'
_cell_volume   342.34612355
_cell_formula_units_Z   1
loop_
 _symmetry_equiv_pos_site_id
 _symmetry_equiv_pos_as_xyz
  1  'x, y, z'
loop_
 _atom_site_type_symbol
 _atom_site_label
 _atom_site_symmetry_multiplicity
 _atom_site_fract_x
 _atom_site_fract_y
 _atom_site_fract_z
 _atom_site_occupancy
  Na  Na0  1  0.670085  0.670075  0.670080  1
  Nd  Nd1  1  0.999870  0.999885  0.999879  1
  Pb  Pb2  1  0.330486  0.330492  0.330496  1
  Br  Br3  1  0.241577  0.605740  0.913023  1
  Br  Br4  1  0.605739  0.913030  0.241573  1
  Br  Br5  1  0.913040  0.241556  0.605735  1
  Br  Br6  1  0.758082  0.395471  0.085658  1
  Br  Br7  1  0.395458  0.085663  0.758091  1
  Br  Br8  1  0.085664  0.758089  0.395464  1
