# generated using pymatgen
data_Nd5TcRuO12
_symmetry_space_group_name_H-M   'P 1'
_cell_length_a   7.08540736
_cell_length_b   7.08540729
_cell_length_c   7.79868835
_cell_angle_alpha   73.84056316
_cell_angle_beta   73.84057509
_cell_angle_gamma   48.46699836
_symmetry_Int_Tables_number   1
_chemical_formula_structural   Nd5TcRuO12
_chemical_formula_sum   'Nd5 Tc1 Ru1 O12'
_cell_volume   279.09593555
_cell_formula_units_Z   1
loop_
 _symmetry_equiv_pos_site_id
 _symmetry_equiv_pos_as_xyz
  1  'x, y, z'
loop_
 _atom_site_type_symbol
 _atom_site_label
 _atom_site_symmetry_multiplicity
 _atom_site_fract_x
 _atom_site_fract_y
 _atom_site_fract_z
 _atom_site_occupancy
  Nd  Nd0  1  0.297487  0.314689  0.354905  1
  Nd  Nd1  1  0.685311  0.702513  0.645095  1
  Nd  Nd2  1  0.683019  0.689985  0.169236  1
  Nd  Nd3  1  0.310015  0.316981  0.830764  1
  Nd  Nd4  1  0.994896  0.005104  0.500000  1
  Tc  Tc5  1  0.792898  0.207102  0.000000  1
  Ru  Ru6  1  0.228419  0.771581  0.000000  1
  O  O7  1  0.089765  0.597271  0.578532  1
  O  O8  1  0.000732  0.998242  0.195150  1
  O  O9  1  0.402729  0.910235  0.421468  1
  O  O10  1  0.504466  0.493137  0.166511  1
  O  O11  1  0.088185  0.583982  0.079854  1
  O  O12  1  0.896692  0.408621  0.426256  1
  O  O13  1  0.001758  0.999268  0.804850  1
  O  O14  1  0.591379  0.103307  0.573744  1
  O  O15  1  0.506863  0.495534  0.833489  1
  O  O16  1  0.597956  0.088589  0.078720  1
  O  O17  1  0.416018  0.911815  0.920146  1
  O  O18  1  0.911411  0.402044  0.921280  1
