# generated using pymatgen
data_La10Hg3GeRu6
_symmetry_space_group_name_H-M   'P 1'
_cell_length_a   8.77950002
_cell_length_b   8.71175665
_cell_length_c   8.71175596
_cell_angle_alpha   109.31316355
_cell_angle_beta   109.62882148
_cell_angle_gamma   109.62882001
_symmetry_Int_Tables_number   1
_chemical_formula_structural   La10Hg3GeRu6
_chemical_formula_sum   'La10 Hg3 Ge1 Ru6'
_cell_volume   511.93040003
_cell_formula_units_Z   1
loop_
 _symmetry_equiv_pos_site_id
 _symmetry_equiv_pos_as_xyz
  1  'x, y, z'
loop_
 _atom_site_type_symbol
 _atom_site_label
 _atom_site_symmetry_multiplicity
 _atom_site_fract_x
 _atom_site_fract_y
 _atom_site_fract_z
 _atom_site_occupancy
  La  La0  1  0.777600  0.000000  0.000000  1
  La  La1  1  0.248352  0.302613  0.058896  1
  La  La2  1  0.713419  0.710619  0.207672  1
  La  La3  1  0.189456  0.941104  0.243717  1
  La  La4  1  0.002800  0.497054  0.289382  1
  La  La5  1  0.743725  0.183249  0.430627  1
  La  La6  1  0.505748  0.792330  0.502948  1
  La  La7  1  0.945739  0.756283  0.697387  1
  La  La8  1  0.313098  0.569373  0.752622  1
  La  La9  1  0.560476  0.247378  0.816750  1
  Hg  Hg10  1  0.503483  0.413351  0.502346  1
  Hg  Hg11  1  0.090131  0.088995  0.586649  1
  Hg  Hg12  1  0.001137  0.497654  0.911005  1
  Ge  Ge13  1  0.407378  0.000000  0.000000  1
  Ru  Ru14  1  0.395572  0.770916  0.128422  1
  Ru  Ru15  1  0.624655  0.357506  0.229084  1
  Ru  Ru16  1  0.108951  0.258714  0.358054  1
  Ru  Ru17  1  0.267150  0.871578  0.642495  1
  Ru  Ru18  1  0.850236  0.099340  0.741286  1
  Ru  Ru19  1  0.750897  0.641946  0.900660  1
