# generated using pymatgen
data_CsHo3CI6
_symmetry_space_group_name_H-M   'P 1'
_cell_length_a   9.38532715
_cell_length_b   9.45842413
_cell_length_c   9.92443933
_cell_angle_alpha   71.59951635
_cell_angle_beta   84.48837644
_cell_angle_gamma   89.33589573
_symmetry_Int_Tables_number   1
_chemical_formula_structural   CsHo3CI6
_chemical_formula_sum   'Cs2 Ho6 C2 I12'
_cell_volume   831.92566750
_cell_formula_units_Z   2
loop_
 _symmetry_equiv_pos_site_id
 _symmetry_equiv_pos_as_xyz
  1  'x, y, z'
loop_
 _atom_site_type_symbol
 _atom_site_label
 _atom_site_symmetry_multiplicity
 _atom_site_fract_x
 _atom_site_fract_y
 _atom_site_fract_z
 _atom_site_occupancy
  Cs  Cs0  1  0.464432  0.368999  0.328208  1
  Cs  Cs1  1  0.535569  0.631001  0.671792  1
  Ho  Ho2  1  0.920491  0.760085  0.003151  1
  Ho  Ho3  1  0.079509  0.239915  0.996848  1
  Ho  Ho4  1  0.757432  0.081088  0.001316  1
  Ho  Ho5  1  0.242567  0.918912  0.998685  1
  Ho  Ho6  1  0.972988  0.896782  0.309311  1
  Ho  Ho7  1  0.027011  0.103218  0.690690  1
  C  C8  1  0.006678  0.024744  0.924189  1
  C  C9  1  0.993321  0.975256  0.075811  1
  I  I10  1  0.073180  0.199118  0.328292  1
  I  I11  1  0.926820  0.800882  0.671708  1
  I  I12  1  0.201483  0.597102  0.999892  1
  I  I13  1  0.798518  0.402898  0.000108  1
  I  I14  1  0.400713  0.198349  0.001763  1
  I  I15  1  0.599286  0.801652  0.998236  1
  I  I16  1  0.664615  0.001944  0.326053  1
  I  I17  1  0.335385  0.998056  0.673947  1
  I  I18  1  0.277715  0.780778  0.322216  1
  I  I19  1  0.722285  0.219222  0.677784  1
  I  I20  1  0.854744  0.592993  0.326196  1
  I  I21  1  0.145255  0.407007  0.673804  1
