# generated using pymatgen
data_Ce5Co3Si7P5Ru16
_symmetry_space_group_name_H-M   'P 1'
_cell_length_a   12.73032238
_cell_length_b   12.73032193
_cell_length_c   3.91189800
_cell_angle_alpha   90.00000000
_cell_angle_beta   90.00000000
_cell_angle_gamma   120.32871446
_symmetry_Int_Tables_number   1
_chemical_formula_structural   Ce5Co3Si7P5Ru16
_chemical_formula_sum   'Ce5 Co3 Si7 P5 Ru16'
_cell_volume   547.20348938
_cell_formula_units_Z   1
loop_
 _symmetry_equiv_pos_site_id
 _symmetry_equiv_pos_as_xyz
  1  'x, y, z'
loop_
 _atom_site_type_symbol
 _atom_site_label
 _atom_site_symmetry_multiplicity
 _atom_site_fract_x
 _atom_site_fract_y
 _atom_site_fract_z
 _atom_site_occupancy
  Ce  Ce0  1  0.184183  0.184183  0.500000  1
  Ce  Ce1  1  0.814170  0.000214  0.500000  1
  Ce  Ce2  1  0.000214  0.814170  0.500000  1
  Ce  Ce3  1  0.334292  0.667251  0.000000  1
  Ce  Ce4  1  0.667251  0.334292  0.000000  1
  Co  Co5  1  0.722764  0.722764  0.500000  1
  Co  Co6  1  0.274227  0.999511  0.500000  1
  Co  Co7  1  0.999511  0.274227  0.500000  1
  Si  Si8  1  0.814475  0.814475  0.000000  1
  Si  Si9  1  0.157919  0.469640  0.500000  1
  Si  Si10  1  0.530670  0.688018  0.500000  1
  Si  Si11  1  0.312167  0.842828  0.500000  1
  Si  Si12  1  0.688018  0.530670  0.500000  1
  Si  Si13  1  0.842828  0.312167  0.500000  1
  Si  Si14  1  0.469640  0.157919  0.500000  1
  P  P15  1  0.186836  0.998702  0.000000  1
  P  P16  1  0.998702  0.186836  0.000000  1
  P  P17  1  0.380824  0.380824  0.000000  1
  P  P18  1  0.618607  0.000541  0.000000  1
  P  P19  1  0.000541  0.618607  0.000000  1
  Ru  Ru20  1  0.565425  0.565425  0.000000  1
  Ru  Ru21  1  0.435232  0.000608  0.000000  1
  Ru  Ru22  1  0.000608  0.435232  0.000000  1
  Ru  Ru23  1  0.181424  0.368564  0.000000  1
  Ru  Ru24  1  0.628052  0.812858  0.000000  1
  Ru  Ru25  1  0.187497  0.817710  0.000000  1
  Ru  Ru26  1  0.812858  0.628052  0.000000  1
  Ru  Ru27  1  0.817710  0.187497  0.000000  1
  Ru  Ru28  1  0.368564  0.181424  0.000000  1
  Ru  Ru29  1  0.361552  0.485476  0.500000  1
  Ru  Ru30  1  0.513393  0.876467  0.500000  1
  Ru  Ru31  1  0.124966  0.637808  0.500000  1
  Ru  Ru32  1  0.876467  0.513393  0.500000  1
  Ru  Ru33  1  0.637808  0.124966  0.500000  1
  Ru  Ru34  1  0.485476  0.361552  0.500000  1
  Ru  Ru35  1  0.005127  0.005127  0.000000  1
