# generated using pymatgen
data_GdErCdNi2
_symmetry_space_group_name_H-M   'P 1'
_cell_length_a   7.34070700
_cell_length_b   7.34070665
_cell_length_c   3.62979900
_cell_angle_alpha   90.00000000
_cell_angle_beta   90.00000000
_cell_angle_gamma   148.83606774
_symmetry_Int_Tables_number   1
_chemical_formula_structural   GdErCdNi2
_chemical_formula_sum   'Gd1 Er1 Cd1 Ni2'
_cell_volume   101.21829097
_cell_formula_units_Z   1
loop_
 _symmetry_equiv_pos_site_id
 _symmetry_equiv_pos_as_xyz
  1  'x, y, z'
loop_
 _atom_site_type_symbol
 _atom_site_label
 _atom_site_symmetry_multiplicity
 _atom_site_fract_x
 _atom_site_fract_y
 _atom_site_fract_z
 _atom_site_occupancy
  Gd  Gd0  1  0.361318  0.638682  0.500000  1
  Er  Er1  1  0.639581  0.360419  0.500000  1
  Cd  Cd2  1  0.001134  0.998866  0.000000  1
  Ni  Ni3  1  0.799350  0.200650  0.000000  1
  Ni  Ni4  1  0.198618  0.801382  0.000000  1
