# generated using pymatgen
data_Y4Ho8Os3Ru
_symmetry_space_group_name_H-M   'P 1'
_cell_length_a   6.30687110
_cell_length_b   7.39723031
_cell_length_c   9.07843400
_cell_angle_alpha   90.00000000
_cell_angle_beta   90.00000000
_cell_angle_gamma   89.95580777
_symmetry_Int_Tables_number   1
_chemical_formula_structural   Y4Ho8Os3Ru
_chemical_formula_sum   'Y4 Ho8 Os3 Ru1'
_cell_volume   423.53948739
_cell_formula_units_Z   1
loop_
 _symmetry_equiv_pos_site_id
 _symmetry_equiv_pos_as_xyz
  1  'x, y, z'
loop_
 _atom_site_type_symbol
 _atom_site_label
 _atom_site_symmetry_multiplicity
 _atom_site_fract_x
 _atom_site_fract_y
 _atom_site_fract_z
 _atom_site_occupancy
  Y  Y0  1  0.870194  0.537729  0.250000  1
  Y  Y1  1  0.629556  0.038371  0.250000  1
  Y  Y2  1  0.130744  0.461303  0.750000  1
  Y  Y3  1  0.370682  0.960308  0.750000  1
  Ho  Ho4  1  0.330250  0.675687  0.064247  1
  Ho  Ho5  1  0.168934  0.175551  0.436959  1
  Ho  Ho6  1  0.668517  0.324513  0.563730  1
  Ho  Ho7  1  0.832526  0.825372  0.937095  1
  Ho  Ho8  1  0.668517  0.324513  0.936270  1
  Ho  Ho9  1  0.832526  0.825372  0.562905  1
  Ho  Ho10  1  0.330250  0.675687  0.435753  1
  Ho  Ho11  1  0.168934  0.175551  0.063041  1
  Os  Os12  1  0.043753  0.884744  0.250000  1
  Os  Os13  1  0.455592  0.384895  0.250000  1
  Os  Os14  1  0.956065  0.115503  0.750000  1
  Ru  Ru15  1  0.542957  0.614901  0.750000  1
