# generated using pymatgen
data_Sr3LaOs6O19
_symmetry_space_group_name_H-M   'P 1'
_cell_length_a   8.00199023
_cell_length_b   8.02338099
_cell_length_c   8.02338181
_cell_angle_alpha   109.52517568
_cell_angle_beta   109.41721863
_cell_angle_gamma   109.41722070
_symmetry_Int_Tables_number   1
_chemical_formula_structural   Sr3LaOs6O19
_chemical_formula_sum   'Sr3 La1 Os6 O19'
_cell_volume   396.80757712
_cell_formula_units_Z   1
loop_
 _symmetry_equiv_pos_site_id
 _symmetry_equiv_pos_as_xyz
  1  'x, y, z'
loop_
 _atom_site_type_symbol
 _atom_site_label
 _atom_site_symmetry_multiplicity
 _atom_site_fract_x
 _atom_site_fract_y
 _atom_site_fract_z
 _atom_site_occupancy
  Sr  Sr0  1  0.999626  0.998909  0.302849  1
  Sr  Sr1  1  0.000717  0.303940  0.001091  1
  Sr  Sr2  1  0.696777  0.697151  0.696060  1
  La  La3  1  0.298897  0.000000  0.000000  1
  Os  Os4  1  0.362097  0.499875  0.862529  1
  Os  Os5  1  0.862222  0.362654  0.500125  1
  Os  Os6  1  0.499568  0.137471  0.637346  1
  Os  Os7  1  0.136039  0.635697  0.499172  1
  Os  Os8  1  0.500341  0.863475  0.364303  1
  Os  Os9  1  0.636867  0.500828  0.136525  1
  O  O10  1  0.331105  0.999647  0.330600  1
  O  O11  1  0.331458  0.330952  0.000353  1
  O  O12  1  0.000506  0.669400  0.669048  1
  O  O13  1  0.667479  0.668070  0.998552  1
  O  O14  1  0.999410  0.330482  0.331930  1
  O  O15  1  0.668927  0.001448  0.669518  1
  O  O16  1  0.025723  0.000000  0.000000  1
  O  O17  1  0.351165  0.286999  0.642299  1
  O  O18  1  0.064165  0.355300  0.713001  1
  O  O19  1  0.708866  0.357701  0.644700  1
  O  O20  1  0.358517  0.649160  0.713862  1
  O  O21  1  0.286730  0.935921  0.650630  1
  O  O22  1  0.636101  0.349370  0.285290  1
  O  O23  1  0.289475  0.641948  0.354607  1
  O  O24  1  0.709358  0.064702  0.350840  1
  O  O25  1  0.934869  0.645393  0.287341  1
  O  O26  1  0.647528  0.712659  0.358052  1
  O  O27  1  0.644654  0.286138  0.935298  1
  O  O28  1  0.350809  0.714710  0.064079  1
