# generated using pymatgen
data_Lu5Zr3(P3Rh4)4
_symmetry_space_group_name_H-M   'P 1'
_cell_length_a   12.89158200
_cell_length_b   12.89158206
_cell_length_c   3.92077300
_cell_angle_alpha   90.00000000
_cell_angle_beta   90.00000000
_cell_angle_gamma   120.00000498
_symmetry_Int_Tables_number   1
_chemical_formula_structural   Lu5Zr3(P3Rh4)4
_chemical_formula_sum   'Lu5 Zr3 P12 Rh16'
_cell_volume   564.30609564
_cell_formula_units_Z   1
loop_
 _symmetry_equiv_pos_site_id
 _symmetry_equiv_pos_as_xyz
  1  'x, y, z'
loop_
 _atom_site_type_symbol
 _atom_site_label
 _atom_site_symmetry_multiplicity
 _atom_site_fract_x
 _atom_site_fract_y
 _atom_site_fract_z
 _atom_site_occupancy
  Lu  Lu0  1  0.666667  0.333333  0.000000  1
  Lu  Lu1  1  0.333333  0.666667  0.000000  1
  Lu  Lu2  1  0.813838  0.813838  0.500000  1
  Lu  Lu3  1  0.186162  0.000000  0.500000  1
  Lu  Lu4  1  0.000000  0.186162  0.500000  1
  Zr  Zr5  1  0.446591  0.446591  0.000000  1
  Zr  Zr6  1  0.553409  0.000000  0.000000  1
  Zr  Zr7  1  0.000000  0.553409  0.000000  1
  P  P8  1  0.686326  0.169759  0.500000  1
  P  P9  1  0.830241  0.516568  0.500000  1
  P  P10  1  0.483432  0.313674  0.500000  1
  P  P11  1  0.169759  0.686326  0.500000  1
  P  P12  1  0.516568  0.830241  0.500000  1
  P  P13  1  0.313674  0.483432  0.500000  1
  P  P14  1  0.174858  0.174858  0.000000  1
  P  P15  1  0.825142  0.000000  0.000000  1
  P  P16  1  0.000000  0.825142  0.000000  1
  P  P17  1  0.648684  0.648684  0.000000  1
  P  P18  1  0.351316  0.000000  0.000000  1
  P  P19  1  0.000000  0.351316  0.000000  1
  Rh  Rh20  1  0.866521  0.355403  0.500000  1
  Rh  Rh21  1  0.644597  0.511118  0.500000  1
  Rh  Rh22  1  0.488882  0.133479  0.500000  1
  Rh  Rh23  1  0.355403  0.866521  0.500000  1
  Rh  Rh24  1  0.511118  0.644597  0.500000  1
  Rh  Rh25  1  0.133479  0.488882  0.500000  1
  Rh  Rh26  1  0.806518  0.178186  0.000000  1
  Rh  Rh27  1  0.821814  0.628331  0.000000  1
  Rh  Rh28  1  0.371669  0.193482  0.000000  1
  Rh  Rh29  1  0.178186  0.806518  0.000000  1
  Rh  Rh30  1  0.628331  0.821814  0.000000  1
  Rh  Rh31  1  0.193482  0.371669  0.000000  1
  Rh  Rh32  1  0.275380  0.275380  0.500000  1
  Rh  Rh33  1  0.724620  0.000000  0.500000  1
  Rh  Rh34  1  0.000000  0.724620  0.500000  1
  Rh  Rh35  1  0.000000  0.000000  0.000000  1
