# generated using pymatgen
data_Tb2CoNi3B4
_symmetry_space_group_name_H-M   'P 1'
_cell_length_a   4.94249691
_cell_length_b   4.96556698
_cell_length_c   6.90235828
_cell_angle_alpha   59.08855768
_cell_angle_beta   59.34028660
_cell_angle_gamma   63.81472508
_symmetry_Int_Tables_number   1
_chemical_formula_structural   Tb2CoNi3B4
_chemical_formula_sum   'Tb2 Co1 Ni3 B4'
_cell_volume   121.27566094
_cell_formula_units_Z   1
loop_
 _symmetry_equiv_pos_site_id
 _symmetry_equiv_pos_as_xyz
  1  'x, y, z'
loop_
 _atom_site_type_symbol
 _atom_site_label
 _atom_site_symmetry_multiplicity
 _atom_site_fract_x
 _atom_site_fract_y
 _atom_site_fract_z
 _atom_site_occupancy
  Tb  Tb0  1  0.121628  0.875421  0.254110  1
  Tb  Tb1  1  0.873684  0.118712  0.757407  1
  Co  Co2  1  0.466964  0.280733  0.200491  1
  Ni  Ni3  1  0.727296  0.532191  0.298513  1
  Ni  Ni4  1  0.534118  0.726878  0.794283  1
  Ni  Ni5  1  0.277626  0.468379  0.700160  1
  B  B6  1  0.163353  0.497477  0.023342  1
  B  B7  1  0.494817  0.849377  0.472710  1
  B  B8  1  0.842462  0.487714  0.979733  1
  B  B9  1  0.498051  0.163116  0.519251  1
