# generated using pymatgen
data_YbNp3(Al3Pt)6
_symmetry_space_group_name_H-M   'P 1'
_cell_length_a   7.63489522
_cell_length_b   7.64411473
_cell_length_c   9.50691600
_cell_angle_alpha   90.00000000
_cell_angle_beta   90.00000000
_cell_angle_gamma   119.63194394
_symmetry_Int_Tables_number   1
_chemical_formula_structural   YbNp3(Al3Pt)6
_chemical_formula_sum   'Yb1 Np3 Al18 Pt6'
_cell_volume   482.28010774
_cell_formula_units_Z   1
loop_
 _symmetry_equiv_pos_site_id
 _symmetry_equiv_pos_as_xyz
  1  'x, y, z'
loop_
 _atom_site_type_symbol
 _atom_site_label
 _atom_site_symmetry_multiplicity
 _atom_site_fract_x
 _atom_site_fract_y
 _atom_site_fract_z
 _atom_site_occupancy
  Yb  Yb0  1  0.329568  0.005233  0.750000  1
  Np  Np1  1  0.996262  0.670100  0.250000  1
  Np  Np2  1  0.003041  0.330064  0.750000  1
  Np  Np3  1  0.669714  0.995835  0.250000  1
  Al  Al4  1  0.130845  0.130893  0.250000  1
  Al  Al5  1  0.867024  0.870784  0.750000  1
  Al  Al6  1  0.998434  0.334151  0.075937  1
  Al  Al7  1  0.000525  0.665060  0.922795  1
  Al  Al8  1  0.000525  0.665060  0.577205  1
  Al  Al9  1  0.335313  0.999020  0.423312  1
  Al  Al10  1  0.998434  0.334151  0.424063  1
  Al  Al11  1  0.665203  0.000367  0.576279  1
  Al  Al12  1  0.665203  0.000367  0.923721  1
  Al  Al13  1  0.335313  0.999020  0.076688  1
  Al  Al14  1  0.331706  0.332511  0.557911  1
  Al  Al15  1  0.668929  0.668571  0.442449  1
  Al  Al16  1  0.668929  0.668571  0.057551  1
  Al  Al17  1  0.331706  0.332511  0.942089  1
  Al  Al18  1  0.341199  0.547688  0.250000  1
  Al  Al19  1  0.662344  0.455395  0.750000  1
  Al  Al20  1  0.547813  0.340315  0.250000  1
  Al  Al21  1  0.451252  0.655179  0.750000  1
  Pt  Pt22  1  0.668026  0.328276  0.998487  1
  Pt  Pt23  1  0.329362  0.671484  0.999080  1
  Pt  Pt24  1  0.329362  0.671484  0.500920  1
  Pt  Pt25  1  0.668026  0.328276  0.501513  1
  Pt  Pt26  1  0.002969  0.999815  0.998597  1
  Pt  Pt27  1  0.002969  0.999815  0.501403  1
