# generated using pymatgen
data_Er3Tm17Pt16
_symmetry_space_group_name_H-M   'P 1'
_cell_length_a   7.39976148
_cell_length_b   7.48644057
_cell_length_c   14.58823520
_cell_angle_alpha   90.00022907
_cell_angle_beta   89.98768040
_cell_angle_gamma   89.98338378
_symmetry_Int_Tables_number   1
_chemical_formula_structural   Er3Tm17Pt16
_chemical_formula_sum   'Er3 Tm17 Pt16'
_cell_volume   808.15717076
_cell_formula_units_Z   1
loop_
 _symmetry_equiv_pos_site_id
 _symmetry_equiv_pos_as_xyz
  1  'x, y, z'
loop_
 _atom_site_type_symbol
 _atom_site_label
 _atom_site_symmetry_multiplicity
 _atom_site_fract_x
 _atom_site_fract_y
 _atom_site_fract_z
 _atom_site_occupancy
  Er  Er0  1  0.501469  0.320635  0.907304  1
  Er  Er1  1  0.498392  0.679423  0.407381  1
  Er  Er2  1  0.998470  0.820603  0.092658  1
  Tm  Tm3  1  0.681000  0.989331  0.250058  1
  Tm  Tm4  1  0.180993  0.510751  0.250031  1
  Tm  Tm5  1  0.818906  0.489253  0.749764  1
  Tm  Tm6  1  0.319045  0.010639  0.749859  1
  Tm  Tm7  1  0.656572  0.832964  0.622238  1
  Tm  Tm8  1  0.156116  0.667274  0.877436  1
  Tm  Tm9  1  0.844290  0.332440  0.377768  1
  Tm  Tm10  1  0.343886  0.167306  0.122361  1
  Tm  Tm11  1  0.344014  0.167443  0.377978  1
  Tm  Tm12  1  0.844000  0.332395  0.122093  1
  Tm  Tm13  1  0.155987  0.667696  0.622044  1
  Tm  Tm14  1  0.656066  0.832385  0.877801  1
  Tm  Tm15  1  0.997922  0.820124  0.407028  1
  Tm  Tm16  1  0.497617  0.680382  0.093137  1
  Tm  Tm17  1  0.502343  0.319386  0.593139  1
  Tm  Tm18  1  0.002238  0.180561  0.906919  1
  Tm  Tm19  1  0.001951  0.179983  0.592788  1
  Pt  Pt20  1  0.817701  0.643727  0.250469  1
  Pt  Pt21  1  0.317740  0.856189  0.249744  1
  Pt  Pt22  1  0.682562  0.143759  0.749360  1
  Pt  Pt23  1  0.181521  0.355821  0.749680  1
  Pt  Pt24  1  0.546282  0.386031  0.249775  1
  Pt  Pt25  1  0.046236  0.113897  0.250289  1
  Pt  Pt26  1  0.953963  0.886578  0.750001  1
  Pt  Pt27  1  0.453491  0.613683  0.749620  1
  Pt  Pt28  1  0.815816  0.531730  0.542296  1
  Pt  Pt29  1  0.315432  0.966990  0.958190  1
  Pt  Pt30  1  0.684661  0.033296  0.458580  1
  Pt  Pt31  1  0.184608  0.467131  0.041740  1
  Pt  Pt32  1  0.183131  0.466824  0.458396  1
  Pt  Pt33  1  0.683137  0.032595  0.041867  1
  Pt  Pt34  1  0.315490  0.968339  0.542181  1
  Pt  Pt35  1  0.816953  0.532437  0.958030  1
