# generated using pymatgen
data_La5Pr3Cd2FePd
_symmetry_space_group_name_H-M   'P 1'
_cell_length_a   10.01059960
_cell_length_b   10.01059944
_cell_length_c   10.15219200
_cell_angle_alpha   59.53099138
_cell_angle_beta   59.53099193
_cell_angle_gamma   60.14703803
_symmetry_Int_Tables_number   1
_chemical_formula_structural   La5Pr3Cd2FePd
_chemical_formula_sum   'La10 Pr6 Cd4 Fe2 Pd2'
_cell_volume   715.02774539
_cell_formula_units_Z   2
loop_
 _symmetry_equiv_pos_site_id
 _symmetry_equiv_pos_as_xyz
  1  'x, y, z'
loop_
 _atom_site_type_symbol
 _atom_site_label
 _atom_site_symmetry_multiplicity
 _atom_site_fract_x
 _atom_site_fract_y
 _atom_site_fract_z
 _atom_site_occupancy
  La  La0  1  0.341730  0.341730  0.362234  1
  La  La1  1  0.341730  0.341730  0.954306  1
  La  La2  1  0.337586  0.962371  0.350022  1
  La  La3  1  0.962371  0.337586  0.350022  1
  La  La4  1  0.824773  0.189917  0.189812  1
  La  La5  1  0.189917  0.824773  0.795499  1
  La  La6  1  0.189917  0.824773  0.189812  1
  La  La7  1  0.824773  0.189917  0.795499  1
  La  La8  1  0.188550  0.188550  0.811450  1
  La  La9  1  0.803208  0.803208  0.196792  1
  Pr  Pr10  1  0.935332  0.563363  0.564763  1
  Pr  Pr11  1  0.563363  0.935332  0.936542  1
  Pr  Pr12  1  0.563363  0.935332  0.564763  1
  Pr  Pr13  1  0.935332  0.563363  0.936542  1
  Pr  Pr14  1  0.562194  0.562194  0.937806  1
  Pr  Pr15  1  0.935874  0.935874  0.564126  1
  Cd  Cd16  1  0.578976  0.578976  0.579630  1
  Cd  Cd17  1  0.578976  0.578976  0.262416  1
  Cd  Cd18  1  0.580802  0.259134  0.580031  1
  Cd  Cd19  1  0.259134  0.580802  0.580031  1
  Fe  Fe20  1  0.138176  0.138176  0.141107  1
  Fe  Fe21  1  0.138176  0.138176  0.582540  1
  Pd  Pd22  1  0.147451  0.578294  0.137127  1
  Pd  Pd23  1  0.578294  0.147451  0.137127  1
