# generated using pymatgen
data_Th7Re2Tc
_symmetry_space_group_name_H-M   'P 1'
_cell_length_a   10.01633616
_cell_length_b   10.00798946
_cell_length_c   6.32727289
_cell_angle_alpha   90.09333525
_cell_angle_beta   89.81347910
_cell_angle_gamma   120.02759576
_symmetry_Int_Tables_number   1
_chemical_formula_structural   Th7Re2Tc
_chemical_formula_sum   'Th14 Re4 Tc2'
_cell_volume   549.13584642
_cell_formula_units_Z   2
loop_
 _symmetry_equiv_pos_site_id
 _symmetry_equiv_pos_as_xyz
  1  'x, y, z'
loop_
 _atom_site_type_symbol
 _atom_site_label
 _atom_site_symmetry_multiplicity
 _atom_site_fract_x
 _atom_site_fract_y
 _atom_site_fract_z
 _atom_site_occupancy
  Th  Th0  1  0.332558  0.666604  0.029355  1
  Th  Th1  1  0.665955  0.333396  0.529355  1
  Th  Th2  1  0.126571  0.875206  0.253030  1
  Th  Th3  1  0.251363  0.124794  0.753030  1
  Th  Th4  1  0.875672  0.748478  0.757705  1
  Th  Th5  1  0.127193  0.251522  0.257705  1
  Th  Th6  1  0.749689  0.874165  0.257684  1
  Th  Th7  1  0.875523  0.125835  0.757684  1
  Th  Th8  1  0.535747  0.459292  0.045507  1
  Th  Th9  1  0.076454  0.540708  0.545507  1
  Th  Th10  1  0.461872  0.922860  0.545771  1
  Th  Th11  1  0.539011  0.077140  0.045771  1
  Th  Th12  1  0.921866  0.457794  0.047025  1
  Th  Th13  1  0.464072  0.542206  0.547025  1
  Re  Re14  1  0.813870  0.184320  0.303437  1
  Re  Re15  1  0.629549  0.815680  0.803437  1
  Re  Re16  1  0.186328  0.371148  0.797828  1
  Re  Re17  1  0.815181  0.628852  0.297828  1
  Tc  Tc18  1  0.367197  0.182868  0.292658  1
  Tc  Tc19  1  0.184328  0.817132  0.792658  1
