# generated using pymatgen
data_Sr2Si4GeN8
_symmetry_space_group_name_H-M   'P 1'
_cell_length_a   5.82478631
_cell_length_b   6.93033115
_cell_length_c   9.50463300
_cell_angle_alpha   90.00000000
_cell_angle_beta   90.00000000
_cell_angle_gamma   88.85165117
_symmetry_Int_Tables_number   1
_chemical_formula_structural   Sr2Si4GeN8
_chemical_formula_sum   'Sr4 Si8 Ge2 N16'
_cell_volume   383.60309526
_cell_formula_units_Z   2
loop_
 _symmetry_equiv_pos_site_id
 _symmetry_equiv_pos_as_xyz
  1  'x, y, z'
loop_
 _atom_site_type_symbol
 _atom_site_label
 _atom_site_symmetry_multiplicity
 _atom_site_fract_x
 _atom_site_fract_y
 _atom_site_fract_z
 _atom_site_occupancy
  Sr  Sr0  1  0.483764  0.119148  0.129873  1
  Sr  Sr1  1  0.016236  0.880852  0.629873  1
  Sr  Sr2  1  0.498469  0.124269  0.503548  1
  Sr  Sr3  1  0.001531  0.875731  0.003548  1
  Si  Si4  1  0.493088  0.597384  0.600466  1
  Si  Si5  1  0.006912  0.402616  0.100466  1
  Si  Si6  1  0.498030  0.578980  0.041407  1
  Si  Si7  1  0.001970  0.421020  0.541407  1
  Si  Si8  1  0.496871  0.938179  0.824681  1
  Si  Si9  1  0.003129  0.061821  0.324681  1
  Si  Si10  1  0.253351  0.336819  0.820287  1
  Si  Si11  1  0.246649  0.663181  0.320287  1
  Ge  Ge12  1  0.757208  0.320020  0.817819  1
  Ge  Ge13  1  0.742792  0.679980  0.317819  1
  N  N14  1  0.488093  0.572996  0.228085  1
  N  N15  1  0.011907  0.427004  0.728085  1
  N  N16  1  0.463047  0.821659  0.665789  1
  N  N17  1  0.036953  0.178341  0.165789  1
  N  N18  1  0.493683  0.411070  0.724491  1
  N  N19  1  0.006317  0.588930  0.224491  1
  N  N20  1  0.752931  0.567630  0.501322  1
  N  N21  1  0.747069  0.432370  0.001322  1
  N  N22  1  0.252628  0.546809  0.488304  1
  N  N23  1  0.247372  0.453191  0.988304  1
  N  N24  1  0.755682  0.058722  0.817359  1
  N  N25  1  0.744318  0.941278  0.317359  1
  N  N26  1  0.264020  0.094673  0.843996  1
  N  N27  1  0.235980  0.905327  0.343996  1
  N  N28  1  0.993618  0.194292  0.479614  1
  N  N29  1  0.506382  0.805708  0.979614  1
