# generated using pymatgen
data_ErTaB2Ru5W
_symmetry_space_group_name_H-M   'P 1'
_cell_length_a   9.52309601
_cell_length_b   9.52309630
_cell_length_c   3.05203900
_cell_angle_alpha   90.00000000
_cell_angle_beta   90.00000000
_cell_angle_gamma   90.52368397
_symmetry_Int_Tables_number   1
_chemical_formula_structural   ErTaB2Ru5W
_chemical_formula_sum   'Er2 Ta2 B4 Ru10 W2'
_cell_volume   276.77590356
_cell_formula_units_Z   2
loop_
 _symmetry_equiv_pos_site_id
 _symmetry_equiv_pos_as_xyz
  1  'x, y, z'
loop_
 _atom_site_type_symbol
 _atom_site_label
 _atom_site_symmetry_multiplicity
 _atom_site_fract_x
 _atom_site_fract_y
 _atom_site_fract_z
 _atom_site_occupancy
  Er  Er0  1  0.823560  0.676440  0.000000  1
  Er  Er1  1  0.176440  0.323560  0.000000  1
  Ta  Ta2  1  0.324026  0.824026  0.000000  1
  Ta  Ta3  1  0.675974  0.175974  0.000000  1
  B  B4  1  0.620095  0.879905  0.000000  1
  B  B5  1  0.379905  0.120095  0.000000  1
  B  B6  1  0.121101  0.621101  0.000000  1
  B  B7  1  0.878899  0.378899  0.000000  1
  Ru  Ru8  1  0.561912  0.720386  0.500000  1
  Ru  Ru9  1  0.438088  0.279614  0.500000  1
  Ru  Ru10  1  0.078929  0.786848  0.500000  1
  Ru  Ru11  1  0.921071  0.213152  0.500000  1
  Ru  Ru12  1  0.286848  0.578929  0.500000  1
  Ru  Ru13  1  0.713152  0.421071  0.500000  1
  Ru  Ru14  1  0.220386  0.061912  0.500000  1
  Ru  Ru15  1  0.779614  0.938088  0.500000  1
  Ru  Ru16  1  0.500000  0.000000  0.500000  1
  Ru  Ru17  1  0.000000  0.500000  0.500000  1
  W  W18  1  0.500000  0.500000  0.000000  1
  W  W19  1  0.000000  0.000000  0.000000  1
