# generated using pymatgen
data_Tb16MgGa(Co2Ag)2
_symmetry_space_group_name_H-M   'P 1'
_cell_length_a   9.48835033
_cell_length_b   9.48721106
_cell_length_c   9.48721114
_cell_angle_alpha   59.83822859
_cell_angle_beta   60.05755779
_cell_angle_gamma   60.05754849
_symmetry_Int_Tables_number   1
_chemical_formula_structural   Tb16MgGa(Co2Ag)2
_chemical_formula_sum   'Tb16 Mg1 Ga1 Co4 Ag2'
_cell_volume   603.66416835
_cell_formula_units_Z   1
loop_
 _symmetry_equiv_pos_site_id
 _symmetry_equiv_pos_as_xyz
  1  'x, y, z'
loop_
 _atom_site_type_symbol
 _atom_site_label
 _atom_site_symmetry_multiplicity
 _atom_site_fract_x
 _atom_site_fract_y
 _atom_site_fract_z
 _atom_site_occupancy
  Tb  Tb0  1  0.808149  0.189005  0.189005  1
  Tb  Tb1  1  0.189300  0.810043  0.810043  1
  Tb  Tb2  1  0.185720  0.811378  0.187176  1
  Tb  Tb3  1  0.807508  0.191663  0.808031  1
  Tb  Tb4  1  0.185720  0.187176  0.811378  1
  Tb  Tb5  1  0.807508  0.808031  0.191663  1
  Tb  Tb6  1  0.934158  0.563413  0.563414  1
  Tb  Tb7  1  0.559948  0.940041  0.940042  1
  Tb  Tb8  1  0.561258  0.938715  0.563447  1
  Tb  Tb9  1  0.937989  0.561798  0.940282  1
  Tb  Tb10  1  0.561258  0.563446  0.938716  1
  Tb  Tb11  1  0.937989  0.940281  0.561799  1
  Tb  Tb12  1  0.344413  0.344443  0.344443  1
  Tb  Tb13  1  0.348343  0.348584  0.959076  1
  Tb  Tb14  1  0.348343  0.959076  0.348584  1
  Tb  Tb15  1  0.949514  0.351543  0.351543  1
  Mg  Mg16  1  0.288279  0.569556  0.569556  1
  Ga  Ga17  1  0.585621  0.582369  0.582369  1
  Co  Co18  1  0.138382  0.142632  0.142632  1
  Co  Co19  1  0.140055  0.142193  0.576970  1
  Co  Co20  1  0.140055  0.576970  0.142193  1
  Co  Co21  1  0.575560  0.141714  0.141714  1
  Ag  Ag22  1  0.582467  0.582592  0.253338  1
  Ag  Ag23  1  0.582467  0.253338  0.582592  1
