# generated using pymatgen
data_Er3Sc2Tl3InRh2
_symmetry_space_group_name_H-M   'P 1'
_cell_length_a   3.55169800
_cell_length_b   7.92671086
_cell_length_c   17.98776301
_cell_angle_alpha   89.70974778
_cell_angle_beta   90.00000000
_cell_angle_gamma   90.00000000
_symmetry_Int_Tables_number   1
_chemical_formula_structural   Er3Sc2Tl3InRh2
_chemical_formula_sum   'Er6 Sc4 Tl6 In2 Rh4'
_cell_volume   506.40808635
_cell_formula_units_Z   2
loop_
 _symmetry_equiv_pos_site_id
 _symmetry_equiv_pos_as_xyz
  1  'x, y, z'
loop_
 _atom_site_type_symbol
 _atom_site_label
 _atom_site_symmetry_multiplicity
 _atom_site_fract_x
 _atom_site_fract_y
 _atom_site_fract_z
 _atom_site_occupancy
  Er  Er0  1  0.000000  0.000000  0.000000  1
  Er  Er1  1  0.000000  0.500000  0.500000  1
  Er  Er2  1  0.000000  0.751409  0.783475  1
  Er  Er3  1  0.000000  0.248591  0.216525  1
  Er  Er4  1  0.000000  0.250202  0.716129  1
  Er  Er5  1  0.000000  0.749798  0.283871  1
  Sc  Sc6  1  0.000000  0.880338  0.590561  1
  Sc  Sc7  1  0.000000  0.119662  0.409439  1
  Sc  Sc8  1  0.000000  0.382016  0.907697  1
  Sc  Sc9  1  0.000000  0.617984  0.092303  1
  Tl  Tl10  1  0.500000  0.807496  0.440191  1
  Tl  Tl11  1  0.500000  0.192504  0.559809  1
  Tl  Tl12  1  0.500000  0.310077  0.058072  1
  Tl  Tl13  1  0.500000  0.689923  0.941928  1
  Tl  Tl14  1  0.500000  0.920202  0.149668  1
  Tl  Tl15  1  0.500000  0.079798  0.850332  1
  In  In16  1  0.500000  0.418856  0.349615  1
  In  In17  1  0.500000  0.581144  0.650385  1
  Rh  Rh18  1  0.500000  0.959299  0.693342  1
  Rh  Rh19  1  0.500000  0.040701  0.306658  1
  Rh  Rh20  1  0.500000  0.464786  0.804319  1
  Rh  Rh21  1  0.500000  0.535214  0.195681  1
