# generated using pymatgen
data_CaEu3Sn4(PdRh)2
_symmetry_space_group_name_H-M   'P 1'
_cell_length_a   4.64674500
_cell_length_b   7.42210471
_cell_length_c   8.09449100
_cell_angle_alpha   90.40465969
_cell_angle_beta   90.00000000
_cell_angle_gamma   90.00000000
_symmetry_Int_Tables_number   1
_chemical_formula_structural   CaEu3Sn4(PdRh)2
_chemical_formula_sum   'Ca1 Eu3 Sn4 Pd2 Rh2'
_cell_volume   279.16092602
_cell_formula_units_Z   1
loop_
 _symmetry_equiv_pos_site_id
 _symmetry_equiv_pos_as_xyz
  1  'x, y, z'
loop_
 _atom_site_type_symbol
 _atom_site_label
 _atom_site_symmetry_multiplicity
 _atom_site_fract_x
 _atom_site_fract_y
 _atom_site_fract_z
 _atom_site_occupancy
  Ca  Ca0  1  0.250000  0.522278  0.184191  1
  Eu  Eu1  1  0.750000  0.472229  0.818318  1
  Eu  Eu2  1  0.250000  0.028526  0.316710  1
  Eu  Eu3  1  0.750000  0.978705  0.682463  1
  Sn  Sn4  1  0.250000  0.165959  0.928657  1
  Sn  Sn5  1  0.750000  0.337793  0.426031  1
  Sn  Sn6  1  0.250000  0.654096  0.570754  1
  Sn  Sn7  1  0.750000  0.843607  0.072779  1
  Pd  Pd8  1  0.750000  0.711275  0.388509  1
  Pd  Pd9  1  0.250000  0.786271  0.891608  1
  Rh  Rh10  1  0.750000  0.214246  0.109860  1
  Rh  Rh11  1  0.250000  0.285015  0.610118  1
