# generated using pymatgen
data_Nb2CoF12
_symmetry_space_group_name_H-M   'P 1'
_cell_length_a   5.36518329
_cell_length_b   5.66414802
_cell_length_c   9.40261200
_cell_angle_alpha   74.02586198
_cell_angle_beta   88.84012936
_cell_angle_gamma   62.43108527
_symmetry_Int_Tables_number   1
_chemical_formula_structural   Nb2CoF12
_chemical_formula_sum   'Nb2 Co1 F12'
_cell_volume   241.58143157
_cell_formula_units_Z   1
loop_
 _symmetry_equiv_pos_site_id
 _symmetry_equiv_pos_as_xyz
  1  'x, y, z'
loop_
 _atom_site_type_symbol
 _atom_site_label
 _atom_site_symmetry_multiplicity
 _atom_site_fract_x
 _atom_site_fract_y
 _atom_site_fract_z
 _atom_site_occupancy
  Nb  Nb0  1  0.775330  0.002747  0.243006  1
  Nb  Nb1  1  0.224670  0.997253  0.756994  1
  Co  Co2  1  0.500000  0.500000  0.500000  1
  F  F3  1  0.948036  0.233133  0.205965  1
  F  F4  1  0.051964  0.766867  0.794035  1
  F  F5  1  0.015807  0.762098  0.138527  1
  F  F6  1  0.451076  0.767237  0.624950  1
  F  F7  1  0.548924  0.232763  0.375050  1
  F  F8  1  0.923295  0.251789  0.578132  1
  F  F9  1  0.076705  0.748211  0.421868  1
  F  F10  1  0.400367  0.241994  0.670062  1
  F  F11  1  0.599633  0.758006  0.329938  1
  F  F12  1  0.513626  0.784941  0.918412  1
  F  F13  1  0.486374  0.215059  0.081588  1
  F  F14  1  0.984193  0.237902  0.861473  1
