# generated using pymatgen
data_LaBe2Au5
_symmetry_space_group_name_H-M   'P 1'
_cell_length_a   6.51825000
_cell_length_b   8.78002700
_cell_length_c   10.16984400
_cell_angle_alpha   90.00000000
_cell_angle_beta   90.00000000
_cell_angle_gamma   90.00000000
_symmetry_Int_Tables_number   1
_chemical_formula_structural   LaBe2Au5
_chemical_formula_sum   'La4 Be8 Au20'
_cell_volume   582.02435185
_cell_formula_units_Z   4
loop_
 _symmetry_equiv_pos_site_id
 _symmetry_equiv_pos_as_xyz
  1  'x, y, z'
loop_
 _atom_site_type_symbol
 _atom_site_label
 _atom_site_symmetry_multiplicity
 _atom_site_fract_x
 _atom_site_fract_y
 _atom_site_fract_z
 _atom_site_occupancy
  La  La0  1  0.250000  0.258487  0.128055  1
  La  La1  1  0.250000  0.758487  0.371945  1
  La  La2  1  0.750000  0.741513  0.871945  1
  La  La3  1  0.750000  0.241513  0.628055  1
  Be  Be4  1  0.250000  0.063251  0.587270  1
  Be  Be5  1  0.250000  0.563251  0.912730  1
  Be  Be6  1  0.750000  0.936749  0.412730  1
  Be  Be7  1  0.750000  0.436749  0.087270  1
  Be  Be8  1  0.250000  0.334965  0.485170  1
  Be  Be9  1  0.250000  0.834965  0.014830  1
  Be  Be10  1  0.750000  0.665035  0.514830  1
  Be  Be11  1  0.750000  0.165035  0.985170  1
  Au  Au12  1  0.034792  0.106243  0.393577  1
  Au  Au13  1  0.465208  0.606243  0.106423  1
  Au  Au14  1  0.534792  0.893757  0.606423  1
  Au  Au15  1  0.965208  0.393757  0.893577  1
  Au  Au16  1  0.965208  0.893757  0.606423  1
  Au  Au17  1  0.534792  0.393757  0.893577  1
  Au  Au18  1  0.465208  0.106243  0.393577  1
  Au  Au19  1  0.034792  0.606243  0.106423  1
  Au  Au20  1  0.017838  0.055655  0.865656  1
  Au  Au21  1  0.482162  0.555655  0.634344  1
  Au  Au22  1  0.517838  0.944345  0.134344  1
  Au  Au23  1  0.982162  0.444345  0.365656  1
  Au  Au24  1  0.982162  0.944345  0.134344  1
  Au  Au25  1  0.517838  0.444345  0.365656  1
  Au  Au26  1  0.482162  0.055655  0.865656  1
  Au  Au27  1  0.017838  0.555655  0.634344  1
  Au  Au28  1  0.250000  0.280072  0.708832  1
  Au  Au29  1  0.250000  0.780072  0.791168  1
  Au  Au30  1  0.750000  0.719928  0.291168  1
  Au  Au31  1  0.750000  0.219928  0.208832  1
