# generated using pymatgen
data_Yb2V3Si7Pt9
_symmetry_space_group_name_H-M   'P 1'
_cell_length_a   9.86080200
_cell_length_b   9.86080247
_cell_length_c   3.90881500
_cell_angle_alpha   90.00000000
_cell_angle_beta   90.00000000
_cell_angle_gamma   120.00000513
_symmetry_Int_Tables_number   1
_chemical_formula_structural   Yb2V3Si7Pt9
_chemical_formula_sum   'Yb2 V3 Si7 Pt9'
_cell_volume   329.15482308
_cell_formula_units_Z   1
loop_
 _symmetry_equiv_pos_site_id
 _symmetry_equiv_pos_as_xyz
  1  'x, y, z'
loop_
 _atom_site_type_symbol
 _atom_site_label
 _atom_site_symmetry_multiplicity
 _atom_site_fract_x
 _atom_site_fract_y
 _atom_site_fract_z
 _atom_site_occupancy
  Yb  Yb0  1  0.000000  0.000000  0.000000  1
  Yb  Yb1  1  0.333333  0.666667  0.500000  1
  V  V2  1  0.881966  0.453889  0.500000  1
  V  V3  1  0.571923  0.118034  0.500000  1
  V  V4  1  0.546111  0.428077  0.500000  1
  Si  Si5  1  0.257439  0.213226  0.500000  1
  Si  Si6  1  0.786774  0.044214  0.500000  1
  Si  Si7  1  0.955786  0.742561  0.500000  1
  Si  Si8  1  0.549949  0.631139  0.000000  1
  Si  Si9  1  0.368861  0.918809  0.000000  1
  Si  Si10  1  0.081191  0.450051  0.000000  1
  Si  Si11  1  0.666667  0.333333  0.000000  1
  Pt  Pt12  1  0.227080  0.944666  0.500000  1
  Pt  Pt13  1  0.055334  0.282415  0.500000  1
  Pt  Pt14  1  0.717585  0.772920  0.500000  1
  Pt  Pt15  1  0.302380  0.403273  0.000000  1
  Pt  Pt16  1  0.596727  0.899107  0.000000  1
  Pt  Pt17  1  0.100893  0.697620  0.000000  1
  Pt  Pt18  1  0.392890  0.176004  0.000000  1
  Pt  Pt19  1  0.823996  0.216886  0.000000  1
  Pt  Pt20  1  0.783114  0.607110  0.000000  1
