# generated using pymatgen
data_Zr3Ga3Pd2Rh
_symmetry_space_group_name_H-M   'P 1'
_cell_length_a   7.31298000
_cell_length_b   7.31297997
_cell_length_c   3.43298500
_cell_angle_alpha   90.00000000
_cell_angle_beta   90.00000000
_cell_angle_gamma   119.99999109
_symmetry_Int_Tables_number   1
_chemical_formula_structural   Zr3Ga3Pd2Rh
_chemical_formula_sum   'Zr3 Ga3 Pd2 Rh1'
_cell_volume   158.99788455
_cell_formula_units_Z   1
loop_
 _symmetry_equiv_pos_site_id
 _symmetry_equiv_pos_as_xyz
  1  'x, y, z'
loop_
 _atom_site_type_symbol
 _atom_site_label
 _atom_site_symmetry_multiplicity
 _atom_site_fract_x
 _atom_site_fract_y
 _atom_site_fract_z
 _atom_site_occupancy
  Zr  Zr0  1  0.990699  0.390245  0.500000  1
  Zr  Zr1  1  0.609755  0.600454  0.500000  1
  Zr  Zr2  1  0.399546  0.009301  0.500000  1
  Ga  Ga3  1  0.003173  0.729239  0.000000  1
  Ga  Ga4  1  0.270761  0.273934  0.000000  1
  Ga  Ga5  1  0.726066  0.996827  0.000000  1
  Pd  Pd6  1  0.333333  0.666667  0.000000  1
  Pd  Pd7  1  0.000000  0.000000  0.500000  1
  Rh  Rh8  1  0.666667  0.333333  0.000000  1
