# generated using pymatgen
data_Pr6CoRhBr6
_symmetry_space_group_name_H-M   'P 1'
_cell_length_a   10.42887814
_cell_length_b   10.42887914
_cell_length_c   10.46211252
_cell_angle_alpha   109.46833542
_cell_angle_beta   109.46833957
_cell_angle_gamma   109.34794446
_symmetry_Int_Tables_number   1
_chemical_formula_structural   Pr6CoRhBr6
_chemical_formula_sum   'Pr12 Co2 Rh2 Br12'
_cell_volume   877.32793844
_cell_formula_units_Z   2
loop_
 _symmetry_equiv_pos_site_id
 _symmetry_equiv_pos_as_xyz
  1  'x, y, z'
loop_
 _atom_site_type_symbol
 _atom_site_label
 _atom_site_symmetry_multiplicity
 _atom_site_fract_x
 _atom_site_fract_y
 _atom_site_fract_z
 _atom_site_occupancy
  Pr  Pr0  1  0.468592  0.480579  0.237735  1
  Pr  Pr1  1  0.742845  0.230859  0.262265  1
  Pr  Pr2  1  0.741509  0.013461  0.478920  1
  Pr  Pr3  1  0.237411  0.465459  0.478920  1
  Pr  Pr4  1  0.269141  0.757155  0.237735  1
  Pr  Pr5  1  0.034541  0.262589  0.021080  1
  Pr  Pr6  1  0.019421  0.031408  0.262265  1
  Pr  Pr7  1  0.486539  0.758491  0.021080  1
  Pr  Pr8  1  0.481574  0.231574  0.463148  1
  Pr  Pr9  1  0.014385  0.485615  0.750000  1
  Pr  Pr10  1  0.268426  0.018426  0.036852  1
  Pr  Pr11  1  0.235615  0.264385  0.750000  1
  Co  Co12  1  0.250302  0.249698  0.250000  1
  Co  Co13  1  0.499698  0.000302  0.250000  1
  Rh  Rh14  1  0.999943  0.249943  0.499886  1
  Rh  Rh15  1  0.250057  0.500057  0.000114  1
  Br  Br16  1  0.249482  0.755235  0.745450  1
  Br  Br17  1  0.509787  0.504032  0.754550  1
  Br  Br18  1  0.986254  0.743730  0.993481  1
  Br  Br19  1  0.744765  0.250518  0.754550  1
  Br  Br20  1  0.995968  0.990213  0.745450  1
  Br  Br21  1  0.250250  0.992774  0.506519  1
  Br  Br22  1  0.756270  0.513746  0.506519  1
  Br  Br23  1  0.507226  0.249750  0.993481  1
  Br  Br24  1  0.755096  0.744904  0.250000  1
  Br  Br25  1  0.743647  0.993647  0.987296  1
  Br  Br26  1  0.994904  0.505096  0.250000  1
  Br  Br27  1  0.506353  0.756353  0.512704  1
