# generated using pymatgen
data_DyEr7Zn3Si12Rh
_symmetry_space_group_name_H-M   'P 1'
_cell_length_a   8.08911405
_cell_length_b   8.08003144
_cell_length_c   7.98928201
_cell_angle_alpha   90.00000222
_cell_angle_beta   89.98084014
_cell_angle_gamma   119.96285210
_symmetry_Int_Tables_number   1
_chemical_formula_structural   DyEr7Zn3Si12Rh
_chemical_formula_sum   'Dy1 Er7 Zn3 Si12 Rh1'
_cell_volume   452.39188606
_cell_formula_units_Z   1
loop_
 _symmetry_equiv_pos_site_id
 _symmetry_equiv_pos_as_xyz
  1  'x, y, z'
loop_
 _atom_site_type_symbol
 _atom_site_label
 _atom_site_symmetry_multiplicity
 _atom_site_fract_x
 _atom_site_fract_y
 _atom_site_fract_z
 _atom_site_occupancy
  Dy  Dy0  1  0.995856  0.497928  0.750243  1
  Er  Er1  1  0.999825  0.999912  0.248662  1
  Er  Er2  1  0.999896  0.999948  0.751420  1
  Er  Er3  1  0.999482  0.499741  0.250154  1
  Er  Er4  1  0.500366  0.499663  0.250197  1
  Er  Er5  1  0.502361  0.004784  0.749830  1
  Er  Er6  1  0.500366  0.000704  0.250197  1
  Er  Er7  1  0.502361  0.497578  0.749830  1
  Zn  Zn8  1  0.334120  0.667060  0.995861  1
  Zn  Zn9  1  0.334170  0.667085  0.500406  1
  Zn  Zn10  1  0.666157  0.333078  0.006517  1
  Si  Si11  1  0.166826  0.333413  0.001495  1
  Si  Si12  1  0.666760  0.833380  0.001166  1
  Si  Si13  1  0.163406  0.326838  0.500870  1
  Si  Si14  1  0.333446  0.166723  0.998991  1
  Si  Si15  1  0.166826  0.833413  0.001495  1
  Si  Si16  1  0.673384  0.836692  0.501046  1
  Si  Si17  1  0.833171  0.666510  0.999308  1
  Si  Si18  1  0.338857  0.169428  0.498757  1
  Si  Si19  1  0.163406  0.836567  0.500870  1
  Si  Si20  1  0.829988  0.660198  0.498423  1
  Si  Si21  1  0.833171  0.166661  0.999308  1
  Si  Si22  1  0.829988  0.169789  0.498423  1
  Rh  Rh23  1  0.665811  0.332905  0.496532  1
