# generated using pymatgen
data_SrLa4Sm2FeBr12
_symmetry_space_group_name_H-M   'P 1'
_cell_length_a   9.71387699
_cell_length_b   9.70734907
_cell_length_c   9.35006195
_cell_angle_alpha   106.01796279
_cell_angle_beta   105.94286370
_cell_angle_gamma   106.57378695
_symmetry_Int_Tables_number   1
_chemical_formula_structural   SrLa4Sm2FeBr12
_chemical_formula_sum   'Sr1 La4 Sm2 Fe1 Br12'
_cell_volume   750.09694649
_cell_formula_units_Z   1
loop_
 _symmetry_equiv_pos_site_id
 _symmetry_equiv_pos_as_xyz
  1  'x, y, z'
loop_
 _atom_site_type_symbol
 _atom_site_label
 _atom_site_symmetry_multiplicity
 _atom_site_fract_x
 _atom_site_fract_y
 _atom_site_fract_z
 _atom_site_occupancy
  Sr  Sr0  1  0.500946  0.497822  0.495532  1
  La  La1  1  0.017333  0.096328  0.282930  1
  La  La2  1  0.980356  0.907826  0.717300  1
  La  La3  1  0.680092  0.981165  0.890839  1
  La  La4  1  0.893843  0.681654  0.986383  1
  Sm  Sm5  1  0.109964  0.310036  0.018169  1
  Sm  Sm6  1  0.306889  0.018658  0.107022  1
  Fe  Fe7  1  0.999515  0.001967  0.002681  1
  Br  Br8  1  0.220692  0.686148  0.074928  1
  Br  Br9  1  0.444475  0.355025  0.138594  1
  Br  Br10  1  0.675085  0.071330  0.219488  1
  Br  Br11  1  0.933052  0.786640  0.330964  1
  Br  Br12  1  0.156967  0.450877  0.359492  1
  Br  Br13  1  0.368142  0.152611  0.449768  1
  Br  Br14  1  0.629552  0.842864  0.541323  1
  Br  Br15  1  0.845637  0.551699  0.632146  1
  Br  Br16  1  0.075081  0.224110  0.683881  1
  Br  Br17  1  0.316558  0.928025  0.788030  1
  Br  Br18  1  0.549462  0.633966  0.850808  1
  Br  Br19  1  0.796358  0.321251  0.929721  1
