# generated using pymatgen
data_Zr6Zn17SiAg6
_symmetry_space_group_name_H-M   'P 1'
_cell_length_a   8.90683703
_cell_length_b   8.90507392
_cell_length_c   8.90507400
_cell_angle_alpha   59.99999969
_cell_angle_beta   60.00654764
_cell_angle_gamma   60.00654268
_symmetry_Int_Tables_number   1
_chemical_formula_structural   Zr6Zn17SiAg6
_chemical_formula_sum   'Zr6 Zn17 Si1 Ag6'
_cell_volume   499.48968784
_cell_formula_units_Z   1
loop_
 _symmetry_equiv_pos_site_id
 _symmetry_equiv_pos_as_xyz
  1  'x, y, z'
loop_
 _atom_site_type_symbol
 _atom_site_label
 _atom_site_symmetry_multiplicity
 _atom_site_fract_x
 _atom_site_fract_y
 _atom_site_fract_z
 _atom_site_occupancy
  Zr  Zr0  1  0.704829  0.294591  0.294591  1
  Zr  Zr1  1  0.295171  0.705409  0.705409  1
  Zr  Zr2  1  0.295171  0.705409  0.294010  1
  Zr  Zr3  1  0.704829  0.294591  0.705990  1
  Zr  Zr4  1  0.295171  0.294010  0.705409  1
  Zr  Zr5  1  0.704829  0.705990  0.294591  1
  Zn  Zn6  1  0.635511  0.121496  0.121496  1
  Zn  Zn7  1  0.364489  0.878504  0.878504  1
  Zn  Zn8  1  0.500000  0.000000  0.000000  1
  Zn  Zn9  1  0.000000  0.500000  0.500000  1
  Zn  Zn10  1  0.000000  0.500000  0.000000  1
  Zn  Zn11  1  0.500000  0.000000  0.500000  1
  Zn  Zn12  1  0.000000  0.000000  0.500000  1
  Zn  Zn13  1  0.500000  0.500000  0.000000  1
  Zn  Zn14  1  0.335651  0.334870  0.334870  1
  Zn  Zn15  1  0.664349  0.665130  0.665130  1
  Zn  Zn16  1  0.335651  0.334870  0.994611  1
  Zn  Zn17  1  0.335651  0.994611  0.334870  1
  Zn  Zn18  1  0.664349  0.665130  0.005389  1
  Zn  Zn19  1  0.664349  0.005389  0.665130  1
  Zn  Zn20  1  0.994657  0.335115  0.335115  1
  Zn  Zn21  1  0.005343  0.664885  0.664885  1
  Zn  Zn22  1  0.000000  0.000000  0.000000  1
  Si  Si23  1  0.500000  0.500000  0.500000  1
  Ag  Ag24  1  0.121713  0.119868  0.119868  1
  Ag  Ag25  1  0.878287  0.880132  0.880132  1
  Ag  Ag26  1  0.121713  0.119868  0.638551  1
  Ag  Ag27  1  0.121713  0.638551  0.119868  1
  Ag  Ag28  1  0.878287  0.880132  0.361449  1
  Ag  Ag29  1  0.878287  0.361449  0.880132  1
