# generated using pymatgen
data_Li2TaCd2SbO8
_symmetry_space_group_name_H-M   'P 1'
_cell_length_a   6.38215718
_cell_length_b   9.00078390
_cell_length_c   6.38202717
_cell_angle_alpha   89.58767237
_cell_angle_beta   89.94484046
_cell_angle_gamma   90.40679957
_symmetry_Int_Tables_number   1
_chemical_formula_structural   Li2TaCd2SbO8
_chemical_formula_sum   'Li4 Ta2 Cd4 Sb2 O16'
_cell_volume   366.59291208
_cell_formula_units_Z   2
loop_
 _symmetry_equiv_pos_site_id
 _symmetry_equiv_pos_as_xyz
  1  'x, y, z'
loop_
 _atom_site_type_symbol
 _atom_site_label
 _atom_site_symmetry_multiplicity
 _atom_site_fract_x
 _atom_site_fract_y
 _atom_site_fract_z
 _atom_site_occupancy
  Li  Li0  1  0.219437  0.974332  0.997527  1
  Li  Li1  1  0.778923  0.516296  0.001854  1
  Li  Li2  1  0.997533  0.275488  0.219474  1
  Li  Li3  1  0.001891  0.733451  0.778916  1
  Ta  Ta4  1  0.501885  0.247951  0.231543  1
  Ta  Ta5  1  0.231615  0.002132  0.501869  1
  Cd  Cd6  1  0.744938  0.873112  0.235011  1
  Cd  Cd7  1  0.235035  0.376882  0.744911  1
  Cd  Cd8  1  0.247232  0.625017  0.247375  1
  Cd  Cd9  1  0.751856  0.125017  0.751824  1
  Sb  Sb10  1  0.755061  0.500244  0.501441  1
  Sb  Sb11  1  0.501453  0.749769  0.755151  1
  O  O12  1  0.269348  0.267895  0.051829  1
  O  O13  1  0.732488  0.245815  0.046118  1
  O  O14  1  0.051850  0.982096  0.269367  1
  O  O15  1  0.953411  0.500614  0.265243  1
  O  O16  1  0.046252  0.004372  0.732485  1
  O  O17  1  0.953635  0.507270  0.735493  1
  O  O18  1  0.265198  0.749379  0.953468  1
  O  O19  1  0.735518  0.742647  0.953685  1
  O  O20  1  0.485718  0.029764  0.277920  1
  O  O21  1  0.521094  0.474540  0.282898  1
  O  O22  1  0.277922  0.220337  0.485648  1
  O  O23  1  0.729387  0.277155  0.481963  1
  O  O24  1  0.282991  0.775570  0.521123  1
  O  O25  1  0.726700  0.727004  0.519744  1
  O  O26  1  0.519640  0.522981  0.726658  1
  O  O27  1  0.481987  0.972876  0.729466  1
