# generated using pymatgen
data_Yb2CeLuH11
_symmetry_space_group_name_H-M   'P 1'
_cell_length_a   6.35195252
_cell_length_b   6.35195375
_cell_length_c   6.35195369
_cell_angle_alpha   130.18851715
_cell_angle_beta   132.96273256
_cell_angle_gamma   70.92368653
_symmetry_Int_Tables_number   1
_chemical_formula_structural   Yb2CeLuH11
_chemical_formula_sum   'Yb2 Ce1 Lu1 H11'
_cell_volume   140.31730160
_cell_formula_units_Z   1
loop_
 _symmetry_equiv_pos_site_id
 _symmetry_equiv_pos_as_xyz
  1  'x, y, z'
loop_
 _atom_site_type_symbol
 _atom_site_label
 _atom_site_symmetry_multiplicity
 _atom_site_fract_x
 _atom_site_fract_y
 _atom_site_fract_z
 _atom_site_occupancy
  Yb  Yb0  1  0.259343  0.259343  0.000000  1
  Yb  Yb1  1  0.740657  0.740657  0.000000  1
  Ce  Ce2  1  0.000000  0.500000  0.500000  1
  Lu  Lu3  1  0.500000  0.000000  0.500000  1
  H  H4  1  0.648195  0.113986  0.988306  1
  H  H5  1  0.351805  0.340110  0.465790  1
  H  H6  1  0.125680  0.659890  0.011694  1
  H  H7  1  0.874320  0.886014  0.534210  1
  H  H8  1  0.874320  0.340110  0.988306  1
  H  H9  1  0.648195  0.659890  0.534210  1
  H  H10  1  0.351805  0.886014  0.011694  1
  H  H11  1  0.125680  0.113986  0.465790  1
  H  H12  1  0.772477  0.272477  0.500000  1
  H  H13  1  0.500000  0.500000  0.000000  1
  H  H14  1  0.227523  0.727523  0.500000  1
