# generated using pymatgen
data_La8In2OsRh
_symmetry_space_group_name_H-M   'P 1'
_cell_length_a   10.12191545
_cell_length_b   10.22252077
_cell_length_c   10.12176765
_cell_angle_alpha   59.67101115
_cell_angle_beta   59.32142471
_cell_angle_gamma   59.67079178
_symmetry_Int_Tables_number   1
_chemical_formula_structural   La8In2OsRh
_chemical_formula_sum   'La16 In4 Os2 Rh2'
_cell_volume   733.04238851
_cell_formula_units_Z   2
loop_
 _symmetry_equiv_pos_site_id
 _symmetry_equiv_pos_as_xyz
  1  'x, y, z'
loop_
 _atom_site_type_symbol
 _atom_site_label
 _atom_site_symmetry_multiplicity
 _atom_site_fract_x
 _atom_site_fract_y
 _atom_site_fract_z
 _atom_site_occupancy
  La  La0  1  0.190618  0.192453  0.803635  1
  La  La1  1  0.596179  0.595653  0.212502  1
  La  La2  1  0.438752  0.061246  0.438768  1
  La  La3  1  0.438704  0.442163  0.062262  1
  La  La4  1  0.811546  0.188447  0.811563  1
  La  La5  1  0.194146  0.805861  0.194129  1
  La  La6  1  0.438710  0.056857  0.062264  1
  La  La7  1  0.190606  0.813311  0.803621  1
  La  La8  1  0.056449  0.443544  0.056450  1
  La  La9  1  0.803633  0.813306  0.190602  1
  La  La10  1  0.212507  0.595665  0.596183  1
  La  La11  1  0.062253  0.442175  0.438704  1
  La  La12  1  0.062258  0.056880  0.438694  1
  La  La13  1  0.803642  0.192449  0.190596  1
  La  La14  1  0.597477  0.207279  0.597488  1
  La  La15  1  0.597480  0.597757  0.597480  1
  In  In16  1  0.829610  0.830743  0.829611  1
  In  In17  1  0.830223  0.830069  0.509641  1
  In  In18  1  0.509638  0.830069  0.830226  1
  In  In19  1  0.829610  0.510043  0.829609  1
  Os  Os20  1  0.390944  0.831455  0.390953  1
  Os  Os21  1  0.390947  0.386644  0.390952  1
  Rh  Rh22  1  0.832615  0.387962  0.391459  1
  Rh  Rh23  1  0.391456  0.387966  0.832610  1
