# generated using pymatgen
data_BaSr2BPO3
_symmetry_space_group_name_H-M   'P 1'
_cell_length_a   5.38180800
_cell_length_b   5.38180761
_cell_length_c   13.09031400
_cell_angle_alpha   90.00000000
_cell_angle_beta   90.00000000
_cell_angle_gamma   120.00000238
_symmetry_Int_Tables_number   1
_chemical_formula_structural   BaSr2BPO3
_chemical_formula_sum   'Ba2 Sr4 B2 P2 O6'
_cell_volume   328.35002535
_cell_formula_units_Z   2
loop_
 _symmetry_equiv_pos_site_id
 _symmetry_equiv_pos_as_xyz
  1  'x, y, z'
loop_
 _atom_site_type_symbol
 _atom_site_label
 _atom_site_symmetry_multiplicity
 _atom_site_fract_x
 _atom_site_fract_y
 _atom_site_fract_z
 _atom_site_occupancy
  Ba  Ba0  1  0.333333  0.666667  0.410548  1
  Ba  Ba1  1  0.666667  0.333333  0.910548  1
  Sr  Sr2  1  0.000000  0.000000  0.247847  1
  Sr  Sr3  1  0.000000  0.000000  0.747847  1
  Sr  Sr4  1  0.666667  0.333333  0.606079  1
  Sr  Sr5  1  0.333333  0.666667  0.106079  1
  B  B6  1  0.333333  0.666667  0.745411  1
  B  B7  1  0.666667  0.333333  0.245411  1
  P  P8  1  0.000000  0.000000  0.003620  1
  P  P9  1  0.000000  0.000000  0.503620  1
  O  O10  1  0.517555  0.482445  0.245498  1
  O  O11  1  0.964891  0.482445  0.245498  1
  O  O12  1  0.482445  0.964891  0.745498  1
  O  O13  1  0.517555  0.035109  0.245498  1
  O  O14  1  0.035109  0.517555  0.745498  1
  O  O15  1  0.482445  0.517555  0.745498  1
