# generated using pymatgen
data_Hf6AlGa5(IrPd2)2
_symmetry_space_group_name_H-M   'P 1'
_cell_length_a   7.28848989
_cell_length_b   7.29328318
_cell_length_c   6.80807625
_cell_angle_alpha   89.88051343
_cell_angle_beta   90.12641095
_cell_angle_gamma   120.28689373
_symmetry_Int_Tables_number   1
_chemical_formula_structural   Hf6AlGa5(IrPd2)2
_chemical_formula_sum   'Hf6 Al1 Ga5 Ir2 Pd4'
_cell_volume   312.50110236
_cell_formula_units_Z   1
loop_
 _symmetry_equiv_pos_site_id
 _symmetry_equiv_pos_as_xyz
  1  'x, y, z'
loop_
 _atom_site_type_symbol
 _atom_site_label
 _atom_site_symmetry_multiplicity
 _atom_site_fract_x
 _atom_site_fract_y
 _atom_site_fract_z
 _atom_site_occupancy
  Hf  Hf0  1  0.604864  0.601173  0.249731  1
  Hf  Hf1  1  0.024874  0.409331  0.750637  1
  Hf  Hf2  1  0.401261  0.003889  0.249368  1
  Hf  Hf3  1  0.996175  0.396960  0.249700  1
  Hf  Hf4  1  0.384447  0.974933  0.750180  1
  Hf  Hf5  1  0.592361  0.617420  0.750251  1
  Al  Al6  1  0.269250  0.263237  0.499331  1
  Ga  Ga7  1  0.733725  0.008810  0.499128  1
  Ga  Ga8  1  0.994491  0.726631  0.499184  1
  Ga  Ga9  1  0.732706  0.007656  0.000914  1
  Ga  Ga10  1  0.275240  0.267936  0.000976  1
  Ga  Ga11  1  0.993247  0.725523  0.000883  1
  Ir  Ir12  1  0.332934  0.661678  0.483479  1
  Ir  Ir13  1  0.333127  0.666536  0.016965  1
  Pd  Pd14  1  0.001124  0.001153  0.750456  1
  Pd  Pd15  1  0.001246  0.001234  0.249627  1
  Pd  Pd16  1  0.662522  0.332849  0.525604  1
  Pd  Pd17  1  0.666408  0.333049  0.973586  1
