# generated using pymatgen
data_Nd3Pa5(Si3Rh)4
_symmetry_space_group_name_H-M   'P 1'
_cell_length_a   8.06743800
_cell_length_b   8.06750186
_cell_length_c   8.27180000
_cell_angle_alpha   90.00000000
_cell_angle_beta   90.00000000
_cell_angle_gamma   120.00032040
_symmetry_Int_Tables_number   1
_chemical_formula_structural   Nd3Pa5(Si3Rh)4
_chemical_formula_sum   'Nd3 Pa5 Si12 Rh4'
_cell_volume   466.23402617
_cell_formula_units_Z   1
loop_
 _symmetry_equiv_pos_site_id
 _symmetry_equiv_pos_as_xyz
  1  'x, y, z'
loop_
 _atom_site_type_symbol
 _atom_site_label
 _atom_site_symmetry_multiplicity
 _atom_site_fract_x
 _atom_site_fract_y
 _atom_site_fract_z
 _atom_site_occupancy
  Nd  Nd0  1  0.500232  0.499771  0.250000  1
  Nd  Nd1  1  0.999533  0.499768  0.250000  1
  Nd  Nd2  1  0.500246  0.000472  0.250000  1
  Pa  Pa3  1  0.000005  0.000009  0.750000  1
  Pa  Pa4  1  0.000007  0.000000  0.250000  1
  Pa  Pa5  1  0.499828  0.500176  0.750000  1
  Pa  Pa6  1  0.499812  0.999638  0.750000  1
  Pa  Pa7  1  0.000354  0.500179  0.750000  1
  Si  Si8  1  0.834854  0.165195  0.996506  1
  Si  Si9  1  0.834847  0.669673  0.996477  1
  Si  Si10  1  0.330349  0.165174  0.996501  1
  Si  Si11  1  0.834854  0.165195  0.503494  1
  Si  Si12  1  0.834847  0.669673  0.503523  1
  Si  Si13  1  0.330349  0.165174  0.503499  1
  Si  Si14  1  0.165106  0.834859  0.503508  1
  Si  Si15  1  0.669756  0.834888  0.503502  1
  Si  Si16  1  0.165116  0.330257  0.503532  1
  Si  Si17  1  0.165106  0.834859  0.996492  1
  Si  Si18  1  0.669756  0.834888  0.996498  1
  Si  Si19  1  0.165116  0.330257  0.996468  1
  Rh  Rh20  1  0.666577  0.333209  0.974746  1
  Rh  Rh21  1  0.666577  0.333209  0.525254  1
  Rh  Rh22  1  0.333386  0.666739  0.525162  1
  Rh  Rh23  1  0.333386  0.666739  0.974838  1
