# generated using pymatgen
data_Na4Co4SeS3(O4F)4
_symmetry_space_group_name_H-M   'P 1'
_cell_length_a   6.76787392
_cell_length_b   7.91925938
_cell_length_c   7.91893700
_cell_angle_alpha   66.56088610
_cell_angle_beta   92.47315057
_cell_angle_gamma   92.47306483
_symmetry_Int_Tables_number   1
_chemical_formula_structural   Na4Co4SeS3(O4F)4
_chemical_formula_sum   'Na4 Co4 Se1 S3 O16 F4'
_cell_volume   388.88624961
_cell_formula_units_Z   1
loop_
 _symmetry_equiv_pos_site_id
 _symmetry_equiv_pos_as_xyz
  1  'x, y, z'
loop_
 _atom_site_type_symbol
 _atom_site_label
 _atom_site_symmetry_multiplicity
 _atom_site_fract_x
 _atom_site_fract_y
 _atom_site_fract_z
 _atom_site_occupancy
  Na  Na0  1  0.624977  0.956644  0.293369  1
  Na  Na1  1  0.124979  0.462896  0.787124  1
  Na  Na2  1  0.875861  0.541060  0.211546  1
  Na  Na3  1  0.374097  0.038476  0.708920  1
  Co  Co4  1  0.752949  0.756066  0.747237  1
  Co  Co5  1  0.497008  0.502798  0.493936  1
  Co  Co6  1  0.245513  0.249257  0.252283  1
  Co  Co7  1  0.004564  0.997706  0.000754  1
  Se  Se8  1  0.625053  0.306450  0.943540  1
  S  S9  1  0.124974  0.806895  0.443207  1
  S  S10  1  0.874657  0.194323  0.556054  1
  S  S11  1  0.375346  0.693883  0.055608  1
  O  O12  1  0.801746  0.473225  0.894911  1
  O  O13  1  0.280937  0.957033  0.397736  1
  O  O14  1  0.448273  0.355176  0.776831  1
  O  O15  1  0.969012  0.852434  0.293093  1
  O  O16  1  0.718467  0.043825  0.600780  1
  O  O17  1  0.218696  0.544481  0.102311  1
  O  O18  1  0.031307  0.147561  0.705430  1
  O  O19  1  0.531568  0.649098  0.206082  1
  O  O20  1  0.532700  0.274663  0.147107  1
  O  O21  1  0.035810  0.781551  0.621061  1
  O  O22  1  0.717442  0.102968  0.975209  1
  O  O23  1  0.214264  0.629115  0.468407  1
  O  O24  1  0.963027  0.222169  0.376902  1
  O  O25  1  0.465851  0.717292  0.878660  1
  O  O26  1  0.784017  0.371177  0.532789  1
  O  O27  1  0.286879  0.872940  0.027908  1
  F  F28  1  0.625141  0.709202  0.540686  1
  F  F29  1  0.125067  0.210842  0.039073  1
  F  F30  1  0.878155  0.789282  0.960639  1
  F  F31  1  0.371666  0.289511  0.460804  1
