# generated using pymatgen
data_Hf2Mn12P7
_symmetry_space_group_name_H-M   'P 1'
_cell_length_a   9.15317600
_cell_length_b   9.15317705
_cell_length_c   3.54594300
_cell_angle_alpha   90.00000000
_cell_angle_beta   90.00000000
_cell_angle_gamma   120.00001066
_symmetry_Int_Tables_number   1
_chemical_formula_structural   Hf2Mn12P7
_chemical_formula_sum   'Hf2 Mn12 P7'
_cell_volume   257.27999075
_cell_formula_units_Z   1
loop_
 _symmetry_equiv_pos_site_id
 _symmetry_equiv_pos_as_xyz
  1  'x, y, z'
loop_
 _atom_site_type_symbol
 _atom_site_label
 _atom_site_symmetry_multiplicity
 _atom_site_fract_x
 _atom_site_fract_y
 _atom_site_fract_z
 _atom_site_occupancy
  Hf  Hf0  1  0.000000  0.000000  0.500000  1
  Hf  Hf1  1  0.666667  0.333333  0.000000  1
  Mn  Mn2  1  0.761816  0.717900  0.000000  1
  Mn  Mn3  1  0.282100  0.043918  0.000000  1
  Mn  Mn4  1  0.956082  0.238184  0.000000  1
  Mn  Mn5  1  0.493899  0.947307  0.000000  1
  Mn  Mn6  1  0.052693  0.546593  0.000000  1
  Mn  Mn7  1  0.453407  0.506101  0.000000  1
  Mn  Mn8  1  0.727458  0.105093  0.500000  1
  Mn  Mn9  1  0.894907  0.622365  0.500000  1
  Mn  Mn10  1  0.377635  0.272542  0.500000  1
  Mn  Mn11  1  0.562213  0.769260  0.500000  1
  Mn  Mn12  1  0.230740  0.792954  0.500000  1
  Mn  Mn13  1  0.207046  0.437787  0.500000  1
  P  P14  1  0.464879  0.079981  0.500000  1
  P  P15  1  0.920019  0.384898  0.500000  1
  P  P16  1  0.615102  0.535121  0.500000  1
  P  P17  1  0.749252  0.956907  0.000000  1
  P  P18  1  0.043093  0.792345  0.000000  1
  P  P19  1  0.207655  0.250748  0.000000  1
  P  P20  1  0.333333  0.666667  0.000000  1
