# generated using pymatgen
data_Zr3TiPd2N
_symmetry_space_group_name_H-M   'P 1'
_cell_length_a   8.71196165
_cell_length_b   8.71196190
_cell_length_c   8.71196200
_cell_angle_alpha   59.99999964
_cell_angle_beta   59.99999866
_cell_angle_gamma   59.99999789
_symmetry_Int_Tables_number   1
_chemical_formula_structural   Zr3TiPd2N
_chemical_formula_sum   'Zr12 Ti4 Pd8 N4'
_cell_volume   467.55519261
_cell_formula_units_Z   4
loop_
 _symmetry_equiv_pos_site_id
 _symmetry_equiv_pos_as_xyz
  1  'x, y, z'
loop_
 _atom_site_type_symbol
 _atom_site_label
 _atom_site_symmetry_multiplicity
 _atom_site_fract_x
 _atom_site_fract_y
 _atom_site_fract_z
 _atom_site_occupancy
  Zr  Zr0  1  0.815975  0.815975  0.184025  1
  Zr  Zr1  1  0.184025  0.184025  0.815975  1
  Zr  Zr2  1  0.815975  0.184025  0.815975  1
  Zr  Zr3  1  0.184025  0.815975  0.184025  1
  Zr  Zr4  1  0.184025  0.815975  0.815975  1
  Zr  Zr5  1  0.815975  0.184025  0.184025  1
  Zr  Zr6  1  0.434025  0.434025  0.065975  1
  Zr  Zr7  1  0.065975  0.065975  0.434025  1
  Zr  Zr8  1  0.434025  0.065975  0.434025  1
  Zr  Zr9  1  0.065975  0.434025  0.065975  1
  Zr  Zr10  1  0.065975  0.434025  0.434025  1
  Zr  Zr11  1  0.434025  0.065975  0.065975  1
  Ti  Ti12  1  0.125000  0.625000  0.625000  1
  Ti  Ti13  1  0.625000  0.125000  0.625000  1
  Ti  Ti14  1  0.625000  0.625000  0.125000  1
  Ti  Ti15  1  0.625000  0.625000  0.625000  1
  Pd  Pd16  1  0.754421  0.415193  0.415193  1
  Pd  Pd17  1  0.415193  0.754421  0.415193  1
  Pd  Pd18  1  0.415193  0.415193  0.754421  1
  Pd  Pd19  1  0.415193  0.415193  0.415193  1
  Pd  Pd20  1  0.495579  0.834807  0.834807  1
  Pd  Pd21  1  0.834807  0.495579  0.834807  1
  Pd  Pd22  1  0.834807  0.834807  0.495579  1
  Pd  Pd23  1  0.834807  0.834807  0.834807  1
  N  N24  1  0.625000  0.125000  0.125000  1
  N  N25  1  0.125000  0.625000  0.125000  1
  N  N26  1  0.125000  0.125000  0.625000  1
  N  N27  1  0.125000  0.125000  0.125000  1
