# generated using pymatgen
data_TbLuFe8Co4P7
_symmetry_space_group_name_H-M   'P 1'
_cell_length_a   3.60474200
_cell_length_b   8.97222116
_cell_length_c   8.95708100
_cell_angle_alpha   120.02544647
_cell_angle_beta   90.00000000
_cell_angle_gamma   90.00000000
_symmetry_Int_Tables_number   1
_chemical_formula_structural   TbLuFe8Co4P7
_chemical_formula_sum   'Tb1 Lu1 Fe8 Co4 P7'
_cell_volume   250.81867722
_cell_formula_units_Z   1
loop_
 _symmetry_equiv_pos_site_id
 _symmetry_equiv_pos_as_xyz
  1  'x, y, z'
loop_
 _atom_site_type_symbol
 _atom_site_label
 _atom_site_symmetry_multiplicity
 _atom_site_fract_x
 _atom_site_fract_y
 _atom_site_fract_z
 _atom_site_occupancy
  Tb  Tb0  1  0.000000  0.665941  0.332235  1
  Lu  Lu1  1  0.500000  0.334030  0.667361  1
  Fe  Fe2  1  0.000000  0.567401  0.628515  1
  Fe  Fe3  1  0.000000  0.881069  0.725593  1
  Fe  Fe4  1  0.000000  0.273173  0.155099  1
  Fe  Fe5  1  0.000000  0.846879  0.119568  1
  Fe  Fe6  1  0.500000  0.612861  0.047407  1
  Fe  Fe7  1  0.500000  0.126951  0.898013  1
  Fe  Fe8  1  0.500000  0.102111  0.229825  1
  Fe  Fe9  1  0.500000  0.777829  0.876953  1
  Co  Co10  1  0.000000  0.369711  0.937879  1
  Co  Co11  1  0.000000  0.061251  0.433510  1
  Co  Co12  1  0.500000  0.950445  0.563806  1
  Co  Co13  1  0.500000  0.434318  0.385118  1
  P  P14  1  0.000000  0.112604  0.704394  1
  P  P15  1  0.000000  0.296663  0.410091  1
  P  P16  1  0.000000  0.591336  0.887188  1
  P  P17  1  0.500000  0.709998  0.601094  1
  P  P18  1  0.500000  0.400647  0.111807  1
  P  P19  1  0.500000  0.884526  0.284902  1
  P  P20  1  0.000000  0.000255  0.999641  1
