# generated using pymatgen
data_La16SmY3Sn16
_symmetry_space_group_name_H-M   'P 1'
_cell_length_a   8.41245600
_cell_length_b   8.55810400
_cell_length_c   16.30635000
_cell_angle_alpha   90.00000000
_cell_angle_beta   90.00000000
_cell_angle_gamma   89.99904932
_symmetry_Int_Tables_number   1
_chemical_formula_structural   La16SmY3Sn16
_chemical_formula_sum   'La16 Sm1 Y3 Sn16'
_cell_volume   1173.97034167
_cell_formula_units_Z   1
loop_
 _symmetry_equiv_pos_site_id
 _symmetry_equiv_pos_as_xyz
  1  'x, y, z'
loop_
 _atom_site_type_symbol
 _atom_site_label
 _atom_site_symmetry_multiplicity
 _atom_site_fract_x
 _atom_site_fract_y
 _atom_site_fract_z
 _atom_site_occupancy
  La  La0  1  0.369239  0.840902  0.880705  1
  La  La1  1  0.868736  0.659320  0.619262  1
  La  La2  1  0.630951  0.159237  0.380819  1
  La  La3  1  0.131019  0.340798  0.119256  1
  La  La4  1  0.630951  0.159237  0.119181  1
  La  La5  1  0.131019  0.340798  0.380744  1
  La  La6  1  0.369239  0.840902  0.619295  1
  La  La7  1  0.868736  0.659320  0.880738  1
  La  La8  1  0.521065  0.317983  0.901107  1
  La  La9  1  0.020664  0.181745  0.598949  1
  La  La10  1  0.479100  0.681896  0.401102  1
  La  La11  1  0.979232  0.817963  0.098814  1
  La  La12  1  0.479100  0.681896  0.098898  1
  La  La13  1  0.979232  0.817963  0.401186  1
  La  La14  1  0.521065  0.317983  0.598893  1
  La  La15  1  0.020664  0.181745  0.901051  1
  Sm  Sm16  1  0.201288  0.501902  0.750000  1
  Y  Y17  1  0.702249  0.997872  0.750000  1
  Y  Y18  1  0.797943  0.498216  0.250000  1
  Y  Y19  1  0.297779  0.001701  0.250000  1
  Sn  Sn20  1  0.288769  0.032695  0.046133  1
  Sn  Sn21  1  0.788941  0.467248  0.453873  1
  Sn  Sn22  1  0.711236  0.967314  0.546232  1
  Sn  Sn23  1  0.211268  0.533132  0.954493  1
  Sn  Sn24  1  0.711236  0.967314  0.953768  1
  Sn  Sn25  1  0.211268  0.533132  0.545507  1
  Sn  Sn26  1  0.288769  0.032695  0.453867  1
  Sn  Sn27  1  0.788941  0.467248  0.046127  1
  Sn  Sn28  1  0.566677  0.616781  0.750000  1
  Sn  Sn29  1  0.065326  0.884507  0.750000  1
  Sn  Sn30  1  0.434551  0.383263  0.250000  1
  Sn  Sn31  1  0.934536  0.116721  0.250000  1
  Sn  Sn32  1  0.324727  0.146471  0.750000  1
  Sn  Sn33  1  0.824087  0.351860  0.750000  1
  Sn  Sn34  1  0.675293  0.851946  0.250000  1
  Sn  Sn35  1  0.175107  0.648289  0.250000  1
