# generated using pymatgen
data_Dy3Bi5(Os2O11)2
_symmetry_space_group_name_H-M   'P 1'
_cell_length_a   6.62293014
_cell_length_b   7.56226931
_cell_length_c   9.88295800
_cell_angle_alpha   101.19072041
_cell_angle_beta   92.01767707
_cell_angle_gamma   90.00397625
_symmetry_Int_Tables_number   1
_chemical_formula_structural   Dy3Bi5(Os2O11)2
_chemical_formula_sum   'Dy3 Bi5 Os4 O22'
_cell_volume   485.25747460
_cell_formula_units_Z   1
loop_
 _symmetry_equiv_pos_site_id
 _symmetry_equiv_pos_as_xyz
  1  'x, y, z'
loop_
 _atom_site_type_symbol
 _atom_site_label
 _atom_site_symmetry_multiplicity
 _atom_site_fract_x
 _atom_site_fract_y
 _atom_site_fract_z
 _atom_site_occupancy
  Dy  Dy0  1  0.753514  0.371571  0.480467  1
  Dy  Dy1  1  0.254594  0.632606  0.520456  1
  Dy  Dy2  1  0.760280  0.871503  0.487536  1
  Bi  Bi3  1  0.250173  0.128265  0.509588  1
  Bi  Bi4  1  0.470136  0.954062  0.816383  1
  Bi  Bi5  1  0.530551  0.044459  0.183525  1
  Bi  Bi6  1  0.415786  0.454759  0.821428  1
  Bi  Bi7  1  0.583799  0.545291  0.181195  1
  Os  Os8  1  0.937610  0.701560  0.807827  1
  Os  Os9  1  0.060956  0.298453  0.190754  1
  Os  Os10  1  0.935868  0.202976  0.808261  1
  Os  Os11  1  0.059837  0.796449  0.191013  1
  O  O12  1  0.229754  0.718775  0.758131  1
  O  O13  1  0.769549  0.281223  0.241295  1
  O  O14  1  0.641972  0.678538  0.830402  1
  O  O15  1  0.356630  0.320574  0.171074  1
  O  O16  1  0.640865  0.238231  0.836952  1
  O  O17  1  0.355609  0.763185  0.169494  1
  O  O18  1  0.885102  0.162735  0.599221  1
  O  O19  1  0.097613  0.824789  0.400889  1
  O  O20  1  0.227134  0.160192  0.759047  1
  O  O21  1  0.770221  0.839792  0.244292  1
  O  O22  1  0.901304  0.638054  0.598399  1
  O  O23  1  0.096364  0.374401  0.398557  1
  O  O24  1  0.012677  0.543963  0.177154  1
  O  O25  1  0.980930  0.453623  0.814117  1
  O  O26  1  0.998175  0.775564  0.999740  1
  O  O27  1  0.000699  0.224209  0.999143  1
  O  O28  1  0.570147  0.601093  0.400826  1
  O  O29  1  0.437012  0.401800  0.601243  1
  O  O30  1  0.137537  0.054555  0.220036  1
  O  O31  1  0.861073  0.945447  0.781093  1
  O  O32  1  0.554125  0.101087  0.403237  1
  O  O33  1  0.462404  0.896216  0.597226  1
