# generated using pymatgen
data_Y3Er17Pt16
_symmetry_space_group_name_H-M   'P 1'
_cell_length_a   7.43625757
_cell_length_b   7.51523663
_cell_length_c   14.69502991
_cell_angle_alpha   90.09921917
_cell_angle_beta   89.90161475
_cell_angle_gamma   89.92021833
_symmetry_Int_Tables_number   1
_chemical_formula_structural   Y3Er17Pt16
_chemical_formula_sum   'Y3 Er17 Pt16'
_cell_volume   821.23196237
_cell_formula_units_Z   1
loop_
 _symmetry_equiv_pos_site_id
 _symmetry_equiv_pos_as_xyz
  1  'x, y, z'
loop_
 _atom_site_type_symbol
 _atom_site_label
 _atom_site_symmetry_multiplicity
 _atom_site_fract_x
 _atom_site_fract_y
 _atom_site_fract_z
 _atom_site_occupancy
  Y  Y0  1  0.499599  0.321983  0.907058  1
  Y  Y1  1  0.499992  0.678064  0.407616  1
  Y  Y2  1  0.000282  0.821944  0.092515  1
  Er  Er3  1  0.682241  0.989448  0.249910  1
  Er  Er4  1  0.182129  0.510616  0.249934  1
  Er  Er5  1  0.817457  0.489613  0.749659  1
  Er  Er6  1  0.317957  0.010251  0.749988  1
  Er  Er7  1  0.655844  0.832923  0.622311  1
  Er  Er8  1  0.155218  0.667365  0.877405  1
  Er  Er9  1  0.845302  0.332390  0.377799  1
  Er  Er10  1  0.344726  0.167623  0.122111  1
  Er  Er11  1  0.345222  0.167348  0.378141  1
  Er  Er12  1  0.844993  0.332391  0.121755  1
  Er  Er13  1  0.155045  0.667757  0.622101  1
  Er  Er14  1  0.655325  0.832299  0.877935  1
  Er  Er15  1  0.999202  0.821324  0.406787  1
  Er  Er16  1  0.498315  0.679523  0.093265  1
  Er  Er17  1  0.501160  0.319980  0.593599  1
  Er  Er18  1  0.001575  0.180002  0.906636  1
  Er  Er19  1  0.000468  0.179232  0.592974  1
  Pt  Pt20  1  0.818859  0.643251  0.251142  1
  Pt  Pt21  1  0.319154  0.856693  0.249587  1
  Pt  Pt22  1  0.681863  0.142848  0.748701  1
  Pt  Pt23  1  0.179340  0.355509  0.749411  1
  Pt  Pt24  1  0.548396  0.386258  0.249617  1
  Pt  Pt25  1  0.048415  0.113747  0.250636  1
  Pt  Pt26  1  0.952028  0.887388  0.749848  1
  Pt  Pt27  1  0.451406  0.613641  0.749169  1
  Pt  Pt28  1  0.815856  0.530369  0.542814  1
  Pt  Pt29  1  0.314738  0.967026  0.957929  1
  Pt  Pt30  1  0.685540  0.033667  0.459091  1
  Pt  Pt31  1  0.185037  0.467308  0.041491  1
  Pt  Pt32  1  0.182224  0.466315  0.458854  1
  Pt  Pt33  1  0.682252  0.032271  0.041863  1
  Pt  Pt34  1  0.315119  0.969571  0.542874  1
  Pt  Pt35  1  0.817719  0.532062  0.957473  1
