# generated using pymatgen
data_Sc4Si4Ge2Ir4Pt3
_symmetry_space_group_name_H-M   'P 1'
_cell_length_a   7.05221822
_cell_length_b   7.05729533
_cell_length_c   7.06036179
_cell_angle_alpha   110.03018113
_cell_angle_beta   109.25077908
_cell_angle_gamma   109.22634687
_symmetry_Int_Tables_number   1
_chemical_formula_structural   Sc4Si4Ge2Ir4Pt3
_chemical_formula_sum   'Sc4 Si4 Ge2 Ir4 Pt3'
_cell_volume   270.17514139
_cell_formula_units_Z   1
loop_
 _symmetry_equiv_pos_site_id
 _symmetry_equiv_pos_as_xyz
  1  'x, y, z'
loop_
 _atom_site_type_symbol
 _atom_site_label
 _atom_site_symmetry_multiplicity
 _atom_site_fract_x
 _atom_site_fract_y
 _atom_site_fract_z
 _atom_site_occupancy
  Sc  Sc0  1  0.000001  0.000010  0.517667  1
  Sc  Sc1  1  0.007220  0.485634  0.003698  1
  Sc  Sc2  1  0.495075  0.992672  0.995878  1
  Sc  Sc3  1  0.495031  0.502807  0.498799  1
  Si  Si4  1  0.005675  0.319375  0.321189  1
  Si  Si5  1  0.320833  0.325465  0.000976  1
  Si  Si6  1  0.674025  0.993106  0.675464  1
  Si  Si7  1  0.005845  0.684354  0.686761  1
  Ge  Ge8  1  0.692542  0.696858  0.001267  1
  Ge  Ge9  1  0.301474  0.991949  0.303079  1
  Ir  Ir10  1  0.247044  0.497533  0.748208  1
  Ir  Ir11  1  0.248748  0.747856  0.501704  1
  Ir  Ir12  1  0.501513  0.748848  0.252362  1
  Ir  Ir13  1  0.000644  0.016023  0.984578  1
  Pt  Pt14  1  0.752759  0.251888  0.502541  1
  Pt  Pt15  1  0.750094  0.496781  0.252898  1
  Pt  Pt16  1  0.501476  0.248842  0.752932  1
