# generated using pymatgen
data_LaEu2Al11
_symmetry_space_group_name_H-M   'P 1'
_cell_length_a   8.43677702
_cell_length_b   8.43677626
_cell_length_c   8.43677700
_cell_angle_alpha   149.12160690
_cell_angle_beta   107.53493228
_cell_angle_gamma   80.81946655
_symmetry_Int_Tables_number   1
_chemical_formula_structural   LaEu2Al11
_chemical_formula_sum   'La1 Eu2 Al11'
_cell_volume   287.79713864
_cell_formula_units_Z   1
loop_
 _symmetry_equiv_pos_site_id
 _symmetry_equiv_pos_as_xyz
  1  'x, y, z'
loop_
 _atom_site_type_symbol
 _atom_site_label
 _atom_site_symmetry_multiplicity
 _atom_site_fract_x
 _atom_site_fract_y
 _atom_site_fract_z
 _atom_site_occupancy
  La  La0  1  0.000000  0.000000  0.000000  1
  Eu  Eu1  1  0.314463  0.314463  0.000000  1
  Eu  Eu2  1  0.685537  0.685537  0.000000  1
  Al  Al3  1  0.701597  0.334756  0.366841  1
  Al  Al4  1  0.298403  0.665244  0.633158  1
  Al  Al5  1  0.967914  0.334756  0.633158  1
  Al  Al6  1  0.032086  0.665244  0.366841  1
  Al  Al7  1  0.710055  0.500000  0.210055  1
  Al  Al8  1  0.289945  0.500000  0.789945  1
  Al  Al9  1  0.411631  0.136680  0.274953  1
  Al  Al10  1  0.588369  0.863320  0.725047  1
  Al  Al11  1  0.861728  0.136680  0.725047  1
  Al  Al12  1  0.138272  0.863320  0.274953  1
  Al  Al13  1  0.500000  0.000000  0.500000  1
