# generated using pymatgen
data_Dy2ErCd3CuHgPt
_symmetry_space_group_name_H-M   'P 1'
_cell_length_a   7.85260146
_cell_length_b   7.85361321
_cell_length_c   3.76465700
_cell_angle_alpha   90.00000000
_cell_angle_beta   90.00000000
_cell_angle_gamma   120.06570126
_symmetry_Int_Tables_number   1
_chemical_formula_structural   Dy2ErCd3CuHgPt
_chemical_formula_sum   'Dy2 Er1 Cd3 Cu1 Hg1 Pt1'
_cell_volume   200.93297063
_cell_formula_units_Z   1
loop_
 _symmetry_equiv_pos_site_id
 _symmetry_equiv_pos_as_xyz
  1  'x, y, z'
loop_
 _atom_site_type_symbol
 _atom_site_label
 _atom_site_symmetry_multiplicity
 _atom_site_fract_x
 _atom_site_fract_y
 _atom_site_fract_z
 _atom_site_occupancy
  Dy  Dy0  1  0.580150  0.606586  0.500000  1
  Dy  Dy1  1  0.393210  0.973669  0.500000  1
  Er  Er2  1  0.027124  0.420073  0.500000  1
  Cd  Cd3  1  0.996399  0.748934  0.000000  1
  Cd  Cd4  1  0.250231  0.247396  0.000000  1
  Cd  Cd5  1  0.753580  0.004375  0.000000  1
  Cu  Cu6  1  0.000068  0.000109  0.500000  1
  Hg  Hg7  1  0.667813  0.333658  0.000000  1
  Pt  Pt8  1  0.331427  0.665200  0.000000  1
