# generated using pymatgen
data_Yb4HfN4
_symmetry_space_group_name_H-M   'P 1'
_cell_length_a   6.06280218
_cell_length_b   6.06997701
_cell_length_c   9.21131165
_cell_angle_alpha   84.64421317
_cell_angle_beta   109.24300880
_cell_angle_gamma   111.85269958
_symmetry_Int_Tables_number   1
_chemical_formula_structural   Yb4HfN4
_chemical_formula_sum   'Yb8 Hf2 N8'
_cell_volume   296.88289429
_cell_formula_units_Z   2
loop_
 _symmetry_equiv_pos_site_id
 _symmetry_equiv_pos_as_xyz
  1  'x, y, z'
loop_
 _atom_site_type_symbol
 _atom_site_label
 _atom_site_symmetry_multiplicity
 _atom_site_fract_x
 _atom_site_fract_y
 _atom_site_fract_z
 _atom_site_occupancy
  Yb  Yb0  1  0.810071  0.271154  0.194121  1
  Yb  Yb1  1  0.189929  0.728846  0.805879  1
  Yb  Yb2  1  0.238100  0.244495  0.992355  1
  Yb  Yb3  1  0.761900  0.755505  0.007645  1
  Yb  Yb4  1  0.048831  0.263626  0.573137  1
  Yb  Yb5  1  0.951169  0.736374  0.426863  1
  Yb  Yb6  1  0.541812  0.755598  0.596609  1
  Yb  Yb7  1  0.458188  0.244402  0.403391  1
  Hf  Hf8  1  0.607226  0.281081  0.763977  1
  Hf  Hf9  1  0.392774  0.718919  0.236023  1
  N  N10  1  0.312954  0.013214  0.616341  1
  N  N11  1  0.687046  0.986786  0.383659  1
  N  N12  1  0.808835  0.154399  0.954625  1
  N  N13  1  0.191165  0.845601  0.045375  1
  N  N14  1  0.425270  0.489030  0.801533  1
  N  N15  1  0.574730  0.510970  0.198467  1
  N  N16  1  0.198338  0.513190  0.382048  1
  N  N17  1  0.801662  0.486810  0.617952  1
