# generated using pymatgen
data_Y18HoTmSn16
_symmetry_space_group_name_H-M   'P 1'
_cell_length_a   8.03730900
_cell_length_b   8.16885727
_cell_length_c   15.45815600
_cell_angle_alpha   90.00000000
_cell_angle_beta   90.00000000
_cell_angle_gamma   90.01465911
_symmetry_Int_Tables_number   1
_chemical_formula_structural   Y18HoTmSn16
_chemical_formula_sum   'Y18 Ho1 Tm1 Sn16'
_cell_volume   1014.91493814
_cell_formula_units_Z   1
loop_
 _symmetry_equiv_pos_site_id
 _symmetry_equiv_pos_as_xyz
  1  'x, y, z'
loop_
 _atom_site_type_symbol
 _atom_site_label
 _atom_site_symmetry_multiplicity
 _atom_site_fract_x
 _atom_site_fract_y
 _atom_site_fract_z
 _atom_site_occupancy
  Y  Y0  1  0.367722  0.837459  0.877570  1
  Y  Y1  1  0.867452  0.662742  0.622432  1
  Y  Y2  1  0.632448  0.162725  0.377995  1
  Y  Y3  1  0.132462  0.337297  0.122040  1
  Y  Y4  1  0.632448  0.162725  0.122005  1
  Y  Y5  1  0.132462  0.337297  0.377960  1
  Y  Y6  1  0.367722  0.837459  0.622430  1
  Y  Y7  1  0.867452  0.662742  0.877568  1
  Y  Y8  1  0.520800  0.320724  0.902502  1
  Y  Y9  1  0.020665  0.179156  0.597510  1
  Y  Y10  1  0.479373  0.679181  0.402755  1
  Y  Y11  1  0.979408  0.820805  0.097222  1
  Y  Y12  1  0.479373  0.679181  0.097245  1
  Y  Y13  1  0.979408  0.820805  0.402778  1
  Y  Y14  1  0.520800  0.320724  0.597498  1
  Y  Y15  1  0.020665  0.179156  0.902490  1
  Y  Y16  1  0.801124  0.497086  0.250000  1
  Y  Y17  1  0.301121  0.002892  0.250000  1
  Ho  Ho18  1  0.198674  0.502978  0.750000  1
  Tm  Tm19  1  0.698888  0.996938  0.750000  1
  Sn  Sn20  1  0.292957  0.036780  0.041527  1
  Sn  Sn21  1  0.792961  0.463257  0.458475  1
  Sn  Sn22  1  0.707256  0.963636  0.542383  1
  Sn  Sn23  1  0.207261  0.536377  0.957787  1
  Sn  Sn24  1  0.707256  0.963636  0.957617  1
  Sn  Sn25  1  0.207261  0.536377  0.542213  1
  Sn  Sn26  1  0.292957  0.036780  0.458473  1
  Sn  Sn27  1  0.792961  0.463257  0.041525  1
  Sn  Sn28  1  0.564841  0.618422  0.750000  1
  Sn  Sn29  1  0.064270  0.881936  0.750000  1
  Sn  Sn30  1  0.434683  0.381187  0.250000  1
  Sn  Sn31  1  0.934619  0.118768  0.250000  1
  Sn  Sn32  1  0.330184  0.148490  0.750000  1
  Sn  Sn33  1  0.829976  0.350933  0.750000  1
  Sn  Sn34  1  0.670091  0.852437  0.250000  1
  Sn  Sn35  1  0.169997  0.647659  0.250000  1
