# generated using pymatgen
data_Lu12CdFe3Ag
_symmetry_space_group_name_H-M   'P 1'
_cell_length_a   8.11027840
_cell_length_b   8.11031214
_cell_length_c   8.11027780
_cell_angle_alpha   109.39812136
_cell_angle_beta   107.39093763
_cell_angle_gamma   111.65253992
_symmetry_Int_Tables_number   1
_chemical_formula_structural   Lu12CdFe3Ag
_chemical_formula_sum   'Lu12 Cd1 Fe3 Ag1'
_cell_volume   410.09613998
_cell_formula_units_Z   1
loop_
 _symmetry_equiv_pos_site_id
 _symmetry_equiv_pos_as_xyz
  1  'x, y, z'
loop_
 _atom_site_type_symbol
 _atom_site_label
 _atom_site_symmetry_multiplicity
 _atom_site_fract_x
 _atom_site_fract_y
 _atom_site_fract_z
 _atom_site_occupancy
  Lu  Lu0  1  0.309368  0.309165  0.618532  1
  Lu  Lu1  1  0.690632  0.690835  0.381468  1
  Lu  Lu2  1  0.690634  0.309165  0.999798  1
  Lu  Lu3  1  0.309366  0.690835  0.000202  1
  Lu  Lu4  1  0.192543  0.440478  0.247935  1
  Lu  Lu5  1  0.807457  0.559522  0.752065  1
  Lu  Lu6  1  0.192544  0.944609  0.752066  1
  Lu  Lu7  1  0.957848  0.188440  0.769409  1
  Lu  Lu8  1  0.807456  0.055391  0.247934  1
  Lu  Lu9  1  0.042152  0.811560  0.230591  1
  Lu  Lu10  1  0.419031  0.188440  0.230590  1
  Lu  Lu11  1  0.580969  0.811560  0.769410  1
  Cd  Cd12  1  0.500000  0.000000  0.500000  1
  Fe  Fe13  1  0.381310  0.381308  0.999998  1
  Fe  Fe14  1  0.618690  0.618692  0.000002  1
  Fe  Fe15  1  0.000000  0.000000  0.000000  1
  Ag  Ag16  1  0.000000  0.500000  0.500000  1
