# generated using pymatgen
data_BaCuAu12
_symmetry_space_group_name_H-M   'P 1'
_cell_length_a   9.32771102
_cell_length_b   9.32771139
_cell_length_c   9.32771200
_cell_angle_alpha   60.00000492
_cell_angle_beta   60.00000363
_cell_angle_gamma   60.00000576
_symmetry_Int_Tables_number   1
_chemical_formula_structural   BaCuAu12
_chemical_formula_sum   'Ba2 Cu2 Au24'
_cell_volume   573.86582252
_cell_formula_units_Z   2
loop_
 _symmetry_equiv_pos_site_id
 _symmetry_equiv_pos_as_xyz
  1  'x, y, z'
loop_
 _atom_site_type_symbol
 _atom_site_label
 _atom_site_symmetry_multiplicity
 _atom_site_fract_x
 _atom_site_fract_y
 _atom_site_fract_z
 _atom_site_occupancy
  Ba  Ba0  1  0.250000  0.250000  0.250000  1
  Ba  Ba1  1  0.750000  0.750000  0.750000  1
  Cu  Cu2  1  0.000000  0.000000  0.000000  1
  Cu  Cu3  1  0.500000  0.500000  0.500000  1
  Au  Au4  1  0.938097  0.704059  0.295941  1
  Au  Au5  1  0.438097  0.204059  0.561903  1
  Au  Au6  1  0.204059  0.438097  0.795941  1
  Au  Au7  1  0.795941  0.204059  0.438097  1
  Au  Au8  1  0.438097  0.561903  0.795941  1
  Au  Au9  1  0.204059  0.561903  0.438097  1
  Au  Au10  1  0.795941  0.438097  0.561903  1
  Au  Au11  1  0.295941  0.938097  0.704059  1
  Au  Au12  1  0.704059  0.295941  0.938097  1
  Au  Au13  1  0.938097  0.061903  0.704059  1
  Au  Au14  1  0.938097  0.295941  0.061903  1
  Au  Au15  1  0.704059  0.061903  0.295941  1
  Au  Au16  1  0.061903  0.938097  0.295941  1
  Au  Au17  1  0.061903  0.704059  0.938097  1
  Au  Au18  1  0.295941  0.704059  0.061903  1
  Au  Au19  1  0.561903  0.438097  0.204059  1
  Au  Au20  1  0.561903  0.795941  0.438097  1
  Au  Au21  1  0.438097  0.795941  0.204059  1
  Au  Au22  1  0.561903  0.204059  0.795941  1
  Au  Au23  1  0.795941  0.561903  0.204059  1
  Au  Au24  1  0.204059  0.795941  0.561903  1
  Au  Au25  1  0.704059  0.938097  0.061903  1
  Au  Au26  1  0.295941  0.061903  0.938097  1
  Au  Au27  1  0.061903  0.295941  0.704059  1
