# generated using pymatgen
data_Ba6Gd2(WO6)3
_symmetry_space_group_name_H-M   'P 1'
_cell_length_a   10.47595353
_cell_length_b   10.47595311
_cell_length_c   10.47595266
_cell_angle_alpha   146.49364301
_cell_angle_beta   131.81857096
_cell_angle_gamma   59.96038494
_symmetry_Int_Tables_number   1
_chemical_formula_structural   Ba6Gd2(WO6)3
_chemical_formula_sum   'Ba6 Gd2 W3 O18'
_cell_volume   468.68462181
_cell_formula_units_Z   1
loop_
 _symmetry_equiv_pos_site_id
 _symmetry_equiv_pos_as_xyz
  1  'x, y, z'
loop_
 _atom_site_type_symbol
 _atom_site_label
 _atom_site_symmetry_multiplicity
 _atom_site_fract_x
 _atom_site_fract_y
 _atom_site_fract_z
 _atom_site_occupancy
  Ba  Ba0  1  0.778163  0.500000  0.278163  1
  Ba  Ba1  1  0.386158  0.153157  0.233001  1
  Ba  Ba2  1  0.079845  0.846843  0.233001  1
  Ba  Ba3  1  0.221837  0.500000  0.721837  1
  Ba  Ba4  1  0.920155  0.153157  0.766999  1
  Ba  Ba5  1  0.613842  0.846843  0.766999  1
  Gd  Gd6  1  0.666507  0.666507  0.000000  1
  Gd  Gd7  1  0.333493  0.333493  0.000000  1
  W  W8  1  0.500000  0.000000  0.500000  1
  W  W9  1  0.169354  0.669354  0.500000  1
  W  W10  1  0.830646  0.330646  0.500000  1
  O  O11  1  0.723802  0.000000  0.723802  1
  O  O12  1  0.400585  0.668663  0.731922  1
  O  O13  1  0.063259  0.331337  0.731922  1
  O  O14  1  0.577646  0.846194  0.268546  1
  O  O15  1  0.246039  0.513162  0.267123  1
  O  O16  1  0.905251  0.181086  0.275834  1
  O  O17  1  0.422354  0.690901  0.268546  1
  O  O18  1  0.094749  0.370584  0.275834  1
  O  O19  1  0.753961  0.021083  0.267123  1
  O  O20  1  0.276198  0.000000  0.276198  1
  O  O21  1  0.936741  0.668663  0.268078  1
  O  O22  1  0.599415  0.331337  0.268078  1
  O  O23  1  0.422354  0.153806  0.731454  1
  O  O24  1  0.094749  0.818914  0.724166  1
  O  O25  1  0.753961  0.486838  0.732877  1
  O  O26  1  0.577646  0.309099  0.731454  1
  O  O27  1  0.246039  0.978917  0.732877  1
  O  O28  1  0.905251  0.629417  0.724166  1
