# generated using pymatgen
data_Li4Nd2HoErSi6
_symmetry_space_group_name_H-M   'P 1'
_cell_length_a   9.32414601
_cell_length_b   9.32414576
_cell_length_c   6.79104400
_cell_angle_alpha   90.00000000
_cell_angle_beta   90.00000000
_cell_angle_gamma   153.20356987
_symmetry_Int_Tables_number   1
_chemical_formula_structural   Li4Nd2HoErSi6
_chemical_formula_sum   'Li4 Nd2 Ho1 Er1 Si6'
_cell_volume   266.17036156
_cell_formula_units_Z   1
loop_
 _symmetry_equiv_pos_site_id
 _symmetry_equiv_pos_as_xyz
  1  'x, y, z'
loop_
 _atom_site_type_symbol
 _atom_site_label
 _atom_site_symmetry_multiplicity
 _atom_site_fract_x
 _atom_site_fract_y
 _atom_site_fract_z
 _atom_site_occupancy
  Li  Li0  1  0.190377  0.809623  0.059774  1
  Li  Li1  1  0.190377  0.809623  0.440226  1
  Li  Li2  1  0.809582  0.190418  0.940146  1
  Li  Li3  1  0.809582  0.190418  0.559854  1
  Nd  Nd4  1  0.553792  0.446208  0.250000  1
  Nd  Nd5  1  0.446271  0.553729  0.750000  1
  Ho  Ho6  1  0.344104  0.655896  0.250000  1
  Er  Er7  1  0.655868  0.344132  0.750000  1
  Si  Si8  1  0.723447  0.276553  0.250000  1
  Si  Si9  1  0.276458  0.723542  0.750000  1
  Si  Si10  1  0.059785  0.940215  0.925211  1
  Si  Si11  1  0.940285  0.059715  0.074691  1
  Si  Si12  1  0.940285  0.059715  0.425309  1
  Si  Si13  1  0.059785  0.940215  0.574789  1
