# generated using pymatgen
data_Nd2Dy2Al17GaIr6
_symmetry_space_group_name_H-M   'P 1'
_cell_length_a   7.57867369
_cell_length_b   7.57867264
_cell_length_c   9.54489400
_cell_angle_alpha   90.00000000
_cell_angle_beta   90.00000000
_cell_angle_gamma   119.33603605
_symmetry_Int_Tables_number   1
_chemical_formula_structural   Nd2Dy2Al17GaIr6
_chemical_formula_sum   'Nd2 Dy2 Al17 Ga1 Ir6'
_cell_volume   477.91983299
_cell_formula_units_Z   1
loop_
 _symmetry_equiv_pos_site_id
 _symmetry_equiv_pos_as_xyz
  1  'x, y, z'
loop_
 _atom_site_type_symbol
 _atom_site_label
 _atom_site_symmetry_multiplicity
 _atom_site_fract_x
 _atom_site_fract_y
 _atom_site_fract_z
 _atom_site_occupancy
  Nd  Nd0  1  0.993768  0.674668  0.750000  1
  Nd  Nd1  1  0.674668  0.993768  0.750000  1
  Dy  Dy2  1  0.004928  0.327120  0.250000  1
  Dy  Dy3  1  0.327120  0.004928  0.250000  1
  Al  Al4  1  0.869989  0.869989  0.250000  1
  Al  Al5  1  0.002898  0.336017  0.569146  1
  Al  Al6  1  0.998738  0.663826  0.423635  1
  Al  Al7  1  0.998738  0.663826  0.076365  1
  Al  Al8  1  0.336017  0.002898  0.930854  1
  Al  Al9  1  0.002898  0.336017  0.930854  1
  Al  Al10  1  0.663826  0.998738  0.076365  1
  Al  Al11  1  0.663826  0.998738  0.423635  1
  Al  Al12  1  0.336017  0.002898  0.569146  1
  Al  Al13  1  0.332876  0.332876  0.055003  1
  Al  Al14  1  0.664858  0.664858  0.956056  1
  Al  Al15  1  0.664858  0.664858  0.543944  1
  Al  Al16  1  0.332876  0.332876  0.444997  1
  Al  Al17  1  0.338662  0.547627  0.750000  1
  Al  Al18  1  0.659991  0.450026  0.250000  1
  Al  Al19  1  0.547627  0.338662  0.750000  1
  Al  Al20  1  0.450026  0.659991  0.250000  1
  Ga  Ga21  1  0.137727  0.137727  0.750000  1
  Ir  Ir22  1  0.670488  0.327533  0.498297  1
  Ir  Ir23  1  0.327533  0.670488  0.498297  1
  Ir  Ir24  1  0.327533  0.670488  0.001703  1
  Ir  Ir25  1  0.670488  0.327533  0.001703  1
  Ir  Ir26  1  0.000511  0.000511  0.495297  1
  Ir  Ir27  1  0.000511  0.000511  0.004703  1
