# generated using pymatgen
data_La12InCo5
_symmetry_space_group_name_H-M   'P 1'
_cell_length_a   8.71626687
_cell_length_b   8.71626703
_cell_length_c   8.71626734
_cell_angle_alpha   109.27545192
_cell_angle_beta   111.57311021
_cell_angle_gamma   107.58989679
_symmetry_Int_Tables_number   1
_chemical_formula_structural   La12InCo5
_chemical_formula_sum   'La12 In1 Co5'
_cell_volume   509.14198789
_cell_formula_units_Z   1
loop_
 _symmetry_equiv_pos_site_id
 _symmetry_equiv_pos_as_xyz
  1  'x, y, z'
loop_
 _atom_site_type_symbol
 _atom_site_label
 _atom_site_symmetry_multiplicity
 _atom_site_fract_x
 _atom_site_fract_y
 _atom_site_fract_z
 _atom_site_occupancy
  La  La0  1  0.307756  0.179987  0.487742  1
  La  La1  1  0.692244  0.820013  0.512258  1
  La  La2  1  0.307756  0.820013  0.127770  1
  La  La3  1  0.692244  0.179987  0.872230  1
  La  La4  1  0.641093  0.325405  0.315687  1
  La  La5  1  0.358907  0.674595  0.684313  1
  La  La6  1  0.009717  0.325405  0.684313  1
  La  La7  1  0.990283  0.674595  0.315687  1
  La  La8  1  0.194897  0.380034  0.185138  1
  La  La9  1  0.805103  0.619966  0.814862  1
  La  La10  1  0.194897  0.009759  0.814862  1
  La  La11  1  0.805103  0.990241  0.185138  1
  In  In12  1  0.500000  0.500000  0.000000  1
  Co  Co13  1  0.000000  0.357938  0.357938  1
  Co  Co14  1  0.000000  0.642062  0.642062  1
  Co  Co15  1  0.373477  0.873477  0.500000  1
  Co  Co16  1  0.626523  0.126523  0.500000  1
  Co  Co17  1  0.000000  0.000000  0.000000  1
