# generated using pymatgen
data_Er6GaCo2Sn11
_symmetry_space_group_name_H-M   'P 1'
_cell_length_a   8.39385854
_cell_length_b   8.39385812
_cell_length_c   13.03537500
_cell_angle_alpha   90.00000000
_cell_angle_beta   90.00000000
_cell_angle_gamma   148.91742365
_symmetry_Int_Tables_number   1
_chemical_formula_structural   Er6GaCo2Sn11
_chemical_formula_sum   'Er6 Ga1 Co2 Sn11'
_cell_volume   474.16133854
_cell_formula_units_Z   1
loop_
 _symmetry_equiv_pos_site_id
 _symmetry_equiv_pos_as_xyz
  1  'x, y, z'
loop_
 _atom_site_type_symbol
 _atom_site_label
 _atom_site_symmetry_multiplicity
 _atom_site_fract_x
 _atom_site_fract_y
 _atom_site_fract_z
 _atom_site_occupancy
  Er  Er0  1  0.897748  0.102252  0.095957  1
  Er  Er1  1  0.102038  0.897962  0.595275  1
  Er  Er2  1  0.899948  0.100052  0.750000  1
  Er  Er3  1  0.102038  0.897962  0.904725  1
  Er  Er4  1  0.101707  0.898293  0.250000  1
  Er  Er5  1  0.897748  0.102252  0.404043  1
  Ga  Ga6  1  0.740831  0.259169  0.250000  1
  Co  Co7  1  0.295395  0.704605  0.250000  1
  Co  Co8  1  0.698183  0.301817  0.750000  1
  Sn  Sn9  1  0.756672  0.243328  0.571276  1
  Sn  Sn10  1  0.428621  0.571379  0.572841  1
  Sn  Sn11  1  0.575444  0.424556  0.421596  1
  Sn  Sn12  1  0.266019  0.733981  0.750000  1
  Sn  Sn13  1  0.240081  0.759919  0.073554  1
  Sn  Sn14  1  0.240081  0.759919  0.426446  1
  Sn  Sn15  1  0.575444  0.424556  0.078404  1
  Sn  Sn16  1  0.452486  0.547514  0.250000  1
  Sn  Sn17  1  0.544224  0.455776  0.750000  1
  Sn  Sn18  1  0.756672  0.243328  0.928724  1
  Sn  Sn19  1  0.428621  0.571379  0.927159  1
