# generated using pymatgen
data_Tb4Al13Au9
_symmetry_space_group_name_H-M   'P 1'
_cell_length_a   11.71997100
_cell_length_b   11.71996972
_cell_length_c   4.17351400
_cell_angle_alpha   90.00000000
_cell_angle_beta   90.00000000
_cell_angle_gamma   119.99999516
_symmetry_Int_Tables_number   1
_chemical_formula_structural   Tb4Al13Au9
_chemical_formula_sum   'Tb4 Al13 Au9'
_cell_volume   496.46147594
_cell_formula_units_Z   1
loop_
 _symmetry_equiv_pos_site_id
 _symmetry_equiv_pos_as_xyz
  1  'x, y, z'
loop_
 _atom_site_type_symbol
 _atom_site_label
 _atom_site_symmetry_multiplicity
 _atom_site_fract_x
 _atom_site_fract_y
 _atom_site_fract_z
 _atom_site_occupancy
  Tb  Tb0  1  0.205666  0.794334  0.500000  1
  Tb  Tb1  1  0.588669  0.794334  0.500000  1
  Tb  Tb2  1  0.205666  0.411331  0.500000  1
  Tb  Tb3  1  0.666667  0.333333  0.000000  1
  Al  Al4  1  0.949327  0.294024  0.000000  1
  Al  Al5  1  0.705976  0.655303  0.000000  1
  Al  Al6  1  0.949327  0.655303  0.000000  1
  Al  Al7  1  0.344697  0.050673  0.000000  1
  Al  Al8  1  0.168483  0.084242  0.500000  1
  Al  Al9  1  0.915758  0.831517  0.500000  1
  Al  Al10  1  0.705976  0.050673  0.000000  1
  Al  Al11  1  0.531628  0.063254  0.500000  1
  Al  Al12  1  0.915758  0.084242  0.500000  1
  Al  Al13  1  0.344697  0.294024  0.000000  1
  Al  Al14  1  0.531628  0.468372  0.500000  1
  Al  Al15  1  0.936746  0.468372  0.500000  1
  Al  Al16  1  0.333333  0.666667  0.000000  1
  Au  Au17  1  0.455063  0.544937  0.000000  1
  Au  Au18  1  0.822852  0.911426  0.000000  1
  Au  Au19  1  0.455063  0.910125  0.000000  1
  Au  Au20  1  0.088574  0.177148  0.000000  1
  Au  Au21  1  0.088574  0.911426  0.000000  1
  Au  Au22  1  0.786764  0.573527  0.500000  1
  Au  Au23  1  0.089875  0.544937  0.000000  1
  Au  Au24  1  0.786764  0.213236  0.500000  1
  Au  Au25  1  0.426473  0.213236  0.500000  1
