# generated using pymatgen
data_ThInGaI6
_symmetry_space_group_name_H-M   'P 1'
_cell_length_a   8.88967308
_cell_length_b   8.88967206
_cell_length_c   8.88967400
_cell_angle_alpha   57.16917313
_cell_angle_beta   57.16916973
_cell_angle_gamma   57.16917043
_symmetry_Int_Tables_number   1
_chemical_formula_structural   ThInGaI6
_chemical_formula_sum   'Th1 In1 Ga1 I6'
_cell_volume   464.35806292
_cell_formula_units_Z   1
loop_
 _symmetry_equiv_pos_site_id
 _symmetry_equiv_pos_as_xyz
  1  'x, y, z'
loop_
 _atom_site_type_symbol
 _atom_site_label
 _atom_site_symmetry_multiplicity
 _atom_site_fract_x
 _atom_site_fract_y
 _atom_site_fract_z
 _atom_site_occupancy
  Th  Th0  1  0.000104  0.000104  0.000104  1
  In  In1  1  0.329785  0.329785  0.329785  1
  Ga  Ga2  1  0.669160  0.669160  0.669160  1
  I  I3  1  0.232739  0.631434  0.902340  1
  I  I4  1  0.631434  0.902340  0.232739  1
  I  I5  1  0.902340  0.232739  0.631434  1
  I  I6  1  0.778129  0.380307  0.076001  1
  I  I7  1  0.380307  0.076001  0.778129  1
  I  I8  1  0.076001  0.778129  0.380307  1
