# generated using pymatgen
data_Tb5Er3Ti12Si15Sn
_symmetry_space_group_name_H-M   'P 1'
_cell_length_a   7.10914089
_cell_length_b   7.07125548
_cell_length_c   13.02015224
_cell_angle_alpha   89.98520764
_cell_angle_beta   89.72088901
_cell_angle_gamma   89.98543878
_symmetry_Int_Tables_number   1
_chemical_formula_structural   Tb5Er3Ti12Si15Sn
_chemical_formula_sum   'Tb5 Er3 Ti12 Si15 Sn1'
_cell_volume   654.52242513
_cell_formula_units_Z   1
loop_
 _symmetry_equiv_pos_site_id
 _symmetry_equiv_pos_as_xyz
  1  'x, y, z'
loop_
 _atom_site_type_symbol
 _atom_site_label
 _atom_site_symmetry_multiplicity
 _atom_site_fract_x
 _atom_site_fract_y
 _atom_site_fract_z
 _atom_site_occupancy
  Tb  Tb0  1  0.342068  0.999404  0.461578  1
  Tb  Tb1  1  0.504578  0.835283  0.718304  1
  Tb  Tb2  1  0.503200  0.159785  0.216489  1
  Tb  Tb3  1  0.840940  0.496355  0.281888  1
  Tb  Tb4  1  0.159316  0.510769  0.786390  1
  Er  Er5  1  0.661989  0.997574  0.968955  1
  Er  Er6  1  0.991336  0.348467  0.527631  1
  Er  Er7  1  0.000573  0.659550  0.033829  1
  Ti  Ti8  1  0.327014  0.326521  0.001220  1
  Ti  Ti9  1  0.174073  0.825638  0.249337  1
  Ti  Ti10  1  0.816009  0.175597  0.752265  1
  Ti  Ti11  1  0.672377  0.672594  0.499493  1
  Ti  Ti12  1  0.152228  0.008833  0.883880  1
  Ti  Ti13  1  0.493472  0.650834  0.126620  1
  Ti  Ti14  1  0.515126  0.352674  0.627309  1
  Ti  Ti15  1  0.655500  0.493020  0.875894  1
  Ti  Ti16  1  0.345718  0.509309  0.372095  1
  Ti  Ti17  1  0.846539  0.991650  0.375743  1
  Ti  Ti18  1  0.011005  0.150391  0.122474  1
  Ti  Ti19  1  0.978253  0.835335  0.618771  1
  Si  Si20  1  0.372767  0.703506  0.936750  1
  Si  Si21  1  0.627491  0.298427  0.433894  1
  Si  Si22  1  0.705117  0.370240  0.065890  1
  Si  Si23  1  0.295511  0.628468  0.564866  1
  Si  Si24  1  0.798952  0.869469  0.183427  1
  Si  Si25  1  0.128634  0.202219  0.314330  1
  Si  Si26  1  0.870528  0.801302  0.816869  1
  Si  Si27  1  0.293612  0.951178  0.066672  1
  Si  Si28  1  0.549828  0.788292  0.313526  1
  Si  Si29  1  0.459498  0.210969  0.820687  1
  Si  Si30  1  0.793102  0.544390  0.686678  1
  Si  Si31  1  0.210110  0.453165  0.184405  1
  Si  Si32  1  0.707134  0.049417  0.564568  1
  Si  Si33  1  0.952417  0.291769  0.935494  1
  Si  Si34  1  0.046758  0.710019  0.432804  1
  Sn  Sn35  1  0.197226  0.127592  0.678976  1
