# generated using pymatgen
data_Th2Ni12P5
_symmetry_space_group_name_H-M   'P 1'
_cell_length_a   3.69367100
_cell_length_b   10.82566084
_cell_length_c   13.11651294
_cell_angle_alpha   72.12628579
_cell_angle_beta   90.00000000
_cell_angle_gamma   90.00000000
_symmetry_Int_Tables_number   1
_chemical_formula_structural   Th2Ni12P5
_chemical_formula_sum   'Th4 Ni24 P10'
_cell_volume   499.16853426
_cell_formula_units_Z   2
loop_
 _symmetry_equiv_pos_site_id
 _symmetry_equiv_pos_as_xyz
  1  'x, y, z'
loop_
 _atom_site_type_symbol
 _atom_site_label
 _atom_site_symmetry_multiplicity
 _atom_site_fract_x
 _atom_site_fract_y
 _atom_site_fract_z
 _atom_site_occupancy
  Th  Th0  1  0.250000  0.278459  0.683297  1
  Th  Th1  1  0.750000  0.721541  0.316703  1
  Th  Th2  1  0.250000  0.245633  0.188191  1
  Th  Th3  1  0.750000  0.754367  0.811809  1
  Ni  Ni4  1  0.250000  0.837996  0.139179  1
  Ni  Ni5  1  0.750000  0.162004  0.860821  1
  Ni  Ni6  1  0.250000  0.286631  0.439165  1
  Ni  Ni7  1  0.750000  0.713369  0.560835  1
  Ni  Ni8  1  0.250000  0.070873  0.016914  1
  Ni  Ni9  1  0.750000  0.929127  0.983086  1
  Ni  Ni10  1  0.250000  0.064928  0.445806  1
  Ni  Ni11  1  0.750000  0.935072  0.554194  1
  Ni  Ni12  1  0.250000  0.595908  0.696855  1
  Ni  Ni13  1  0.750000  0.404092  0.303145  1
  Ni  Ni14  1  0.250000  0.582541  0.008211  1
  Ni  Ni15  1  0.750000  0.417459  0.991789  1
  Ni  Ni16  1  0.250000  0.580290  0.508381  1
  Ni  Ni17  1  0.750000  0.419710  0.491619  1
  Ni  Ni18  1  0.250000  0.298071  0.918062  1
  Ni  Ni19  1  0.750000  0.701929  0.081938  1
  Ni  Ni20  1  0.250000  0.993759  0.659620  1
  Ni  Ni21  1  0.750000  0.006241  0.340380  1
  Ni  Ni22  1  0.250000  0.839926  0.436748  1
  Ni  Ni23  1  0.750000  0.160074  0.563252  1
  Ni  Ni24  1  0.250000  0.988233  0.848406  1
  Ni  Ni25  1  0.750000  0.011767  0.151594  1
  Ni  Ni26  1  0.250000  0.565191  0.203094  1
  Ni  Ni27  1  0.750000  0.434809  0.796906  1
  P  P28  1  0.250000  0.508594  0.871463  1
  P  P29  1  0.750000  0.491406  0.128537  1
  P  P30  1  0.250000  0.800152  0.983855  1
  P  P31  1  0.750000  0.199848  0.016145  1
  P  P32  1  0.250000  0.493766  0.377751  1
  P  P33  1  0.750000  0.506234  0.622249  1
  P  P34  1  0.250000  0.811171  0.611623  1
  P  P35  1  0.750000  0.188829  0.388377  1
  P  P36  1  0.250000  0.953915  0.258035  1
  P  P37  1  0.750000  0.046085  0.741965  1
