# generated using pymatgen
data_Sr3Tb(Ni12P5)2
_symmetry_space_group_name_H-M   'P 1'
_cell_length_a   3.63540200
_cell_length_b   10.94975766
_cell_length_c   13.27392288
_cell_angle_alpha   71.87605748
_cell_angle_beta   90.00000000
_cell_angle_gamma   90.00000000
_symmetry_Int_Tables_number   1
_chemical_formula_structural   Sr3Tb(Ni12P5)2
_chemical_formula_sum   'Sr3 Tb1 Ni24 P10'
_cell_volume   502.17627318
_cell_formula_units_Z   1
loop_
 _symmetry_equiv_pos_site_id
 _symmetry_equiv_pos_as_xyz
  1  'x, y, z'
loop_
 _atom_site_type_symbol
 _atom_site_label
 _atom_site_symmetry_multiplicity
 _atom_site_fract_x
 _atom_site_fract_y
 _atom_site_fract_z
 _atom_site_occupancy
  Sr  Sr0  1  0.250000  0.746717  0.187967  1
  Sr  Sr1  1  0.750000  0.251546  0.812953  1
  Sr  Sr2  1  0.250000  0.781531  0.682505  1
  Tb  Tb3  1  0.750000  0.221525  0.317718  1
  Ni  Ni4  1  0.250000  0.570783  0.013724  1
  Ni  Ni5  1  0.250000  0.566795  0.448030  1
  Ni  Ni6  1  0.750000  0.505309  0.341285  1
  Ni  Ni7  1  0.250000  0.491808  0.658891  1
  Ni  Ni8  1  0.750000  0.508320  0.151368  1
  Ni  Ni9  1  0.250000  0.486544  0.850501  1
  Ni  Ni10  1  0.750000  0.433768  0.550100  1
  Ni  Ni11  1  0.250000  0.339816  0.139731  1
  Ni  Ni12  1  0.750000  0.652943  0.560861  1
  Ni  Ni13  1  0.250000  0.341687  0.436247  1
  Ni  Ni14  1  0.750000  0.907455  0.304063  1
  Ni  Ni15  1  0.250000  0.095390  0.693316  1
  Ni  Ni16  1  0.750000  0.917705  0.991142  1
  Ni  Ni17  1  0.250000  0.080405  0.010812  1
  Ni  Ni18  1  0.750000  0.928484  0.487069  1
  Ni  Ni19  1  0.250000  0.085065  0.504853  1
  Ni  Ni20  1  0.750000  0.943212  0.795663  1
  Ni  Ni21  1  0.250000  0.067682  0.205470  1
  Ni  Ni22  1  0.250000  0.789492  0.438577  1
  Ni  Ni23  1  0.750000  0.214365  0.557497  1
  Ni  Ni24  1  0.250000  0.797740  0.917026  1
  Ni  Ni25  1  0.750000  0.200824  0.086848  1
  Ni  Ni26  1  0.750000  0.648215  0.867683  1
  Ni  Ni27  1  0.750000  0.425158  0.989023  1
  P  P28  1  0.250000  0.007536  0.871589  1
  P  P29  1  0.750000  0.992401  0.128698  1
  P  P30  1  0.250000  0.297602  0.987644  1
  P  P31  1  0.750000  0.699734  0.014469  1
  P  P32  1  0.250000  0.445739  0.260996  1
  P  P33  1  0.750000  0.548407  0.739778  1
  P  P34  1  0.250000  0.997238  0.377529  1
  P  P35  1  0.750000  0.009363  0.620236  1
  P  P36  1  0.250000  0.310767  0.609697  1
  P  P37  1  0.750000  0.690931  0.388443  1
