# generated using pymatgen
data_Tm20Ir5Pd2Ru5
_symmetry_space_group_name_H-M   'P 1'
_cell_length_a   10.76922952
_cell_length_b   10.76923007
_cell_length_c   6.39215000
_cell_angle_alpha   89.93693820
_cell_angle_beta   89.93693820
_cell_angle_gamma   89.63491164
_symmetry_Int_Tables_number   1
_chemical_formula_structural   Tm20Ir5Pd2Ru5
_chemical_formula_sum   'Tm20 Ir5 Pd2 Ru5'
_cell_volume   741.32203007
_cell_formula_units_Z   1
loop_
 _symmetry_equiv_pos_site_id
 _symmetry_equiv_pos_as_xyz
  1  'x, y, z'
loop_
 _atom_site_type_symbol
 _atom_site_label
 _atom_site_symmetry_multiplicity
 _atom_site_fract_x
 _atom_site_fract_y
 _atom_site_fract_z
 _atom_site_occupancy
  Tm  Tm0  1  0.295644  0.091524  0.380452  1
  Tm  Tm1  1  0.296316  0.915415  0.870031  1
  Tm  Tm2  1  0.706747  0.081043  0.876451  1
  Tm  Tm3  1  0.708020  0.913888  0.376140  1
  Tm  Tm4  1  0.586251  0.792661  0.877570  1
  Tm  Tm5  1  0.585478  0.204218  0.370136  1
  Tm  Tm6  1  0.419692  0.794365  0.376111  1
  Tm  Tm7  1  0.408480  0.204619  0.879817  1
  Tm  Tm8  1  0.207339  0.413749  0.622430  1
  Tm  Tm9  1  0.205635  0.580308  0.123889  1
  Tm  Tm10  1  0.795782  0.414522  0.129864  1
  Tm  Tm11  1  0.795381  0.591520  0.620183  1
  Tm  Tm12  1  0.908476  0.704356  0.119548  1
  Tm  Tm13  1  0.918957  0.293253  0.623549  1
  Tm  Tm14  1  0.084585  0.703684  0.629969  1
  Tm  Tm15  1  0.086112  0.291980  0.123860  1
  Tm  Tm16  1  0.998085  0.002865  0.500765  1
  Tm  Tm17  1  0.997135  0.001915  0.999235  1
  Tm  Tm18  1  0.497614  0.502042  0.001061  1
  Tm  Tm19  1  0.497958  0.502386  0.498939  1
  Ir  Ir20  1  0.848961  0.847569  0.749124  1
  Ir  Ir21  1  0.152431  0.151039  0.750876  1
  Ir  Ir22  1  0.651638  0.650721  0.250069  1
  Ir  Ir23  1  0.349279  0.348362  0.249931  1
  Ir  Ir24  1  0.345764  0.654236  0.750000  1
  Pd  Pd25  1  0.154554  0.845446  0.250000  1
  Pd  Pd26  1  0.653499  0.346501  0.750000  1
  Ru  Ru27  1  0.846409  0.153591  0.250000  1
  Ru  Ru28  1  0.499964  0.000856  0.123487  1
  Ru  Ru29  1  0.499735  0.001067  0.623556  1
  Ru  Ru30  1  0.998933  0.500265  0.876444  1
  Ru  Ru31  1  0.999144  0.500036  0.376513  1
