# generated using pymatgen
data_NpPa2O6
_symmetry_space_group_name_H-M   'P 1'
_cell_length_a   6.67561615
_cell_length_b   6.67561631
_cell_length_c   6.67561509
_cell_angle_alpha   146.34937485
_cell_angle_beta   131.72345390
_cell_angle_gamma   60.13436110
_symmetry_Int_Tables_number   1
_chemical_formula_structural   NpPa2O6
_chemical_formula_sum   'Np1 Pa2 O6'
_cell_volume   121.90192959
_cell_formula_units_Z   1
loop_
 _symmetry_equiv_pos_site_id
 _symmetry_equiv_pos_as_xyz
  1  'x, y, z'
loop_
 _atom_site_type_symbol
 _atom_site_label
 _atom_site_symmetry_multiplicity
 _atom_site_fract_x
 _atom_site_fract_y
 _atom_site_fract_z
 _atom_site_occupancy
  Np  Np0  1  0.000000  0.000000  0.000000  1
  Pa  Pa1  1  0.665493  0.665493  0.000000  1
  Pa  Pa2  1  0.334507  0.334507  0.000000  1
  O  O3  1  0.258449  0.500000  0.758449  1
  O  O4  1  0.915816  0.170374  0.745442  1
  O  O5  1  0.575066  0.829626  0.745442  1
  O  O6  1  0.741551  0.500000  0.241551  1
  O  O7  1  0.424934  0.170374  0.254558  1
  O  O8  1  0.084184  0.829626  0.254558  1
