# generated using pymatgen
data_LiYbTc3O8
_symmetry_space_group_name_H-M   'P 1'
_cell_length_a   5.78044009
_cell_length_b   5.77831791
_cell_length_c   5.22474500
_cell_angle_alpha   89.99911468
_cell_angle_beta   90.00034389
_cell_angle_gamma   119.99142865
_symmetry_Int_Tables_number   1
_chemical_formula_structural   LiYbTc3O8
_chemical_formula_sum   'Li1 Yb1 Tc3 O8'
_cell_volume   151.14562159
_cell_formula_units_Z   1
loop_
 _symmetry_equiv_pos_site_id
 _symmetry_equiv_pos_as_xyz
  1  'x, y, z'
loop_
 _atom_site_type_symbol
 _atom_site_label
 _atom_site_symmetry_multiplicity
 _atom_site_fract_x
 _atom_site_fract_y
 _atom_site_fract_z
 _atom_site_occupancy
  Li  Li0  1  0.999978  0.999979  0.308896  1
  Yb  Yb1  1  0.666672  0.333353  0.263502  1
  Tc  Tc2  1  0.185534  0.371095  0.740153  1
  Tc  Tc3  1  0.185530  0.814427  0.740152  1
  Tc  Tc4  1  0.628901  0.814440  0.740123  1
  O  O5  1  0.333412  0.666719  0.471264  1
  O  O6  1  0.313827  0.156899  0.540988  1
  O  O7  1  0.843092  0.156914  0.540959  1
  O  O8  1  0.843111  0.686190  0.540971  1
  O  O9  1  0.999960  0.999973  0.938931  1
  O  O10  1  0.013877  0.506957  0.974045  1
  O  O11  1  0.493064  0.506978  0.974033  1
  O  O12  1  0.493042  0.986075  0.974031  1
