# generated using pymatgen
data_Ac7Os4C9
_symmetry_space_group_name_H-M   'P 1'
_cell_length_a   6.77891246
_cell_length_b   6.77891266
_cell_length_c   12.27999853
_cell_angle_alpha   71.29967012
_cell_angle_beta   71.29966742
_cell_angle_gamma   49.08858491
_symmetry_Int_Tables_number   1
_chemical_formula_structural   Ac7Os4C9
_chemical_formula_sum   'Ac7 Os4 C9'
_cell_volume   399.09406634
_cell_formula_units_Z   1
loop_
 _symmetry_equiv_pos_site_id
 _symmetry_equiv_pos_as_xyz
  1  'x, y, z'
loop_
 _atom_site_type_symbol
 _atom_site_label
 _atom_site_symmetry_multiplicity
 _atom_site_fract_x
 _atom_site_fract_y
 _atom_site_fract_z
 _atom_site_occupancy
  Ac  Ac0  1  0.367082  0.367082  0.846912  1
  Ac  Ac1  1  0.139780  0.139780  0.683623  1
  Ac  Ac2  1  0.860220  0.860220  0.316377  1
  Ac  Ac3  1  0.143671  0.143671  0.383746  1
  Ac  Ac4  1  0.856329  0.856329  0.616254  1
  Ac  Ac5  1  0.000000  0.000000  0.000000  1
  Ac  Ac6  1  0.632918  0.632918  0.153088  1
  Os  Os7  1  0.363425  0.363425  0.142254  1
  Os  Os8  1  0.562156  0.562156  0.573343  1
  Os  Os9  1  0.437844  0.437844  0.426657  1
  Os  Os10  1  0.636575  0.636575  0.857746  1
  C  C11  1  0.391458  0.391458  0.289592  1
  C  C12  1  0.909485  0.909485  0.824835  1
  C  C13  1  0.393927  0.393927  0.607902  1
  C  C14  1  0.205459  0.205459  0.144949  1
  C  C15  1  0.794541  0.794541  0.855051  1
  C  C16  1  0.500000  0.500000  0.000000  1
  C  C17  1  0.090515  0.090515  0.175165  1
  C  C18  1  0.608542  0.608542  0.710408  1
  C  C19  1  0.606073  0.606073  0.392098  1
