# generated using pymatgen
data_Pr2Ga3Tc14C3
_symmetry_space_group_name_H-M   'P 1'
_cell_length_a   6.98747371
_cell_length_b   6.98747278
_cell_length_c   6.98747242
_cell_angle_alpha   82.48839414
_cell_angle_beta   82.48839352
_cell_angle_gamma   82.48839025
_symmetry_Int_Tables_number   1
_chemical_formula_structural   Pr2Ga3Tc14C3
_chemical_formula_sum   'Pr2 Ga3 Tc14 C3'
_cell_volume   333.08288307
_cell_formula_units_Z   1
loop_
 _symmetry_equiv_pos_site_id
 _symmetry_equiv_pos_as_xyz
  1  'x, y, z'
loop_
 _atom_site_type_symbol
 _atom_site_label
 _atom_site_symmetry_multiplicity
 _atom_site_fract_x
 _atom_site_fract_y
 _atom_site_fract_z
 _atom_site_occupancy
  Pr  Pr0  1  0.657279  0.657279  0.657279  1
  Pr  Pr1  1  0.342721  0.342721  0.342721  1
  Ga  Ga2  1  0.000000  0.000000  0.500000  1
  Ga  Ga3  1  0.500000  0.000000  0.000000  1
  Ga  Ga4  1  0.000000  0.500000  0.000000  1
  Tc  Tc5  1  0.723788  0.276212  0.000000  1
  Tc  Tc6  1  0.000000  0.723788  0.276212  1
  Tc  Tc7  1  0.276212  0.000000  0.723788  1
  Tc  Tc8  1  0.000000  0.276212  0.723788  1
  Tc  Tc9  1  0.723788  0.000000  0.276212  1
  Tc  Tc10  1  0.276212  0.723788  0.000000  1
  Tc  Tc11  1  0.351383  0.351383  0.850059  1
  Tc  Tc12  1  0.850059  0.351383  0.351383  1
  Tc  Tc13  1  0.351383  0.850059  0.351383  1
  Tc  Tc14  1  0.648617  0.648617  0.149941  1
  Tc  Tc15  1  0.149941  0.648617  0.648617  1
  Tc  Tc16  1  0.648617  0.149941  0.648617  1
  Tc  Tc17  1  0.905644  0.905644  0.905644  1
  Tc  Tc18  1  0.094356  0.094356  0.094356  1
  C  C19  1  0.500000  0.500000  0.000000  1
  C  C20  1  0.000000  0.500000  0.500000  1
  C  C21  1  0.500000  0.000000  0.500000  1
