# generated using pymatgen
data_Gd3(SiIr)2
_symmetry_space_group_name_H-M   'P 1'
_cell_length_a   5.58856400
_cell_length_b   5.58856411
_cell_length_c   13.27716700
_cell_angle_alpha   90.00000000
_cell_angle_beta   90.00000000
_cell_angle_gamma   136.99430213
_symmetry_Int_Tables_number   1
_chemical_formula_structural   Gd3(SiIr)2
_chemical_formula_sum   'Gd6 Si4 Ir4'
_cell_volume   282.83654568
_cell_formula_units_Z   2
loop_
 _symmetry_equiv_pos_site_id
 _symmetry_equiv_pos_as_xyz
  1  'x, y, z'
loop_
 _atom_site_type_symbol
 _atom_site_label
 _atom_site_symmetry_multiplicity
 _atom_site_fract_x
 _atom_site_fract_y
 _atom_site_fract_z
 _atom_site_occupancy
  Gd  Gd0  1  0.774854  0.225146  0.603822  1
  Gd  Gd1  1  0.517369  0.482631  0.250000  1
  Gd  Gd2  1  0.225146  0.774854  0.396178  1
  Gd  Gd3  1  0.774854  0.225146  0.896178  1
  Gd  Gd4  1  0.482631  0.517369  0.750000  1
  Gd  Gd5  1  0.225146  0.774854  0.103822  1
  Si  Si6  1  0.062281  0.937719  0.589643  1
  Si  Si7  1  0.062281  0.937719  0.910357  1
  Si  Si8  1  0.937719  0.062281  0.410357  1
  Si  Si9  1  0.937719  0.062281  0.089643  1
  Ir  Ir10  1  0.812099  0.187901  0.250000  1
  Ir  Ir11  1  0.187901  0.812099  0.750000  1
  Ir  Ir12  1  0.500000  0.500000  0.000000  1
  Ir  Ir13  1  0.500000  0.500000  0.500000  1
