# generated using pymatgen
data_Hf16Rh8C3N
_symmetry_space_group_name_H-M   'P 1'
_cell_length_a   8.74509488
_cell_length_b   8.73428301
_cell_length_c   8.74509600
_cell_angle_alpha   59.95903903
_cell_angle_beta   59.99999576
_cell_angle_gamma   59.95904264
_symmetry_Int_Tables_number   1
_chemical_formula_structural   Hf16Rh8C3N
_chemical_formula_sum   'Hf16 Rh8 C3 N1'
_cell_volume   472.03283214
_cell_formula_units_Z   1
loop_
 _symmetry_equiv_pos_site_id
 _symmetry_equiv_pos_as_xyz
  1  'x, y, z'
loop_
 _atom_site_type_symbol
 _atom_site_label
 _atom_site_symmetry_multiplicity
 _atom_site_fract_x
 _atom_site_fract_y
 _atom_site_fract_z
 _atom_site_occupancy
  Hf  Hf0  1  0.125000  0.625000  0.625000  1
  Hf  Hf1  1  0.625000  0.125000  0.625000  1
  Hf  Hf2  1  0.625000  0.625000  0.125000  1
  Hf  Hf3  1  0.625000  0.625000  0.625000  1
  Hf  Hf4  1  0.816762  0.816592  0.183323  1
  Hf  Hf5  1  0.183665  0.183585  0.816375  1
  Hf  Hf6  1  0.816375  0.183585  0.816375  1
  Hf  Hf7  1  0.183323  0.816592  0.183323  1
  Hf  Hf8  1  0.183323  0.816592  0.816762  1
  Hf  Hf9  1  0.816375  0.183585  0.183665  1
  Hf  Hf10  1  0.433238  0.433408  0.066677  1
  Hf  Hf11  1  0.066335  0.066415  0.433625  1
  Hf  Hf12  1  0.433625  0.066415  0.433625  1
  Hf  Hf13  1  0.066677  0.433408  0.066677  1
  Hf  Hf14  1  0.066677  0.433408  0.433238  1
  Hf  Hf15  1  0.433625  0.066415  0.066335  1
  Rh  Rh16  1  0.764015  0.413547  0.411219  1
  Rh  Rh17  1  0.412297  0.763108  0.412297  1
  Rh  Rh18  1  0.411219  0.413547  0.764015  1
  Rh  Rh19  1  0.411219  0.413547  0.411219  1
  Rh  Rh20  1  0.485985  0.836453  0.838781  1
  Rh  Rh21  1  0.837703  0.486892  0.837703  1
  Rh  Rh22  1  0.838781  0.836453  0.485985  1
  Rh  Rh23  1  0.838781  0.836453  0.838781  1
  C  C24  1  0.625000  0.125000  0.125000  1
  C  C25  1  0.125000  0.125000  0.625000  1
  C  C26  1  0.125000  0.125000  0.125000  1
  N  N27  1  0.125000  0.625000  0.125000  1
