# generated using pymatgen
data_Mn2Tl2(MoO4)3
_symmetry_space_group_name_H-M   'P 1'
_cell_length_a   9.37723000
_cell_length_b   7.19193704
_cell_length_c   20.95777800
_cell_angle_alpha   70.89464239
_cell_angle_beta   90.00000000
_cell_angle_gamma   90.00000000
_symmetry_Int_Tables_number   1
_chemical_formula_structural   Mn2Tl2(MoO4)3
_chemical_formula_sum   'Mn8 Tl8 Mo12 O48'
_cell_volume   1335.54936676
_cell_formula_units_Z   4
loop_
 _symmetry_equiv_pos_site_id
 _symmetry_equiv_pos_as_xyz
  1  'x, y, z'
loop_
 _atom_site_type_symbol
 _atom_site_label
 _atom_site_symmetry_multiplicity
 _atom_site_fract_x
 _atom_site_fract_y
 _atom_site_fract_z
 _atom_site_occupancy
  Mn  Mn0  1  0.408587  0.938602  0.937703  1
  Mn  Mn1  1  0.591413  0.061398  0.062297  1
  Mn  Mn2  1  0.908587  0.061398  0.562297  1
  Mn  Mn3  1  0.091413  0.938602  0.437703  1
  Mn  Mn4  1  0.143684  0.271172  0.635936  1
  Mn  Mn5  1  0.856316  0.728828  0.364064  1
  Mn  Mn6  1  0.643684  0.728828  0.864064  1
  Mn  Mn7  1  0.356316  0.271172  0.135936  1
  Tl  Tl8  1  0.028140  0.799805  0.906857  1
  Tl  Tl9  1  0.971860  0.200195  0.093143  1
  Tl  Tl10  1  0.528140  0.200195  0.593143  1
  Tl  Tl11  1  0.471860  0.799805  0.406857  1
  Tl  Tl12  1  0.116338  0.405110  0.788988  1
  Tl  Tl13  1  0.883662  0.594890  0.211012  1
  Tl  Tl14  1  0.616338  0.594890  0.711012  1
  Tl  Tl15  1  0.383662  0.405110  0.288988  1
  Mo  Mo16  1  0.228020  0.801477  0.599867  1
  Mo  Mo17  1  0.771980  0.198523  0.400133  1
  Mo  Mo18  1  0.728020  0.198523  0.900133  1
  Mo  Mo19  1  0.271980  0.801477  0.099867  1
  Mo  Mo20  1  0.325795  0.950444  0.773414  1
  Mo  Mo21  1  0.674205  0.049556  0.226586  1
  Mo  Mo22  1  0.825795  0.049556  0.726586  1
  Mo  Mo23  1  0.174205  0.950444  0.273414  1
  Mo  Mo24  1  0.340675  0.417370  0.963872  1
  Mo  Mo25  1  0.659325  0.582630  0.036128  1
  Mo  Mo26  1  0.840675  0.582630  0.536128  1
  Mo  Mo27  1  0.159325  0.417370  0.463872  1
  O  O28  1  0.785534  0.981383  0.651661  1
  O  O29  1  0.214466  0.018617  0.348339  1
  O  O30  1  0.285534  0.018617  0.848339  1
  O  O31  1  0.714466  0.981383  0.151661  1
  O  O32  1  0.496113  0.828038  0.783681  1
  O  O33  1  0.503887  0.171962  0.216319  1
  O  O34  1  0.996113  0.171962  0.716319  1
  O  O35  1  0.003887  0.828038  0.283681  1
  O  O36  1  0.824213  0.831733  0.801354  1
  O  O37  1  0.175787  0.168267  0.198646  1
  O  O38  1  0.324213  0.168267  0.698646  1
  O  O39  1  0.675787  0.831733  0.301354  1
  O  O40  1  0.191573  0.787273  0.766728  1
  O  O41  1  0.808427  0.212727  0.233272  1
  O  O42  1  0.691573  0.212727  0.733272  1
  O  O43  1  0.308427  0.787273  0.266728  1
  O  O44  1  0.160195  0.558692  0.643120  1
  O  O45  1  0.839805  0.441308  0.356880  1
  O  O46  1  0.660195  0.441308  0.856880  1
  O  O47  1  0.339805  0.558692  0.143120  1
  O  O48  1  0.256309  0.369103  0.541752  1
  O  O49  1  0.743691  0.630897  0.458248  1
  O  O50  1  0.756309  0.630897  0.958248  1
  O  O51  1  0.243691  0.369103  0.041752  1
  O  O52  1  0.204851  0.463286  0.903158  1
  O  O53  1  0.795149  0.536714  0.096842  1
  O  O54  1  0.704851  0.536714  0.596842  1
  O  O55  1  0.295149  0.463286  0.403158  1
  O  O56  1  0.398636  0.826650  0.632405  1
  O  O57  1  0.601364  0.173350  0.367595  1
  O  O58  1  0.898636  0.173350  0.867595  1
  O  O59  1  0.101364  0.826650  0.132405  1
  O  O60  1  0.938453  0.799333  0.538165  1
  O  O61  1  0.061547  0.200667  0.461835  1
  O  O62  1  0.438453  0.200667  0.961835  1
  O  O63  1  0.561547  0.799333  0.038165  1
  O  O64  1  0.112283  0.992598  0.612098  1
  O  O65  1  0.887717  0.007402  0.387902  1
  O  O66  1  0.612283  0.007402  0.887902  1
  O  O67  1  0.387717  0.992598  0.112098  1
  O  O68  1  0.253397  0.841397  0.510813  1
  O  O69  1  0.746603  0.158603  0.489187  1
  O  O70  1  0.753397  0.158603  0.989187  1
  O  O71  1  0.246603  0.841397  0.010813  1
  O  O72  1  0.454377  0.640522  0.938724  1
  O  O73  1  0.545623  0.359478  0.061276  1
  O  O74  1  0.954377  0.359478  0.561276  1
  O  O75  1  0.045623  0.640522  0.438724  1
