# generated using pymatgen
data_Ho5ReTcO12
_symmetry_space_group_name_H-M   'P 1'
_cell_length_a   6.82838072
_cell_length_b   6.82838119
_cell_length_c   7.48546100
_cell_angle_alpha   73.81161759
_cell_angle_beta   73.81161645
_cell_angle_gamma   48.95818515
_symmetry_Int_Tables_number   1
_chemical_formula_structural   Ho5ReTcO12
_chemical_formula_sum   'Ho5 Re1 Tc1 O12'
_cell_volume   250.58831749
_cell_formula_units_Z   1
loop_
 _symmetry_equiv_pos_site_id
 _symmetry_equiv_pos_as_xyz
  1  'x, y, z'
loop_
 _atom_site_type_symbol
 _atom_site_label
 _atom_site_symmetry_multiplicity
 _atom_site_fract_x
 _atom_site_fract_y
 _atom_site_fract_z
 _atom_site_occupancy
  Ho  Ho0  1  0.312507  0.317160  0.824041  1
  Ho  Ho1  1  0.682840  0.687493  0.175959  1
  Ho  Ho2  1  0.992106  0.007894  0.500000  1
  Ho  Ho3  1  0.687561  0.705625  0.641447  1
  Ho  Ho4  1  0.294375  0.312439  0.358553  1
  Re  Re5  1  0.793187  0.206813  0.000000  1
  Tc  Tc6  1  0.223475  0.776525  0.000000  1
  O  O7  1  0.509390  0.488765  0.179438  1
  O  O8  1  0.511235  0.490610  0.820562  1
  O  O9  1  0.999398  0.004201  0.206438  1
  O  O10  1  0.995799  0.000602  0.793562  1
  O  O11  1  0.914573  0.407782  0.915333  1
  O  O12  1  0.592218  0.085427  0.084667  1
  O  O13  1  0.087281  0.574099  0.084624  1
  O  O14  1  0.589980  0.104350  0.571082  1
  O  O15  1  0.895650  0.410020  0.428918  1
  O  O16  1  0.401770  0.909245  0.423657  1
  O  O17  1  0.090755  0.598230  0.576343  1
  O  O18  1  0.425901  0.912719  0.915376  1
