# generated using pymatgen
data_Pa4Al18Os5Rh
_symmetry_space_group_name_H-M   'P 1'
_cell_length_a   7.59489980
_cell_length_b   7.59490150
_cell_length_c   9.34753519
_cell_angle_alpha   90.04401089
_cell_angle_beta   90.04401570
_cell_angle_gamma   119.04223160
_symmetry_Int_Tables_number   1
_chemical_formula_structural   Pa4Al18Os5Rh
_chemical_formula_sum   'Pa4 Al18 Os5 Rh1'
_cell_volume   471.39228368
_cell_formula_units_Z   1
loop_
 _symmetry_equiv_pos_site_id
 _symmetry_equiv_pos_as_xyz
  1  'x, y, z'
loop_
 _atom_site_type_symbol
 _atom_site_label
 _atom_site_symmetry_multiplicity
 _atom_site_fract_x
 _atom_site_fract_y
 _atom_site_fract_z
 _atom_site_occupancy
  Pa  Pa0  1  0.000287  0.680717  0.247612  1
  Pa  Pa1  1  0.007360  0.323505  0.753081  1
  Pa  Pa2  1  0.676495  0.992640  0.246919  1
  Pa  Pa3  1  0.319283  0.999713  0.752388  1
  Al  Al4  1  0.135168  0.134997  0.250699  1
  Al  Al5  1  0.865003  0.864832  0.749301  1
  Al  Al6  1  0.005766  0.338651  0.079474  1
  Al  Al7  1  0.992185  0.659137  0.921473  1
  Al  Al8  1  0.993399  0.661035  0.577376  1
  Al  Al9  1  0.338965  0.006601  0.422624  1
  Al  Al10  1  0.003482  0.338981  0.421907  1
  Al  Al11  1  0.661019  0.996518  0.578093  1
  Al  Al12  1  0.661349  0.994234  0.920526  1
  Al  Al13  1  0.340863  0.007815  0.078527  1
  Al  Al14  1  0.333613  0.336651  0.550209  1
  Al  Al15  1  0.663349  0.666387  0.449791  1
  Al  Al16  1  0.663747  0.662494  0.047578  1
  Al  Al17  1  0.337506  0.336253  0.952422  1
  Al  Al18  1  0.343838  0.551358  0.250463  1
  Al  Al19  1  0.655957  0.444803  0.749521  1
  Al  Al20  1  0.555197  0.344043  0.250479  1
  Al  Al21  1  0.448642  0.656162  0.749537  1
  Os  Os22  1  0.675031  0.324969  0.000000  1
  Os  Os23  1  0.325442  0.674558  0.000000  1
  Os  Os24  1  0.324669  0.675331  0.500000  1
  Os  Os25  1  0.000058  0.999942  0.000000  1
  Os  Os26  1  0.999241  0.000759  0.500000  1
  Rh  Rh27  1  0.673088  0.326912  0.500000  1
