# generated using pymatgen
data_Ce5Tc2Au
_symmetry_space_group_name_H-M   'P 1'
_cell_length_a   7.73753925
_cell_length_b   7.74013906
_cell_length_c   8.48820780
_cell_angle_alpha   117.19859743
_cell_angle_beta   117.11523981
_cell_angle_gamma   90.00000946
_symmetry_Int_Tables_number   1
_chemical_formula_structural   Ce5Tc2Au
_chemical_formula_sum   'Ce10 Tc4 Au2'
_cell_volume   388.26669820
_cell_formula_units_Z   2
loop_
 _symmetry_equiv_pos_site_id
 _symmetry_equiv_pos_as_xyz
  1  'x, y, z'
loop_
 _atom_site_type_symbol
 _atom_site_label
 _atom_site_symmetry_multiplicity
 _atom_site_fract_x
 _atom_site_fract_y
 _atom_site_fract_z
 _atom_site_occupancy
  Ce  Ce0  1  0.500000  0.500000  0.000000  1
  Ce  Ce1  1  0.000000  0.000000  0.000000  1
  Ce  Ce2  1  0.980016  0.798496  0.278656  1
  Ce  Ce3  1  0.298356  0.479532  0.278109  1
  Ce  Ce4  1  0.798640  0.298496  0.278656  1
  Ce  Ce5  1  0.479752  0.979532  0.278109  1
  Ce  Ce6  1  0.019984  0.201504  0.721344  1
  Ce  Ce7  1  0.701644  0.520468  0.721891  1
  Ce  Ce8  1  0.201360  0.701504  0.721344  1
  Ce  Ce9  1  0.520248  0.020468  0.721891  1
  Tc  Tc10  1  0.639712  0.860478  0.000181  1
  Tc  Tc11  1  0.360288  0.139522  0.999819  1
  Tc  Tc12  1  0.860469  0.360478  0.000181  1
  Tc  Tc13  1  0.139531  0.639522  0.999819  1
  Au  Au14  1  0.749894  0.750000  0.500000  1
  Au  Au15  1  0.250106  0.250000  0.500000  1
