# generated using pymatgen
data_Y5Ho2FeI12
_symmetry_space_group_name_H-M   'P 1'
_cell_length_a   9.77525342
_cell_length_b   9.71003259
_cell_length_c   9.76464220
_cell_angle_alpha   106.79154010
_cell_angle_beta   107.02954828
_cell_angle_gamma   107.03086517
_symmetry_Int_Tables_number   1
_chemical_formula_structural   Y5Ho2FeI12
_chemical_formula_sum   'Y5 Ho2 Fe1 I12'
_cell_volume   772.91499672
_cell_formula_units_Z   1
loop_
 _symmetry_equiv_pos_site_id
 _symmetry_equiv_pos_as_xyz
  1  'x, y, z'
loop_
 _atom_site_type_symbol
 _atom_site_label
 _atom_site_symmetry_multiplicity
 _atom_site_fract_x
 _atom_site_fract_y
 _atom_site_fract_z
 _atom_site_occupancy
  Y  Y0  1  0.499872  0.499992  0.499732  1
  Y  Y1  1  0.088149  0.280382  0.020565  1
  Y  Y2  1  0.293525  0.021211  0.093164  1
  Y  Y3  1  0.911031  0.719391  0.979162  1
  Y  Y4  1  0.022443  0.092467  0.293600  1
  Ho  Ho5  1  0.709989  0.978763  0.907034  1
  Ho  Ho6  1  0.977959  0.908461  0.710206  1
  Fe  Fe7  1  0.999799  0.000197  0.000129  1
  I  I8  1  0.072305  0.225886  0.679340  1
  I  I9  1  0.386426  0.159525  0.463761  1
  I  I10  1  0.614800  0.840520  0.537387  1
  I  I11  1  0.224517  0.678771  0.071231  1
  I  I12  1  0.774261  0.319735  0.928080  1
  I  I13  1  0.677641  0.071884  0.224624  1
  I  I14  1  0.539022  0.615886  0.840801  1
  I  I15  1  0.840753  0.539044  0.615622  1
  I  I16  1  0.927143  0.772880  0.320478  1
  I  I17  1  0.320596  0.927586  0.772701  1
  I  I18  1  0.460602  0.385278  0.158447  1
  I  I19  1  0.159167  0.462141  0.383936  1
