# generated using pymatgen
data_Nb5Co19(SiP3)3
_symmetry_space_group_name_H-M   'P 1'
_cell_length_a   11.76665900
_cell_length_b   11.76665822
_cell_length_c   3.58313900
_cell_angle_alpha   90.00000000
_cell_angle_beta   90.00000000
_cell_angle_gamma   119.99999938
_symmetry_Int_Tables_number   1
_chemical_formula_structural   Nb5Co19(SiP3)3
_chemical_formula_sum   'Nb5 Co19 Si3 P9'
_cell_volume   429.63593319
_cell_formula_units_Z   1
loop_
 _symmetry_equiv_pos_site_id
 _symmetry_equiv_pos_as_xyz
  1  'x, y, z'
loop_
 _atom_site_type_symbol
 _atom_site_label
 _atom_site_symmetry_multiplicity
 _atom_site_fract_x
 _atom_site_fract_y
 _atom_site_fract_z
 _atom_site_occupancy
  Nb  Nb0  1  0.333333  0.666667  0.500000  1
  Nb  Nb1  1  0.666667  0.333333  0.500000  1
  Nb  Nb2  1  0.179547  0.000000  0.000000  1
  Nb  Nb3  1  0.000000  0.179547  0.000000  1
  Nb  Nb4  1  0.820453  0.820453  0.000000  1
  Co  Co5  1  0.200708  0.377437  0.500000  1
  Co  Co6  1  0.622563  0.823271  0.500000  1
  Co  Co7  1  0.176729  0.799292  0.500000  1
  Co  Co8  1  0.823271  0.622563  0.500000  1
  Co  Co9  1  0.799292  0.176729  0.500000  1
  Co  Co10  1  0.377437  0.200708  0.500000  1
  Co  Co11  1  0.550627  0.000000  0.500000  1
  Co  Co12  1  0.000000  0.550627  0.500000  1
  Co  Co13  1  0.449373  0.449373  0.500000  1
  Co  Co14  1  0.130028  0.484787  0.000000  1
  Co  Co15  1  0.515213  0.645240  0.000000  1
  Co  Co16  1  0.354760  0.869972  0.000000  1
  Co  Co17  1  0.645240  0.515213  0.000000  1
  Co  Co18  1  0.869972  0.354760  0.000000  1
  Co  Co19  1  0.484787  0.130028  0.000000  1
  Co  Co20  1  0.717628  0.000000  0.000000  1
  Co  Co21  1  0.000000  0.717628  0.000000  1
  Co  Co22  1  0.282372  0.282372  0.000000  1
  Co  Co23  1  0.000000  0.000000  0.500000  1
  Si  Si24  1  0.358749  0.000000  0.500000  1
  Si  Si25  1  0.000000  0.358749  0.500000  1
  Si  Si26  1  0.641251  0.641251  0.500000  1
  P  P27  1  0.318036  0.484232  0.000000  1
  P  P28  1  0.515768  0.833804  0.000000  1
  P  P29  1  0.166196  0.681964  0.000000  1
  P  P30  1  0.833804  0.515768  0.000000  1
  P  P31  1  0.681964  0.166196  0.000000  1
  P  P32  1  0.484232  0.318036  0.000000  1
  P  P33  1  0.822824  0.000000  0.500000  1
  P  P34  1  0.000000  0.822824  0.500000  1
  P  P35  1  0.177176  0.177176  0.500000  1
