# generated using pymatgen
data_Tm13Zr3(CoAg)4
_symmetry_space_group_name_H-M   'P 1'
_cell_length_a   9.15370546
_cell_length_b   9.20672953
_cell_length_c   9.20625807
_cell_angle_alpha   59.99761718
_cell_angle_beta   59.80158326
_cell_angle_gamma   59.80726260
_symmetry_Int_Tables_number   1
_chemical_formula_structural   Tm13Zr3(CoAg)4
_chemical_formula_sum   'Tm13 Zr3 Co4 Ag4'
_cell_volume   546.98133348
_cell_formula_units_Z   1
loop_
 _symmetry_equiv_pos_site_id
 _symmetry_equiv_pos_as_xyz
  1  'x, y, z'
loop_
 _atom_site_type_symbol
 _atom_site_label
 _atom_site_symmetry_multiplicity
 _atom_site_fract_x
 _atom_site_fract_y
 _atom_site_fract_z
 _atom_site_occupancy
  Tm  Tm0  1  0.954765  0.348380  0.348495  1
  Tm  Tm1  1  0.807351  0.190792  0.190794  1
  Tm  Tm2  1  0.191125  0.808975  0.808849  1
  Tm  Tm3  1  0.191139  0.808885  0.191064  1
  Tm  Tm4  1  0.807432  0.190782  0.811004  1
  Tm  Tm5  1  0.191124  0.191051  0.808837  1
  Tm  Tm6  1  0.807364  0.811052  0.190793  1
  Tm  Tm7  1  0.942964  0.560134  0.560134  1
  Tm  Tm8  1  0.558950  0.940796  0.940783  1
  Tm  Tm9  1  0.558948  0.940792  0.559465  1
  Tm  Tm10  1  0.942955  0.560140  0.936772  1
  Tm  Tm11  1  0.558947  0.559474  0.940783  1
  Tm  Tm12  1  0.942964  0.936770  0.560136  1
  Zr  Zr13  1  0.345950  0.344930  0.345004  1
  Zr  Zr14  1  0.346001  0.344979  0.964063  1
  Zr  Zr15  1  0.345963  0.964106  0.345012  1
  Co  Co16  1  0.151463  0.141697  0.141708  1
  Co  Co17  1  0.151412  0.141708  0.565173  1
  Co  Co18  1  0.151456  0.565141  0.141708  1
  Co  Co19  1  0.561339  0.146219  0.146224  1
  Ag  Ag20  1  0.578132  0.583051  0.583047  1
  Ag  Ag21  1  0.578126  0.583048  0.255772  1
  Ag  Ag22  1  0.578132  0.255764  0.583046  1
  Ag  Ag23  1  0.255997  0.581331  0.581333  1
