# generated using pymatgen
data_Y3ScZn2Ir3
_symmetry_space_group_name_H-M   'P 1'
_cell_length_a   7.20916300
_cell_length_b   7.24764641
_cell_length_c   4.00961700
_cell_angle_alpha   90.00000000
_cell_angle_beta   90.00000000
_cell_angle_gamma   119.82452243
_symmetry_Int_Tables_number   1
_chemical_formula_structural   Y3ScZn2Ir3
_chemical_formula_sum   'Y3 Sc1 Zn2 Ir3'
_cell_volume   181.75257988
_cell_formula_units_Z   1
loop_
 _symmetry_equiv_pos_site_id
 _symmetry_equiv_pos_as_xyz
  1  'x, y, z'
loop_
 _atom_site_type_symbol
 _atom_site_label
 _atom_site_symmetry_multiplicity
 _atom_site_fract_x
 _atom_site_fract_y
 _atom_site_fract_z
 _atom_site_occupancy
  Y  Y0  1  0.391082  0.000000  0.499999  1
  Y  Y1  1  0.012344  0.429401  0.499999  1
  Y  Y2  1  0.582944  0.570599  0.499999  1
  Sc  Sc3  1  0.763101  0.000000  0.000000  1
  Zn  Zn4  1  0.244967  0.251666  0.000000  1
  Zn  Zn5  1  0.993300  0.748333  0.000000  1
  Ir  Ir6  1  0.668736  0.323736  0.000000  1
  Ir  Ir7  1  0.345001  0.676263  0.000000  1
  Ir  Ir8  1  0.998524  0.000000  0.499999  1
