# generated using pymatgen
data_TbHo4(In2Cu)2
_symmetry_space_group_name_H-M   'P 1'
_cell_length_a   3.65561500
_cell_length_b   8.02558000
_cell_length_c   17.95336500
_cell_angle_alpha   90.00000000
_cell_angle_beta   90.00000000
_cell_angle_gamma   90.00000000
_symmetry_Int_Tables_number   1
_chemical_formula_structural   TbHo4(In2Cu)2
_chemical_formula_sum   'Tb2 Ho8 In8 Cu4'
_cell_volume   526.72355366
_cell_formula_units_Z   2
loop_
 _symmetry_equiv_pos_site_id
 _symmetry_equiv_pos_as_xyz
  1  'x, y, z'
loop_
 _atom_site_type_symbol
 _atom_site_label
 _atom_site_symmetry_multiplicity
 _atom_site_fract_x
 _atom_site_fract_y
 _atom_site_fract_z
 _atom_site_occupancy
  Tb  Tb0  1  0.500000  0.500000  0.000000  1
  Tb  Tb1  1  0.500000  0.000000  0.500000  1
  Ho  Ho2  1  0.500000  0.381584  0.583457  1
  Ho  Ho3  1  0.500000  0.881584  0.916543  1
  Ho  Ho4  1  0.500000  0.118416  0.083457  1
  Ho  Ho5  1  0.500000  0.760946  0.719491  1
  Ho  Ho6  1  0.500000  0.260946  0.780509  1
  Ho  Ho7  1  0.500000  0.739054  0.219491  1
  Ho  Ho8  1  0.500000  0.239054  0.280509  1
  Ho  Ho9  1  0.500000  0.618416  0.416543  1
  In  In10  1  0.000000  0.793677  0.069171  1
  In  In11  1  0.000000  0.921040  0.348976  1
  In  In12  1  0.000000  0.078960  0.651024  1
  In  In13  1  0.000000  0.578960  0.848976  1
  In  In14  1  0.000000  0.706323  0.569171  1
  In  In15  1  0.000000  0.206323  0.930829  1
  In  In16  1  0.000000  0.293677  0.430829  1
  In  In17  1  0.000000  0.421040  0.151024  1
  Cu  Cu18  1  0.000000  0.975062  0.802466  1
  Cu  Cu19  1  0.000000  0.524938  0.302466  1
  Cu  Cu20  1  0.000000  0.475062  0.697534  1
  Cu  Cu21  1  0.000000  0.024938  0.197534  1
