# generated using pymatgen
data_CaThAlIr2
_symmetry_space_group_name_H-M   'P 1'
_cell_length_a   5.65992397
_cell_length_b   5.65992453
_cell_length_c   5.65992457
_cell_angle_alpha   137.28738276
_cell_angle_beta   117.49384760
_cell_angle_gamma   78.67239022
_symmetry_Int_Tables_number   1
_chemical_formula_structural   CaThAlIr2
_chemical_formula_sum   'Ca1 Th1 Al1 Ir2'
_cell_volume   105.98262963
_cell_formula_units_Z   1
loop_
 _symmetry_equiv_pos_site_id
 _symmetry_equiv_pos_as_xyz
  1  'x, y, z'
loop_
 _atom_site_type_symbol
 _atom_site_label
 _atom_site_symmetry_multiplicity
 _atom_site_fract_x
 _atom_site_fract_y
 _atom_site_fract_z
 _atom_site_occupancy
  Ca  Ca0  1  0.298710  0.798709  0.499999  1
  Th  Th1  1  0.695304  0.195304  0.500000  1
  Al  Al2  1  0.998058  0.998058  0.000000  1
  Ir  Ir3  1  0.746903  0.503964  0.242939  1
  Ir  Ir4  1  0.261025  0.503963  0.757061  1
