# generated using pymatgen
data_TaTi4Nb5(Ga3B)2
_symmetry_space_group_name_H-M   'P 1'
_cell_length_a   7.77850119
_cell_length_b   7.77849991
_cell_length_c   5.31462900
_cell_angle_alpha   90.00000000
_cell_angle_beta   90.00000000
_cell_angle_gamma   120.02502736
_symmetry_Int_Tables_number   1
_chemical_formula_structural   TaTi4Nb5(Ga3B)2
_chemical_formula_sum   'Ta1 Ti4 Nb5 Ga6 B2'
_cell_volume   278.41060679
_cell_formula_units_Z   1
loop_
 _symmetry_equiv_pos_site_id
 _symmetry_equiv_pos_as_xyz
  1  'x, y, z'
loop_
 _atom_site_type_symbol
 _atom_site_label
 _atom_site_symmetry_multiplicity
 _atom_site_fract_x
 _atom_site_fract_y
 _atom_site_fract_z
 _atom_site_occupancy
  Ta  Ta0  1  0.240119  0.240119  0.750000  1
  Ti  Ti1  1  0.333259  0.666363  0.999445  1
  Ti  Ti2  1  0.666363  0.333259  0.999445  1
  Ti  Ti3  1  0.666363  0.333259  0.500555  1
  Ti  Ti4  1  0.333259  0.666363  0.500555  1
  Nb  Nb5  1  0.240531  0.000506  0.250000  1
  Nb  Nb6  1  0.759336  0.999970  0.750000  1
  Nb  Nb7  1  0.000506  0.240531  0.250000  1
  Nb  Nb8  1  0.999970  0.759336  0.750000  1
  Nb  Nb9  1  0.759605  0.759605  0.250000  1
  Ga  Ga10  1  0.598883  0.999990  0.250000  1
  Ga  Ga11  1  0.401398  0.000072  0.750000  1
  Ga  Ga12  1  0.999990  0.598883  0.250000  1
  Ga  Ga13  1  0.000072  0.401398  0.750000  1
  Ga  Ga14  1  0.401395  0.401395  0.250000  1
  Ga  Ga15  1  0.598781  0.598781  0.750000  1
  B  B16  1  0.000084  0.000084  0.000080  1
  B  B17  1  0.000084  0.000084  0.499920  1
