# generated using pymatgen
data_Tm5Lu11Cd3InNi4
_symmetry_space_group_name_H-M   'P 1'
_cell_length_a   9.38089479
_cell_length_b   9.37963305
_cell_length_c   9.37963222
_cell_angle_alpha   60.08177032
_cell_angle_beta   60.09182583
_cell_angle_gamma   60.09183036
_symmetry_Int_Tables_number   1
_chemical_formula_structural   Tm5Lu11Cd3InNi4
_chemical_formula_sum   'Tm5 Lu11 Cd3 In1 Ni4'
_cell_volume   584.75068004
_cell_formula_units_Z   1
loop_
 _symmetry_equiv_pos_site_id
 _symmetry_equiv_pos_as_xyz
  1  'x, y, z'
loop_
 _atom_site_type_symbol
 _atom_site_label
 _atom_site_symmetry_multiplicity
 _atom_site_fract_x
 _atom_site_fract_y
 _atom_site_fract_z
 _atom_site_occupancy
  Tm  Tm0  1  0.347924  0.348305  0.348305  1
  Tm  Tm1  1  0.348555  0.348636  0.954887  1
  Tm  Tm2  1  0.348555  0.954887  0.348636  1
  Tm  Tm3  1  0.955024  0.348664  0.348664  1
  Tm  Tm4  1  0.812232  0.187645  0.187645  1
  Lu  Lu5  1  0.187918  0.811648  0.811648  1
  Lu  Lu6  1  0.187815  0.811989  0.187701  1
  Lu  Lu7  1  0.811696  0.187951  0.811411  1
  Lu  Lu8  1  0.187815  0.187701  0.811989  1
  Lu  Lu9  1  0.811696  0.811411  0.187951  1
  Lu  Lu10  1  0.938201  0.563665  0.563665  1
  Lu  Lu11  1  0.564092  0.936652  0.936652  1
  Lu  Lu12  1  0.563530  0.938150  0.563776  1
  Lu  Lu13  1  0.936716  0.564236  0.936576  1
  Lu  Lu14  1  0.563530  0.563776  0.938150  1
  Lu  Lu15  1  0.936716  0.936576  0.564236  1
  Cd  Cd16  1  0.581586  0.581770  0.252992  1
  Cd  Cd17  1  0.581586  0.252992  0.581770  1
  Cd  Cd18  1  0.252940  0.581667  0.581667  1
  In  In19  1  0.582018  0.581958  0.581958  1
  Ni  Ni20  1  0.142551  0.141997  0.141997  1
  Ni  Ni21  1  0.141662  0.141711  0.574359  1
  Ni  Ni22  1  0.141662  0.574359  0.141711  1
  Ni  Ni23  1  0.573979  0.141649  0.141649  1
