# generated using pymatgen
data_YTh3(GaNi2)2
_symmetry_space_group_name_H-M   'P 1'
_cell_length_a   7.36133170
_cell_length_b   7.36133239
_cell_length_c   3.71297100
_cell_angle_alpha   90.00000000
_cell_angle_beta   90.00000000
_cell_angle_gamma   91.29781306
_symmetry_Int_Tables_number   1
_chemical_formula_structural   YTh3(GaNi2)2
_chemical_formula_sum   'Y1 Th3 Ga2 Ni4'
_cell_volume   201.15134951
_cell_formula_units_Z   1
loop_
 _symmetry_equiv_pos_site_id
 _symmetry_equiv_pos_as_xyz
  1  'x, y, z'
loop_
 _atom_site_type_symbol
 _atom_site_label
 _atom_site_symmetry_multiplicity
 _atom_site_fract_x
 _atom_site_fract_y
 _atom_site_fract_z
 _atom_site_occupancy
  Y  Y0  1  0.820149  0.679851  0.500000  1
  Th  Th1  1  0.681957  0.176699  0.500000  1
  Th  Th2  1  0.323301  0.818043  0.500000  1
  Th  Th3  1  0.177118  0.322882  0.500000  1
  Ga  Ga4  1  0.506790  0.502969  0.000000  1
  Ga  Ga5  1  0.997031  0.993210  0.000000  1
  Ni  Ni6  1  0.128627  0.621948  0.000000  1
  Ni  Ni7  1  0.878052  0.371373  0.000000  1
  Ni  Ni8  1  0.616818  0.883182  0.000000  1
  Ni  Ni9  1  0.370158  0.129842  0.000000  1
