# generated using pymatgen
data_TbY6Er13(CoBi2)4
_symmetry_space_group_name_H-M   'P 1'
_cell_length_a   7.95507260
_cell_length_b   8.86618700
_cell_length_c   12.40527033
_cell_angle_alpha   90.00000000
_cell_angle_beta   90.08124902
_cell_angle_gamma   90.00000000
_symmetry_Int_Tables_number   1
_chemical_formula_structural   TbY6Er13(CoBi2)4
_chemical_formula_sum   'Tb1 Y6 Er13 Co4 Bi8'
_cell_volume   874.95724289
_cell_formula_units_Z   1
loop_
 _symmetry_equiv_pos_site_id
 _symmetry_equiv_pos_as_xyz
  1  'x, y, z'
loop_
 _atom_site_type_symbol
 _atom_site_label
 _atom_site_symmetry_multiplicity
 _atom_site_fract_x
 _atom_site_fract_y
 _atom_site_fract_z
 _atom_site_occupancy
  Tb  Tb0  1  0.621011  0.250000  0.686625  1
  Y  Y1  1  0.654397  0.750000  0.700317  1
  Y  Y2  1  0.345636  0.250000  0.299761  1
  Y  Y3  1  0.154382  0.250000  0.799750  1
  Y  Y4  1  0.845384  0.750000  0.200298  1
  Y  Y5  1  0.122538  0.750000  0.811207  1
  Y  Y6  1  0.877494  0.250000  0.188721  1
  Er  Er7  1  0.379826  0.750000  0.314181  1
  Er  Er8  1  0.553047  0.750000  0.996875  1
  Er  Er9  1  0.446902  0.250000  0.003190  1
  Er  Er10  1  0.052127  0.250000  0.502368  1
  Er  Er11  1  0.948076  0.750000  0.497572  1
  Er  Er12  1  0.826431  0.463471  0.936451  1
  Er  Er13  1  0.173643  0.536517  0.063614  1
  Er  Er14  1  0.326130  0.536233  0.563490  1
  Er  Er15  1  0.173643  0.963483  0.063614  1
  Er  Er16  1  0.673532  0.464535  0.436086  1
  Er  Er17  1  0.826431  0.036529  0.936451  1
  Er  Er18  1  0.673532  0.035465  0.436086  1
  Er  Er19  1  0.326130  0.963767  0.563490  1
  Co  Co20  1  0.936302  0.750000  0.991987  1
  Co  Co21  1  0.063708  0.250000  0.008015  1
  Co  Co22  1  0.437421  0.250000  0.507507  1
  Co  Co23  1  0.562177  0.750000  0.491995  1
  Bi  Bi24  1  0.932512  0.007754  0.672323  1
  Bi  Bi25  1  0.067987  0.991898  0.327654  1
  Bi  Bi26  1  0.433733  0.993097  0.827329  1
  Bi  Bi27  1  0.067987  0.508102  0.327654  1
  Bi  Bi28  1  0.565818  0.006493  0.172868  1
  Bi  Bi29  1  0.932512  0.492246  0.672323  1
  Bi  Bi30  1  0.565818  0.493507  0.172868  1
  Bi  Bi31  1  0.433733  0.506903  0.827329  1
