# generated using pymatgen
data_Yb10CdNi4Sb
_symmetry_space_group_name_H-M   'P 1'
_cell_length_a   8.85411521
_cell_length_b   8.85411550
_cell_length_c   8.85411544
_cell_angle_alpha   129.16769519
_cell_angle_beta   129.16769363
_cell_angle_gamma   74.74089549
_symmetry_Int_Tables_number   1
_chemical_formula_structural   Yb10CdNi4Sb
_chemical_formula_sum   'Yb10 Cd1 Ni4 Sb1'
_cell_volume   406.45519106
_cell_formula_units_Z   1
loop_
 _symmetry_equiv_pos_site_id
 _symmetry_equiv_pos_as_xyz
  1  'x, y, z'
loop_
 _atom_site_type_symbol
 _atom_site_label
 _atom_site_symmetry_multiplicity
 _atom_site_fract_x
 _atom_site_fract_y
 _atom_site_fract_z
 _atom_site_occupancy
  Yb  Yb0  1  0.498177  0.498177  0.000000  1
  Yb  Yb1  1  0.001823  0.001823  0.000000  1
  Yb  Yb2  1  0.536875  0.037448  0.837001  1
  Yb  Yb3  1  0.200448  0.699875  0.162999  1
  Yb  Yb4  1  0.037448  0.200448  0.500573  1
  Yb  Yb5  1  0.699875  0.536875  0.499427  1
  Yb  Yb6  1  0.462552  0.963125  0.162999  1
  Yb  Yb7  1  0.800125  0.299552  0.837001  1
  Yb  Yb8  1  0.963125  0.800125  0.500573  1
  Yb  Yb9  1  0.299552  0.462552  0.499427  1
  Cd  Cd10  1  0.750000  0.750000  0.000000  1
  Ni  Ni11  1  0.114111  0.614111  0.728223  1
  Ni  Ni12  1  0.885889  0.385889  0.271777  1
  Ni  Ni13  1  0.614111  0.885889  0.500000  1
  Ni  Ni14  1  0.385889  0.114111  0.500000  1
  Sb  Sb15  1  0.250000  0.250000  0.000000  1
