# generated using pymatgen
data_CaNdB4(RuRh)2
_symmetry_space_group_name_H-M   'P 1'
_cell_length_a   6.88757390
_cell_length_b   6.02018646
_cell_length_c   5.57877524
_cell_angle_alpha   72.74299533
_cell_angle_beta   56.58646172
_cell_angle_gamma   50.67256334
_symmetry_Int_Tables_number   1
_chemical_formula_structural   CaNdB4(RuRh)2
_chemical_formula_sum   'Ca1 Nd1 B4 Ru2 Rh2'
_cell_volume   148.86906457
_cell_formula_units_Z   1
loop_
 _symmetry_equiv_pos_site_id
 _symmetry_equiv_pos_as_xyz
  1  'x, y, z'
loop_
 _atom_site_type_symbol
 _atom_site_label
 _atom_site_symmetry_multiplicity
 _atom_site_fract_x
 _atom_site_fract_y
 _atom_site_fract_z
 _atom_site_occupancy
  Ca  Ca0  1  0.750424  0.750424  0.749576  1
  Nd  Nd1  1  0.500176  0.500176  0.499824  1
  B  B2  1  0.818823  0.183180  0.825740  1
  B  B3  1  0.074217  0.428168  0.062203  1
  B  B4  1  0.183180  0.818823  0.172256  1
  B  B5  1  0.428168  0.074217  0.435412  1
  Ru  Ru6  1  0.133587  0.133587  0.866413  1
  Ru  Ru7  1  0.382103  0.382103  0.117897  1
  Rh  Rh8  1  0.115599  0.115599  0.384401  1
  Rh  Rh9  1  0.863724  0.863724  0.136276  1
