# generated using pymatgen
data_Rb13Ti2In5SnAs10
_symmetry_space_group_name_H-M   'P 1'
_cell_length_a   9.59275336
_cell_length_b   9.62743115
_cell_length_c   13.76394314
_cell_angle_alpha   81.44963581
_cell_angle_beta   78.71984179
_cell_angle_gamma   63.39668292
_symmetry_Int_Tables_number   1
_chemical_formula_structural   Rb13Ti2In5SnAs10
_chemical_formula_sum   'Rb13 Ti2 In5 Sn1 As10'
_cell_volume   1111.90701868
_cell_formula_units_Z   1
loop_
 _symmetry_equiv_pos_site_id
 _symmetry_equiv_pos_as_xyz
  1  'x, y, z'
loop_
 _atom_site_type_symbol
 _atom_site_label
 _atom_site_symmetry_multiplicity
 _atom_site_fract_x
 _atom_site_fract_y
 _atom_site_fract_z
 _atom_site_occupancy
  Rb  Rb0  1  0.494125  0.869457  0.352932  1
  Rb  Rb1  1  0.503714  0.133900  0.644816  1
  Rb  Rb2  1  0.851545  0.580576  0.887998  1
  Rb  Rb3  1  0.146064  0.415321  0.116459  1
  Rb  Rb4  1  0.090790  0.781713  0.425561  1
  Rb  Rb5  1  0.909337  0.219807  0.568430  1
  Rb  Rb6  1  0.742148  0.684026  0.593609  1
  Rb  Rb7  1  0.257878  0.315095  0.402001  1
  Rb  Rb8  1  0.500661  0.498686  0.001440  1
  Rb  Rb9  1  0.318889  0.931946  0.087751  1
  Rb  Rb10  1  0.680328  0.069391  0.916657  1
  Rb  Rb11  1  0.888948  0.860430  0.166949  1
  Rb  Rb12  1  0.109450  0.142703  0.837186  1
  Ti  Ti13  1  0.378567  0.739199  0.775406  1
  Ti  Ti14  1  0.620957  0.261091  0.224359  1
  In  In15  1  0.977989  0.183947  0.292458  1
  In  In16  1  0.603668  0.443583  0.404889  1
  In  In17  1  0.404606  0.551422  0.589646  1
  In  In18  1  0.723808  0.566805  0.166600  1
  In  In19  1  0.279024  0.430254  0.834359  1
  Sn  Sn20  1  0.037035  0.802948  0.708959  1
  As  As21  1  0.430862  0.551039  0.250211  1
  As  As22  1  0.566790  0.450433  0.749548  1
  As  As23  1  0.134384  0.750630  0.893027  1
  As  As24  1  0.863366  0.251657  0.105136  1
  As  As25  1  0.707732  0.126327  0.391951  1
  As  As26  1  0.284079  0.874261  0.611056  1
  As  As27  1  0.858568  0.511589  0.355160  1
  As  As28  1  0.134361  0.500626  0.648075  1
  As  As29  1  0.502414  0.864573  0.839043  1
  As  As30  1  0.497912  0.136565  0.158330  1
