# generated using pymatgen
data_Er2Tm10Co4BiRh
_symmetry_space_group_name_H-M   'P 1'
_cell_length_a   8.20922990
_cell_length_b   8.20935332
_cell_length_c   8.20657836
_cell_angle_alpha   110.86185760
_cell_angle_beta   111.03436871
_cell_angle_gamma   106.57029800
_symmetry_Int_Tables_number   1
_chemical_formula_structural   Er2Tm10Co4BiRh
_chemical_formula_sum   'Er2 Tm10 Co4 Bi1 Rh1'
_cell_volume   424.85483117
_cell_formula_units_Z   1
loop_
 _symmetry_equiv_pos_site_id
 _symmetry_equiv_pos_as_xyz
  1  'x, y, z'
loop_
 _atom_site_type_symbol
 _atom_site_label
 _atom_site_symmetry_multiplicity
 _atom_site_fract_x
 _atom_site_fract_y
 _atom_site_fract_z
 _atom_site_occupancy
  Er  Er0  1  0.286433  0.183976  0.470397  1
  Er  Er1  1  0.713567  0.816024  0.529603  1
  Tm  Tm2  1  0.286201  0.816113  0.102313  1
  Tm  Tm3  1  0.713799  0.183887  0.897687  1
  Tm  Tm4  1  0.620336  0.311362  0.308652  1
  Tm  Tm5  1  0.379664  0.688638  0.691348  1
  Tm  Tm6  1  0.002714  0.311691  0.691355  1
  Tm  Tm7  1  0.997286  0.688309  0.308645  1
  Tm  Tm8  1  0.212160  0.410542  0.197924  1
  Tm  Tm9  1  0.787840  0.589458  0.802076  1
  Tm  Tm10  1  0.212615  0.014229  0.802065  1
  Tm  Tm11  1  0.787385  0.985771  0.197935  1
  Co  Co12  1  0.999846  0.375269  0.375111  1
  Co  Co13  1  0.000154  0.624731  0.624889  1
  Co  Co14  1  0.388472  0.888480  0.500011  1
  Co  Co15  1  0.611528  0.111520  0.499989  1
  Bi  Bi16  1  0.500000  0.500000  0.000000  1
  Rh  Rh17  1  0.000000  0.000000  0.000000  1
