# generated using pymatgen
data_Y7PaGaPd24
_symmetry_space_group_name_H-M   'P 1'
_cell_length_a   8.37016769
_cell_length_b   8.37016769
_cell_length_c   8.37016769
_cell_angle_alpha   90.25908281
_cell_angle_beta   90.25908281
_cell_angle_gamma   89.74091719
_symmetry_Int_Tables_number   1
_chemical_formula_structural   Y7PaGaPd24
_chemical_formula_sum   'Y7 Pa1 Ga1 Pd24'
_cell_volume   586.39356571
_cell_formula_units_Z   1
loop_
 _symmetry_equiv_pos_site_id
 _symmetry_equiv_pos_as_xyz
  1  'x, y, z'
loop_
 _atom_site_type_symbol
 _atom_site_label
 _atom_site_symmetry_multiplicity
 _atom_site_fract_x
 _atom_site_fract_y
 _atom_site_fract_z
 _atom_site_occupancy
  Y  Y0  1  0.252160  0.747575  0.252425  1
  Y  Y1  1  0.747575  0.252160  0.252425  1
  Y  Y2  1  0.747575  0.747575  0.747840  1
  Y  Y3  1  0.747363  0.747363  0.252637  1
  Y  Y4  1  0.749090  0.252235  0.747765  1
  Y  Y5  1  0.252235  0.749090  0.747765  1
  Y  Y6  1  0.252235  0.252235  0.250910  1
  Pa  Pa7  1  0.254815  0.254815  0.745185  1
  Ga  Ga8  1  0.998086  0.998086  0.001914  1
  Pd  Pd9  1  0.496918  0.496918  0.746776  1
  Pd  Pd10  1  0.496918  0.253224  0.503082  1
  Pd  Pd11  1  0.253224  0.496918  0.503082  1
  Pd  Pd12  1  0.499575  0.499575  0.252733  1
  Pd  Pd13  1  0.499575  0.747267  0.500425  1
  Pd  Pd14  1  0.747267  0.499575  0.500425  1
  Pd  Pd15  1  0.002582  0.002582  0.710129  1
  Pd  Pd16  1  0.002582  0.289871  0.997418  1
  Pd  Pd17  1  0.289871  0.002582  0.997418  1
  Pd  Pd18  1  0.999933  0.999933  0.291764  1
  Pd  Pd19  1  0.999933  0.708236  0.000067  1
  Pd  Pd20  1  0.708236  0.999933  0.000067  1
  Pd  Pd21  1  0.004577  0.497055  0.740117  1
  Pd  Pd22  1  0.497055  0.259883  0.995423  1
  Pd  Pd23  1  0.259883  0.004577  0.502945  1
  Pd  Pd24  1  0.004577  0.259883  0.502945  1
  Pd  Pd25  1  0.497055  0.004577  0.740117  1
  Pd  Pd26  1  0.259883  0.497055  0.995423  1
  Pd  Pd27  1  0.000060  0.499310  0.259760  1
  Pd  Pd28  1  0.499310  0.740240  0.999940  1
  Pd  Pd29  1  0.000060  0.740240  0.500690  1
  Pd  Pd30  1  0.499310  0.000060  0.259760  1
  Pd  Pd31  1  0.740240  0.000060  0.500690  1
  Pd  Pd32  1  0.740240  0.499310  0.999940  1
