# generated using pymatgen
data_Dy3Ho2P12Ir16Rh3
_symmetry_space_group_name_H-M   'P 1'
_cell_length_a   12.72591700
_cell_length_b   12.72591640
_cell_length_c   3.96701800
_cell_angle_alpha   90.00000000
_cell_angle_beta   90.00000000
_cell_angle_gamma   119.99999897
_symmetry_Int_Tables_number   1
_chemical_formula_structural   Dy3Ho2P12Ir16Rh3
_chemical_formula_sum   'Dy3 Ho2 P12 Ir16 Rh3'
_cell_volume   556.38185667
_cell_formula_units_Z   1
loop_
 _symmetry_equiv_pos_site_id
 _symmetry_equiv_pos_as_xyz
  1  'x, y, z'
loop_
 _atom_site_type_symbol
 _atom_site_label
 _atom_site_symmetry_multiplicity
 _atom_site_fract_x
 _atom_site_fract_y
 _atom_site_fract_z
 _atom_site_occupancy
  Dy  Dy0  1  0.000000  0.814166  0.000000  1
  Dy  Dy1  1  0.185834  0.185834  0.000000  1
  Dy  Dy2  1  0.814166  0.000000  0.000000  1
  Ho  Ho3  1  0.333333  0.666667  0.500000  1
  Ho  Ho4  1  0.666667  0.333333  0.500000  1
  P  P5  1  0.000000  0.640556  0.500000  1
  P  P6  1  0.359444  0.359444  0.500000  1
  P  P7  1  0.640556  0.000000  0.500000  1
  P  P8  1  0.516396  0.687068  0.000000  1
  P  P9  1  0.312932  0.829328  0.000000  1
  P  P10  1  0.170672  0.483604  0.000000  1
  P  P11  1  0.483604  0.170672  0.000000  1
  P  P12  1  0.687068  0.516396  0.000000  1
  P  P13  1  0.829328  0.312932  0.000000  1
  P  P14  1  0.000000  0.179013  0.500000  1
  P  P15  1  0.820987  0.820987  0.500000  1
  P  P16  1  0.179013  0.000000  0.500000  1
  Ir  Ir17  1  0.507300  0.866482  0.000000  1
  Ir  Ir18  1  0.133518  0.640819  0.000000  1
  Ir  Ir19  1  0.359181  0.492700  0.000000  1
  Ir  Ir20  1  0.492700  0.359181  0.000000  1
  Ir  Ir21  1  0.866482  0.507300  0.000000  1
  Ir  Ir22  1  0.640819  0.133518  0.000000  1
  Ir  Ir23  1  0.000000  0.283512  0.000000  1
  Ir  Ir24  1  0.716488  0.716488  0.000000  1
  Ir  Ir25  1  0.283512  0.000000  0.000000  1
  Ir  Ir26  1  0.625547  0.805968  0.500000  1
  Ir  Ir27  1  0.194032  0.819580  0.500000  1
  Ir  Ir28  1  0.180420  0.374453  0.500000  1
  Ir  Ir29  1  0.374453  0.180420  0.500000  1
  Ir  Ir30  1  0.805968  0.625547  0.500000  1
  Ir  Ir31  1  0.819580  0.194032  0.500000  1
  Ir  Ir32  1  0.000000  0.000000  0.500000  1
  Rh  Rh33  1  0.000000  0.461168  0.500000  1
  Rh  Rh34  1  0.538832  0.538832  0.500000  1
  Rh  Rh35  1  0.461168  0.000000  0.500000  1
