# generated using pymatgen
data_Ce2NdDy3(SiPt5)2
_symmetry_space_group_name_H-M   'P 1'
_cell_length_a   8.30704571
_cell_length_b   8.29258042
_cell_length_c   8.29257930
_cell_angle_alpha   127.49958400
_cell_angle_beta   126.26044956
_cell_angle_gamma   78.41077176
_symmetry_Int_Tables_number   1
_chemical_formula_structural   Ce2NdDy3(SiPt5)2
_chemical_formula_sum   'Ce2 Nd1 Dy3 Si2 Pt10'
_cell_volume   353.94519421
_cell_formula_units_Z   1
loop_
 _symmetry_equiv_pos_site_id
 _symmetry_equiv_pos_as_xyz
  1  'x, y, z'
loop_
 _atom_site_type_symbol
 _atom_site_label
 _atom_site_symmetry_multiplicity
 _atom_site_fract_x
 _atom_site_fract_y
 _atom_site_fract_z
 _atom_site_occupancy
  Ce  Ce0  1  0.226620  0.949807  0.276814  1
  Ce  Ce1  1  0.773653  0.050764  0.722889  1
  Nd  Nd2  1  0.384853  0.749037  0.635816  1
  Dy  Dy3  1  0.828531  0.549378  0.279153  1
  Dy  Dy4  1  0.612062  0.251469  0.360593  1
  Dy  Dy5  1  0.170155  0.449878  0.720277  1
  Si  Si6  1  0.219127  0.250788  0.968339  1
  Si  Si7  1  0.785494  0.749256  0.036238  1
  Pt  Pt8  1  0.166875  0.901998  0.861954  1
  Pt  Pt9  1  0.830902  0.098688  0.142094  1
  Pt  Pt10  1  0.456916  0.194953  0.859002  1
  Pt  Pt11  1  0.546263  0.400296  0.734460  1
  Pt  Pt12  1  0.830902  0.688807  0.732213  1
  Pt  Pt13  1  0.456916  0.597914  0.261963  1
  Pt  Pt14  1  0.546263  0.811803  0.145967  1
  Pt  Pt15  1  0.166875  0.304922  0.264878  1
  Pt  Pt16  1  0.998795  0.003483  0.502036  1
  Pt  Pt17  1  0.998795  0.496759  0.995312  1
