# generated using pymatgen
data_Tb9ErIr5Au
_symmetry_space_group_name_H-M   'P 1'
_cell_length_a   11.09142447
_cell_length_b   11.03799000
_cell_length_c   6.35004800
_cell_angle_alpha   90.00000000
_cell_angle_beta   89.85090202
_cell_angle_gamma   90.00000000
_symmetry_Int_Tables_number   1
_chemical_formula_structural   Tb9ErIr5Au
_chemical_formula_sum   'Tb18 Er2 Ir10 Au2'
_cell_volume   777.41489978
_cell_formula_units_Z   2
loop_
 _symmetry_equiv_pos_site_id
 _symmetry_equiv_pos_as_xyz
  1  'x, y, z'
loop_
 _atom_site_type_symbol
 _atom_site_label
 _atom_site_symmetry_multiplicity
 _atom_site_fract_x
 _atom_site_fract_y
 _atom_site_fract_z
 _atom_site_occupancy
  Tb  Tb0  1  0.292071  0.088677  0.372701  1
  Tb  Tb1  1  0.292071  0.911323  0.872701  1
  Tb  Tb2  1  0.698350  0.092135  0.865431  1
  Tb  Tb3  1  0.698350  0.907865  0.365431  1
  Tb  Tb4  1  0.578336  0.788771  0.877880  1
  Tb  Tb5  1  0.578336  0.211229  0.377880  1
  Tb  Tb6  1  0.408943  0.789982  0.377148  1
  Tb  Tb7  1  0.408943  0.210018  0.877148  1
  Tb  Tb8  1  0.210511  0.411605  0.620966  1
  Tb  Tb9  1  0.210511  0.588395  0.120966  1
  Tb  Tb10  1  0.788546  0.419584  0.122436  1
  Tb  Tb11  1  0.788546  0.580416  0.622436  1
  Tb  Tb12  1  0.916810  0.705134  0.138685  1
  Tb  Tb13  1  0.916810  0.294866  0.638685  1
  Tb  Tb14  1  0.096235  0.703007  0.623821  1
  Tb  Tb15  1  0.096235  0.296993  0.123821  1
  Tb  Tb16  1  0.008951  0.997803  0.499813  1
  Tb  Tb17  1  0.008951  0.002197  0.999813  1
  Er  Er18  1  0.499614  0.499031  0.000541  1
  Er  Er19  1  0.499614  0.500969  0.500541  1
  Ir  Ir20  1  0.154139  0.154086  0.750622  1
  Ir  Ir21  1  0.154139  0.845914  0.250622  1
  Ir  Ir22  1  0.654133  0.347796  0.748671  1
  Ir  Ir23  1  0.654133  0.652204  0.248671  1
  Ir  Ir24  1  0.348914  0.347593  0.251387  1
  Ir  Ir25  1  0.348914  0.652407  0.751387  1
  Ir  Ir26  1  0.499905  0.999615  0.120403  1
  Ir  Ir27  1  0.499905  0.000385  0.620403  1
  Ir  Ir28  1  0.999626  0.501007  0.879550  1
  Ir  Ir29  1  0.999626  0.498993  0.379550  1
  Au  Au30  1  0.844915  0.155237  0.249947  1
  Au  Au31  1  0.844915  0.844763  0.749947  1
