# generated using pymatgen
data_YbDy(ErB8)2
_symmetry_space_group_name_H-M   'P 1'
_cell_length_a   7.09211953
_cell_length_b   7.09207823
_cell_length_c   4.01288900
_cell_angle_alpha   90.00000000
_cell_angle_beta   90.00000000
_cell_angle_gamma   89.90765851
_symmetry_Int_Tables_number   1
_chemical_formula_structural   YbDy(ErB8)2
_chemical_formula_sum   'Yb1 Dy1 Er2 B16'
_cell_volume   201.83949315
_cell_formula_units_Z   1
loop_
 _symmetry_equiv_pos_site_id
 _symmetry_equiv_pos_as_xyz
  1  'x, y, z'
loop_
 _atom_site_type_symbol
 _atom_site_label
 _atom_site_symmetry_multiplicity
 _atom_site_fract_x
 _atom_site_fract_y
 _atom_site_fract_z
 _atom_site_occupancy
  Yb  Yb0  1  0.682640  0.817330  0.000000  1
  Dy  Dy1  1  0.817778  0.317966  0.000000  1
  Er  Er2  1  0.182073  0.682245  0.000000  1
  Er  Er3  1  0.319135  0.180820  0.000000  1
  B  B4  1  0.499803  0.501205  0.797319  1
  B  B5  1  0.999131  0.999681  0.797320  1
  B  B6  1  0.499803  0.501205  0.202681  1
  B  B7  1  0.999131  0.999681  0.202680  1
  B  B8  1  0.913542  0.586811  0.500000  1
  B  B9  1  0.087062  0.413266  0.500000  1
  B  B10  1  0.413115  0.913841  0.500000  1
  B  B11  1  0.586107  0.086862  0.500000  1
  B  B12  1  0.675593  0.537887  0.500000  1
  B  B13  1  0.323975  0.461244  0.500000  1
  B  B14  1  0.177122  0.962194  0.500000  1
  B  B15  1  0.823842  0.038462  0.500000  1
  B  B16  1  0.461151  0.676377  0.500000  1
  B  B17  1  0.537397  0.323078  0.500000  1
  B  B18  1  0.039101  0.175745  0.500000  1
  B  B19  1  0.962497  0.824102  0.500000  1
