# generated using pymatgen
data_TbLuHf2F14
_symmetry_space_group_name_H-M   'P 1'
_cell_length_a   5.72656193
_cell_length_b   6.02451528
_cell_length_c   8.21946509
_cell_angle_alpha   103.13220074
_cell_angle_beta   90.00497652
_cell_angle_gamma   89.93509350
_symmetry_Int_Tables_number   1
_chemical_formula_structural   TbLuHf2F14
_chemical_formula_sum   'Tb1 Lu1 Hf2 F14'
_cell_volume   276.15360184
_cell_formula_units_Z   1
loop_
 _symmetry_equiv_pos_site_id
 _symmetry_equiv_pos_as_xyz
  1  'x, y, z'
loop_
 _atom_site_type_symbol
 _atom_site_label
 _atom_site_symmetry_multiplicity
 _atom_site_fract_x
 _atom_site_fract_y
 _atom_site_fract_z
 _atom_site_occupancy
  Tb  Tb0  1  0.699042  0.651117  0.684233  1
  Lu  Lu1  1  0.198561  0.344442  0.310755  1
  Hf  Hf2  1  0.707168  0.816030  0.226231  1
  Hf  Hf3  1  0.206449  0.186558  0.774791  1
  F  F4  1  0.911639  0.459536  0.477177  1
  F  F5  1  0.401377  0.526851  0.512215  1
  F  F6  1  0.425990  0.924542  0.766717  1
  F  F7  1  0.944665  0.065815  0.234117  1
  F  F8  1  0.951249  0.952945  0.759640  1
  F  F9  1  0.463227  0.065495  0.246386  1
  F  F10  1  0.988431  0.450982  0.792279  1
  F  F11  1  0.475354  0.561824  0.211076  1
  F  F12  1  0.695945  0.761492  0.977965  1
  F  F13  1  0.199743  0.242591  0.025344  1
  F  F14  1  0.701941  0.865824  0.475308  1
  F  F15  1  0.202337  0.135896  0.525496  1
  F  F16  1  0.494097  0.381088  0.784614  1
  F  F17  1  0.985507  0.606973  0.215657  1
