# generated using pymatgen
data_Tb13Th3Cd2(HgIr2)2
_symmetry_space_group_name_H-M   'P 1'
_cell_length_a   9.73566359
_cell_length_b   9.73808184
_cell_length_c   9.74915300
_cell_angle_alpha   59.96238135
_cell_angle_beta   59.95415184
_cell_angle_gamma   59.96980760
_symmetry_Int_Tables_number   1
_chemical_formula_structural   Tb13Th3Cd2(HgIr2)2
_chemical_formula_sum   'Tb13 Th3 Cd2 Hg2 Ir4'
_cell_volume   653.00657150
_cell_formula_units_Z   1
loop_
 _symmetry_equiv_pos_site_id
 _symmetry_equiv_pos_as_xyz
  1  'x, y, z'
loop_
 _atom_site_type_symbol
 _atom_site_label
 _atom_site_symmetry_multiplicity
 _atom_site_fract_x
 _atom_site_fract_y
 _atom_site_fract_z
 _atom_site_occupancy
  Tb  Tb0  1  0.194213  0.602880  0.601454  1
  Tb  Tb1  1  0.061406  0.438572  0.440198  1
  Tb  Tb2  1  0.436817  0.062551  0.062543  1
  Tb  Tb3  1  0.436817  0.062551  0.438088  1
  Tb  Tb4  1  0.061406  0.438572  0.059824  1
  Tb  Tb5  1  0.437603  0.437679  0.062358  1
  Tb  Tb6  1  0.061033  0.060083  0.439442  1
  Tb  Tb7  1  0.188188  0.812226  0.813067  1
  Tb  Tb8  1  0.813417  0.186420  0.185856  1
  Tb  Tb9  1  0.813417  0.186420  0.814307  1
  Tb  Tb10  1  0.188188  0.812226  0.186519  1
  Tb  Tb11  1  0.814003  0.813918  0.186040  1
  Tb  Tb12  1  0.188306  0.186640  0.812528  1
  Th  Th13  1  0.598005  0.600007  0.599161  1
  Th  Th14  1  0.598005  0.600007  0.202830  1
  Th  Th15  1  0.599944  0.198791  0.600634  1
  Cd  Cd16  1  0.831842  0.504282  0.831939  1
  Cd  Cd17  1  0.502508  0.831022  0.833235  1
  Hg  Hg18  1  0.836598  0.833716  0.836576  1
  Hg  Hg19  1  0.836598  0.833716  0.493112  1
  Ir  Ir20  1  0.394370  0.392021  0.393429  1
  Ir  Ir21  1  0.394370  0.392021  0.820181  1
  Ir  Ir22  1  0.393893  0.820473  0.392817  1
  Ir  Ir23  1  0.819054  0.393213  0.393867  1
