# generated using pymatgen
data_Cd4Ir2OsRuO14
_symmetry_space_group_name_H-M   'P 1'
_cell_length_a   7.24013922
_cell_length_b   7.26035192
_cell_length_c   7.28081307
_cell_angle_alpha   60.27366254
_cell_angle_beta   60.18462696
_cell_angle_gamma   60.09204491
_symmetry_Int_Tables_number   1
_chemical_formula_structural   Cd4Ir2OsRuO14
_chemical_formula_sum   'Cd4 Ir2 Os1 Ru1 O14'
_cell_volume   271.74887940
_cell_formula_units_Z   1
loop_
 _symmetry_equiv_pos_site_id
 _symmetry_equiv_pos_as_xyz
  1  'x, y, z'
loop_
 _atom_site_type_symbol
 _atom_site_label
 _atom_site_symmetry_multiplicity
 _atom_site_fract_x
 _atom_site_fract_y
 _atom_site_fract_z
 _atom_site_occupancy
  Cd  Cd0  1  0.125000  0.125000  0.125000  1
  Cd  Cd1  1  0.625000  0.125000  0.125000  1
  Cd  Cd2  1  0.125000  0.625000  0.125000  1
  Cd  Cd3  1  0.125000  0.125000  0.625000  1
  Ir  Ir4  1  0.625000  0.625000  0.625000  1
  Ir  Ir5  1  0.125000  0.625000  0.625000  1
  Os  Os6  1  0.625000  0.625000  0.125000  1
  Ru  Ru7  1  0.625000  0.125000  0.625000  1
  O  O8  1  0.251339  0.249878  0.247446  1
  O  O9  1  0.998661  0.000122  0.002554  1
  O  O10  1  0.557895  0.948619  0.544655  1
  O  O11  1  0.310810  0.694178  0.303473  1
  O  O12  1  0.558462  0.555822  0.946527  1
  O  O13  1  0.951902  0.555781  0.540415  1
  O  O14  1  0.562525  0.933515  0.941435  1
  O  O15  1  0.948831  0.948619  0.544655  1
  O  O16  1  0.939190  0.555822  0.946527  1
  O  O17  1  0.687475  0.316485  0.308565  1
  O  O18  1  0.298098  0.694219  0.709585  1
  O  O19  1  0.692105  0.301381  0.705345  1
  O  O20  1  0.301169  0.301381  0.705345  1
  O  O21  1  0.691538  0.694178  0.303473  1
