# generated using pymatgen
data_Ho3Er9Rh4
_symmetry_space_group_name_H-M   'P 1'
_cell_length_a   6.26782303
_cell_length_b   7.13705304
_cell_length_c   9.32571800
_cell_angle_alpha   90.00000000
_cell_angle_beta   90.00000000
_cell_angle_gamma   90.01151502
_symmetry_Int_Tables_number   1
_chemical_formula_structural   Ho3Er9Rh4
_chemical_formula_sum   'Ho3 Er9 Rh4'
_cell_volume   417.17465926
_cell_formula_units_Z   1
loop_
 _symmetry_equiv_pos_site_id
 _symmetry_equiv_pos_as_xyz
  1  'x, y, z'
loop_
 _atom_site_type_symbol
 _atom_site_label
 _atom_site_symmetry_multiplicity
 _atom_site_fract_x
 _atom_site_fract_y
 _atom_site_fract_z
 _atom_site_occupancy
  Ho  Ho0  1  0.866773  0.965948  0.750000  1
  Ho  Ho1  1  0.366580  0.534293  0.250000  1
  Ho  Ho2  1  0.633022  0.465754  0.750000  1
  Er  Er3  1  0.672650  0.178224  0.063042  1
  Er  Er4  1  0.172323  0.321588  0.937177  1
  Er  Er5  1  0.827657  0.678254  0.437051  1
  Er  Er6  1  0.327461  0.821932  0.562735  1
  Er  Er7  1  0.327461  0.821932  0.937265  1
  Er  Er8  1  0.827657  0.678254  0.062949  1
  Er  Er9  1  0.172323  0.321588  0.562823  1
  Er  Er10  1  0.672650  0.178224  0.436958  1
  Er  Er11  1  0.133544  0.034385  0.250000  1
  Rh  Rh12  1  0.053860  0.616056  0.750000  1
  Rh  Rh13  1  0.553119  0.884144  0.250000  1
  Rh  Rh14  1  0.446258  0.116091  0.750000  1
  Rh  Rh15  1  0.946662  0.383336  0.250000  1
