# generated using pymatgen
data_Dy2Y2Al18Co5Pt
_symmetry_space_group_name_H-M   'P 1'
_cell_length_a   7.41581423
_cell_length_b   7.41494497
_cell_length_c   9.34043919
_cell_angle_alpha   89.85206977
_cell_angle_beta   89.85206474
_cell_angle_gamma   119.17601504
_symmetry_Int_Tables_number   1
_chemical_formula_structural   Dy2Y2Al18Co5Pt
_chemical_formula_sum   'Dy2 Y2 Al18 Co5 Pt1'
_cell_volume   448.44114835
_cell_formula_units_Z   1
loop_
 _symmetry_equiv_pos_site_id
 _symmetry_equiv_pos_as_xyz
  1  'x, y, z'
loop_
 _atom_site_type_symbol
 _atom_site_label
 _atom_site_symmetry_multiplicity
 _atom_site_fract_x
 _atom_site_fract_y
 _atom_site_fract_z
 _atom_site_occupancy
  Dy  Dy0  1  0.994377  0.674488  0.251352  1
  Dy  Dy1  1  0.005623  0.325512  0.748648  1
  Y  Y2  1  0.674457  0.994370  0.251351  1
  Y  Y3  1  0.325543  0.005630  0.748649  1
  Al  Al4  1  0.131828  0.131711  0.258556  1
  Al  Al5  1  0.868172  0.868289  0.741444  1
  Al  Al6  1  0.332355  0.332412  0.542015  1
  Al  Al7  1  0.660123  0.660064  0.046582  1
  Al  Al8  1  0.339877  0.339936  0.953418  1
  Al  Al9  1  0.667645  0.667588  0.457985  1
  Al  Al10  1  0.339652  0.555444  0.251265  1
  Al  Al11  1  0.660348  0.444556  0.748735  1
  Al  Al12  1  0.555528  0.339768  0.251264  1
  Al  Al13  1  0.444472  0.660232  0.748736  1
  Al  Al14  1  0.999668  0.344109  0.074093  1
  Al  Al15  1  0.002712  0.664021  0.570491  1
  Al  Al16  1  0.335868  0.997227  0.429412  1
  Al  Al17  1  0.656009  0.000388  0.925815  1
  Al  Al18  1  0.000332  0.655891  0.925907  1
  Al  Al19  1  0.997288  0.335979  0.429509  1
  Al  Al20  1  0.664132  0.002773  0.570588  1
  Al  Al21  1  0.343991  0.999612  0.074185  1
  Co  Co22  1  0.000000  0.000000  0.500000  1
  Co  Co23  1  0.670864  0.329219  0.999975  1
  Co  Co24  1  0.328940  0.670946  0.499982  1
  Co  Co25  1  0.329136  0.670781  0.000025  1
  Co  Co26  1  0.671060  0.329054  0.500018  1
  Pt  Pt27  1  0.000000  0.000000  0.000000  1
