# generated using pymatgen
data_Hf5Sc(Be2Rh5)2
_symmetry_space_group_name_H-M   'P 1'
_cell_length_a   9.44517417
_cell_length_b   9.44517417
_cell_length_c   3.31481100
_cell_angle_alpha   90.00000000
_cell_angle_beta   90.00000000
_cell_angle_gamma   90.02181385
_symmetry_Int_Tables_number   1
_chemical_formula_structural   Hf5Sc(Be2Rh5)2
_chemical_formula_sum   'Hf5 Sc1 Be4 Rh10'
_cell_volume   295.71862726
_cell_formula_units_Z   1
loop_
 _symmetry_equiv_pos_site_id
 _symmetry_equiv_pos_as_xyz
  1  'x, y, z'
loop_
 _atom_site_type_symbol
 _atom_site_label
 _atom_site_symmetry_multiplicity
 _atom_site_fract_x
 _atom_site_fract_y
 _atom_site_fract_z
 _atom_site_occupancy
  Hf  Hf0  1  0.826971  0.326971  0.000000  1
  Hf  Hf1  1  0.325650  0.173535  0.000000  1
  Hf  Hf2  1  0.673535  0.825650  0.000000  1
  Hf  Hf3  1  0.000441  0.998993  0.000000  1
  Hf  Hf4  1  0.498993  0.500441  0.000000  1
  Sc  Sc5  1  0.173729  0.673729  0.000000  1
  Be  Be6  1  0.620063  0.120063  0.000000  1
  Be  Be7  1  0.119722  0.380439  0.000000  1
  Be  Be8  1  0.880439  0.619722  0.000000  1
  Be  Be9  1  0.379612  0.879612  0.000000  1
  Rh  Rh10  1  0.071832  0.214426  0.500000  1
  Rh  Rh11  1  0.216930  0.931834  0.500000  1
  Rh  Rh12  1  0.784980  0.072990  0.500000  1
  Rh  Rh13  1  0.923796  0.785251  0.500000  1
  Rh  Rh14  1  0.431834  0.716930  0.500000  1
  Rh  Rh15  1  0.572990  0.284980  0.500000  1
  Rh  Rh16  1  0.714426  0.571832  0.500000  1
  Rh  Rh17  1  0.285251  0.423796  0.500000  1
  Rh  Rh18  1  0.500857  0.000857  0.500000  1
  Rh  Rh19  1  0.997950  0.497950  0.500000  1
