# generated using pymatgen
data_Tb4Er8InCo4Ru
_symmetry_space_group_name_H-M   'P 1'
_cell_length_a   8.28465721
_cell_length_b   8.28465685
_cell_length_c   8.28465767
_cell_angle_alpha   110.97633170
_cell_angle_beta   110.90695411
_cell_angle_gamma   106.56879730
_symmetry_Int_Tables_number   1
_chemical_formula_structural   Tb4Er8InCo4Ru
_chemical_formula_sum   'Tb4 Er8 In1 Co4 Ru1'
_cell_volume   436.88816990
_cell_formula_units_Z   1
loop_
 _symmetry_equiv_pos_site_id
 _symmetry_equiv_pos_as_xyz
  1  'x, y, z'
loop_
 _atom_site_type_symbol
 _atom_site_label
 _atom_site_symmetry_multiplicity
 _atom_site_fract_x
 _atom_site_fract_y
 _atom_site_fract_z
 _atom_site_occupancy
  Tb  Tb0  1  0.184970  0.283829  0.468799  1
  Tb  Tb1  1  0.815030  0.716171  0.531201  1
  Tb  Tb2  1  0.184970  0.716171  0.901140  1
  Tb  Tb3  1  0.815030  0.283829  0.098860  1
  Er  Er4  1  0.314224  0.621489  0.307264  1
  Er  Er5  1  0.685776  0.378511  0.692736  1
  Er  Er6  1  0.314224  0.006960  0.692736  1
  Er  Er7  1  0.685776  0.993040  0.307264  1
  Er  Er8  1  0.411512  0.218348  0.193164  1
  Er  Er9  1  0.588488  0.781652  0.806836  1
  Er  Er10  1  0.025183  0.218348  0.806836  1
  Er  Er11  1  0.974817  0.781652  0.193164  1
  In  In12  1  0.500000  0.500000  0.000000  1
  Co  Co13  1  0.111653  0.611653  0.500000  1
  Co  Co14  1  0.888347  0.388347  0.500000  1
  Co  Co15  1  0.377057  0.000000  0.377057  1
  Co  Co16  1  0.622943  0.000000  0.622943  1
  Ru  Ru17  1  0.000000  0.000000  0.000000  1
