# generated using pymatgen
data_Ho4ErPd15
_symmetry_space_group_name_H-M   'P 1'
_cell_length_a   4.10753300
_cell_length_b   4.10753300
_cell_length_c   20.66486700
_cell_angle_alpha   90.00000000
_cell_angle_beta   90.00000000
_cell_angle_gamma   90.00000000
_symmetry_Int_Tables_number   1
_chemical_formula_structural   Ho4ErPd15
_chemical_formula_sum   'Ho4 Er1 Pd15'
_cell_volume   348.65406815
_cell_formula_units_Z   1
loop_
 _symmetry_equiv_pos_site_id
 _symmetry_equiv_pos_as_xyz
  1  'x, y, z'
loop_
 _atom_site_type_symbol
 _atom_site_label
 _atom_site_symmetry_multiplicity
 _atom_site_fract_x
 _atom_site_fract_y
 _atom_site_fract_z
 _atom_site_occupancy
  Ho  Ho0  1  0.000000  0.000000  0.199475  1
  Ho  Ho1  1  0.000000  0.000000  0.399794  1
  Ho  Ho2  1  0.000000  0.000000  0.600206  1
  Ho  Ho3  1  0.000000  0.000000  0.800525  1
  Er  Er4  1  0.000000  0.000000  0.000000  1
  Pd  Pd5  1  0.500000  0.500000  0.000000  1
  Pd  Pd6  1  0.500000  0.500000  0.199474  1
  Pd  Pd7  1  0.500000  0.500000  0.399700  1
  Pd  Pd8  1  0.500000  0.500000  0.600300  1
  Pd  Pd9  1  0.500000  0.500000  0.800526  1
  Pd  Pd10  1  0.500000  0.000000  0.099350  1
  Pd  Pd11  1  0.500000  0.000000  0.299675  1
  Pd  Pd12  1  0.500000  0.000000  0.500000  1
  Pd  Pd13  1  0.500000  0.000000  0.700325  1
  Pd  Pd14  1  0.500000  0.000000  0.900650  1
  Pd  Pd15  1  0.000000  0.500000  0.099350  1
  Pd  Pd16  1  0.000000  0.500000  0.299675  1
  Pd  Pd17  1  0.000000  0.500000  0.500000  1
  Pd  Pd18  1  0.000000  0.500000  0.700325  1
  Pd  Pd19  1  0.000000  0.500000  0.900650  1
