# generated using pymatgen
data_CsTc2Mo4S7
_symmetry_space_group_name_H-M   'P 1'
_cell_length_a   9.69192292
_cell_length_b   9.68914162
_cell_length_c   9.68655186
_cell_angle_alpha   60.00824269
_cell_angle_beta   59.83223292
_cell_angle_gamma   59.81200994
_symmetry_Int_Tables_number   1
_chemical_formula_structural   CsTc2Mo4S7
_chemical_formula_sum   'Cs2 Tc4 Mo8 S14'
_cell_volume   641.51000179
_cell_formula_units_Z   2
loop_
 _symmetry_equiv_pos_site_id
 _symmetry_equiv_pos_as_xyz
  1  'x, y, z'
loop_
 _atom_site_type_symbol
 _atom_site_label
 _atom_site_symmetry_multiplicity
 _atom_site_fract_x
 _atom_site_fract_y
 _atom_site_fract_z
 _atom_site_occupancy
  Cs  Cs0  1  0.372942  0.375450  0.376728  1
  Cs  Cs1  1  0.625047  0.624672  0.623969  1
  Tc  Tc2  1  0.124888  0.990182  0.302414  1
  Tc  Tc3  1  0.009917  0.697654  0.875215  1
  Tc  Tc4  1  0.697521  0.875755  0.010742  1
  Tc  Tc5  1  0.059411  0.201306  0.879807  1
  Mo  Mo6  1  0.301478  0.125971  0.990627  1
  Mo  Mo7  1  0.200695  0.882643  0.059334  1
  Mo  Mo8  1  0.881482  0.060894  0.199956  1
  Mo  Mo9  1  0.939797  0.799261  0.118372  1
  Mo  Mo10  1  0.798616  0.121170  0.939765  1
  Mo  Mo11  1  0.120158  0.940381  0.797349  1
  Mo  Mo12  1  0.990792  0.302519  0.124349  1
  Mo  Mo13  1  0.875652  0.008770  0.698294  1
  S  S14  1  0.979549  0.236907  0.646570  1
  S  S15  1  0.234494  0.644665  0.975327  1
  S  S16  1  0.644413  0.978634  0.233982  1
  S  S17  1  0.021826  0.766835  0.353595  1
  S  S18  1  0.769326  0.353575  0.016609  1
  S  S19  1  0.349171  0.026475  0.764346  1
  S  S20  1  0.164694  0.414269  0.822098  1
  S  S21  1  0.412364  0.823057  0.168318  1
  S  S22  1  0.828496  0.163368  0.414461  1
  S  S23  1  0.834733  0.589661  0.170944  1
  S  S24  1  0.586037  0.170943  0.839393  1
  S  S25  1  0.177725  0.829033  0.588601  1
  S  S26  1  0.782312  0.780829  0.787101  1
  S  S27  1  0.216463  0.215120  0.221735  1
