# generated using pymatgen
data_SrInSnIr
_symmetry_space_group_name_H-M   'P 1'
_cell_length_a   6.13841475
_cell_length_b   6.13841443
_cell_length_c   7.78147800
_cell_angle_alpha   90.00000000
_cell_angle_beta   90.00000000
_cell_angle_gamma   137.17277764
_symmetry_Int_Tables_number   1
_chemical_formula_structural   SrInSnIr
_chemical_formula_sum   'Sr2 In2 Sn2 Ir2'
_cell_volume   199.31922785
_cell_formula_units_Z   2
loop_
 _symmetry_equiv_pos_site_id
 _symmetry_equiv_pos_as_xyz
  1  'x, y, z'
loop_
 _atom_site_type_symbol
 _atom_site_label
 _atom_site_symmetry_multiplicity
 _atom_site_fract_x
 _atom_site_fract_y
 _atom_site_fract_z
 _atom_site_occupancy
  Sr  Sr0  1  0.938898  0.061102  0.750000  1
  Sr  Sr1  1  0.059462  0.940538  0.250000  1
  In  In2  1  0.345378  0.654622  0.053273  1
  In  In3  1  0.345378  0.654622  0.446727  1
  Sn  Sn4  1  0.657112  0.342888  0.947098  1
  Sn  Sn5  1  0.657112  0.342888  0.552902  1
  Ir  Ir6  1  0.214502  0.785498  0.750000  1
  Ir  Ir7  1  0.782156  0.217844  0.250000  1
