# generated using pymatgen
data_Pr3Y5Cd2OsPd
_symmetry_space_group_name_H-M   'P 1'
_cell_length_a   9.85244028
_cell_length_b   9.85244009
_cell_length_c   9.89503931
_cell_angle_alpha   59.56803626
_cell_angle_beta   59.56802570
_cell_angle_gamma   59.61521390
_symmetry_Int_Tables_number   1
_chemical_formula_structural   Pr3Y5Cd2OsPd
_chemical_formula_sum   'Pr6 Y10 Cd4 Os2 Pd2'
_cell_volume   672.76168295
_cell_formula_units_Z   2
loop_
 _symmetry_equiv_pos_site_id
 _symmetry_equiv_pos_as_xyz
  1  'x, y, z'
loop_
 _atom_site_type_symbol
 _atom_site_label
 _atom_site_symmetry_multiplicity
 _atom_site_fract_x
 _atom_site_fract_y
 _atom_site_fract_z
 _atom_site_occupancy
  Pr  Pr0  1  0.938334  0.554325  0.564917  1
  Pr  Pr1  1  0.553729  0.940523  0.941808  1
  Pr  Pr2  1  0.554326  0.938331  0.564919  1
  Pr  Pr3  1  0.940523  0.553732  0.941806  1
  Pr  Pr4  1  0.561693  0.561693  0.938142  1
  Pr  Pr5  1  0.942305  0.942306  0.556906  1
  Y  Y6  1  0.348161  0.348161  0.355637  1
  Y  Y7  1  0.349477  0.349477  0.948005  1
  Y  Y8  1  0.343886  0.958330  0.349841  1
  Y  Y9  1  0.958330  0.343886  0.349841  1
  Y  Y10  1  0.818178  0.185969  0.188377  1
  Y  Y11  1  0.183881  0.818875  0.806731  1
  Y  Y12  1  0.185969  0.818178  0.188376  1
  Y  Y13  1  0.818875  0.183881  0.806731  1
  Y  Y14  1  0.186089  0.186089  0.813061  1
  Y  Y15  1  0.810539  0.810539  0.187890  1
  Cd  Cd16  1  0.578716  0.578717  0.579048  1
  Cd  Cd17  1  0.578742  0.578743  0.262661  1
  Cd  Cd18  1  0.579684  0.260104  0.579770  1
  Cd  Cd19  1  0.260104  0.579684  0.579771  1
  Os  Os20  1  0.143584  0.143584  0.139094  1
  Os  Os21  1  0.145000  0.145000  0.574450  1
  Pd  Pd22  1  0.145676  0.574197  0.141109  1
  Pd  Pd23  1  0.574196  0.145676  0.141109  1
