# generated using pymatgen
data_Ho2B6MoW
_symmetry_space_group_name_H-M   'P 1'
_cell_length_a   3.16783300
_cell_length_b   5.45137311
_cell_length_c   6.83374783
_cell_angle_alpha   78.04027373
_cell_angle_beta   90.00000000
_cell_angle_gamma   90.00000000
_symmetry_Int_Tables_number   1
_chemical_formula_structural   Ho2B6MoW
_chemical_formula_sum   'Ho2 B6 Mo1 W1'
_cell_volume   115.45062909
_cell_formula_units_Z   1
loop_
 _symmetry_equiv_pos_site_id
 _symmetry_equiv_pos_as_xyz
  1  'x, y, z'
loop_
 _atom_site_type_symbol
 _atom_site_label
 _atom_site_symmetry_multiplicity
 _atom_site_fract_x
 _atom_site_fract_y
 _atom_site_fract_z
 _atom_site_occupancy
  Ho  Ho0  1  0.250000  0.323844  0.709086  1
  Ho  Ho1  1  0.750000  0.676061  0.290609  1
  B  B2  1  0.250000  0.918417  0.524063  1
  B  B3  1  0.750000  0.081620  0.475040  1
  B  B4  1  0.250000  0.912649  0.004888  1
  B  B5  1  0.750000  0.087412  0.995693  1
  B  B6  1  0.250000  0.583130  0.007197  1
  B  B7  1  0.750000  0.416620  0.993285  1
  Mo  Mo8  1  0.750000  0.811583  0.779816  1
  W  W9  1  0.250000  0.188664  0.220323  1
