# generated using pymatgen
data_Dy7P12Pd17
_symmetry_space_group_name_H-M   'P 1'
_cell_length_a   12.31314993
_cell_length_b   12.31314942
_cell_length_c   13.56980110
_cell_angle_alpha   68.22345968
_cell_angle_beta   68.22346057
_cell_angle_gamma   18.67624576
_symmetry_Int_Tables_number   1
_chemical_formula_structural   Dy7P12Pd17
_chemical_formula_sum   'Dy7 P12 Pd17'
_cell_volume   610.47491369
_cell_formula_units_Z   1
loop_
 _symmetry_equiv_pos_site_id
 _symmetry_equiv_pos_as_xyz
  1  'x, y, z'
loop_
 _atom_site_type_symbol
 _atom_site_label
 _atom_site_symmetry_multiplicity
 _atom_site_fract_x
 _atom_site_fract_y
 _atom_site_fract_z
 _atom_site_occupancy
  Dy  Dy0  1  0.500000  0.500000  0.500000  1
  Dy  Dy1  1  0.365015  0.365015  0.000918  1
  Dy  Dy2  1  0.634985  0.634985  0.999082  1
  Dy  Dy3  1  0.234177  0.234177  0.312556  1
  Dy  Dy4  1  0.765823  0.765823  0.687444  1
  Dy  Dy5  1  0.418484  0.418484  0.260691  1
  Dy  Dy6  1  0.581516  0.581516  0.739309  1
  P  P7  1  0.062102  0.062102  0.923415  1
  P  P8  1  0.937898  0.937898  0.076585  1
  P  P9  1  0.887075  0.887075  0.829792  1
  P  P10  1  0.112925  0.112925  0.170208  1
  P  P11  1  0.188845  0.188845  0.622117  1
  P  P12  1  0.811155  0.811155  0.377883  1
  P  P13  1  0.364420  0.364420  0.581606  1
  P  P14  1  0.635580  0.635580  0.418394  1
  P  P15  1  0.012661  0.012661  0.667579  1
  P  P16  1  0.987339  0.987339  0.332421  1
  P  P17  1  0.231090  0.231090  0.881987  1
  P  P18  1  0.768910  0.768910  0.118013  1
  Pd  Pd19  1  0.839214  0.839214  0.194296  1
  Pd  Pd20  1  0.160786  0.160786  0.805704  1
  Pd  Pd21  1  0.026453  0.026453  0.123788  1
  Pd  Pd22  1  0.973547  0.973547  0.876212  1
  Pd  Pd23  1  0.888440  0.888440  0.456096  1
  Pd  Pd24  1  0.111560  0.111560  0.543904  1
  Pd  Pd25  1  0.500000  0.500000  0.000000  1
  Pd  Pd26  1  0.545521  0.545521  0.254945  1
  Pd  Pd27  1  0.454479  0.454479  0.745055  1
  Pd  Pd28  1  0.295815  0.295815  0.490789  1
  Pd  Pd29  1  0.704185  0.704185  0.509211  1
  Pd  Pd30  1  0.667805  0.667805  0.225498  1
  Pd  Pd31  1  0.332195  0.332195  0.774502  1
  Pd  Pd32  1  0.909943  0.909943  0.640540  1
  Pd  Pd33  1  0.090057  0.090057  0.359460  1
  Pd  Pd34  1  0.216095  0.216095  0.068377  1
  Pd  Pd35  1  0.783905  0.783905  0.931623  1
