# generated using pymatgen
data_Ce3Ho7(Cd2Ni)4
_symmetry_space_group_name_H-M   'P 1'
_cell_length_a   7.91097403
_cell_length_b   18.27350285
_cell_length_c   3.59410400
_cell_angle_alpha   90.00000000
_cell_angle_beta   90.00000000
_cell_angle_gamma   90.46022855
_symmetry_Int_Tables_number   1
_chemical_formula_structural   Ce3Ho7(Cd2Ni)4
_chemical_formula_sum   'Ce3 Ho7 Cd8 Ni4'
_cell_volume   519.55124914
_cell_formula_units_Z   1
loop_
 _symmetry_equiv_pos_site_id
 _symmetry_equiv_pos_as_xyz
  1  'x, y, z'
loop_
 _atom_site_type_symbol
 _atom_site_label
 _atom_site_symmetry_multiplicity
 _atom_site_fract_x
 _atom_site_fract_y
 _atom_site_fract_z
 _atom_site_occupancy
  Ce  Ce0  1  0.759886  0.277730  0.000000  1
  Ce  Ce1  1  0.242726  0.721680  0.000000  1
  Ce  Ce2  1  0.741843  0.779062  0.000000  1
  Ho  Ho3  1  0.499459  0.499608  0.000000  1
  Ho  Ho4  1  0.999839  0.999668  0.000000  1
  Ho  Ho5  1  0.256990  0.220533  0.000000  1
  Ho  Ho6  1  0.619143  0.088352  0.000000  1
  Ho  Ho7  1  0.379593  0.913387  0.000000  1
  Ho  Ho8  1  0.880186  0.587300  0.000000  1
  Ho  Ho9  1  0.119742  0.411140  0.000000  1
  Cd  Cd10  1  0.705252  0.933894  0.500000  1
  Cd  Cd11  1  0.293594  0.068032  0.500000  1
  Cd  Cd12  1  0.794026  0.433552  0.500000  1
  Cd  Cd13  1  0.205827  0.566058  0.500000  1
  Cd  Cd14  1  0.561394  0.647538  0.500000  1
  Cd  Cd15  1  0.435151  0.349799  0.500000  1
  Cd  Cd16  1  0.942299  0.148275  0.500000  1
  Cd  Cd17  1  0.061718  0.852240  0.500000  1
  Ni  Ni18  1  0.546300  0.199437  0.500000  1
  Ni  Ni19  1  0.462993  0.800671  0.500000  1
  Ni  Ni20  1  0.962747  0.699230  0.500000  1
  Ni  Ni21  1  0.029294  0.302813  0.500000  1
