# generated using pymatgen
data_Lu2Pa2Zn4Ir3Rh
_symmetry_space_group_name_H-M   'P 1'
_cell_length_a   3.81827600
_cell_length_b   7.07920073
_cell_length_c   8.38172601
_cell_angle_alpha   90.97403452
_cell_angle_beta   90.00000000
_cell_angle_gamma   90.00000000
_symmetry_Int_Tables_number   1
_chemical_formula_structural   Lu2Pa2Zn4Ir3Rh
_chemical_formula_sum   'Lu2 Pa2 Zn4 Ir3 Rh1'
_cell_volume   226.52818494
_cell_formula_units_Z   1
loop_
 _symmetry_equiv_pos_site_id
 _symmetry_equiv_pos_as_xyz
  1  'x, y, z'
loop_
 _atom_site_type_symbol
 _atom_site_label
 _atom_site_symmetry_multiplicity
 _atom_site_fract_x
 _atom_site_fract_y
 _atom_site_fract_z
 _atom_site_occupancy
  Lu  Lu0  1  0.750000  0.938300  0.682702  1
  Lu  Lu1  1  0.250000  0.059925  0.316701  1
  Pa  Pa2  1  0.250000  0.555512  0.190351  1
  Pa  Pa3  1  0.750000  0.444299  0.811759  1
  Zn  Zn4  1  0.250000  0.629753  0.558551  1
  Zn  Zn5  1  0.750000  0.369740  0.441718  1
  Zn  Zn6  1  0.750000  0.886481  0.061925  1
  Zn  Zn7  1  0.250000  0.112870  0.937282  1
  Ir  Ir8  1  0.250000  0.721493  0.873903  1
  Ir  Ir9  1  0.750000  0.277681  0.124026  1
  Ir  Ir10  1  0.750000  0.758170  0.361012  1
  Rh  Rh11  1  0.250000  0.245778  0.640070  1
