# generated using pymatgen
data_Tb5Ho5(Bi2Os)2
_symmetry_space_group_name_H-M   'P 1'
_cell_length_a   7.97543502
_cell_length_b   9.04178000
_cell_length_c   12.52675961
_cell_angle_alpha   90.00000000
_cell_angle_beta   89.94191413
_cell_angle_gamma   90.00000000
_symmetry_Int_Tables_number   1
_chemical_formula_structural   Tb5Ho5(Bi2Os)2
_chemical_formula_sum   'Tb10 Ho10 Bi8 Os4'
_cell_volume   903.33083940
_cell_formula_units_Z   2
loop_
 _symmetry_equiv_pos_site_id
 _symmetry_equiv_pos_as_xyz
  1  'x, y, z'
loop_
 _atom_site_type_symbol
 _atom_site_label
 _atom_site_symmetry_multiplicity
 _atom_site_fract_x
 _atom_site_fract_y
 _atom_site_fract_z
 _atom_site_occupancy
  Tb  Tb0  1  0.839584  0.750000  0.792296  1
  Tb  Tb1  1  0.160416  0.250000  0.207704  1
  Tb  Tb2  1  0.339809  0.250000  0.708321  1
  Tb  Tb3  1  0.660191  0.750000  0.291679  1
  Tb  Tb4  1  0.374817  0.750000  0.690931  1
  Tb  Tb5  1  0.625183  0.250000  0.309069  1
  Tb  Tb6  1  0.874901  0.250000  0.809272  1
  Tb  Tb7  1  0.125099  0.750000  0.190728  1
  Tb  Tb8  1  0.943640  0.750000  0.504362  1
  Tb  Tb9  1  0.056360  0.250000  0.495638  1
  Ho  Ho10  1  0.442995  0.250000  0.995555  1
  Ho  Ho11  1  0.557005  0.750000  0.004445  1
  Ho  Ho12  1  0.673218  0.041868  0.564681  1
  Ho  Ho13  1  0.326782  0.958132  0.435319  1
  Ho  Ho14  1  0.173626  0.958467  0.935369  1
  Ho  Ho15  1  0.326782  0.541868  0.435319  1
  Ho  Ho16  1  0.826374  0.041533  0.064631  1
  Ho  Ho17  1  0.673218  0.458132  0.564681  1
  Ho  Ho18  1  0.826374  0.458467  0.064631  1
  Ho  Ho19  1  0.173626  0.541533  0.935369  1
  Bi  Bi20  1  0.566144  0.493420  0.828218  1
  Bi  Bi21  1  0.433856  0.506580  0.171782  1
  Bi  Bi22  1  0.066475  0.506559  0.672656  1
  Bi  Bi23  1  0.433856  0.993420  0.171782  1
  Bi  Bi24  1  0.933525  0.493441  0.327344  1
  Bi  Bi25  1  0.566144  0.006580  0.828218  1
  Bi  Bi26  1  0.933525  0.006559  0.327344  1
  Bi  Bi27  1  0.066475  0.993441  0.672656  1
  Os  Os28  1  0.574748  0.750000  0.509585  1
  Os  Os29  1  0.425252  0.250000  0.490415  1
  Os  Os30  1  0.075420  0.250000  0.990387  1
  Os  Os31  1  0.924580  0.750000  0.009613  1
