# generated using pymatgen
data_Tm4HfTc3F28
_symmetry_space_group_name_H-M   'P 1'
_cell_length_a   5.52425816
_cell_length_b   8.80750521
_cell_length_c   11.90199100
_cell_angle_alpha   62.59292890
_cell_angle_beta   90.03707872
_cell_angle_gamma   90.03229667
_symmetry_Int_Tables_number   1
_chemical_formula_structural   Tm4HfTc3F28
_chemical_formula_sum   'Tm4 Hf1 Tc3 F28'
_cell_volume   514.09249235
_cell_formula_units_Z   1
loop_
 _symmetry_equiv_pos_site_id
 _symmetry_equiv_pos_as_xyz
  1  'x, y, z'
loop_
 _atom_site_type_symbol
 _atom_site_label
 _atom_site_symmetry_multiplicity
 _atom_site_fract_x
 _atom_site_fract_y
 _atom_site_fract_z
 _atom_site_occupancy
  Tm  Tm0  1  0.257228  0.814833  0.263789  1
  Tm  Tm1  1  0.741254  0.183236  0.736380  1
  Tm  Tm2  1  0.758555  0.185595  0.235971  1
  Tm  Tm3  1  0.242105  0.814438  0.765972  1
  Hf  Hf4  1  0.743375  0.725673  0.543011  1
  Tc  Tc5  1  0.757905  0.726477  0.043346  1
  Tc  Tc6  1  0.241674  0.273021  0.957145  1
  Tc  Tc7  1  0.258764  0.273571  0.456454  1
  F  F8  1  0.948561  0.707412  0.412238  1
  F  F9  1  0.053735  0.293403  0.583139  1
  F  F10  1  0.447078  0.292825  0.083593  1
  F  F11  1  0.551985  0.706589  0.917246  1
  F  F12  1  0.473585  0.729413  0.140660  1
  F  F13  1  0.526724  0.270100  0.860039  1
  F  F14  1  0.973925  0.272612  0.358496  1
  F  F15  1  0.034337  0.729955  0.641785  1
  F  F16  1  0.958181  0.745742  0.172824  1
  F  F17  1  0.042533  0.254226  0.826354  1
  F  F18  1  0.456706  0.255770  0.325333  1
  F  F19  1  0.543677  0.746758  0.676738  1
  F  F20  1  0.772945  0.476902  0.141707  1
  F  F21  1  0.226854  0.522762  0.858802  1
  F  F22  1  0.274899  0.523167  0.357546  1
  F  F23  1  0.724454  0.471343  0.643274  1
  F  F24  1  0.944449  0.277494  0.047367  1
  F  F25  1  0.055030  0.722108  0.953007  1
  F  F26  1  0.435084  0.723845  0.452763  1
  F  F27  1  0.556234  0.277586  0.546935  1
  F  F28  1  0.740662  0.980195  0.443428  1
  F  F29  1  0.258680  0.024344  0.553527  1
  F  F30  1  0.242125  0.023949  0.054024  1
  F  F31  1  0.758422  0.975774  0.946105  1
  F  F32  1  0.581055  0.970183  0.233465  1
  F  F33  1  0.418321  0.029564  0.767982  1
  F  F34  1  0.080502  0.028687  0.268399  1
  F  F35  1  0.918401  0.970450  0.731157  1
