# generated using pymatgen
data_DyLu7(Ga3Pt)4
_symmetry_space_group_name_H-M   'P 1'
_cell_length_a   8.81231002
_cell_length_b   8.81231177
_cell_length_c   6.91863200
_cell_angle_alpha   90.00000000
_cell_angle_beta   90.00000000
_cell_angle_gamma   120.00943187
_symmetry_Int_Tables_number   1
_chemical_formula_structural   DyLu7(Ga3Pt)4
_chemical_formula_sum   'Dy1 Lu7 Ga12 Pt4'
_cell_volume   465.25301931
_cell_formula_units_Z   1
loop_
 _symmetry_equiv_pos_site_id
 _symmetry_equiv_pos_as_xyz
  1  'x, y, z'
loop_
 _atom_site_type_symbol
 _atom_site_label
 _atom_site_symmetry_multiplicity
 _atom_site_fract_x
 _atom_site_fract_y
 _atom_site_fract_z
 _atom_site_occupancy
  Dy  Dy0  1  0.000121  0.999879  0.250000  1
  Lu  Lu1  1  0.999841  0.000159  0.750000  1
  Lu  Lu2  1  0.520538  0.041152  0.250000  1
  Lu  Lu3  1  0.520395  0.479605  0.250000  1
  Lu  Lu4  1  0.958848  0.479462  0.250000  1
  Lu  Lu5  1  0.479473  0.958860  0.750000  1
  Lu  Lu6  1  0.479610  0.520390  0.750000  1
  Lu  Lu7  1  0.041140  0.520527  0.750000  1
  Ga  Ga8  1  0.167054  0.334243  0.046645  1
  Ga  Ga9  1  0.167270  0.832730  0.453355  1
  Ga  Ga10  1  0.665757  0.832946  0.453355  1
  Ga  Ga11  1  0.665757  0.832946  0.046645  1
  Ga  Ga12  1  0.167270  0.832730  0.046645  1
  Ga  Ga13  1  0.833504  0.666852  0.952220  1
  Ga  Ga14  1  0.833282  0.166718  0.952246  1
  Ga  Ga15  1  0.333148  0.166496  0.952220  1
  Ga  Ga16  1  0.167054  0.334243  0.453355  1
  Ga  Ga17  1  0.333148  0.166496  0.547780  1
  Ga  Ga18  1  0.833504  0.666852  0.547780  1
  Ga  Ga19  1  0.833282  0.166718  0.547754  1
  Pt  Pt20  1  0.333405  0.666595  0.027889  1
  Pt  Pt21  1  0.333405  0.666595  0.472111  1
  Pt  Pt22  1  0.666596  0.333404  0.971943  1
  Pt  Pt23  1  0.666596  0.333404  0.528057  1
