# generated using pymatgen
data_Th2PRh6
_symmetry_space_group_name_H-M   'P 1'
_cell_length_a   6.06386377
_cell_length_b   6.06386360
_cell_length_c   6.06386400
_cell_angle_alpha   59.99999781
_cell_angle_beta   59.99999873
_cell_angle_gamma   60.00000454
_symmetry_Int_Tables_number   1
_chemical_formula_structural   Th2PRh6
_chemical_formula_sum   'Th2 P1 Rh6'
_cell_volume   157.66428206
_cell_formula_units_Z   1
loop_
 _symmetry_equiv_pos_site_id
 _symmetry_equiv_pos_as_xyz
  1  'x, y, z'
loop_
 _atom_site_type_symbol
 _atom_site_label
 _atom_site_symmetry_multiplicity
 _atom_site_fract_x
 _atom_site_fract_y
 _atom_site_fract_z
 _atom_site_occupancy
  Th  Th0  1  0.250001  0.250001  0.250001  1
  Th  Th1  1  0.750000  0.750000  0.750000  1
  P  P2  1  0.500000  0.500000  0.500000  1
  Rh  Rh3  1  0.763377  0.236623  0.236623  1
  Rh  Rh4  1  0.236623  0.763377  0.236623  1
  Rh  Rh5  1  0.763377  0.763377  0.236623  1
  Rh  Rh6  1  0.236623  0.236623  0.763377  1
  Rh  Rh7  1  0.763377  0.236623  0.763377  1
  Rh  Rh8  1  0.236623  0.763377  0.763377  1
