# generated using pymatgen
data_Er8B24Ir2RuW
_symmetry_space_group_name_H-M   'P 1'
_cell_length_a   3.63473200
_cell_length_b   9.13615412
_cell_length_c   11.50774624
_cell_angle_alpha   89.83394649
_cell_angle_beta   90.00000000
_cell_angle_gamma   90.00000000
_symmetry_Int_Tables_number   1
_chemical_formula_structural   Er8B24Ir2RuW
_chemical_formula_sum   'Er8 B24 Ir2 Ru1 W1'
_cell_volume   382.14155309
_cell_formula_units_Z   1
loop_
 _symmetry_equiv_pos_site_id
 _symmetry_equiv_pos_as_xyz
  1  'x, y, z'
loop_
 _atom_site_type_symbol
 _atom_site_label
 _atom_site_symmetry_multiplicity
 _atom_site_fract_x
 _atom_site_fract_y
 _atom_site_fract_z
 _atom_site_occupancy
  Er  Er0  1  0.000000  0.323839  0.412837  1
  Er  Er1  1  0.000000  0.680784  0.583817  1
  Er  Er2  1  0.000000  0.817327  0.088561  1
  Er  Er3  1  0.000000  0.175839  0.914825  1
  Er  Er4  1  0.000000  0.944306  0.375144  1
  Er  Er5  1  0.000000  0.055504  0.628046  1
  Er  Er6  1  0.000000  0.445525  0.125274  1
  Er  Er7  1  0.000000  0.558053  0.872431  1
  B  B8  1  0.500000  0.551319  0.435883  1
  B  B9  1  0.500000  0.446194  0.566967  1
  B  B10  1  0.500000  0.052496  0.066009  1
  B  B11  1  0.500000  0.945747  0.933501  1
  B  B12  1  0.500000  0.750685  0.422152  1
  B  B13  1  0.500000  0.251481  0.579448  1
  B  B14  1  0.500000  0.248769  0.078329  1
  B  B15  1  0.500000  0.751200  0.919608  1
  B  B16  1  0.500000  0.794855  0.264247  1
  B  B17  1  0.500000  0.207478  0.735478  1
  B  B18  1  0.500000  0.291802  0.233001  1
  B  B19  1  0.500000  0.709210  0.765470  1
  B  B20  1  0.500000  0.631528  0.183056  1
  B  B21  1  0.500000  0.367181  0.816632  1
  B  B22  1  0.500000  0.132619  0.315659  1
  B  B23  1  0.500000  0.869439  0.685261  1
  B  B24  1  0.500000  0.981851  0.212619  1
  B  B25  1  0.500000  0.017380  0.787625  1
  B  B26  1  0.500000  0.479010  0.286227  1
  B  B27  1  0.500000  0.517659  0.713196  1
  B  B28  1  0.500000  0.607181  0.027821  1
  B  B29  1  0.500000  0.390927  0.969121  1
  B  B30  1  0.500000  0.109075  0.471056  1
  B  B31  1  0.500000  0.894697  0.530972  1
  Ir  Ir32  1  0.000000  0.361557  0.679733  1
  Ir  Ir33  1  0.000000  0.137715  0.177852  1
  Ru  Ru34  1  0.000000  0.862438  0.821139  1
  W  W35  1  0.000000  0.637330  0.321002  1
