# generated using pymatgen
data_Ho2RuC2
_symmetry_space_group_name_H-M   'P 1'
_cell_length_a   5.08578600
_cell_length_b   6.44178800
_cell_length_c   9.74687200
_cell_angle_alpha   90.00000000
_cell_angle_beta   90.00000000
_cell_angle_gamma   90.00000000
_symmetry_Int_Tables_number   1
_chemical_formula_structural   Ho2RuC2
_chemical_formula_sum   'Ho8 Ru4 C8'
_cell_volume   319.32268530
_cell_formula_units_Z   4
loop_
 _symmetry_equiv_pos_site_id
 _symmetry_equiv_pos_as_xyz
  1  'x, y, z'
loop_
 _atom_site_type_symbol
 _atom_site_label
 _atom_site_symmetry_multiplicity
 _atom_site_fract_x
 _atom_site_fract_y
 _atom_site_fract_z
 _atom_site_occupancy
  Ho  Ho0  1  0.250000  0.472253  0.783520  1
  Ho  Ho1  1  0.750000  0.027747  0.283520  1
  Ho  Ho2  1  0.250000  0.972253  0.716480  1
  Ho  Ho3  1  0.750000  0.527747  0.216480  1
  Ho  Ho4  1  0.250000  0.822905  0.054723  1
  Ho  Ho5  1  0.750000  0.677095  0.554723  1
  Ho  Ho6  1  0.250000  0.322905  0.445277  1
  Ho  Ho7  1  0.750000  0.177095  0.945277  1
  Ru  Ru8  1  0.250000  0.281389  0.133892  1
  Ru  Ru9  1  0.750000  0.218611  0.633892  1
  Ru  Ru10  1  0.250000  0.781389  0.366108  1
  Ru  Ru11  1  0.750000  0.718611  0.866108  1
  C  C12  1  0.250000  0.173382  0.945437  1
  C  C13  1  0.750000  0.826618  0.054563  1
  C  C14  1  0.250000  0.673382  0.554563  1
  C  C15  1  0.750000  0.326618  0.445437  1
  C  C16  1  0.250000  0.045643  0.257383  1
  C  C17  1  0.750000  0.454357  0.757383  1
  C  C18  1  0.250000  0.545643  0.242617  1
  C  C19  1  0.750000  0.954357  0.742617  1
