# generated using pymatgen
data_Cs2Ba(NpS3)2
_symmetry_space_group_name_H-M   'P 1'
_cell_length_a   7.18821800
_cell_length_b   7.18821902
_cell_length_c   8.22599400
_cell_angle_alpha   90.00000000
_cell_angle_beta   90.00000000
_cell_angle_gamma   120.00000450
_symmetry_Int_Tables_number   1
_chemical_formula_structural   Cs2Ba(NpS3)2
_chemical_formula_sum   'Cs2 Ba1 Np2 S6'
_cell_volume   368.09637586
_cell_formula_units_Z   1
loop_
 _symmetry_equiv_pos_site_id
 _symmetry_equiv_pos_as_xyz
  1  'x, y, z'
loop_
 _atom_site_type_symbol
 _atom_site_label
 _atom_site_symmetry_multiplicity
 _atom_site_fract_x
 _atom_site_fract_y
 _atom_site_fract_z
 _atom_site_occupancy
  Cs  Cs0  1  0.333333  0.666666  0.500223  1
  Cs  Cs1  1  0.666667  0.333334  0.499777  1
  Ba  Ba2  1  0.000000  0.000000  0.000000  1
  Np  Np3  1  0.666667  0.333334  0.999991  1
  Np  Np4  1  0.333333  0.666666  0.000009  1
  S  S5  1  0.619075  0.000175  0.181628  1
  S  S6  1  0.381100  0.380926  0.181628  1
  S  S7  1  0.999825  0.618899  0.181628  1
  S  S8  1  0.000175  0.381101  0.818371  1
  S  S9  1  0.618900  0.619074  0.818371  1
  S  S10  1  0.380925  0.999825  0.818371  1
