# generated using pymatgen
data_MnNb3B3Ru2
_symmetry_space_group_name_H-M   'P 1'
_cell_length_a   3.14338900
_cell_length_b   6.34155600
_cell_length_c   10.81033200
_cell_angle_alpha   90.00000000
_cell_angle_beta   90.00000000
_cell_angle_gamma   90.00000000
_symmetry_Int_Tables_number   1
_chemical_formula_structural   MnNb3B3Ru2
_chemical_formula_sum   'Mn2 Nb6 B6 Ru4'
_cell_volume   215.49291349
_cell_formula_units_Z   2
loop_
 _symmetry_equiv_pos_site_id
 _symmetry_equiv_pos_as_xyz
  1  'x, y, z'
loop_
 _atom_site_type_symbol
 _atom_site_label
 _atom_site_symmetry_multiplicity
 _atom_site_fract_x
 _atom_site_fract_y
 _atom_site_fract_z
 _atom_site_occupancy
  Mn  Mn0  1  0.500000  0.701025  0.250000  1
  Mn  Mn1  1  0.500000  0.298975  0.750000  1
  Nb  Nb2  1  0.000000  0.275957  0.951427  1
  Nb  Nb3  1  0.000000  0.724043  0.048573  1
  Nb  Nb4  1  0.000000  0.275957  0.548573  1
  Nb  Nb5  1  0.000000  0.724043  0.451427  1
  Nb  Nb6  1  0.000000  0.362906  0.250000  1
  Nb  Nb7  1  0.000000  0.637094  0.750000  1
  B  B8  1  0.000000  0.937777  0.250000  1
  B  B9  1  0.000000  0.062223  0.750000  1
  B  B10  1  0.500000  0.452115  0.085112  1
  B  B11  1  0.500000  0.547885  0.914888  1
  B  B12  1  0.500000  0.452115  0.414888  1
  B  B13  1  0.500000  0.547885  0.585112  1
  Ru  Ru14  1  0.500000  0.072700  0.124466  1
  Ru  Ru15  1  0.500000  0.927300  0.875534  1
  Ru  Ru16  1  0.500000  0.072700  0.375534  1
  Ru  Ru17  1  0.500000  0.927300  0.624466  1
