# generated using pymatgen
data_Sr2TcPbCl2O5
_symmetry_space_group_name_H-M   'P 1'
_cell_length_a   7.24717113
_cell_length_b   7.24768730
_cell_length_c   11.14631000
_cell_angle_alpha   90.00000000
_cell_angle_beta   90.00000000
_cell_angle_gamma   134.19842186
_symmetry_Int_Tables_number   1
_chemical_formula_structural   Sr2TcPbCl2O5
_chemical_formula_sum   'Sr4 Tc2 Pb2 Cl4 O10'
_cell_volume   419.73551752
_cell_formula_units_Z   2
loop_
 _symmetry_equiv_pos_site_id
 _symmetry_equiv_pos_as_xyz
  1  'x, y, z'
loop_
 _atom_site_type_symbol
 _atom_site_label
 _atom_site_symmetry_multiplicity
 _atom_site_fract_x
 _atom_site_fract_y
 _atom_site_fract_z
 _atom_site_occupancy
  Sr  Sr0  1  0.642337  0.357514  0.534911  1
  Sr  Sr1  1  0.357663  0.642486  0.034911  1
  Sr  Sr2  1  0.898055  0.102063  0.744073  1
  Sr  Sr3  1  0.101945  0.897937  0.244073  1
  Tc  Tc4  1  0.767663  0.232083  0.252802  1
  Tc  Tc5  1  0.232337  0.767917  0.752802  1
  Pb  Pb6  1  0.666420  0.333457  0.967196  1
  Pb  Pb7  1  0.333580  0.666543  0.467196  1
  Cl  Cl8  1  0.509851  0.490043  0.235208  1
  Cl  Cl9  1  0.015481  0.984638  0.503480  1
  Cl  Cl10  1  0.490149  0.509957  0.735208  1
  Cl  Cl11  1  0.984519  0.015362  0.003480  1
  O  O12  1  0.488148  0.049504  0.366798  1
  O  O13  1  0.040935  0.501582  0.632663  1
  O  O14  1  0.511852  0.950496  0.866798  1
  O  O15  1  0.498513  0.959111  0.632647  1
  O  O16  1  0.104971  0.895192  0.763414  1
  O  O17  1  0.049593  0.488286  0.866808  1
  O  O18  1  0.501487  0.040889  0.132647  1
  O  O19  1  0.950407  0.511714  0.366808  1
  O  O20  1  0.895029  0.104808  0.263414  1
  O  O21  1  0.959065  0.498418  0.132663  1
