# generated using pymatgen
data_Tb3YGa18(Ir2Pt)2
_symmetry_space_group_name_H-M   'P 1'
_cell_length_a   7.63397900
_cell_length_b   7.63400556
_cell_length_c   9.49429100
_cell_angle_alpha   90.00000000
_cell_angle_beta   90.00000000
_cell_angle_gamma   119.89083670
_symmetry_Int_Tables_number   1
_chemical_formula_structural   Tb3YGa18(Ir2Pt)2
_chemical_formula_sum   'Tb3 Y1 Ga18 Ir4 Pt2'
_cell_volume   479.70393159
_cell_formula_units_Z   1
loop_
 _symmetry_equiv_pos_site_id
 _symmetry_equiv_pos_as_xyz
  1  'x, y, z'
loop_
 _atom_site_type_symbol
 _atom_site_label
 _atom_site_symmetry_multiplicity
 _atom_site_fract_x
 _atom_site_fract_y
 _atom_site_fract_z
 _atom_site_occupancy
  Tb  Tb0  1  0.996505  0.669826  0.250000  1
  Tb  Tb1  1  0.003506  0.330175  0.750000  1
  Tb  Tb2  1  0.669830  0.996499  0.250000  1
  Y  Y3  1  0.330174  0.003512  0.750000  1
  Ga  Ga4  1  0.131716  0.131712  0.250000  1
  Ga  Ga5  1  0.868298  0.868323  0.750000  1
  Ga  Ga6  1  0.998605  0.337636  0.081173  1
  Ga  Ga7  1  0.001422  0.662387  0.918821  1
  Ga  Ga8  1  0.001422  0.662387  0.581179  1
  Ga  Ga9  1  0.337634  0.998590  0.418831  1
  Ga  Ga10  1  0.998605  0.337636  0.418827  1
  Ga  Ga11  1  0.662348  0.001400  0.581176  1
  Ga  Ga12  1  0.662348  0.001400  0.918824  1
  Ga  Ga13  1  0.337634  0.998590  0.081169  1
  Ga  Ga14  1  0.335728  0.335717  0.567274  1
  Ga  Ga15  1  0.664273  0.664275  0.432733  1
  Ga  Ga16  1  0.664273  0.664275  0.067267  1
  Ga  Ga17  1  0.335728  0.335717  0.932726  1
  Ga  Ga18  1  0.337568  0.546517  0.250000  1
  Ga  Ga19  1  0.662448  0.453471  0.750000  1
  Ga  Ga20  1  0.546508  0.337567  0.250000  1
  Ga  Ga21  1  0.453446  0.662396  0.750000  1
  Ir  Ir22  1  0.671193  0.328816  0.999990  1
  Ir  Ir23  1  0.328806  0.671177  0.999996  1
  Ir  Ir24  1  0.328806  0.671177  0.500004  1
  Ir  Ir25  1  0.671193  0.328816  0.500010  1
  Pt  Pt26  1  0.999992  0.000004  0.999994  1
  Pt  Pt27  1  0.999992  0.000004  0.500006  1
