# generated using pymatgen
data_La2Nd2MgOs
_symmetry_space_group_name_H-M   'P 1'
_cell_length_a   10.05752681
_cell_length_b   10.05752578
_cell_length_c   10.11141800
_cell_angle_alpha   59.82258677
_cell_angle_beta   59.82259019
_cell_angle_gamma   60.35482801
_symmetry_Int_Tables_number   1
_chemical_formula_structural   La2Nd2MgOs
_chemical_formula_sum   'La8 Nd8 Mg4 Os4'
_cell_volume   723.19324616
_cell_formula_units_Z   4
loop_
 _symmetry_equiv_pos_site_id
 _symmetry_equiv_pos_as_xyz
  1  'x, y, z'
loop_
 _atom_site_type_symbol
 _atom_site_label
 _atom_site_symmetry_multiplicity
 _atom_site_fract_x
 _atom_site_fract_y
 _atom_site_fract_z
 _atom_site_occupancy
  La  La0  1  0.342953  0.342952  0.345214  1
  La  La1  1  0.342499  0.342501  0.968282  1
  La  La2  1  0.345980  0.967347  0.342283  1
  La  La3  1  0.967342  0.345981  0.342282  1
  La  La4  1  0.812451  0.188042  0.187424  1
  La  La5  1  0.188760  0.812694  0.813165  1
  La  La6  1  0.188043  0.812455  0.187425  1
  La  La7  1  0.812686  0.188763  0.813165  1
  Nd  Nd8  1  0.190207  0.190202  0.809478  1
  Nd  Nd9  1  0.809802  0.809784  0.191838  1
  Nd  Nd10  1  0.934224  0.564048  0.564650  1
  Nd  Nd11  1  0.563393  0.937433  0.937324  1
  Nd  Nd12  1  0.564049  0.934220  0.564652  1
  Nd  Nd13  1  0.937434  0.563395  0.937320  1
  Nd  Nd14  1  0.561491  0.561495  0.937803  1
  Nd  Nd15  1  0.940418  0.940417  0.560109  1
  Mg  Mg16  1  0.579777  0.579784  0.577830  1
  Mg  Mg17  1  0.579842  0.579856  0.262079  1
  Mg  Mg18  1  0.577597  0.262419  0.579772  1
  Mg  Mg19  1  0.262433  0.577591  0.579765  1
  Os  Os20  1  0.134914  0.134921  0.143690  1
  Os  Os21  1  0.133509  0.133512  0.587143  1
  Os  Os22  1  0.142985  0.587207  0.133652  1
  Os  Os23  1  0.587210  0.142976  0.133650  1
