# generated using pymatgen
data_BrF17
_symmetry_space_group_name_H-M   'P 1'
_cell_length_a   8.73653658
_cell_length_b   8.55551966
_cell_length_c   10.20584128
_cell_angle_alpha   81.74557390
_cell_angle_beta   87.31825515
_cell_angle_gamma   67.91954527
_symmetry_Int_Tables_number   1
_chemical_formula_structural   BrF17
_chemical_formula_sum   'Br2 F34'
_cell_volume   699.54802327
_cell_formula_units_Z   2
loop_
 _symmetry_equiv_pos_site_id
 _symmetry_equiv_pos_as_xyz
  1  'x, y, z'
loop_
 _atom_site_type_symbol
 _atom_site_label
 _atom_site_symmetry_multiplicity
 _atom_site_fract_x
 _atom_site_fract_y
 _atom_site_fract_z
 _atom_site_occupancy
  Br  Br0  1  0.866115  0.249149  0.761013  1
  Br  Br1  1  0.133885  0.750851  0.238987  1
  F  F2  1  0.625382  0.200859  0.467431  1
  F  F3  1  0.374618  0.799141  0.532569  1
  F  F4  1  0.822179  0.710301  0.720510  1
  F  F5  1  0.177821  0.289699  0.279490  1
  F  F6  1  0.100730  0.736263  0.865480  1
  F  F7  1  0.899270  0.263737  0.134520  1
  F  F8  1  0.560065  0.139206  0.369181  1
  F  F9  1  0.439935  0.860794  0.630819  1
  F  F10  1  0.654431  0.328493  0.699165  1
  F  F11  1  0.345569  0.671507  0.300835  1
  F  F12  1  0.921674  0.075392  0.662370  1
  F  F13  1  0.078326  0.924608  0.337630  1
  F  F14  1  0.918656  0.377924  0.622544  1
  F  F15  1  0.081344  0.622076  0.377456  1
  F  F16  1  0.849762  0.810747  0.604933  1
  F  F17  1  0.150238  0.189253  0.395067  1
  F  F18  1  0.812115  0.424113  0.859611  1
  F  F19  1  0.187885  0.575887  0.140389  1
  F  F20  1  0.214440  0.688926  0.760231  1
  F  F21  1  0.785560  0.311074  0.239769  1
  F  F22  1  0.922909  0.830259  0.176356  1
  F  F23  1  0.077091  0.169741  0.823644  1
  F  F24  1  0.812241  0.118768  0.898547  1
  F  F25  1  0.187759  0.881232  0.101453  1
  F  F26  1  0.498810  0.584559  0.990145  1
  F  F27  1  0.501190  0.415441  0.009855  1
  F  F28  1  0.443196  0.089109  0.868859  1
  F  F29  1  0.556804  0.910891  0.131141  1
  F  F30  1  0.300815  0.264027  0.602692  1
  F  F31  1  0.699185  0.735973  0.397308  1
  F  F32  1  0.265609  0.403996  0.675584  1
  F  F33  1  0.734391  0.596004  0.324416  1
  F  F34  1  0.563498  0.936205  0.831465  1
  F  F35  1  0.436502  0.063795  0.168535  1
