# generated using pymatgen
data_HoEr2Zn3Hg2Ir
_symmetry_space_group_name_H-M   'P 1'
_cell_length_a   7.69192416
_cell_length_b   7.68416079
_cell_length_c   3.73767100
_cell_angle_alpha   90.00000000
_cell_angle_beta   90.00000000
_cell_angle_gamma   120.03559638
_symmetry_Int_Tables_number   1
_chemical_formula_structural   HoEr2Zn3Hg2Ir
_chemical_formula_sum   'Ho1 Er2 Zn3 Hg2 Ir1'
_cell_volume   191.25255685
_cell_formula_units_Z   1
loop_
 _symmetry_equiv_pos_site_id
 _symmetry_equiv_pos_as_xyz
  1  'x, y, z'
loop_
 _atom_site_type_symbol
 _atom_site_label
 _atom_site_symmetry_multiplicity
 _atom_site_fract_x
 _atom_site_fract_y
 _atom_site_fract_z
 _atom_site_occupancy
  Ho  Ho0  1  0.030489  0.417193  0.000000  1
  Er  Er1  1  0.582484  0.614217  0.000000  1
  Er  Er2  1  0.386340  0.968349  0.000000  1
  Zn  Zn3  1  0.006064  0.723649  0.500000  1
  Zn  Zn4  1  0.277093  0.282375  0.500000  1
  Zn  Zn5  1  0.717554  0.994204  0.500000  1
  Hg  Hg6  1  0.000869  0.999744  0.000000  1
  Hg  Hg7  1  0.664956  0.332872  0.500000  1
  Ir  Ir8  1  0.334151  0.667397  0.500000  1
