# generated using pymatgen
data_DyYFe9Ni3P7
_symmetry_space_group_name_H-M   'P 1'
_cell_length_a   9.05735065
_cell_length_b   8.98967216
_cell_length_c   3.63197100
_cell_angle_alpha   90.00000000
_cell_angle_beta   90.00000000
_cell_angle_gamma   120.09399391
_symmetry_Int_Tables_number   1
_chemical_formula_structural   DyYFe9Ni3P7
_chemical_formula_sum   'Dy1 Y1 Fe9 Ni3 P7'
_cell_volume   255.86207639
_cell_formula_units_Z   1
loop_
 _symmetry_equiv_pos_site_id
 _symmetry_equiv_pos_as_xyz
  1  'x, y, z'
loop_
 _atom_site_type_symbol
 _atom_site_label
 _atom_site_symmetry_multiplicity
 _atom_site_fract_x
 _atom_site_fract_y
 _atom_site_fract_z
 _atom_site_occupancy
  Dy  Dy0  1  0.997815  0.002425  0.500000  1
  Y  Y1  1  0.334555  0.665419  0.000000  1
  Fe  Fe2  1  0.034028  0.272485  0.000000  1
  Fe  Fe3  1  0.942041  0.488947  0.000000  1
  Fe  Fe4  1  0.512205  0.449541  0.000000  1
  Fe  Fe5  1  0.546731  0.059802  0.000000  1
  Fe  Fe6  1  0.281350  0.380024  0.500000  1
  Fe  Fe7  1  0.618247  0.897941  0.500000  1
  Fe  Fe8  1  0.765925  0.558590  0.500000  1
  Fe  Fe9  1  0.451915  0.214765  0.500000  1
  Fe  Fe10  1  0.788790  0.235567  0.500000  1
  Ni  Ni11  1  0.726613  0.764974  0.000000  1
  Ni  Ni12  1  0.232679  0.962277  0.000000  1
  Ni  Ni13  1  0.103777  0.718896  0.500000  1
  P  P14  1  0.960005  0.739108  0.000000  1
  P  P15  1  0.255402  0.225734  0.000000  1
  P  P16  1  0.776001  0.039670  0.000000  1
  P  P17  1  0.065789  0.437576  0.500000  1
  P  P18  1  0.548020  0.616295  0.500000  1
  P  P19  1  0.388302  0.935368  0.500000  1
  P  P20  1  0.669811  0.334593  0.000000  1
