# generated using pymatgen
data_Ho20IrOsPt10
_symmetry_space_group_name_H-M   'P 1'
_cell_length_a   10.98917900
_cell_length_b   10.98917900
_cell_length_c   6.40711500
_cell_angle_alpha   90.00000000
_cell_angle_beta   90.00000000
_cell_angle_gamma   90.00000000
_symmetry_Int_Tables_number   1
_chemical_formula_structural   Ho20IrOsPt10
_chemical_formula_sum   'Ho20 Ir1 Os1 Pt10'
_cell_volume   773.73637462
_cell_formula_units_Z   1
loop_
 _symmetry_equiv_pos_site_id
 _symmetry_equiv_pos_as_xyz
  1  'x, y, z'
loop_
 _atom_site_type_symbol
 _atom_site_label
 _atom_site_symmetry_multiplicity
 _atom_site_fract_x
 _atom_site_fract_y
 _atom_site_fract_z
 _atom_site_occupancy
  Ho  Ho0  1  0.296359  0.086885  0.373340  1
  Ho  Ho1  1  0.296766  0.913169  0.877412  1
  Ho  Ho2  1  0.703234  0.086831  0.877412  1
  Ho  Ho3  1  0.703641  0.913115  0.373340  1
  Ho  Ho4  1  0.586831  0.796766  0.877412  1
  Ho  Ho5  1  0.586885  0.203641  0.373340  1
  Ho  Ho6  1  0.413115  0.796359  0.373340  1
  Ho  Ho7  1  0.413169  0.203234  0.877412  1
  Ho  Ho8  1  0.207778  0.411531  0.623926  1
  Ho  Ho9  1  0.207650  0.588085  0.123607  1
  Ho  Ho10  1  0.792350  0.411915  0.123607  1
  Ho  Ho11  1  0.792222  0.588469  0.623926  1
  Ho  Ho12  1  0.911915  0.707650  0.123607  1
  Ho  Ho13  1  0.911531  0.292222  0.623926  1
  Ho  Ho14  1  0.088469  0.707778  0.623926  1
  Ho  Ho15  1  0.088085  0.292350  0.123607  1
  Ho  Ho16  1  0.000000  0.000000  0.498657  1
  Ho  Ho17  1  0.000000  0.000000  0.998623  1
  Ho  Ho18  1  0.500000  0.500000  0.998623  1
  Ho  Ho19  1  0.500000  0.500000  0.498657  1
  Ir  Ir20  1  0.500000  0.000000  0.623009  1
  Os  Os21  1  0.500000  0.000000  0.124962  1
  Pt  Pt22  1  0.847914  0.154874  0.250146  1
  Pt  Pt23  1  0.847795  0.845438  0.749927  1
  Pt  Pt24  1  0.152205  0.154562  0.749927  1
  Pt  Pt25  1  0.152086  0.845126  0.250146  1
  Pt  Pt26  1  0.654562  0.347795  0.749927  1
  Pt  Pt27  1  0.654874  0.652086  0.250146  1
  Pt  Pt28  1  0.345126  0.347914  0.250146  1
  Pt  Pt29  1  0.345438  0.652205  0.749927  1
  Pt  Pt30  1  0.000000  0.500000  0.881879  1
  Pt  Pt31  1  0.000000  0.500000  0.382148  1
