# generated using pymatgen
data_Ho3ZrAl17SiIr6
_symmetry_space_group_name_H-M   'P 1'
_cell_length_a   7.53486670
_cell_length_b   7.52730099
_cell_length_c   9.35165400
_cell_angle_alpha   90.00000000
_cell_angle_beta   90.00000000
_cell_angle_gamma   119.73856342
_symmetry_Int_Tables_number   1
_chemical_formula_structural   Ho3ZrAl17SiIr6
_chemical_formula_sum   'Ho3 Zr1 Al17 Si1 Ir6'
_cell_volume   460.54493338
_cell_formula_units_Z   1
loop_
 _symmetry_equiv_pos_site_id
 _symmetry_equiv_pos_as_xyz
  1  'x, y, z'
loop_
 _atom_site_type_symbol
 _atom_site_label
 _atom_site_symmetry_multiplicity
 _atom_site_fract_x
 _atom_site_fract_y
 _atom_site_fract_z
 _atom_site_occupancy
  Ho  Ho0  1  0.006695  0.323757  0.750000  1
  Ho  Ho1  1  0.670759  0.995238  0.250000  1
  Ho  Ho2  1  0.325918  0.007221  0.750000  1
  Zr  Zr3  1  0.994601  0.669960  0.250000  1
  Al  Al4  1  0.124319  0.121597  0.250000  1
  Al  Al5  1  0.000420  0.337132  0.078077  1
  Al  Al6  1  0.000072  0.663791  0.928466  1
  Al  Al7  1  0.000072  0.663791  0.571534  1
  Al  Al8  1  0.331772  0.998285  0.421830  1
  Al  Al9  1  0.000420  0.337132  0.421923  1
  Al  Al10  1  0.663017  0.998983  0.576109  1
  Al  Al11  1  0.663017  0.998983  0.923891  1
  Al  Al12  1  0.331772  0.998285  0.078170  1
  Al  Al13  1  0.336172  0.336300  0.552037  1
  Al  Al14  1  0.669330  0.667168  0.439132  1
  Al  Al15  1  0.669330  0.667168  0.060868  1
  Al  Al16  1  0.336172  0.336300  0.947963  1
  Al  Al17  1  0.335062  0.548916  0.250000  1
  Al  Al18  1  0.665517  0.453361  0.750000  1
  Al  Al19  1  0.552981  0.342103  0.250000  1
  Al  Al20  1  0.450866  0.663119  0.750000  1
  Si  Si21  1  0.868221  0.866356  0.750000  1
  Ir  Ir22  1  0.673238  0.329311  0.000156  1
  Ir  Ir23  1  0.329671  0.673695  0.000765  1
  Ir  Ir24  1  0.329671  0.673695  0.499235  1
  Ir  Ir25  1  0.673238  0.329311  0.499844  1
  Ir  Ir26  1  0.998839  0.999521  0.993699  1
  Ir  Ir27  1  0.998839  0.999521  0.506301  1
