# generated using pymatgen
data_HfTi3(AuN)2
_symmetry_space_group_name_H-M   'P 1'
_cell_length_a   8.59828938
_cell_length_b   8.59828878
_cell_length_c   4.31344200
_cell_angle_alpha   90.00000000
_cell_angle_beta   90.00000000
_cell_angle_gamma   159.33220845
_symmetry_Int_Tables_number   1
_chemical_formula_structural   HfTi3(AuN)2
_chemical_formula_sum   'Hf1 Ti3 Au2 N2'
_cell_volume   112.55373779
_cell_formula_units_Z   1
loop_
 _symmetry_equiv_pos_site_id
 _symmetry_equiv_pos_as_xyz
  1  'x, y, z'
loop_
 _atom_site_type_symbol
 _atom_site_label
 _atom_site_symmetry_multiplicity
 _atom_site_fract_x
 _atom_site_fract_y
 _atom_site_fract_z
 _atom_site_occupancy
  Hf  Hf0  1  0.889229  0.110768  0.250001  1
  Ti  Ti1  1  0.713869  0.286128  0.250001  1
  Ti  Ti2  1  0.281491  0.718506  0.750000  1
  Ti  Ti3  1  0.114573  0.885424  0.750000  1
  Au  Au4  1  0.552727  0.447269  0.250001  1
  Au  Au5  1  0.452387  0.547609  0.750000  1
  N  N6  1  0.296762  0.703235  0.250001  1
  N  N7  1  0.698949  0.301048  0.750000  1
