# generated using pymatgen
data_Lu3UReB12W
_symmetry_space_group_name_H-M   'P 1'
_cell_length_a   3.63957700
_cell_length_b   9.10612648
_cell_length_c   11.45267773
_cell_angle_alpha   90.27181585
_cell_angle_beta   90.00000000
_cell_angle_gamma   90.00000000
_symmetry_Int_Tables_number   1
_chemical_formula_structural   Lu3UReB12W
_chemical_formula_sum   'Lu6 U2 Re2 B24 W2'
_cell_volume   379.56551050
_cell_formula_units_Z   2
loop_
 _symmetry_equiv_pos_site_id
 _symmetry_equiv_pos_as_xyz
  1  'x, y, z'
loop_
 _atom_site_type_symbol
 _atom_site_label
 _atom_site_symmetry_multiplicity
 _atom_site_fract_x
 _atom_site_fract_y
 _atom_site_fract_z
 _atom_site_occupancy
  Lu  Lu0  1  0.000000  0.823348  0.085666  1
  Lu  Lu1  1  0.000000  0.176652  0.914334  1
  Lu  Lu2  1  0.000000  0.945805  0.372314  1
  Lu  Lu3  1  0.000000  0.054195  0.627686  1
  Lu  Lu4  1  0.000000  0.443391  0.126241  1
  Lu  Lu5  1  0.000000  0.556609  0.873759  1
  U  U6  1  0.000000  0.321035  0.413387  1
  U  U7  1  0.000000  0.678965  0.586613  1
  Re  Re8  1  0.000000  0.141243  0.181586  1
  Re  Re9  1  0.000000  0.858757  0.818414  1
  B  B10  1  0.500000  0.552021  0.434879  1
  B  B11  1  0.500000  0.447979  0.565121  1
  B  B12  1  0.500000  0.053453  0.066418  1
  B  B13  1  0.500000  0.946547  0.933582  1
  B  B14  1  0.500000  0.751036  0.421634  1
  B  B15  1  0.500000  0.248964  0.578366  1
  B  B16  1  0.500000  0.249401  0.079829  1
  B  B17  1  0.500000  0.750599  0.920171  1
  B  B18  1  0.500000  0.795289  0.263548  1
  B  B19  1  0.500000  0.204711  0.736452  1
  B  B20  1  0.500000  0.292862  0.234677  1
  B  B21  1  0.500000  0.707138  0.765323  1
  B  B22  1  0.500000  0.631300  0.182639  1
  B  B23  1  0.500000  0.368700  0.817361  1
  B  B24  1  0.500000  0.131868  0.314849  1
  B  B25  1  0.500000  0.868132  0.685151  1
  B  B26  1  0.500000  0.981637  0.211636  1
  B  B27  1  0.500000  0.018363  0.788364  1
  B  B28  1  0.500000  0.478885  0.286590  1
  B  B29  1  0.500000  0.521115  0.713410  1
  B  B30  1  0.500000  0.601901  0.028208  1
  B  B31  1  0.500000  0.398099  0.971792  1
  B  B32  1  0.500000  0.107475  0.469620  1
  B  B33  1  0.500000  0.892525  0.530380  1
  W  W34  1  0.000000  0.636692  0.323618  1
  W  W35  1  0.000000  0.363308  0.676382  1
