# generated using pymatgen
data_Tb2Al8SiIr3
_symmetry_space_group_name_H-M   'P 1'
_cell_length_a   7.55777256
_cell_length_b   7.55777248
_cell_length_c   9.36505400
_cell_angle_alpha   90.00000000
_cell_angle_beta   90.00000000
_cell_angle_gamma   119.71449301
_symmetry_Int_Tables_number   1
_chemical_formula_structural   Tb2Al8SiIr3
_chemical_formula_sum   'Tb4 Al16 Si2 Ir6'
_cell_volume   464.59103079
_cell_formula_units_Z   2
loop_
 _symmetry_equiv_pos_site_id
 _symmetry_equiv_pos_as_xyz
  1  'x, y, z'
loop_
 _atom_site_type_symbol
 _atom_site_label
 _atom_site_symmetry_multiplicity
 _atom_site_fract_x
 _atom_site_fract_y
 _atom_site_fract_z
 _atom_site_occupancy
  Tb  Tb0  1  0.994852  0.674351  0.250000  1
  Tb  Tb1  1  0.005148  0.325649  0.750000  1
  Tb  Tb2  1  0.674351  0.994852  0.250000  1
  Tb  Tb3  1  0.325649  0.005148  0.750000  1
  Al  Al4  1  0.001410  0.336214  0.076142  1
  Al  Al5  1  0.998590  0.663786  0.923858  1
  Al  Al6  1  0.998590  0.663786  0.576142  1
  Al  Al7  1  0.336214  0.001410  0.423858  1
  Al  Al8  1  0.001410  0.336214  0.423858  1
  Al  Al9  1  0.663786  0.998590  0.576142  1
  Al  Al10  1  0.663786  0.998590  0.923858  1
  Al  Al11  1  0.336214  0.001410  0.076142  1
  Al  Al12  1  0.335676  0.335676  0.556412  1
  Al  Al13  1  0.664324  0.664324  0.443588  1
  Al  Al14  1  0.664324  0.664324  0.056412  1
  Al  Al15  1  0.335676  0.335676  0.943588  1
  Al  Al16  1  0.335578  0.548123  0.250000  1
  Al  Al17  1  0.664422  0.451877  0.750000  1
  Al  Al18  1  0.548123  0.335578  0.250000  1
  Al  Al19  1  0.451877  0.664422  0.750000  1
  Si  Si20  1  0.128473  0.128473  0.250000  1
  Si  Si21  1  0.871527  0.871527  0.750000  1
  Ir  Ir22  1  0.671623  0.328377  0.000000  1
  Ir  Ir23  1  0.328377  0.671623  0.000000  1
  Ir  Ir24  1  0.328377  0.671623  0.500000  1
  Ir  Ir25  1  0.671623  0.328377  0.500000  1
  Ir  Ir26  1  0.000000  0.000000  0.000000  1
  Ir  Ir27  1  0.000000  0.000000  0.500000  1
