# generated using pymatgen
data_Tb3InHg2Pd3
_symmetry_space_group_name_H-M   'P 1'
_cell_length_a   7.85925133
_cell_length_b   7.76457458
_cell_length_c   3.77055400
_cell_angle_alpha   90.00000000
_cell_angle_beta   90.00000000
_cell_angle_gamma   119.60229751
_symmetry_Int_Tables_number   1
_chemical_formula_structural   Tb3InHg2Pd3
_chemical_formula_sum   'Tb3 In1 Hg2 Pd3'
_cell_volume   200.06041619
_cell_formula_units_Z   1
loop_
 _symmetry_equiv_pos_site_id
 _symmetry_equiv_pos_as_xyz
  1  'x, y, z'
loop_
 _atom_site_type_symbol
 _atom_site_label
 _atom_site_symmetry_multiplicity
 _atom_site_fract_x
 _atom_site_fract_y
 _atom_site_fract_z
 _atom_site_occupancy
  Tb  Tb0  1  0.593790  0.995047  0.500000  1
  Tb  Tb1  1  0.406210  0.401257  0.500000  1
  Tb  Tb2  1  0.000000  0.609187  0.500000  1
  In  In3  1  0.000000  0.263659  0.000000  1
  Hg  Hg4  1  0.728338  0.731070  0.000000  1
  Hg  Hg5  1  0.271662  0.002732  0.000000  1
  Pd  Pd6  1  0.000000  0.008773  0.500000  1
  Pd  Pd7  1  0.675251  0.331762  0.000000  1
  Pd  Pd8  1  0.324749  0.656512  0.000000  1
