# generated using pymatgen
data_Y4AsPS2
_symmetry_space_group_name_H-M   'P 1'
_cell_length_a   6.92758062
_cell_length_b   6.92758079
_cell_length_c   6.92757927
_cell_angle_alpha   131.83940641
_cell_angle_beta   131.83939383
_cell_angle_gamma   70.48279092
_symmetry_Int_Tables_number   1
_chemical_formula_structural   Y4AsPS2
_chemical_formula_sum   'Y4 As1 P1 S2'
_cell_volume   180.81641661
_cell_formula_units_Z   1
loop_
 _symmetry_equiv_pos_site_id
 _symmetry_equiv_pos_as_xyz
  1  'x, y, z'
loop_
 _atom_site_type_symbol
 _atom_site_label
 _atom_site_symmetry_multiplicity
 _atom_site_fract_x
 _atom_site_fract_y
 _atom_site_fract_z
 _atom_site_occupancy
  Y  Y0  1  0.250478  0.250478  0.000000  1
  Y  Y1  1  0.749522  0.749522  0.000000  1
  Y  Y2  1  0.505604  0.005604  0.500000  1
  Y  Y3  1  0.994396  0.494396  0.500000  1
  As  As4  1  0.000000  0.000000  0.000000  1
  P  P5  1  0.750000  0.250000  0.500000  1
  S  S6  1  0.250000  0.750000  0.500000  1
  S  S7  1  0.500000  0.500000  0.000000  1
