# generated using pymatgen
data_Ti3AlCN
_symmetry_space_group_name_H-M   'P 1'
_cell_length_a   3.05884900
_cell_length_b   3.05884980
_cell_length_c   18.38645800
_cell_angle_alpha   90.00000000
_cell_angle_beta   90.00000000
_cell_angle_gamma   120.00002377
_symmetry_Int_Tables_number   1
_chemical_formula_structural   Ti3AlCN
_chemical_formula_sum   'Ti6 Al2 C2 N2'
_cell_volume   148.98577097
_cell_formula_units_Z   2
loop_
 _symmetry_equiv_pos_site_id
 _symmetry_equiv_pos_as_xyz
  1  'x, y, z'
loop_
 _atom_site_type_symbol
 _atom_site_label
 _atom_site_symmetry_multiplicity
 _atom_site_fract_x
 _atom_site_fract_y
 _atom_site_fract_z
 _atom_site_occupancy
  Ti  Ti0  1  0.666667  0.333333  0.372838  1
  Ti  Ti1  1  0.333333  0.666667  0.872838  1
  Ti  Ti2  1  0.333333  0.666667  0.627734  1
  Ti  Ti3  1  0.666667  0.333333  0.127734  1
  Ti  Ti4  1  0.000000  0.000000  0.499522  1
  Ti  Ti5  1  0.000000  0.000000  0.999522  1
  Al  Al6  1  0.000000  0.000000  0.750726  1
  Al  Al7  1  0.000000  0.000000  0.250726  1
  C  C8  1  0.333333  0.666667  0.068575  1
  C  C9  1  0.666667  0.333333  0.568575  1
  N  N10  1  0.333333  0.666667  0.430606  1
  N  N11  1  0.666667  0.333333  0.930606  1
