# generated using pymatgen
data_Hf18Co2Re4MoW3
_symmetry_space_group_name_H-M   'P 1'
_cell_length_a   8.65710400
_cell_length_b   8.65710445
_cell_length_c   8.47794100
_cell_angle_alpha   90.00000000
_cell_angle_beta   90.00000000
_cell_angle_gamma   120.07516743
_symmetry_Int_Tables_number   1
_chemical_formula_structural   Hf18Co2Re4MoW3
_chemical_formula_sum   'Hf18 Co2 Re4 Mo1 W3'
_cell_volume   549.84067577
_cell_formula_units_Z   1
loop_
 _symmetry_equiv_pos_site_id
 _symmetry_equiv_pos_as_xyz
  1  'x, y, z'
loop_
 _atom_site_type_symbol
 _atom_site_label
 _atom_site_symmetry_multiplicity
 _atom_site_fract_x
 _atom_site_fract_y
 _atom_site_fract_z
 _atom_site_occupancy
  Hf  Hf0  1  0.200693  0.799307  0.440133  1
  Hf  Hf1  1  0.200344  0.400829  0.441346  1
  Hf  Hf2  1  0.599171  0.799656  0.441346  1
  Hf  Hf3  1  0.799589  0.200411  0.559812  1
  Hf  Hf4  1  0.799173  0.598916  0.558937  1
  Hf  Hf5  1  0.401084  0.200827  0.558937  1
  Hf  Hf6  1  0.799589  0.200411  0.940188  1
  Hf  Hf7  1  0.799173  0.598916  0.941063  1
  Hf  Hf8  1  0.401084  0.200827  0.941063  1
  Hf  Hf9  1  0.200693  0.799307  0.059867  1
  Hf  Hf10  1  0.200344  0.400829  0.058654  1
  Hf  Hf11  1  0.599171  0.799656  0.058654  1
  Hf  Hf12  1  0.541745  0.458255  0.250000  1
  Hf  Hf13  1  0.541074  0.083551  0.250000  1
  Hf  Hf14  1  0.916449  0.458926  0.250000  1
  Hf  Hf15  1  0.458048  0.541952  0.750000  1
  Hf  Hf16  1  0.458554  0.915864  0.750000  1
  Hf  Hf17  1  0.084136  0.541446  0.750000  1
  Co  Co18  1  0.333348  0.666652  0.250000  1
  Co  Co19  1  0.666252  0.333748  0.750000  1
  Re  Re20  1  0.887601  0.775568  0.250000  1
  Re  Re21  1  0.224432  0.112399  0.250000  1
  Re  Re22  1  0.112350  0.224648  0.750000  1
  Re  Re23  1  0.775352  0.887650  0.750000  1
  Mo  Mo24  1  0.111642  0.888358  0.750000  1
  W  W25  1  0.888592  0.111408  0.250000  1
  W  W26  1  0.000160  0.999840  0.500344  1
  W  W27  1  0.000160  0.999840  0.999656  1
