# generated using pymatgen
data_Ho17Tm3(Bi2Rh)4
_symmetry_space_group_name_H-M   'P 1'
_cell_length_a   7.97483069
_cell_length_b   8.98031865
_cell_length_c   12.44073950
_cell_angle_alpha   89.96282152
_cell_angle_beta   90.04197517
_cell_angle_gamma   89.97694661
_symmetry_Int_Tables_number   1
_chemical_formula_structural   Ho17Tm3(Bi2Rh)4
_chemical_formula_sum   'Ho17 Tm3 Bi8 Rh4'
_cell_volume   890.96198037
_cell_formula_units_Z   1
loop_
 _symmetry_equiv_pos_site_id
 _symmetry_equiv_pos_as_xyz
  1  'x, y, z'
loop_
 _atom_site_type_symbol
 _atom_site_label
 _atom_site_symmetry_multiplicity
 _atom_site_fract_x
 _atom_site_fract_y
 _atom_site_fract_z
 _atom_site_occupancy
  Ho  Ho0  1  0.839828  0.750228  0.793782  1
  Ho  Ho1  1  0.160413  0.249834  0.206167  1
  Ho  Ho2  1  0.339870  0.249718  0.706139  1
  Ho  Ho3  1  0.660091  0.750217  0.293967  1
  Ho  Ho4  1  0.375083  0.750375  0.690453  1
  Ho  Ho5  1  0.624932  0.249626  0.309588  1
  Ho  Ho6  1  0.875256  0.249858  0.809312  1
  Ho  Ho7  1  0.125223  0.750258  0.190584  1
  Ho  Ho8  1  0.952193  0.750540  0.501616  1
  Ho  Ho9  1  0.047867  0.249501  0.498400  1
  Ho  Ho10  1  0.451971  0.249651  0.998410  1
  Ho  Ho11  1  0.547351  0.750313  0.001486  1
  Ho  Ho12  1  0.323043  0.542133  0.433777  1
  Ho  Ho13  1  0.823190  0.042324  0.066252  1
  Ho  Ho14  1  0.676950  0.457931  0.566298  1
  Ho  Ho15  1  0.822844  0.457917  0.066267  1
  Ho  Ho16  1  0.177039  0.542335  0.933671  1
  Tm  Tm17  1  0.675344  0.042506  0.566029  1
  Tm  Tm18  1  0.324665  0.957518  0.433992  1
  Tm  Tm19  1  0.175614  0.957430  0.933839  1
  Bi  Bi20  1  0.567138  0.491910  0.826175  1
  Bi  Bi21  1  0.432932  0.508104  0.173816  1
  Bi  Bi22  1  0.067116  0.508114  0.673745  1
  Bi  Bi23  1  0.432993  0.991821  0.174041  1
  Bi  Bi24  1  0.932977  0.491923  0.326183  1
  Bi  Bi25  1  0.566766  0.008075  0.826159  1
  Bi  Bi26  1  0.933616  0.008044  0.326308  1
  Bi  Bi27  1  0.066543  0.991882  0.673839  1
  Rh  Rh28  1  0.571950  0.750976  0.509053  1
  Rh  Rh29  1  0.428129  0.249041  0.490992  1
  Rh  Rh30  1  0.072673  0.249495  0.990670  1
  Rh  Rh31  1  0.928399  0.750402  0.008988  1
