# generated using pymatgen
data_Zr10ZnSi(SnBi2)2
_symmetry_space_group_name_H-M   'P 1'
_cell_length_a   8.79701453
_cell_length_b   8.79701496
_cell_length_c   5.93301041
_cell_angle_alpha   89.96050825
_cell_angle_beta   89.96050227
_cell_angle_gamma   119.84370659
_symmetry_Int_Tables_number   1
_chemical_formula_structural   Zr10ZnSi(SnBi2)2
_chemical_formula_sum   'Zr10 Zn1 Si1 Sn2 Bi4'
_cell_volume   398.25184437
_cell_formula_units_Z   1
loop_
 _symmetry_equiv_pos_site_id
 _symmetry_equiv_pos_as_xyz
  1  'x, y, z'
loop_
 _atom_site_type_symbol
 _atom_site_label
 _atom_site_symmetry_multiplicity
 _atom_site_fract_x
 _atom_site_fract_y
 _atom_site_fract_z
 _atom_site_occupancy
  Zr  Zr0  1  0.667312  0.330455  0.003535  1
  Zr  Zr1  1  0.330455  0.667312  0.003535  1
  Zr  Zr2  1  0.329537  0.667238  0.495918  1
  Zr  Zr3  1  0.667238  0.329537  0.495918  1
  Zr  Zr4  1  0.742621  0.742621  0.741985  1
  Zr  Zr5  1  0.258877  0.999940  0.742443  1
  Zr  Zr6  1  0.999940  0.258877  0.742443  1
  Zr  Zr7  1  0.260346  0.260346  0.257616  1
  Zr  Zr8  1  0.738741  0.005689  0.257247  1
  Zr  Zr9  1  0.005689  0.738741  0.257247  1
  Zn  Zn10  1  0.999955  0.999955  0.003802  1
  Si  Si11  1  0.999760  0.999760  0.496241  1
  Sn  Sn12  1  0.388409  0.999981  0.248131  1
  Sn  Sn13  1  0.999981  0.388409  0.248131  1
  Bi  Bi14  1  0.392263  0.392263  0.752358  1
  Bi  Bi15  1  0.607048  0.999455  0.753055  1
  Bi  Bi16  1  0.999455  0.607048  0.753055  1
  Bi  Bi17  1  0.612374  0.612374  0.247340  1
