# generated using pymatgen
data_Tm5Lu3(TcB6)4
_symmetry_space_group_name_H-M   'P 1'
_cell_length_a   3.63191900
_cell_length_b   9.07768800
_cell_length_c   11.43925700
_cell_angle_alpha   89.99795072
_cell_angle_beta   90.00000000
_cell_angle_gamma   90.00000000
_symmetry_Int_Tables_number   1
_chemical_formula_structural   Tm5Lu3(TcB6)4
_chemical_formula_sum   'Tm5 Lu3 Tc4 B24'
_cell_volume   377.14575446
_cell_formula_units_Z   1
loop_
 _symmetry_equiv_pos_site_id
 _symmetry_equiv_pos_as_xyz
  1  'x, y, z'
loop_
 _atom_site_type_symbol
 _atom_site_label
 _atom_site_symmetry_multiplicity
 _atom_site_fract_x
 _atom_site_fract_y
 _atom_site_fract_z
 _atom_site_occupancy
  Tm  Tm0  1  0.000000  0.823623  0.085785  1
  Tm  Tm1  1  0.000000  0.176369  0.914147  1
  Tm  Tm2  1  0.000000  0.323539  0.414275  1
  Tm  Tm3  1  0.000000  0.676426  0.585825  1
  Tm  Tm4  1  0.000000  0.443112  0.130184  1
  Lu  Lu5  1  0.000000  0.556993  0.869450  1
  Lu  Lu6  1  0.000000  0.943027  0.369672  1
  Lu  Lu7  1  0.000000  0.056960  0.630354  1
  Tc  Tc8  1  0.000000  0.138849  0.179954  1
  Tc  Tc9  1  0.000000  0.860750  0.820069  1
  Tc  Tc10  1  0.000000  0.639558  0.320385  1
  Tc  Tc11  1  0.000000  0.360717  0.679831  1
  B  B12  1  0.500000  0.053332  0.066678  1
  B  B13  1  0.500000  0.946588  0.933299  1
  B  B14  1  0.500000  0.553423  0.433370  1
  B  B15  1  0.500000  0.446600  0.566704  1
  B  B16  1  0.500000  0.250039  0.080751  1
  B  B17  1  0.500000  0.749529  0.919216  1
  B  B18  1  0.500000  0.750527  0.419245  1
  B  B19  1  0.500000  0.249481  0.580774  1
  B  B20  1  0.500000  0.292771  0.235367  1
  B  B21  1  0.500000  0.706859  0.764777  1
  B  B22  1  0.500000  0.793240  0.264805  1
  B  B23  1  0.500000  0.206860  0.735230  1
  B  B24  1  0.500000  0.130514  0.315620  1
  B  B25  1  0.500000  0.869426  0.684440  1
  B  B26  1  0.500000  0.630965  0.184651  1
  B  B27  1  0.500000  0.369403  0.815523  1
  B  B28  1  0.500000  0.481516  0.288260  1
  B  B29  1  0.500000  0.518677  0.712035  1
  B  B30  1  0.500000  0.981273  0.212049  1
  B  B31  1  0.500000  0.018698  0.787975  1
  B  B32  1  0.500000  0.099101  0.472456  1
  B  B33  1  0.500000  0.900905  0.527562  1
  B  B34  1  0.500000  0.599574  0.027267  1
  B  B35  1  0.500000  0.400776  0.972013  1
