# generated using pymatgen
data_Cs2Ca(HO3)2
_symmetry_space_group_name_H-M   'P 1'
_cell_length_a   7.81346113
_cell_length_b   7.81346101
_cell_length_c   7.71101510
_cell_angle_alpha   64.75714494
_cell_angle_beta   64.75714517
_cell_angle_gamma   30.38671828
_symmetry_Int_Tables_number   1
_chemical_formula_structural   Cs2Ca(HO3)2
_chemical_formula_sum   'Cs2 Ca1 H2 O6'
_cell_volume   213.61388027
_cell_formula_units_Z   1
loop_
 _symmetry_equiv_pos_site_id
 _symmetry_equiv_pos_as_xyz
  1  'x, y, z'
loop_
 _atom_site_type_symbol
 _atom_site_label
 _atom_site_symmetry_multiplicity
 _atom_site_fract_x
 _atom_site_fract_y
 _atom_site_fract_z
 _atom_site_occupancy
  Cs  Cs0  1  0.951858  0.951858  0.098022  1
  Cs  Cs1  1  0.584110  0.584110  0.467892  1
  Ca  Ca2  1  0.287994  0.287994  0.714804  1
  H  H3  1  0.259887  0.259887  0.358820  1
  H  H4  1  0.822545  0.822545  0.499611  1
  O  O5  1  0.605138  0.605138  0.060715  1
  O  O6  1  0.220784  0.220784  0.498739  1
  O  O7  1  0.871802  0.871802  0.550198  1
  O  O8  1  0.681616  0.681616  0.882090  1
  O  O9  1  0.402592  0.402592  0.858029  1
  O  O10  1  0.311676  0.311676  0.011079  1
