# generated using pymatgen
data_HoSc11Co4
_symmetry_space_group_name_H-M   'P 1'
_cell_length_a   5.90280431
_cell_length_b   6.50329745
_cell_length_c   8.64441211
_cell_angle_alpha   89.99675762
_cell_angle_beta   89.37292396
_cell_angle_gamma   90.01853059
_symmetry_Int_Tables_number   1
_chemical_formula_structural   HoSc11Co4
_chemical_formula_sum   'Ho1 Sc11 Co4'
_cell_volume   331.81913956
_cell_formula_units_Z   1
loop_
 _symmetry_equiv_pos_site_id
 _symmetry_equiv_pos_as_xyz
  1  'x, y, z'
loop_
 _atom_site_type_symbol
 _atom_site_label
 _atom_site_symmetry_multiplicity
 _atom_site_fract_x
 _atom_site_fract_y
 _atom_site_fract_z
 _atom_site_occupancy
  Ho  Ho0  1  0.175527  0.179480  0.059609  1
  Sc  Sc1  1  0.321627  0.678189  0.063623  1
  Sc  Sc2  1  0.180163  0.178737  0.441753  1
  Sc  Sc3  1  0.677921  0.322614  0.561831  1
  Sc  Sc4  1  0.815960  0.817644  0.934998  1
  Sc  Sc5  1  0.675504  0.325320  0.933255  1
  Sc  Sc6  1  0.823888  0.822478  0.561228  1
  Sc  Sc7  1  0.323992  0.677149  0.435054  1
  Sc  Sc8  1  0.873093  0.541841  0.251971  1
  Sc  Sc9  1  0.626436  0.037421  0.252448  1
  Sc  Sc10  1  0.121459  0.464904  0.746424  1
  Sc  Sc11  1  0.378657  0.956914  0.745651  1
  Co  Co12  1  0.037192  0.889897  0.261325  1
  Co  Co13  1  0.470430  0.394143  0.253779  1
  Co  Co14  1  0.962193  0.106558  0.747316  1
  Co  Co15  1  0.535960  0.606710  0.749737  1
