# generated using pymatgen
data_Pr8Co3Si12Ge
_symmetry_space_group_name_H-M   'P 1'
_cell_length_a   8.13064800
_cell_length_b   8.13064874
_cell_length_c   8.55994300
_cell_angle_alpha   90.00000000
_cell_angle_beta   90.00000000
_cell_angle_gamma   120.00000511
_symmetry_Int_Tables_number   1
_chemical_formula_structural   Pr8Co3Si12Ge
_chemical_formula_sum   'Pr8 Co3 Si12 Ge1'
_cell_volume   490.06291732
_cell_formula_units_Z   1
loop_
 _symmetry_equiv_pos_site_id
 _symmetry_equiv_pos_as_xyz
  1  'x, y, z'
loop_
 _atom_site_type_symbol
 _atom_site_label
 _atom_site_symmetry_multiplicity
 _atom_site_fract_x
 _atom_site_fract_y
 _atom_site_fract_z
 _atom_site_occupancy
  Pr  Pr0  1  0.498554  0.501446  0.754766  1
  Pr  Pr1  1  0.499207  0.500793  0.245812  1
  Pr  Pr2  1  0.002892  0.501446  0.754766  1
  Pr  Pr3  1  0.001587  0.500793  0.245812  1
  Pr  Pr4  1  0.498554  0.997108  0.754766  1
  Pr  Pr5  1  0.499207  0.998413  0.245812  1
  Pr  Pr6  1  0.000000  0.000000  0.755012  1
  Pr  Pr7  1  0.000000  0.000000  0.243947  1
  Co  Co8  1  0.666667  0.333333  0.998991  1
  Co  Co9  1  0.333333  0.666667  0.003045  1
  Co  Co10  1  0.333333  0.666667  0.494541  1
  Si  Si11  1  0.827965  0.172035  0.999757  1
  Si  Si12  1  0.171991  0.828009  0.000060  1
  Si  Si13  1  0.344069  0.172035  0.999757  1
  Si  Si14  1  0.176235  0.823765  0.501398  1
  Si  Si15  1  0.656017  0.828009  0.000060  1
  Si  Si16  1  0.841544  0.158456  0.498373  1
  Si  Si17  1  0.827965  0.655931  0.999757  1
  Si  Si18  1  0.647530  0.823765  0.501398  1
  Si  Si19  1  0.171991  0.343983  0.000060  1
  Si  Si20  1  0.316912  0.158456  0.498373  1
  Si  Si21  1  0.176235  0.352470  0.501398  1
  Si  Si22  1  0.841544  0.683088  0.498373  1
  Ge  Ge23  1  0.666667  0.333333  0.503968  1
