# generated using pymatgen
data_CaEu2TaO6
_symmetry_space_group_name_H-M   'P 1'
_cell_length_a   5.96966700
_cell_length_b   5.71078805
_cell_length_c   10.03749376
_cell_angle_alpha   55.09259271
_cell_angle_beta   90.00000000
_cell_angle_gamma   90.00000000
_symmetry_Int_Tables_number   1
_chemical_formula_structural   CaEu2TaO6
_chemical_formula_sum   'Ca2 Eu4 Ta2 O12'
_cell_volume   280.62512100
_cell_formula_units_Z   2
loop_
 _symmetry_equiv_pos_site_id
 _symmetry_equiv_pos_as_xyz
  1  'x, y, z'
loop_
 _atom_site_type_symbol
 _atom_site_label
 _atom_site_symmetry_multiplicity
 _atom_site_fract_x
 _atom_site_fract_y
 _atom_site_fract_z
 _atom_site_occupancy
  Ca  Ca0  1  0.000000  0.500000  0.500000  1
  Ca  Ca1  1  0.500000  0.500000  0.000000  1
  Eu  Eu2  1  0.444846  0.239495  0.745747  1
  Eu  Eu3  1  0.555154  0.760505  0.254253  1
  Eu  Eu4  1  0.944846  0.760505  0.754253  1
  Eu  Eu5  1  0.055154  0.239495  0.245747  1
  Ta  Ta6  1  0.000000  0.000000  0.000000  1
  Ta  Ta7  1  0.500000  0.000000  0.500000  1
  O  O8  1  0.719323  0.895385  0.931484  1
  O  O9  1  0.280677  0.104615  0.068516  1
  O  O10  1  0.219323  0.104615  0.568516  1
  O  O11  1  0.780677  0.895385  0.431484  1
  O  O12  1  0.051002  0.344791  0.770801  1
  O  O13  1  0.948998  0.655209  0.229199  1
  O  O14  1  0.551002  0.655209  0.729199  1
  O  O15  1  0.448998  0.344791  0.270801  1
  O  O16  1  0.179070  0.766767  0.946851  1
  O  O17  1  0.820930  0.233233  0.053149  1
  O  O18  1  0.679070  0.233233  0.553149  1
  O  O19  1  0.320930  0.766767  0.446851  1
