# generated using pymatgen
data_YHoTm2(B6Rh)2
_symmetry_space_group_name_H-M   'P 1'
_cell_length_a   3.63735500
_cell_length_b   9.14059107
_cell_length_c   11.48155503
_cell_angle_alpha   90.00319089
_cell_angle_beta   90.00000000
_cell_angle_gamma   90.00000000
_symmetry_Int_Tables_number   1
_chemical_formula_structural   YHoTm2(B6Rh)2
_chemical_formula_sum   'Y2 Ho2 Tm4 B24 Rh4'
_cell_volume   381.73385706
_cell_formula_units_Z   2
loop_
 _symmetry_equiv_pos_site_id
 _symmetry_equiv_pos_as_xyz
  1  'x, y, z'
loop_
 _atom_site_type_symbol
 _atom_site_label
 _atom_site_symmetry_multiplicity
 _atom_site_fract_x
 _atom_site_fract_y
 _atom_site_fract_z
 _atom_site_occupancy
  Y  Y0  1  0.500000  0.178072  0.913692  1
  Y  Y1  1  0.500000  0.821928  0.086308  1
  Ho  Ho2  1  0.500000  0.321883  0.413767  1
  Ho  Ho3  1  0.500000  0.678117  0.586233  1
  Tm  Tm4  1  0.500000  0.444329  0.126941  1
  Tm  Tm5  1  0.500000  0.555671  0.873059  1
  Tm  Tm6  1  0.500000  0.055717  0.626701  1
  Tm  Tm7  1  0.500000  0.944283  0.373299  1
  B  B8  1  0.000000  0.108351  0.470704  1
  B  B9  1  0.000000  0.891649  0.529296  1
  B  B10  1  0.000000  0.392288  0.970851  1
  B  B11  1  0.000000  0.607712  0.029149  1
  B  B12  1  0.000000  0.132773  0.316594  1
  B  B13  1  0.000000  0.867227  0.683406  1
  B  B14  1  0.000000  0.367586  0.816175  1
  B  B15  1  0.000000  0.632414  0.183825  1
  B  B16  1  0.000000  0.054247  0.065726  1
  B  B17  1  0.000000  0.945753  0.934274  1
  B  B18  1  0.000000  0.445925  0.565387  1
  B  B19  1  0.000000  0.554075  0.434613  1
  B  B20  1  0.000000  0.482516  0.286387  1
  B  B21  1  0.000000  0.517484  0.713613  1
  B  B22  1  0.000000  0.017116  0.785977  1
  B  B23  1  0.000000  0.982884  0.214023  1
  B  B24  1  0.000000  0.250231  0.079948  1
  B  B25  1  0.000000  0.749769  0.920052  1
  B  B26  1  0.000000  0.249967  0.579498  1
  B  B27  1  0.000000  0.750033  0.420502  1
  B  B28  1  0.000000  0.294597  0.236035  1
  B  B29  1  0.000000  0.705403  0.763965  1
  B  B30  1  0.000000  0.205638  0.735448  1
  B  B31  1  0.000000  0.794362  0.264552  1
  Rh  Rh32  1  0.500000  0.140341  0.179949  1
  Rh  Rh33  1  0.500000  0.859659  0.820051  1
  Rh  Rh34  1  0.500000  0.360449  0.679052  1
  Rh  Rh35  1  0.500000  0.639551  0.320948  1
