# generated using pymatgen
data_Y7HoSe12
_symmetry_space_group_name_H-M   'P 1'
_cell_length_a   7.11836466
_cell_length_b   7.11139516
_cell_length_c   12.97068904
_cell_angle_alpha   100.65953302
_cell_angle_beta   100.68656630
_cell_angle_gamma   108.94834301
_symmetry_Int_Tables_number   1
_chemical_formula_structural   Y7HoSe12
_chemical_formula_sum   'Y7 Ho1 Se12'
_cell_volume   588.62721990
_cell_formula_units_Z   1
loop_
 _symmetry_equiv_pos_site_id
 _symmetry_equiv_pos_as_xyz
  1  'x, y, z'
loop_
 _atom_site_type_symbol
 _atom_site_label
 _atom_site_symmetry_multiplicity
 _atom_site_fract_x
 _atom_site_fract_y
 _atom_site_fract_z
 _atom_site_occupancy
  Y  Y0  1  0.041189  0.791146  0.082332  1
  Y  Y1  1  0.622385  0.872381  0.244753  1
  Y  Y2  1  0.127328  0.377319  0.254628  1
  Y  Y3  1  0.208751  0.958711  0.417470  1
  Y  Y4  1  0.791296  0.041340  0.582621  1
  Y  Y5  1  0.872623  0.622631  0.745265  1
  Y  Y6  1  0.377521  0.127527  0.755040  1
  Ho  Ho7  1  0.958681  0.208726  0.917438  1
  Se  Se8  1  0.805274  0.049343  0.087103  1
  Se  Se9  1  0.282113  0.537730  0.087169  1
  Se  Se10  1  0.367188  0.117071  0.249994  1
  Se  Se11  1  0.882779  0.632919  0.249972  1
  Se  Se12  1  0.951169  0.195202  0.412027  1
  Se  Se13  1  0.460887  0.716571  0.412028  1
  Se  Se14  1  0.539128  0.283500  0.587926  1
  Se  Se15  1  0.048787  0.804681  0.587920  1
  Se  Se16  1  0.116447  0.366493  0.751025  1
  Se  Se17  1  0.634572  0.884523  0.751016  1
  Se  Se18  1  0.717854  0.459388  0.912122  1
  Se  Se19  1  0.194030  0.952798  0.912151  1
