# generated using pymatgen
data_Tb16MgCd2Ni4Hg
_symmetry_space_group_name_H-M   'P 1'
_cell_length_a   9.58254621
_cell_length_b   9.57635037
_cell_length_c   9.57197100
_cell_angle_alpha   60.01513004
_cell_angle_beta   60.03650324
_cell_angle_gamma   60.02458423
_symmetry_Int_Tables_number   1
_chemical_formula_structural   Tb16MgCd2Ni4Hg
_chemical_formula_sum   'Tb16 Mg1 Cd2 Ni4 Hg1'
_cell_volume   621.46595641
_cell_formula_units_Z   1
loop_
 _symmetry_equiv_pos_site_id
 _symmetry_equiv_pos_as_xyz
  1  'x, y, z'
loop_
 _atom_site_type_symbol
 _atom_site_label
 _atom_site_symmetry_multiplicity
 _atom_site_fract_x
 _atom_site_fract_y
 _atom_site_fract_z
 _atom_site_occupancy
  Tb  Tb0  1  0.185769  0.814973  0.814391  1
  Tb  Tb1  1  0.811478  0.189083  0.184957  1
  Tb  Tb2  1  0.811478  0.189083  0.814484  1
  Tb  Tb3  1  0.185769  0.814973  0.184868  1
  Tb  Tb4  1  0.813002  0.815508  0.185746  1
  Tb  Tb5  1  0.185795  0.187499  0.813354  1
  Tb  Tb6  1  0.059311  0.441938  0.440550  1
  Tb  Tb7  1  0.436999  0.062824  0.061520  1
  Tb  Tb8  1  0.436999  0.062824  0.438655  1
  Tb  Tb9  1  0.059311  0.441938  0.058201  1
  Tb  Tb10  1  0.436712  0.440910  0.061188  1
  Tb  Tb11  1  0.060432  0.061340  0.439114  1
  Tb  Tb12  1  0.597541  0.596682  0.596670  1
  Tb  Tb13  1  0.597541  0.596682  0.209108  1
  Tb  Tb14  1  0.599861  0.204763  0.597688  1
  Tb  Tb15  1  0.200373  0.599602  0.600012  1
  Mg  Mg16  1  0.527156  0.820793  0.826025  1
  Cd  Cd17  1  0.831656  0.831386  0.831249  1
  Cd  Cd18  1  0.831656  0.831386  0.505708  1
  Ni  Ni19  1  0.391779  0.392469  0.393634  1
  Ni  Ni20  1  0.391779  0.392469  0.822119  1
  Ni  Ni21  1  0.389827  0.822548  0.393813  1
  Ni  Ni22  1  0.824293  0.392669  0.391520  1
  Hg  Hg23  1  0.833486  0.495660  0.835427  1
