# generated using pymatgen
data_LiEr6Lu(Co4P3)4
_symmetry_space_group_name_H-M   'P 1'
_cell_length_a   3.71425900
_cell_length_b   10.60574500
_cell_length_c   12.29416900
_cell_angle_alpha   90.00000000
_cell_angle_beta   90.00000000
_cell_angle_gamma   90.00000000
_symmetry_Int_Tables_number   1
_chemical_formula_structural   LiEr6Lu(Co4P3)4
_chemical_formula_sum   'Li1 Er6 Lu1 Co16 P12'
_cell_volume   484.29785339
_cell_formula_units_Z   1
loop_
 _symmetry_equiv_pos_site_id
 _symmetry_equiv_pos_as_xyz
  1  'x, y, z'
loop_
 _atom_site_type_symbol
 _atom_site_label
 _atom_site_symmetry_multiplicity
 _atom_site_fract_x
 _atom_site_fract_y
 _atom_site_fract_z
 _atom_site_occupancy
  Li  Li0  1  0.750000  0.750000  0.159238  1
  Er  Er1  1  0.750000  0.250000  0.469205  1
  Er  Er2  1  0.250000  0.750000  0.523285  1
  Er  Er3  1  0.250000  0.926815  0.792423  1
  Er  Er4  1  0.250000  0.573185  0.792423  1
  Er  Er5  1  0.750000  0.069203  0.205029  1
  Er  Er6  1  0.750000  0.430797  0.205029  1
  Lu  Lu7  1  0.250000  0.250000  0.843831  1
  Co  Co8  1  0.250000  0.250000  0.296669  1
  Co  Co9  1  0.750000  0.750000  0.705291  1
  Co  Co10  1  0.750000  0.250000  0.016741  1
  Co  Co11  1  0.250000  0.750000  0.988146  1
  Co  Co12  1  0.250000  0.423277  0.011045  1
  Co  Co13  1  0.250000  0.076723  0.011045  1
  Co  Co14  1  0.750000  0.587738  0.001547  1
  Co  Co15  1  0.750000  0.912262  0.001547  1
  Co  Co16  1  0.250000  0.456213  0.564454  1
  Co  Co17  1  0.250000  0.043787  0.564454  1
  Co  Co18  1  0.750000  0.548296  0.430195  1
  Co  Co19  1  0.750000  0.951704  0.430195  1
  Co  Co20  1  0.250000  0.870726  0.294554  1
  Co  Co21  1  0.250000  0.629274  0.294554  1
  Co  Co22  1  0.750000  0.126863  0.697995  1
  Co  Co23  1  0.750000  0.373137  0.697995  1
  P  P24  1  0.250000  0.250000  0.117771  1
  P  P25  1  0.750000  0.750000  0.885765  1
  P  P26  1  0.250000  0.250000  0.634737  1
  P  P27  1  0.750000  0.750000  0.349130  1
  P  P28  1  0.250000  0.441395  0.381999  1
  P  P29  1  0.250000  0.058605  0.381999  1
  P  P30  1  0.750000  0.562088  0.613490  1
  P  P31  1  0.750000  0.937912  0.613490  1
  P  P32  1  0.250000  0.902525  0.112099  1
  P  P33  1  0.250000  0.597475  0.112099  1
  P  P34  1  0.750000  0.082517  0.900266  1
  P  P35  1  0.750000  0.417483  0.900266  1
