# generated using pymatgen
data_CeEr3(CuP)6
_symmetry_space_group_name_H-M   'P 1'
_cell_length_a   3.85078600
_cell_length_b   10.66314400
_cell_length_c   12.92860400
_cell_angle_alpha   90.00000000
_cell_angle_beta   90.00000000
_cell_angle_gamma   90.00000000
_symmetry_Int_Tables_number   1
_chemical_formula_structural   CeEr3(CuP)6
_chemical_formula_sum   'Ce2 Er6 Cu12 P12'
_cell_volume   530.86768738
_cell_formula_units_Z   2
loop_
 _symmetry_equiv_pos_site_id
 _symmetry_equiv_pos_as_xyz
  1  'x, y, z'
loop_
 _atom_site_type_symbol
 _atom_site_label
 _atom_site_symmetry_multiplicity
 _atom_site_fract_x
 _atom_site_fract_y
 _atom_site_fract_z
 _atom_site_occupancy
  Ce  Ce0  1  0.250000  0.932585  0.792237  1
  Ce  Ce1  1  0.750000  0.432585  0.707763  1
  Er  Er2  1  0.250000  0.568935  0.292053  1
  Er  Er3  1  0.750000  0.068935  0.207947  1
  Er  Er4  1  0.250000  0.840889  0.500069  1
  Er  Er5  1  0.750000  0.340889  0.999931  1
  Er  Er6  1  0.250000  0.656804  0.004816  1
  Er  Er7  1  0.750000  0.156804  0.495184  1
  Cu  Cu8  1  0.250000  0.403294  0.509160  1
  Cu  Cu9  1  0.750000  0.903294  0.990840  1
  Cu  Cu10  1  0.250000  0.096584  0.014198  1
  Cu  Cu11  1  0.750000  0.596584  0.485802  1
  Cu  Cu12  1  0.250000  0.271443  0.331289  1
  Cu  Cu13  1  0.750000  0.771443  0.168711  1
  Cu  Cu14  1  0.250000  0.228953  0.834073  1
  Cu  Cu15  1  0.750000  0.728953  0.665927  1
  Cu  Cu16  1  0.250000  0.859738  0.279854  1
  Cu  Cu17  1  0.750000  0.359738  0.220146  1
  Cu  Cu18  1  0.250000  0.641964  0.783822  1
  Cu  Cu19  1  0.750000  0.141964  0.716178  1
  P  P20  1  0.250000  0.241174  0.641649  1
  P  P21  1  0.750000  0.741174  0.858351  1
  P  P22  1  0.250000  0.256922  0.143193  1
  P  P23  1  0.750000  0.756922  0.356807  1
  P  P24  1  0.250000  0.605511  0.601881  1
  P  P25  1  0.750000  0.105511  0.898119  1
  P  P26  1  0.250000  0.895415  0.101040  1
  P  P27  1  0.750000  0.395415  0.398960  1
  P  P28  1  0.250000  0.056244  0.368527  1
  P  P29  1  0.750000  0.556244  0.131473  1
  P  P30  1  0.250000  0.443545  0.873475  1
  P  P31  1  0.750000  0.943545  0.626525  1
