# generated using pymatgen
data_Li(Cu3O4)2
_symmetry_space_group_name_H-M   'P 1'
_cell_length_a   6.40066073
_cell_length_b   6.40066099
_cell_length_c   6.40066100
_cell_angle_alpha   60.00000511
_cell_angle_beta   60.00000376
_cell_angle_gamma   60.00000087
_symmetry_Int_Tables_number   1
_chemical_formula_structural   Li(Cu3O4)2
_chemical_formula_sum   'Li1 Cu6 O8'
_cell_volume   185.42124520
_cell_formula_units_Z   1
loop_
 _symmetry_equiv_pos_site_id
 _symmetry_equiv_pos_as_xyz
  1  'x, y, z'
loop_
 _atom_site_type_symbol
 _atom_site_label
 _atom_site_symmetry_multiplicity
 _atom_site_fract_x
 _atom_site_fract_y
 _atom_site_fract_z
 _atom_site_occupancy
  Li  Li0  1  0.000000  0.000000  0.000000  1
  Cu  Cu1  1  0.000000  0.000000  0.500000  1
  Cu  Cu2  1  0.500000  0.000000  0.000000  1
  Cu  Cu3  1  0.000000  0.500000  0.000000  1
  Cu  Cu4  1  0.500000  0.500000  0.000000  1
  Cu  Cu5  1  0.000000  0.500000  0.500000  1
  Cu  Cu6  1  0.500000  0.000000  0.500000  1
  O  O7  1  0.141845  0.141845  0.574465  1
  O  O8  1  0.141845  0.574465  0.141845  1
  O  O9  1  0.574465  0.141845  0.141845  1
  O  O10  1  0.858155  0.425535  0.858155  1
  O  O11  1  0.141845  0.141845  0.141845  1
  O  O12  1  0.858155  0.858155  0.858155  1
  O  O13  1  0.858155  0.858155  0.425535  1
  O  O14  1  0.425535  0.858155  0.858155  1
