# generated using pymatgen
data_ReTc5(Se4Br)2
_symmetry_space_group_name_H-M   'P 1'
_cell_length_a   12.03350804
_cell_length_b   6.68961968
_cell_length_c   11.48011314
_cell_angle_alpha   66.84241681
_cell_angle_beta   89.91487992
_cell_angle_gamma   89.99574181
_symmetry_Int_Tables_number   1
_chemical_formula_structural   ReTc5(Se4Br)2
_chemical_formula_sum   'Re2 Tc10 Se16 Br4'
_cell_volume   849.68201789
_cell_formula_units_Z   2
loop_
 _symmetry_equiv_pos_site_id
 _symmetry_equiv_pos_as_xyz
  1  'x, y, z'
loop_
 _atom_site_type_symbol
 _atom_site_label
 _atom_site_symmetry_multiplicity
 _atom_site_fract_x
 _atom_site_fract_y
 _atom_site_fract_z
 _atom_site_occupancy
  Re  Re0  1  0.359875  0.031008  0.560877  1
  Re  Re1  1  0.933789  0.969818  0.153263  1
  Tc  Tc2  1  0.019948  0.700630  0.059948  1
  Tc  Tc3  1  0.066704  0.029949  0.846377  1
  Tc  Tc4  1  0.859051  0.968664  0.938451  1
  Tc  Tc5  1  0.566406  0.969837  0.653857  1
  Tc  Tc6  1  0.979948  0.299671  0.939896  1
  Tc  Tc7  1  0.640788  0.969018  0.438147  1
  Tc  Tc8  1  0.141077  0.031260  0.061495  1
  Tc  Tc9  1  0.520484  0.299707  0.439632  1
  Tc  Tc10  1  0.479762  0.700685  0.559635  1
  Tc  Tc11  1  0.433822  0.030031  0.345528  1
  Se  Se12  1  0.408717  0.714393  0.763723  1
  Se  Se13  1  0.443543  0.274613  0.660389  1
  Se  Se14  1  0.910151  0.285392  0.737220  1
  Se  Se15  1  0.825013  0.654178  0.148063  1
  Se  Se16  1  0.174191  0.345103  0.853129  1
  Se  Se17  1  0.325896  0.346250  0.352124  1
  Se  Se18  1  0.285097  0.770019  0.472205  1
  Se  Se19  1  0.090020  0.713682  0.264076  1
  Se  Se20  1  0.785184  0.229691  0.028305  1
  Se  Se21  1  0.555811  0.725066  0.340332  1
  Se  Se22  1  0.944380  0.724972  0.840820  1
  Se  Se23  1  0.214027  0.769990  0.972955  1
  Se  Se24  1  0.673541  0.654950  0.646847  1
  Se  Se25  1  0.713980  0.229399  0.527541  1
  Se  Se26  1  0.590149  0.285881  0.236585  1
  Se  Se27  1  0.055952  0.274770  0.160470  1
  Br  Br28  1  0.650415  0.910474  0.878803  1
  Br  Br29  1  0.152206  0.089978  0.620774  1
  Br  Br30  1  0.850485  0.911278  0.377770  1
  Br  Br31  1  0.349587  0.089643  0.120767  1
