# generated using pymatgen
data_Cs7Rb9(CrS4)4
_symmetry_space_group_name_H-M   'P 1'
_cell_length_a   8.14240743
_cell_length_b   9.80170699
_cell_length_c   14.86702900
_cell_angle_alpha   90.40834600
_cell_angle_beta   90.49870514
_cell_angle_gamma   90.41379574
_symmetry_Int_Tables_number   1
_chemical_formula_structural   Cs7Rb9(CrS4)4
_chemical_formula_sum   'Cs7 Rb9 Cr4 S16'
_cell_volume   1186.42347164
_cell_formula_units_Z   1
loop_
 _symmetry_equiv_pos_site_id
 _symmetry_equiv_pos_as_xyz
  1  'x, y, z'
loop_
 _atom_site_type_symbol
 _atom_site_label
 _atom_site_symmetry_multiplicity
 _atom_site_fract_x
 _atom_site_fract_y
 _atom_site_fract_z
 _atom_site_occupancy
  Cs  Cs0  1  0.000000  0.000000  0.000000  1
  Cs  Cs1  1  0.500000  0.000000  0.500000  1
  Cs  Cs2  1  0.000000  0.500000  0.000000  1
  Cs  Cs3  1  0.006146  0.750471  0.425466  1
  Cs  Cs4  1  0.503498  0.249756  0.076700  1
  Cs  Cs5  1  0.993854  0.249529  0.574534  1
  Cs  Cs6  1  0.496502  0.750244  0.923300  1
  Rb  Rb7  1  0.500000  0.500000  0.500000  1
  Rb  Rb8  1  0.827535  0.058085  0.278568  1
  Rb  Rb9  1  0.328587  0.944787  0.223197  1
  Rb  Rb10  1  0.168518  0.553946  0.720211  1
  Rb  Rb11  1  0.671525  0.442308  0.777312  1
  Rb  Rb12  1  0.172465  0.941915  0.721432  1
  Rb  Rb13  1  0.671413  0.055213  0.776803  1
  Rb  Rb14  1  0.831482  0.446054  0.279789  1
  Rb  Rb15  1  0.328475  0.557692  0.222688  1
  Cr  Cr16  1  0.762302  0.747182  0.668554  1
  Cr  Cr17  1  0.237698  0.252818  0.331446  1
  Cr  Cr18  1  0.733758  0.750231  0.171153  1
  Cr  Cr19  1  0.266242  0.249769  0.828847  1
  S  S20  1  0.996066  0.249163  0.822146  1
  S  S21  1  0.507737  0.253039  0.326317  1
  S  S22  1  0.492263  0.746961  0.673683  1
  S  S23  1  0.003934  0.750837  0.177854  1
  S  S24  1  0.647053  0.570022  0.098764  1
  S  S25  1  0.156863  0.433333  0.404397  1
  S  S26  1  0.352738  0.070793  0.900430  1
  S  S27  1  0.851392  0.926874  0.598752  1
  S  S28  1  0.352947  0.429978  0.901236  1
  S  S29  1  0.843137  0.566667  0.595603  1
  S  S30  1  0.647262  0.929207  0.099570  1
  S  S31  1  0.148608  0.073126  0.401248  1
  S  S32  1  0.631677  0.750814  0.309363  1
  S  S33  1  0.132251  0.252072  0.192863  1
  S  S34  1  0.368323  0.249186  0.690637  1
  S  S35  1  0.867749  0.747928  0.807137  1
