# generated using pymatgen
data_BaZnSnSe4
_symmetry_space_group_name_H-M   'P 1'
_cell_length_a   13.20046197
_cell_length_b   13.20046118
_cell_length_c   13.44954200
_cell_angle_alpha   104.77694910
_cell_angle_beta   104.77694820
_cell_angle_gamma   118.70245932
_symmetry_Int_Tables_number   1
_chemical_formula_structural   BaZnSnSe4
_chemical_formula_sum   'Ba8 Zn8 Sn8 Se32'
_cell_volume   1779.84270548
_cell_formula_units_Z   8
loop_
 _symmetry_equiv_pos_site_id
 _symmetry_equiv_pos_as_xyz
  1  'x, y, z'
loop_
 _atom_site_type_symbol
 _atom_site_label
 _atom_site_symmetry_multiplicity
 _atom_site_fract_x
 _atom_site_fract_y
 _atom_site_fract_z
 _atom_site_occupancy
  Ba  Ba0  1  0.499688  0.499688  0.000000  1
  Ba  Ba1  1  0.997876  0.997876  0.000000  1
  Ba  Ba2  1  0.499939  0.000617  0.003460  1
  Ba  Ba3  1  0.246480  0.247157  0.496540  1
  Ba  Ba4  1  0.747876  0.247877  0.500000  1
  Ba  Ba5  1  0.249688  0.749688  0.500000  1
  Ba  Ba6  1  0.750618  0.749939  0.503460  1
  Ba  Ba7  1  0.997157  0.496479  0.996540  1
  Zn  Zn8  1  0.336846  0.984042  0.248934  1
  Zn  Zn9  1  0.266034  0.487717  0.249569  1
  Zn  Zn10  1  0.766464  0.488149  0.250431  1
  Zn  Zn11  1  0.837912  0.985108  0.251066  1
  Zn  Zn12  1  0.734042  0.586847  0.748934  1
  Zn  Zn13  1  0.237717  0.516033  0.749569  1
  Zn  Zn14  1  0.238149  0.016465  0.750432  1
  Zn  Zn15  1  0.735108  0.087912  0.751066  1
  Sn  Sn16  1  0.984143  0.759381  0.248634  1
  Sn  Sn17  1  0.903721  0.263044  0.249836  1
  Sn  Sn18  1  0.403884  0.263207  0.250164  1
  Sn  Sn19  1  0.485508  0.760746  0.251366  1
  Sn  Sn20  1  0.509382  0.234143  0.748635  1
  Sn  Sn21  1  0.013043  0.153720  0.749836  1
  Sn  Sn22  1  0.013208  0.653885  0.750165  1
  Sn  Sn23  1  0.510746  0.735507  0.751366  1
  Se  Se24  1  0.288933  0.039593  0.083250  1
  Se  Se25  1  0.788724  0.537000  0.084098  1
  Se  Se26  1  0.787778  0.037571  0.084621  1
  Se  Se27  1  0.290856  0.540266  0.084671  1
  Se  Se28  1  0.188520  0.779122  0.247491  1
  Se  Se29  1  0.019924  0.967064  0.248189  1
  Se  Se30  1  0.066192  0.470734  0.248239  1
  Se  Se31  1  0.218217  0.283333  0.248485  1
  Se  Se32  1  0.719731  0.284847  0.251514  1
  Se  Se33  1  0.567953  0.472495  0.251762  1
  Se  Se34  1  0.521735  0.968875  0.251811  1
  Se  Se35  1  0.691030  0.781631  0.252509  1
  Se  Se36  1  0.956185  0.705595  0.415328  1
  Se  Se37  1  0.453158  0.202950  0.415380  1
  Se  Se38  1  0.454626  0.702902  0.415902  1
  Se  Se39  1  0.955684  0.206343  0.416750  1
  Se  Se40  1  0.789593  0.538934  0.583250  1
  Se  Se41  1  0.287000  0.038725  0.584097  1
  Se  Se42  1  0.787571  0.037777  0.584620  1
  Se  Se43  1  0.290267  0.540856  0.584672  1
  Se  Se44  1  0.529122  0.438521  0.747491  1
  Se  Se45  1  0.717064  0.269924  0.748189  1
  Se  Se46  1  0.220733  0.316191  0.748238  1
  Se  Se47  1  0.033332  0.468217  0.748486  1
  Se  Se48  1  0.034848  0.969732  0.751515  1
  Se  Se49  1  0.222495  0.817953  0.751761  1
  Se  Se50  1  0.718874  0.771734  0.751811  1
  Se  Se51  1  0.531631  0.941030  0.752509  1
  Se  Se52  1  0.455595  0.206185  0.915329  1
  Se  Se53  1  0.952951  0.703158  0.915380  1
  Se  Se54  1  0.452901  0.704625  0.915902  1
  Se  Se55  1  0.956343  0.205683  0.916750  1
