# generated using pymatgen
data_Hf4In2RhAu3
_symmetry_space_group_name_H-M   'P 1'
_cell_length_a   7.55229940
_cell_length_b   7.55229981
_cell_length_c   7.01405039
_cell_angle_alpha   90.22126402
_cell_angle_beta   90.22126422
_cell_angle_gamma   90.52087298
_symmetry_Int_Tables_number   1
_chemical_formula_structural   Hf4In2RhAu3
_chemical_formula_sum   'Hf8 In4 Rh2 Au6'
_cell_volume   400.03944833
_cell_formula_units_Z   2
loop_
 _symmetry_equiv_pos_site_id
 _symmetry_equiv_pos_as_xyz
  1  'x, y, z'
loop_
 _atom_site_type_symbol
 _atom_site_label
 _atom_site_symmetry_multiplicity
 _atom_site_fract_x
 _atom_site_fract_y
 _atom_site_fract_z
 _atom_site_occupancy
  Hf  Hf0  1  0.149885  0.149885  0.010388  1
  Hf  Hf1  1  0.850115  0.850115  0.989612  1
  Hf  Hf2  1  0.641733  0.358267  0.500000  1
  Hf  Hf3  1  0.358267  0.641733  0.500000  1
  Hf  Hf4  1  0.682190  0.317810  0.000000  1
  Hf  Hf5  1  0.317810  0.682190  0.000000  1
  Hf  Hf6  1  0.800503  0.800503  0.509393  1
  Hf  Hf7  1  0.199497  0.199497  0.490607  1
  In  In8  1  0.500604  0.007493  0.247689  1
  In  In9  1  0.499396  0.992507  0.752311  1
  In  In10  1  0.007493  0.500604  0.247689  1
  In  In11  1  0.992507  0.499396  0.752311  1
  Rh  Rh12  1  0.370092  0.370092  0.218676  1
  Rh  Rh13  1  0.629908  0.629908  0.781324  1
  Au  Au14  1  0.632950  0.632950  0.202633  1
  Au  Au15  1  0.870181  0.132275  0.708787  1
  Au  Au16  1  0.867725  0.129819  0.291213  1
  Au  Au17  1  0.367050  0.367050  0.797367  1
  Au  Au18  1  0.129819  0.867725  0.291213  1
  Au  Au19  1  0.132275  0.870181  0.708787  1
