# generated using pymatgen
data_Hf18ZnFeRe8
_symmetry_space_group_name_H-M   'P 1'
_cell_length_a   8.55313100
_cell_length_b   8.58239564
_cell_length_c   8.58239506
_cell_angle_alpha   119.99885991
_cell_angle_beta   90.00000000
_cell_angle_gamma   90.00000000
_symmetry_Int_Tables_number   1
_chemical_formula_structural   Hf18ZnFeRe8
_chemical_formula_sum   'Hf18 Zn1 Fe1 Re8'
_cell_volume   545.60429117
_cell_formula_units_Z   1
loop_
 _symmetry_equiv_pos_site_id
 _symmetry_equiv_pos_as_xyz
  1  'x, y, z'
loop_
 _atom_site_type_symbol
 _atom_site_label
 _atom_site_symmetry_multiplicity
 _atom_site_fract_x
 _atom_site_fract_y
 _atom_site_fract_z
 _atom_site_occupancy
  Hf  Hf0  1  0.549073  0.806396  0.612775  1
  Hf  Hf1  1  0.549086  0.806359  0.193641  1
  Hf  Hf2  1  0.549073  0.387225  0.193604  1
  Hf  Hf3  1  0.441941  0.200872  0.401749  1
  Hf  Hf4  1  0.441923  0.200904  0.799096  1
  Hf  Hf5  1  0.441941  0.598251  0.799128  1
  Hf  Hf6  1  0.058059  0.200872  0.401749  1
  Hf  Hf7  1  0.058077  0.200904  0.799096  1
  Hf  Hf8  1  0.058059  0.598251  0.799128  1
  Hf  Hf9  1  0.950927  0.806396  0.612775  1
  Hf  Hf10  1  0.950914  0.806359  0.193641  1
  Hf  Hf11  1  0.950927  0.387225  0.193604  1
  Hf  Hf12  1  0.750000  0.459528  0.919081  1
  Hf  Hf13  1  0.750000  0.459516  0.540484  1
  Hf  Hf14  1  0.750000  0.080919  0.540471  1
  Hf  Hf15  1  0.250000  0.539868  0.079717  1
  Hf  Hf16  1  0.250000  0.539870  0.460130  1
  Hf  Hf17  1  0.250000  0.920283  0.460131  1
  Zn  Zn18  1  0.750000  0.666635  0.333365  1
  Fe  Fe19  1  0.250000  0.333364  0.666636  1
  Re  Re20  1  0.750000  0.111081  0.222191  1
  Re  Re21  1  0.750000  0.111088  0.888912  1
  Re  Re22  1  0.750000  0.777809  0.888919  1
  Re  Re23  1  0.250000  0.889706  0.779381  1
  Re  Re24  1  0.250000  0.889702  0.110298  1
  Re  Re25  1  0.250000  0.220619  0.110294  1
  Re  Re26  1  0.499933  0.999998  0.000002  1
  Re  Re27  1  0.000067  0.999998  0.000002  1
