# generated using pymatgen
data_AcLaLu2(ZnSn)4
_symmetry_space_group_name_H-M   'P 1'
_cell_length_a   4.55475700
_cell_length_b   4.55475788
_cell_length_c   16.67024400
_cell_angle_alpha   90.00000000
_cell_angle_beta   90.00000000
_cell_angle_gamma   120.00000086
_symmetry_Int_Tables_number   1
_chemical_formula_structural   AcLaLu2(ZnSn)4
_chemical_formula_sum   'Ac1 La1 Lu2 Zn4 Sn4'
_cell_volume   299.50432111
_cell_formula_units_Z   1
loop_
 _symmetry_equiv_pos_site_id
 _symmetry_equiv_pos_as_xyz
  1  'x, y, z'
loop_
 _atom_site_type_symbol
 _atom_site_label
 _atom_site_symmetry_multiplicity
 _atom_site_fract_x
 _atom_site_fract_y
 _atom_site_fract_z
 _atom_site_occupancy
  Ac  Ac0  1  0.000000  0.000000  0.000000  1
  La  La1  1  0.000000  0.000000  0.500000  1
  Lu  Lu2  1  0.000000  0.000000  0.258209  1
  Lu  Lu3  1  0.000000  0.000000  0.741791  1
  Zn  Zn4  1  0.333333  0.666667  0.178357  1
  Zn  Zn5  1  0.666667  0.333333  0.821643  1
  Zn  Zn6  1  0.666667  0.333333  0.658471  1
  Zn  Zn7  1  0.333333  0.666667  0.341529  1
  Sn  Sn8  1  0.333333  0.666667  0.614651  1
  Sn  Sn9  1  0.666667  0.333333  0.385349  1
  Sn  Sn10  1  0.666667  0.333333  0.131482  1
  Sn  Sn11  1  0.333333  0.666667  0.868518  1
