# generated using pymatgen
data_BaGa3CoIr
_symmetry_space_group_name_H-M   'P 1'
_cell_length_a   6.61733422
_cell_length_b   6.61733379
_cell_length_c   5.49630720
_cell_angle_alpha   90.11498592
_cell_angle_beta   89.88501554
_cell_angle_gamma   72.40936971
_symmetry_Int_Tables_number   1
_chemical_formula_structural   BaGa3CoIr
_chemical_formula_sum   'Ba2 Ga6 Co2 Ir2'
_cell_volume   229.42297564
_cell_formula_units_Z   2
loop_
 _symmetry_equiv_pos_site_id
 _symmetry_equiv_pos_as_xyz
  1  'x, y, z'
loop_
 _atom_site_type_symbol
 _atom_site_label
 _atom_site_symmetry_multiplicity
 _atom_site_fract_x
 _atom_site_fract_y
 _atom_site_fract_z
 _atom_site_occupancy
  Ba  Ba0  1  0.350999  0.649001  0.258812  1
  Ba  Ba1  1  0.649001  0.350999  0.741186  1
  Ga  Ga2  1  0.933285  0.066715  0.236585  1
  Ga  Ga3  1  0.519204  0.073924  0.236317  1
  Ga  Ga4  1  0.926077  0.480796  0.236317  1
  Ga  Ga5  1  0.073924  0.519204  0.763681  1
  Ga  Ga6  1  0.480796  0.926077  0.763681  1
  Ga  Ga7  1  0.066715  0.933285  0.763413  1
  Co  Co8  1  0.191797  0.191797  0.000000  1
  Co  Co9  1  0.808203  0.808203  0.000000  1
  Ir  Ir10  1  0.192417  0.192417  0.500000  1
  Ir  Ir11  1  0.807583  0.807583  0.500000  1
