# generated using pymatgen
data_DyLu11(Si3Rh)4
_symmetry_space_group_name_H-M   'P 1'
_cell_length_a   4.18725900
_cell_length_b   10.58290022
_cell_length_c   12.20350900
_cell_angle_alpha   90.06213644
_cell_angle_beta   90.00000000
_cell_angle_gamma   90.00000000
_symmetry_Int_Tables_number   1
_chemical_formula_structural   DyLu11(Si3Rh)4
_chemical_formula_sum   'Dy1 Lu11 Si12 Rh4'
_cell_volume   540.77797683
_cell_formula_units_Z   1
loop_
 _symmetry_equiv_pos_site_id
 _symmetry_equiv_pos_as_xyz
  1  'x, y, z'
loop_
 _atom_site_type_symbol
 _atom_site_label
 _atom_site_symmetry_multiplicity
 _atom_site_fract_x
 _atom_site_fract_y
 _atom_site_fract_z
 _atom_site_occupancy
  Dy  Dy0  1  0.750000  0.159512  0.699095  1
  Lu  Lu1  1  0.250000  0.878405  0.020673  1
  Lu  Lu2  1  0.250000  0.621397  0.520167  1
  Lu  Lu3  1  0.750000  0.120917  0.980623  1
  Lu  Lu4  1  0.750000  0.379857  0.478936  1
  Lu  Lu5  1  0.250000  0.919626  0.603381  1
  Lu  Lu6  1  0.250000  0.579603  0.103881  1
  Lu  Lu7  1  0.750000  0.080096  0.395233  1
  Lu  Lu8  1  0.750000  0.420844  0.896652  1
  Lu  Lu9  1  0.250000  0.660744  0.800105  1
  Lu  Lu10  1  0.250000  0.839171  0.299961  1
  Lu  Lu11  1  0.750000  0.339425  0.199906  1
  Si  Si12  1  0.250000  0.012965  0.823511  1
  Si  Si13  1  0.250000  0.485594  0.322260  1
  Si  Si14  1  0.750000  0.984953  0.177557  1
  Si  Si15  1  0.750000  0.514966  0.677741  1
  Si  Si16  1  0.250000  0.249609  0.842788  1
  Si  Si17  1  0.250000  0.251540  0.340355  1
  Si  Si18  1  0.750000  0.751065  0.158536  1
  Si  Si19  1  0.750000  0.748816  0.658688  1
  Si  Si20  1  0.250000  0.198767  0.540526  1
  Si  Si21  1  0.250000  0.302807  0.043617  1
  Si  Si22  1  0.750000  0.802481  0.456460  1
  Si  Si23  1  0.750000  0.697051  0.957198  1
  Rh  Rh24  1  0.250000  0.393753  0.681328  1
  Rh  Rh25  1  0.250000  0.108763  0.179675  1
  Rh  Rh26  1  0.750000  0.608813  0.319440  1
  Rh  Rh27  1  0.750000  0.888461  0.821710  1
