# generated using pymatgen
data_TbTm7Tc3B24Rh
_symmetry_space_group_name_H-M   'P 1'
_cell_length_a   3.64519700
_cell_length_b   9.09594877
_cell_length_c   11.47499806
_cell_angle_alpha   90.11639795
_cell_angle_beta   90.00000000
_cell_angle_gamma   90.00000000
_symmetry_Int_Tables_number   1
_chemical_formula_structural   TbTm7Tc3B24Rh
_chemical_formula_sum   'Tb1 Tm7 Tc3 B24 Rh1'
_cell_volume   380.47027688
_cell_formula_units_Z   1
loop_
 _symmetry_equiv_pos_site_id
 _symmetry_equiv_pos_as_xyz
  1  'x, y, z'
loop_
 _atom_site_type_symbol
 _atom_site_label
 _atom_site_symmetry_multiplicity
 _atom_site_fract_x
 _atom_site_fract_y
 _atom_site_fract_z
 _atom_site_occupancy
  Tb  Tb0  1  0.500000  0.318603  0.415810  1
  Tm  Tm1  1  0.500000  0.678469  0.591520  1
  Tm  Tm2  1  0.500000  0.177379  0.912876  1
  Tm  Tm3  1  0.500000  0.827085  0.080668  1
  Tm  Tm4  1  0.500000  0.440416  0.128468  1
  Tm  Tm5  1  0.500000  0.557392  0.871380  1
  Tm  Tm6  1  0.500000  0.056124  0.629975  1
  Tm  Tm7  1  0.500000  0.943427  0.369642  1
  Tc  Tc8  1  0.500000  0.137715  0.179602  1
  Tc  Tc9  1  0.500000  0.861676  0.820687  1
  Tc  Tc10  1  0.500000  0.362687  0.678828  1
  B  B11  1  0.000000  0.099560  0.471938  1
  B  B12  1  0.000000  0.896058  0.527998  1
  B  B13  1  0.000000  0.397713  0.972067  1
  B  B14  1  0.000000  0.603585  0.029039  1
  B  B15  1  0.000000  0.129555  0.314816  1
  B  B16  1  0.000000  0.868839  0.684946  1
  B  B17  1  0.000000  0.369860  0.815262  1
  B  B18  1  0.000000  0.631489  0.183111  1
  B  B19  1  0.000000  0.053156  0.065854  1
  B  B20  1  0.000000  0.947344  0.932883  1
  B  B21  1  0.000000  0.447065  0.567172  1
  B  B22  1  0.000000  0.554718  0.434084  1
  B  B23  1  0.000000  0.483041  0.287240  1
  B  B24  1  0.000000  0.519214  0.712775  1
  B  B25  1  0.000000  0.018362  0.787416  1
  B  B26  1  0.000000  0.981444  0.211449  1
  B  B27  1  0.000000  0.249373  0.080430  1
  B  B28  1  0.000000  0.751436  0.919264  1
  B  B29  1  0.000000  0.249807  0.581893  1
  B  B30  1  0.000000  0.749594  0.420593  1
  B  B31  1  0.000000  0.291492  0.234781  1
  B  B32  1  0.000000  0.708006  0.765508  1
  B  B33  1  0.000000  0.208128  0.735366  1
  B  B34  1  0.000000  0.791538  0.264184  1
  Rh  Rh35  1  0.500000  0.638647  0.320475  1
