# generated using pymatgen
data_K3Ba3GaBiSb3
_symmetry_space_group_name_H-M   'P 1'
_cell_length_a   11.11010200
_cell_length_b   11.11010151
_cell_length_c   8.49424400
_cell_angle_alpha   90.00000000
_cell_angle_beta   90.00000000
_cell_angle_gamma   120.00000147
_symmetry_Int_Tables_number   1
_chemical_formula_structural   K3Ba3GaBiSb3
_chemical_formula_sum   'K6 Ba6 Ga2 Bi2 Sb6'
_cell_volume   908.01167020
_cell_formula_units_Z   2
loop_
 _symmetry_equiv_pos_site_id
 _symmetry_equiv_pos_as_xyz
  1  'x, y, z'
loop_
 _atom_site_type_symbol
 _atom_site_label
 _atom_site_symmetry_multiplicity
 _atom_site_fract_x
 _atom_site_fract_y
 _atom_site_fract_z
 _atom_site_occupancy
  K  K0  1  0.861392  0.722784  0.960588  1
  K  K1  1  0.861392  0.138608  0.960588  1
  K  K2  1  0.138608  0.277216  0.460588  1
  K  K3  1  0.277216  0.138608  0.960588  1
  K  K4  1  0.138608  0.861392  0.460588  1
  K  K5  1  0.722784  0.861392  0.460588  1
  Ba  Ba6  1  0.481028  0.962054  0.777930  1
  Ba  Ba7  1  0.481028  0.518972  0.777930  1
  Ba  Ba8  1  0.518972  0.037946  0.277930  1
  Ba  Ba9  1  0.037946  0.518972  0.777930  1
  Ba  Ba10  1  0.518972  0.481028  0.277930  1
  Ba  Ba11  1  0.962054  0.481028  0.277930  1
  Ga  Ga12  1  0.666667  0.333333  0.648619  1
  Ga  Ga13  1  0.333333  0.666667  0.148619  1
  Bi  Bi14  1  0.666667  0.333333  0.996031  1
  Bi  Bi15  1  0.333333  0.666667  0.496031  1
  Sb  Sb16  1  0.803057  0.606114  0.555399  1
  Sb  Sb17  1  0.803057  0.196943  0.555399  1
  Sb  Sb18  1  0.196943  0.393886  0.055399  1
  Sb  Sb19  1  0.393886  0.196943  0.555399  1
  Sb  Sb20  1  0.196943  0.803057  0.055399  1
  Sb  Sb21  1  0.606114  0.803057  0.055399  1
