# generated using pymatgen
data_Ho3CrCo3Ni5P6
_symmetry_space_group_name_H-M   'P 1'
_cell_length_a   3.72538800
_cell_length_b   10.52274600
_cell_length_c   12.24929100
_cell_angle_alpha   90.00000000
_cell_angle_beta   90.00000000
_cell_angle_gamma   90.00000000
_symmetry_Int_Tables_number   1
_chemical_formula_structural   Ho3CrCo3Ni5P6
_chemical_formula_sum   'Ho6 Cr2 Co6 Ni10 P12'
_cell_volume   480.18827429
_cell_formula_units_Z   2
loop_
 _symmetry_equiv_pos_site_id
 _symmetry_equiv_pos_as_xyz
  1  'x, y, z'
loop_
 _atom_site_type_symbol
 _atom_site_label
 _atom_site_symmetry_multiplicity
 _atom_site_fract_x
 _atom_site_fract_y
 _atom_site_fract_z
 _atom_site_occupancy
  Ho  Ho0  1  0.000000  0.500000  0.521825  1
  Ho  Ho1  1  0.500000  0.000000  0.478175  1
  Ho  Ho2  1  0.500000  0.817241  0.205077  1
  Ho  Ho3  1  0.500000  0.182759  0.205077  1
  Ho  Ho4  1  0.000000  0.682759  0.794923  1
  Ho  Ho5  1  0.000000  0.317241  0.794923  1
  Cr  Cr6  1  0.500000  0.500000  0.152354  1
  Cr  Cr7  1  0.000000  0.000000  0.847646  1
  Co  Co8  1  0.000000  0.500000  0.984800  1
  Co  Co9  1  0.500000  0.000000  0.015200  1
  Co  Co10  1  0.500000  0.333325  0.992271  1
  Co  Co11  1  0.500000  0.666675  0.992271  1
  Co  Co12  1  0.000000  0.166675  0.007729  1
  Co  Co13  1  0.000000  0.833325  0.007729  1
  Ni  Ni14  1  0.500000  0.301620  0.428182  1
  Ni  Ni15  1  0.500000  0.698380  0.428182  1
  Ni  Ni16  1  0.000000  0.198380  0.571818  1
  Ni  Ni17  1  0.000000  0.801620  0.571818  1
  Ni  Ni18  1  0.500000  0.879700  0.713365  1
  Ni  Ni19  1  0.500000  0.120300  0.713365  1
  Ni  Ni20  1  0.000000  0.620300  0.286635  1
  Ni  Ni21  1  0.000000  0.379700  0.286635  1
  Ni  Ni22  1  0.500000  0.500000  0.702573  1
  Ni  Ni23  1  0.000000  0.000000  0.297427  1
  P  P24  1  0.500000  0.314224  0.615123  1
  P  P25  1  0.500000  0.685776  0.615123  1
  P  P26  1  0.000000  0.185776  0.384877  1
  P  P27  1  0.000000  0.814224  0.384877  1
  P  P28  1  0.500000  0.500000  0.881255  1
  P  P29  1  0.000000  0.000000  0.118745  1
  P  P30  1  0.500000  0.846270  0.896035  1
  P  P31  1  0.500000  0.153730  0.896035  1
  P  P32  1  0.000000  0.653730  0.103965  1
  P  P33  1  0.000000  0.346270  0.103965  1
  P  P34  1  0.500000  0.500000  0.345098  1
  P  P35  1  0.000000  0.000000  0.654902  1
