# generated using pymatgen
data_Dy4Rh2Pb5
_symmetry_space_group_name_H-M   'P 1'
_cell_length_a   8.02717818
_cell_length_b   3.68708300
_cell_length_c   9.79642790
_cell_angle_alpha   90.00000000
_cell_angle_beta   93.93610879
_cell_angle_gamma   90.00000000
_symmetry_Int_Tables_number   1
_chemical_formula_structural   Dy4Rh2Pb5
_chemical_formula_sum   'Dy4 Rh2 Pb5'
_cell_volume   289.25971020
_cell_formula_units_Z   1
loop_
 _symmetry_equiv_pos_site_id
 _symmetry_equiv_pos_as_xyz
  1  'x, y, z'
loop_
 _atom_site_type_symbol
 _atom_site_label
 _atom_site_symmetry_multiplicity
 _atom_site_fract_x
 _atom_site_fract_y
 _atom_site_fract_z
 _atom_site_occupancy
  Dy  Dy0  1  0.303668  0.500000  0.162026  1
  Dy  Dy1  1  0.700985  0.500000  0.432541  1
  Dy  Dy2  1  0.299016  0.500000  0.567460  1
  Dy  Dy3  1  0.696331  0.500000  0.837974  1
  Rh  Rh4  1  0.418626  0.000000  0.364171  1
  Rh  Rh5  1  0.581374  0.000000  0.635829  1
  Pb  Pb6  1  0.000000  0.000000  0.000000  1
  Pb  Pb7  1  0.643244  0.000000  0.135004  1
  Pb  Pb8  1  0.041271  0.000000  0.337432  1
  Pb  Pb9  1  0.958730  0.000000  0.662568  1
  Pb  Pb10  1  0.356756  0.000000  0.864996  1
