# generated using pymatgen
data_Dy10(IrRh)3
_symmetry_space_group_name_H-M   'P 1'
_cell_length_a   10.87938220
_cell_length_b   10.88037300
_cell_length_c   6.38228011
_cell_angle_alpha   90.00000000
_cell_angle_beta   89.97822690
_cell_angle_gamma   90.00000000
_symmetry_Int_Tables_number   1
_chemical_formula_structural   Dy10(IrRh)3
_chemical_formula_sum   'Dy20 Ir6 Rh6'
_cell_volume   755.48152428
_cell_formula_units_Z   2
loop_
 _symmetry_equiv_pos_site_id
 _symmetry_equiv_pos_as_xyz
  1  'x, y, z'
loop_
 _atom_site_type_symbol
 _atom_site_label
 _atom_site_symmetry_multiplicity
 _atom_site_fract_x
 _atom_site_fract_y
 _atom_site_fract_z
 _atom_site_occupancy
  Dy  Dy0  1  0.290317  0.089090  0.379280  1
  Dy  Dy1  1  0.290317  0.910910  0.879280  1
  Dy  Dy2  1  0.708383  0.090040  0.878810  1
  Dy  Dy3  1  0.708383  0.909960  0.378810  1
  Dy  Dy4  1  0.587847  0.790188  0.879624  1
  Dy  Dy5  1  0.587847  0.209812  0.379624  1
  Dy  Dy6  1  0.410650  0.790555  0.379385  1
  Dy  Dy7  1  0.410650  0.209445  0.879385  1
  Dy  Dy8  1  0.209607  0.410716  0.620438  1
  Dy  Dy9  1  0.209607  0.589284  0.120438  1
  Dy  Dy10  1  0.790284  0.412153  0.120623  1
  Dy  Dy11  1  0.790284  0.587847  0.620623  1
  Dy  Dy12  1  0.911300  0.709035  0.121326  1
  Dy  Dy13  1  0.911300  0.290965  0.621326  1
  Dy  Dy14  1  0.090438  0.709012  0.620541  1
  Dy  Dy15  1  0.090438  0.290988  0.120541  1
  Dy  Dy16  1  0.000309  0.999861  0.500027  1
  Dy  Dy17  1  0.000309  0.000139  0.000027  1
  Dy  Dy18  1  0.500099  0.499774  0.999974  1
  Dy  Dy19  1  0.500099  0.500226  0.499974  1
  Ir  Ir20  1  0.153354  0.153923  0.750057  1
  Ir  Ir21  1  0.153354  0.846077  0.250057  1
  Ir  Ir22  1  0.654654  0.345622  0.749875  1
  Ir  Ir23  1  0.654654  0.654378  0.249875  1
  Ir  Ir24  1  0.346165  0.345935  0.250179  1
  Ir  Ir25  1  0.346165  0.654065  0.750179  1
  Rh  Rh26  1  0.846088  0.153337  0.249877  1
  Rh  Rh27  1  0.846088  0.846663  0.749877  1
  Rh  Rh28  1  0.500988  0.000015  0.124255  1
  Rh  Rh29  1  0.500988  0.999985  0.624255  1
  Rh  Rh30  1  0.999517  0.500152  0.875731  1
  Rh  Rh31  1  0.999517  0.499848  0.375731  1
