# generated using pymatgen
data_Tb9HoSi5P
_symmetry_space_group_name_H-M   'P 1'
_cell_length_a   8.45772701
_cell_length_b   8.46262113
_cell_length_c   6.34853806
_cell_angle_alpha   89.98471468
_cell_angle_beta   90.00497031
_cell_angle_gamma   119.98062834
_symmetry_Int_Tables_number   1
_chemical_formula_structural   Tb9HoSi5P
_chemical_formula_sum   'Tb9 Ho1 Si5 P1'
_cell_volume   393.59325380
_cell_formula_units_Z   1
loop_
 _symmetry_equiv_pos_site_id
 _symmetry_equiv_pos_as_xyz
  1  'x, y, z'
loop_
 _atom_site_type_symbol
 _atom_site_label
 _atom_site_symmetry_multiplicity
 _atom_site_fract_x
 _atom_site_fract_y
 _atom_site_fract_z
 _atom_site_occupancy
  Tb  Tb0  1  0.000895  0.756163  0.749726  1
  Tb  Tb1  1  0.001167  0.245076  0.250237  1
  Tb  Tb2  1  0.755892  0.755071  0.250247  1
  Tb  Tb3  1  0.754140  0.999878  0.749779  1
  Tb  Tb4  1  0.244639  0.243991  0.749791  1
  Tb  Tb5  1  0.244421  0.999862  0.250197  1
  Tb  Tb6  1  0.666341  0.332544  0.999571  1
  Tb  Tb7  1  0.666236  0.332419  0.500515  1
  Tb  Tb8  1  0.333795  0.667481  0.999768  1
  Ho  Ho9  1  0.333828  0.667350  0.500033  1
  Si  Si10  1  0.393847  0.394087  0.250768  1
  Si  Si11  1  0.001216  0.606691  0.250834  1
  Si  Si12  1  0.000920  0.393711  0.749218  1
  Si  Si13  1  0.606518  0.607156  0.749242  1
  Si  Si14  1  0.606974  0.999233  0.250764  1
  P  P15  1  0.389169  0.999288  0.749311  1
