# generated using pymatgen
data_TbLu8Cd5Ni4
_symmetry_space_group_name_H-M   'P 1'
_cell_length_a   10.56319800
_cell_length_b   10.57025400
_cell_length_c   3.56652000
_cell_angle_alpha   90.00000000
_cell_angle_beta   90.00000000
_cell_angle_gamma   90.00000000
_symmetry_Int_Tables_number   1
_chemical_formula_structural   TbLu8Cd5Ni4
_chemical_formula_sum   'Tb1 Lu8 Cd5 Ni4'
_cell_volume   398.22223692
_cell_formula_units_Z   1
loop_
 _symmetry_equiv_pos_site_id
 _symmetry_equiv_pos_as_xyz
  1  'x, y, z'
loop_
 _atom_site_type_symbol
 _atom_site_label
 _atom_site_symmetry_multiplicity
 _atom_site_fract_x
 _atom_site_fract_y
 _atom_site_fract_z
 _atom_site_occupancy
  Tb  Tb0  1  0.715502  0.000000  0.500000  1
  Lu  Lu1  1  0.324269  0.325742  0.500000  1
  Lu  Lu2  1  0.674215  0.672930  0.500000  1
  Lu  Lu3  1  0.324269  0.674258  0.500000  1
  Lu  Lu4  1  0.674215  0.327070  0.500000  1
  Lu  Lu5  1  0.000577  0.283313  0.500000  1
  Lu  Lu6  1  0.000577  0.716687  0.500000  1
  Lu  Lu7  1  0.284858  0.000000  0.500000  1
  Lu  Lu8  1  0.002325  0.000000  0.000000  1
  Cd  Cd9  1  0.497419  0.148140  0.000000  1
  Cd  Cd10  1  0.497419  0.851860  0.000000  1
  Cd  Cd11  1  0.145252  0.500000  0.000000  1
  Cd  Cd12  1  0.854956  0.500000  0.000000  1
  Cd  Cd13  1  0.498708  0.500000  0.000000  1
  Ni  Ni14  1  0.188402  0.187816  0.000000  1
  Ni  Ni15  1  0.814317  0.806650  0.000000  1
  Ni  Ni16  1  0.188402  0.812184  0.000000  1
  Ni  Ni17  1  0.814317  0.193350  0.000000  1
