# generated using pymatgen
data_Cs6TbInBr12
_symmetry_space_group_name_H-M   'P 1'
_cell_length_a   9.99156189
_cell_length_b   9.96381275
_cell_length_c   8.26801700
_cell_angle_alpha   90.00000000
_cell_angle_beta   90.00000000
_cell_angle_gamma   90.23411712
_symmetry_Int_Tables_number   1
_chemical_formula_structural   Cs6TbInBr12
_chemical_formula_sum   'Cs6 Tb1 In1 Br12'
_cell_volume   823.10772146
_cell_formula_units_Z   1
loop_
 _symmetry_equiv_pos_site_id
 _symmetry_equiv_pos_as_xyz
  1  'x, y, z'
loop_
 _atom_site_type_symbol
 _atom_site_label
 _atom_site_symmetry_multiplicity
 _atom_site_fract_x
 _atom_site_fract_y
 _atom_site_fract_z
 _atom_site_occupancy
  Cs  Cs0  1  0.000000  0.000000  0.500000  1
  Cs  Cs1  1  0.000000  0.000000  0.000000  1
  Cs  Cs2  1  0.235899  0.585226  0.500000  1
  Cs  Cs3  1  0.764101  0.414774  0.500000  1
  Cs  Cs4  1  0.416019  0.233902  0.000000  1
  Cs  Cs5  1  0.583981  0.766098  0.000000  1
  Tb  Tb6  1  0.000000  0.500000  0.000000  1
  In  In7  1  0.500000  0.000000  0.500000  1
  Br  Br8  1  0.687143  0.057749  0.735469  1
  Br  Br9  1  0.312857  0.942251  0.735469  1
  Br  Br10  1  0.941654  0.693344  0.242254  1
  Br  Br11  1  0.058346  0.306656  0.242254  1
  Br  Br12  1  0.312857  0.942251  0.264531  1
  Br  Br13  1  0.687143  0.057749  0.264531  1
  Br  Br14  1  0.058346  0.306656  0.757746  1
  Br  Br15  1  0.941654  0.693344  0.757746  1
  Br  Br16  1  0.569412  0.736688  0.500000  1
  Br  Br17  1  0.430588  0.263312  0.500000  1
  Br  Br18  1  0.272633  0.572155  0.000000  1
  Br  Br19  1  0.727367  0.427845  0.000000  1
