# generated using pymatgen
data_Dy5P12Ir6Ru8Rh5
_symmetry_space_group_name_H-M   'P 1'
_cell_length_a   12.63387800
_cell_length_b   12.60632834
_cell_length_c   3.95890900
_cell_angle_alpha   90.00000000
_cell_angle_beta   90.00000000
_cell_angle_gamma   120.03581045
_symmetry_Int_Tables_number   1
_chemical_formula_structural   Dy5P12Ir6Ru8Rh5
_chemical_formula_sum   'Dy5 P12 Ir6 Ru8 Rh5'
_cell_volume   545.85163549
_cell_formula_units_Z   1
loop_
 _symmetry_equiv_pos_site_id
 _symmetry_equiv_pos_as_xyz
  1  'x, y, z'
loop_
 _atom_site_type_symbol
 _atom_site_label
 _atom_site_symmetry_multiplicity
 _atom_site_fract_x
 _atom_site_fract_y
 _atom_site_fract_z
 _atom_site_occupancy
  Dy  Dy0  1  0.666872  0.331514  0.000000  1
  Dy  Dy1  1  0.334417  0.668797  0.000000  1
  Dy  Dy2  1  0.812449  0.000740  0.500000  1
  Dy  Dy3  1  0.184607  0.186349  0.500000  1
  Dy  Dy4  1  0.999287  0.813453  0.500000  1
  P  P5  1  0.633806  0.999002  0.000000  1
  P  P6  1  0.364415  0.364598  0.000000  1
  P  P7  1  0.000315  0.635160  0.000000  1
  P  P8  1  0.687535  0.517931  0.500000  1
  P  P9  1  0.830680  0.308612  0.500000  1
  P  P10  1  0.317661  0.835185  0.500000  1
  P  P11  1  0.519359  0.689865  0.500000  1
  P  P12  1  0.179199  0.000003  0.000000  1
  P  P13  1  0.819426  0.819149  0.000000  1
  P  P14  1  0.996632  0.181186  0.000000  1
  P  P15  1  0.479775  0.166511  0.500000  1
  P  P16  1  0.168546  0.481815  0.500000  1
  Ir  Ir17  1  0.624186  0.803464  0.000000  1
  Ir  Ir18  1  0.182966  0.377667  0.000000  1
  Ir  Ir19  1  0.375788  0.181293  0.000000  1
  Ir  Ir20  1  0.193707  0.818857  0.000000  1
  Ir  Ir21  1  0.805008  0.622214  0.000000  1
  Ir  Ir22  1  0.999188  0.000610  0.000000  1
  Ru  Ru23  1  0.511717  0.871197  0.500000  1
  Ru  Ru24  1  0.713467  0.712107  0.500000  1
  Ru  Ru25  1  0.001618  0.287576  0.500000  1
  Ru  Ru26  1  0.449665  0.999414  0.000000  1
  Ru  Ru27  1  0.549466  0.546501  0.000000  1
  Ru  Ru28  1  0.003137  0.453460  0.000000  1
  Ru  Ru29  1  0.818036  0.196869  0.000000  1
  Ru  Ru30  1  0.284915  0.999743  0.500000  1
  Rh  Rh31  1  0.871057  0.508280  0.500000  1
  Rh  Rh32  1  0.490595  0.359968  0.500000  1
  Rh  Rh33  1  0.636703  0.128424  0.500000  1
  Rh  Rh34  1  0.131545  0.641091  0.500000  1
  Rh  Rh35  1  0.362256  0.491392  0.500000  1
