# generated using pymatgen
data_TbCuSiIr2
_symmetry_space_group_name_H-M   'P 1'
_cell_length_a   4.03308600
_cell_length_b   4.03308600
_cell_length_c   10.42543700
_cell_angle_alpha   90.00000000
_cell_angle_beta   90.00000000
_cell_angle_gamma   90.00000000
_symmetry_Int_Tables_number   1
_chemical_formula_structural   TbCuSiIr2
_chemical_formula_sum   'Tb2 Cu2 Si2 Ir4'
_cell_volume   169.57789262
_cell_formula_units_Z   2
loop_
 _symmetry_equiv_pos_site_id
 _symmetry_equiv_pos_as_xyz
  1  'x, y, z'
loop_
 _atom_site_type_symbol
 _atom_site_label
 _atom_site_symmetry_multiplicity
 _atom_site_fract_x
 _atom_site_fract_y
 _atom_site_fract_z
 _atom_site_occupancy
  Tb  Tb0  1  0.000000  0.500000  0.259637  1
  Tb  Tb1  1  0.500000  0.000000  0.740363  1
  Cu  Cu2  1  0.000000  0.000000  0.500000  1
  Cu  Cu3  1  0.500000  0.500000  0.500000  1
  Si  Si4  1  0.000000  0.500000  0.875363  1
  Si  Si5  1  0.500000  0.000000  0.124637  1
  Ir  Ir6  1  0.000000  0.000000  0.000000  1
  Ir  Ir7  1  0.500000  0.500000  0.000000  1
  Ir  Ir8  1  0.000000  0.500000  0.655123  1
  Ir  Ir9  1  0.500000  0.000000  0.344877  1
