# generated using pymatgen
data_CrCo6MoW5
_symmetry_space_group_name_H-M   'P 1'
_cell_length_a   9.00208182
_cell_length_b   9.00208154
_cell_length_c   9.00208262
_cell_angle_alpha   30.65410331
_cell_angle_beta   30.65410526
_cell_angle_gamma   30.65411209
_symmetry_Int_Tables_number   1
_chemical_formula_structural   CrCo6MoW5
_chemical_formula_sum   'Cr1 Co6 Mo1 W5'
_cell_volume   168.14069637
_cell_formula_units_Z   1
loop_
 _symmetry_equiv_pos_site_id
 _symmetry_equiv_pos_as_xyz
  1  'x, y, z'
loop_
 _atom_site_type_symbol
 _atom_site_label
 _atom_site_symmetry_multiplicity
 _atom_site_fract_x
 _atom_site_fract_y
 _atom_site_fract_z
 _atom_site_occupancy
  Cr  Cr0  1  0.000089  0.000089  0.000089  1
  Co  Co1  1  0.091340  0.091340  0.587754  1
  Co  Co2  1  0.412189  0.908769  0.908769  1
  Co  Co3  1  0.587754  0.091340  0.091340  1
  Co  Co4  1  0.908769  0.908769  0.412189  1
  Co  Co5  1  0.908769  0.412189  0.908769  1
  Co  Co6  1  0.091340  0.587754  0.091340  1
  Mo  Mo7  1  0.346456  0.346456  0.346456  1
  W  W8  1  0.835476  0.835476  0.835476  1
  W  W9  1  0.653666  0.653666  0.653666  1
  W  W10  1  0.449758  0.449758  0.449758  1
  W  W11  1  0.549992  0.549992  0.549992  1
  W  W12  1  0.164401  0.164401  0.164401  1
