# generated using pymatgen
data_Sc5Sn6SbRu12
_symmetry_space_group_name_H-M   'P 1'
_cell_length_a   4.54809508
_cell_length_b   6.43409612
_cell_length_c   13.64134800
_cell_angle_alpha   90.00040654
_cell_angle_beta   89.99876945
_cell_angle_gamma   90.02172491
_symmetry_Int_Tables_number   1
_chemical_formula_structural   Sc5Sn6SbRu12
_chemical_formula_sum   'Sc5 Sn6 Sb1 Ru12'
_cell_volume   399.18511308
_cell_formula_units_Z   1
loop_
 _symmetry_equiv_pos_site_id
 _symmetry_equiv_pos_as_xyz
  1  'x, y, z'
loop_
 _atom_site_type_symbol
 _atom_site_label
 _atom_site_symmetry_multiplicity
 _atom_site_fract_x
 _atom_site_fract_y
 _atom_site_fract_z
 _atom_site_occupancy
  Sc  Sc0  1  0.499972  0.999996  0.165566  1
  Sc  Sc1  1  0.999946  0.500004  0.335710  1
  Sc  Sc2  1  0.500000  0.000000  0.500000  1
  Sc  Sc3  1  0.000054  0.499998  0.664290  1
  Sc  Sc4  1  0.500028  0.000004  0.834434  1
  Sn  Sn5  1  0.000000  0.000000  0.000000  1
  Sn  Sn6  1  0.499995  0.499996  0.177154  1
  Sn  Sn7  1  0.999953  0.000002  0.331998  1
  Sn  Sn8  1  0.500000  0.500001  0.500000  1
  Sn  Sn9  1  0.000047  0.999998  0.668002  1
  Sn  Sn10  1  0.500006  0.500006  0.822846  1
  Sb  Sb11  1  0.000000  0.500001  0.000000  1
  Ru  Ru12  1  0.499712  0.264933  0.000000  1
  Ru  Ru13  1  0.500288  0.735068  0.000000  1
  Ru  Ru14  1  0.000162  0.256911  0.160690  1
  Ru  Ru15  1  0.999735  0.743088  0.160690  1
  Ru  Ru16  1  0.499898  0.246693  0.333339  1
  Ru  Ru17  1  0.500017  0.753311  0.333340  1
  Ru  Ru18  1  0.999714  0.251169  0.500000  1
  Ru  Ru19  1  0.000286  0.748832  0.500000  1
  Ru  Ru20  1  0.499984  0.246689  0.666660  1
  Ru  Ru21  1  0.500103  0.753307  0.666661  1
  Ru  Ru22  1  0.000265  0.256911  0.839310  1
  Ru  Ru23  1  0.999838  0.743088  0.839310  1
