# generated using pymatgen
data_Na2MnH2F8
_symmetry_space_group_name_H-M   'P 1'
_cell_length_a   5.41378253
_cell_length_b   5.55611687
_cell_length_c   5.55614139
_cell_angle_alpha   95.67647607
_cell_angle_beta   105.66733779
_cell_angle_gamma   105.66674615
_symmetry_Int_Tables_number   1
_chemical_formula_structural   Na2MnH2F8
_chemical_formula_sum   'Na2 Mn1 H2 F8'
_cell_volume   152.25403402
_cell_formula_units_Z   1
loop_
 _symmetry_equiv_pos_site_id
 _symmetry_equiv_pos_as_xyz
  1  'x, y, z'
loop_
 _atom_site_type_symbol
 _atom_site_label
 _atom_site_symmetry_multiplicity
 _atom_site_fract_x
 _atom_site_fract_y
 _atom_site_fract_z
 _atom_site_occupancy
  Na  Na0  1  0.499999  0.729534  0.270463  1
  Na  Na1  1  0.499999  0.270464  0.729535  1
  Mn  Mn2  1  0.000000  0.000000  0.000000  1
  H  H3  1  0.782414  0.343198  0.343200  1
  H  H4  1  0.217586  0.656803  0.656801  1
  F  F5  1  0.777057  0.684892  0.002009  1
  F  F6  1  0.785029  0.142437  0.142452  1
  F  F7  1  0.222973  0.998005  0.315093  1
  F  F8  1  0.731272  0.454910  0.454909  1
  F  F9  1  0.268728  0.545090  0.545091  1
  F  F10  1  0.777027  0.001996  0.684908  1
  F  F11  1  0.214971  0.857562  0.857547  1
  F  F12  1  0.222943  0.315109  0.997992  1
