# generated using pymatgen
data_Gd4Cd(NiHg)2
_symmetry_space_group_name_H-M   'P 1'
_cell_length_a   3.66914900
_cell_length_b   7.37261656
_cell_length_c   8.02993200
_cell_angle_alpha   72.78292386
_cell_angle_beta   90.00000000
_cell_angle_gamma   90.00000000
_symmetry_Int_Tables_number   1
_chemical_formula_structural   Gd4Cd(NiHg)2
_chemical_formula_sum   'Gd4 Cd1 Ni2 Hg2'
_cell_volume   207.48596070
_cell_formula_units_Z   1
loop_
 _symmetry_equiv_pos_site_id
 _symmetry_equiv_pos_as_xyz
  1  'x, y, z'
loop_
 _atom_site_type_symbol
 _atom_site_label
 _atom_site_symmetry_multiplicity
 _atom_site_fract_x
 _atom_site_fract_y
 _atom_site_fract_z
 _atom_site_occupancy
  Gd  Gd0  1  0.500000  0.609941  0.190522  1
  Gd  Gd1  1  0.500000  0.913965  0.718377  1
  Gd  Gd2  1  0.500000  0.080225  0.279155  1
  Gd  Gd3  1  0.500000  0.392498  0.811852  1
  Cd  Cd4  1  0.000000  0.298024  0.489788  1
  Ni  Ni5  1  0.000000  0.347210  0.113783  1
  Ni  Ni6  1  0.000000  0.652882  0.892400  1
  Hg  Hg7  1  0.000000  0.701705  0.509000  1
  Hg  Hg8  1  0.000000  0.003551  0.995121  1
