# generated using pymatgen
data_Nd20(Ru3Pt)3
_symmetry_space_group_name_H-M   'P 1'
_cell_length_a   11.23225903
_cell_length_b   11.23225870
_cell_length_c   6.61284439
_cell_angle_alpha   90.05908293
_cell_angle_beta   90.05908718
_cell_angle_gamma   90.05511072
_symmetry_Int_Tables_number   1
_chemical_formula_structural   Nd20(Ru3Pt)3
_chemical_formula_sum   'Nd20 Ru9 Pt3'
_cell_volume   834.29924050
_cell_formula_units_Z   1
loop_
 _symmetry_equiv_pos_site_id
 _symmetry_equiv_pos_as_xyz
  1  'x, y, z'
loop_
 _atom_site_type_symbol
 _atom_site_label
 _atom_site_symmetry_multiplicity
 _atom_site_fract_x
 _atom_site_fract_y
 _atom_site_fract_z
 _atom_site_occupancy
  Nd  Nd0  1  0.296143  0.085949  0.373887  1
  Nd  Nd1  1  0.294567  0.908485  0.881062  1
  Nd  Nd2  1  0.703848  0.089305  0.876516  1
  Nd  Nd3  1  0.701389  0.909519  0.375311  1
  Nd  Nd4  1  0.584358  0.791341  0.880371  1
  Nd  Nd5  1  0.585378  0.209142  0.380987  1
  Nd  Nd6  1  0.410616  0.790829  0.382238  1
  Nd  Nd7  1  0.414900  0.209408  0.880782  1
  Nd  Nd8  1  0.208659  0.415642  0.619629  1
  Nd  Nd9  1  0.209171  0.589384  0.117762  1
  Nd  Nd10  1  0.790858  0.414622  0.119013  1
  Nd  Nd11  1  0.790592  0.585100  0.619218  1
  Nd  Nd12  1  0.914051  0.703857  0.126113  1
  Nd  Nd13  1  0.910695  0.296152  0.623484  1
  Nd  Nd14  1  0.091515  0.705433  0.618938  1
  Nd  Nd15  1  0.090481  0.298611  0.124689  1
  Nd  Nd16  1  0.001677  0.996067  0.499414  1
  Nd  Nd17  1  0.003933  0.998323  0.000586  1
  Nd  Nd18  1  0.500137  0.500464  0.000896  1
  Nd  Nd19  1  0.499536  0.499863  0.499104  1
  Ru  Ru20  1  0.147602  0.852398  0.250000  1
  Ru  Ru21  1  0.653121  0.346879  0.750000  1
  Ru  Ru22  1  0.653712  0.653725  0.249686  1
  Ru  Ru23  1  0.346275  0.346288  0.250314  1
  Ru  Ru24  1  0.348293  0.651707  0.750000  1
  Ru  Ru25  1  0.500139  0.000282  0.117368  1
  Ru  Ru26  1  0.500642  0.999775  0.619089  1
  Ru  Ru27  1  0.000225  0.499358  0.880911  1
  Ru  Ru28  1  0.999718  0.499861  0.382632  1
  Pt  Pt29  1  0.847914  0.152086  0.250000  1
  Pt  Pt30  1  0.845514  0.845661  0.750844  1
  Pt  Pt31  1  0.154339  0.154486  0.749156  1
