# generated using pymatgen
data_V3GaIrN
_symmetry_space_group_name_H-M   'P 1'
_cell_length_a   6.62766900
_cell_length_b   6.62766900
_cell_length_c   6.62766900
_cell_angle_alpha   90.00000000
_cell_angle_beta   90.00000000
_cell_angle_gamma   90.00000000
_symmetry_Int_Tables_number   1
_chemical_formula_structural   V3GaIrN
_chemical_formula_sum   'V12 Ga4 Ir4 N4'
_cell_volume   291.12696446
_cell_formula_units_Z   4
loop_
 _symmetry_equiv_pos_site_id
 _symmetry_equiv_pos_as_xyz
  1  'x, y, z'
loop_
 _atom_site_type_symbol
 _atom_site_label
 _atom_site_symmetry_multiplicity
 _atom_site_fract_x
 _atom_site_fract_y
 _atom_site_fract_z
 _atom_site_occupancy
  V  V0  1  0.795229  0.958639  0.377880  1
  V  V1  1  0.704771  0.041361  0.877880  1
  V  V2  1  0.204771  0.458639  0.122120  1
  V  V3  1  0.295229  0.541361  0.622120  1
  V  V4  1  0.958639  0.377880  0.795229  1
  V  V5  1  0.041361  0.877880  0.704771  1
  V  V6  1  0.458639  0.122120  0.204771  1
  V  V7  1  0.541361  0.622120  0.295229  1
  V  V8  1  0.377880  0.795229  0.958639  1
  V  V9  1  0.877880  0.704771  0.041361  1
  V  V10  1  0.122120  0.204771  0.458639  1
  V  V11  1  0.622120  0.295229  0.541361  1
  Ga  Ga12  1  0.564428  0.435572  0.935572  1
  Ga  Ga13  1  0.435572  0.935572  0.564428  1
  Ga  Ga14  1  0.935572  0.564428  0.435572  1
  Ga  Ga15  1  0.064428  0.064428  0.064428  1
  Ir  Ir16  1  0.179545  0.820455  0.320455  1
  Ir  Ir17  1  0.320455  0.179545  0.820455  1
  Ir  Ir18  1  0.820455  0.320455  0.179545  1
  Ir  Ir19  1  0.679545  0.679545  0.679545  1
  N  N20  1  0.872241  0.127759  0.627759  1
  N  N21  1  0.627759  0.872241  0.127759  1
  N  N22  1  0.127759  0.627759  0.872241  1
  N  N23  1  0.372241  0.372241  0.372241  1
