# generated using pymatgen
data_Zr10Co8Si19P
_symmetry_space_group_name_H-M   'P 1'
_cell_length_a   11.98561801
_cell_length_b   11.98555300
_cell_length_c   3.93778700
_cell_angle_alpha   90.00000000
_cell_angle_beta   90.00000000
_cell_angle_gamma   90.15046813
_symmetry_Int_Tables_number   1
_chemical_formula_structural   Zr10Co8Si19P
_chemical_formula_sum   'Zr10 Co8 Si19 P1'
_cell_volume   565.67792634
_cell_formula_units_Z   1
loop_
 _symmetry_equiv_pos_site_id
 _symmetry_equiv_pos_as_xyz
  1  'x, y, z'
loop_
 _atom_site_type_symbol
 _atom_site_label
 _atom_site_symmetry_multiplicity
 _atom_site_fract_x
 _atom_site_fract_y
 _atom_site_fract_z
 _atom_site_occupancy
  Zr  Zr0  1  0.999871  0.000199  0.000000  1
  Zr  Zr1  1  0.500193  0.499873  0.000000  1
  Zr  Zr2  1  0.676465  0.176452  0.500000  1
  Zr  Zr3  1  0.178725  0.321532  0.500000  1
  Zr  Zr4  1  0.821531  0.678732  0.500000  1
  Zr  Zr5  1  0.322442  0.822445  0.500000  1
  Zr  Zr6  1  0.886793  0.386782  0.500000  1
  Zr  Zr7  1  0.385698  0.114195  0.500000  1
  Zr  Zr8  1  0.614196  0.885696  0.500000  1
  Zr  Zr9  1  0.113544  0.613542  0.500000  1
  Co  Co10  1  0.526165  0.252529  0.000000  1
  Co  Co11  1  0.256834  0.473349  0.000000  1
  Co  Co12  1  0.743690  0.525646  0.000000  1
  Co  Co13  1  0.474961  0.745541  0.000000  1
  Co  Co14  1  0.973349  0.756844  0.000000  1
  Co  Co15  1  0.025654  0.243689  0.000000  1
  Co  Co16  1  0.752535  0.026179  0.000000  1
  Co  Co17  1  0.245539  0.974961  0.000000  1
  Si  Si18  1  0.068584  0.431632  0.000000  1
  Si  Si19  1  0.931647  0.568599  0.000000  1
  Si  Si20  1  0.432877  0.932879  0.000000  1
  Si  Si21  1  0.198822  0.154921  0.000000  1
  Si  Si22  1  0.154908  0.801322  0.000000  1
  Si  Si23  1  0.844641  0.199101  0.000000  1
  Si  Si24  1  0.800199  0.845484  0.000000  1
  Si  Si25  1  0.301316  0.654908  0.000000  1
  Si  Si26  1  0.699102  0.344636  0.000000  1
  Si  Si27  1  0.654909  0.698839  0.000000  1
  Si  Si28  1  0.345483  0.300186  0.000000  1
  Si  Si29  1  0.000209  0.164496  0.500000  1
  Si  Si30  1  0.164820  0.999016  0.500000  1
  Si  Si31  1  0.835110  0.001120  0.500000  1
  Si  Si32  1  0.000249  0.835693  0.500000  1
  Si  Si33  1  0.499013  0.664832  0.500000  1
  Si  Si34  1  0.501131  0.335104  0.500000  1
  Si  Si35  1  0.664489  0.500211  0.500000  1
  Si  Si36  1  0.335694  0.500231  0.500000  1
  P  P37  1  0.568612  0.068605  0.000000  1
