# generated using pymatgen
data_TbEu4HoTa2O12
_symmetry_space_group_name_H-M   'P 1'
_cell_length_a   5.79098650
_cell_length_b   5.94562205
_cell_length_c   8.25858431
_cell_angle_alpha   89.99801771
_cell_angle_beta   89.74032894
_cell_angle_gamma   90.01468048
_symmetry_Int_Tables_number   1
_chemical_formula_structural   TbEu4HoTa2O12
_chemical_formula_sum   'Tb1 Eu4 Ho1 Ta2 O12'
_cell_volume   284.34852745
_cell_formula_units_Z   1
loop_
 _symmetry_equiv_pos_site_id
 _symmetry_equiv_pos_as_xyz
  1  'x, y, z'
loop_
 _atom_site_type_symbol
 _atom_site_label
 _atom_site_symmetry_multiplicity
 _atom_site_fract_x
 _atom_site_fract_y
 _atom_site_fract_z
 _atom_site_occupancy
  Tb  Tb0  1  0.499916  0.999933  0.000118  1
  Eu  Eu1  1  0.513557  0.451732  0.250393  1
  Eu  Eu2  1  0.985062  0.951188  0.251704  1
  Eu  Eu3  1  0.014077  0.048816  0.748169  1
  Eu  Eu4  1  0.487472  0.547704  0.749684  1
  Ho  Ho5  1  0.000138  0.500054  0.499854  1
  Ta  Ta6  1  0.000219  0.500050  0.000146  1
  Ta  Ta7  1  0.499774  0.999948  0.499901  1
  O  O8  1  0.720353  0.691449  0.049704  1
  O  O9  1  0.812643  0.221534  0.054534  1
  O  O10  1  0.095598  0.530877  0.235214  1
  O  O11  1  0.402676  0.032508  0.266437  1
  O  O12  1  0.691936  0.723087  0.445024  1
  O  O13  1  0.778015  0.195988  0.451885  1
  O  O14  1  0.221727  0.804209  0.547624  1
  O  O15  1  0.308183  0.277193  0.554381  1
  O  O16  1  0.597508  0.967376  0.733539  1
  O  O17  1  0.904223  0.468846  0.764774  1
  O  O18  1  0.187080  0.778824  0.946066  1
  O  O19  1  0.279847  0.308686  0.950847  1
