# generated using pymatgen
data_Nd5Lu(SbO7)2
_symmetry_space_group_name_H-M   'P 1'
_cell_length_a   6.64374400
_cell_length_b   6.61016986
_cell_length_c   7.67742400
_cell_angle_alpha   90.00000000
_cell_angle_beta   90.00000000
_cell_angle_gamma   108.94322026
_symmetry_Int_Tables_number   1
_chemical_formula_structural   Nd5Lu(SbO7)2
_chemical_formula_sum   'Nd5 Lu1 Sb2 O14'
_cell_volume   318.90333055
_cell_formula_units_Z   1
loop_
 _symmetry_equiv_pos_site_id
 _symmetry_equiv_pos_as_xyz
  1  'x, y, z'
loop_
 _atom_site_type_symbol
 _atom_site_label
 _atom_site_symmetry_multiplicity
 _atom_site_fract_x
 _atom_site_fract_y
 _atom_site_fract_z
 _atom_site_occupancy
  Nd  Nd0  1  0.522092  0.515839  0.497974  1
  Nd  Nd1  1  0.522092  0.515839  0.002026  1
  Nd  Nd2  1  0.007066  0.464842  0.750000  1
  Nd  Nd3  1  0.529311  0.003828  0.750000  1
  Nd  Nd4  1  0.463685  0.002302  0.250000  1
  Lu  Lu5  1  0.003861  0.523682  0.250000  1
  Sb  Sb6  1  0.997538  0.998765  0.496461  1
  Sb  Sb7  1  0.997538  0.998765  0.003539  1
  O  O8  1  0.935175  0.061244  0.750000  1
  O  O9  1  0.061156  0.925571  0.250000  1
  O  O10  1  0.349381  0.630992  0.250000  1
  O  O11  1  0.641361  0.371622  0.750000  1
  O  O12  1  0.373085  0.632416  0.750000  1
  O  O13  1  0.651967  0.378678  0.250000  1
  O  O14  1  0.313296  0.080108  0.972785  1
  O  O15  1  0.678972  0.917595  0.471614  1
  O  O16  1  0.313296  0.080108  0.527215  1
  O  O17  1  0.678972  0.917595  0.028386  1
  O  O18  1  0.042760  0.307866  0.460264  1
  O  O19  1  0.937319  0.682237  0.978099  1
  O  O20  1  0.937319  0.682237  0.521901  1
  O  O21  1  0.042760  0.307866  0.039736  1
