# generated using pymatgen
data_Tb2NiSn5Rh2
_symmetry_space_group_name_H-M   'P 1'
_cell_length_a   13.41408104
_cell_length_b   13.41408201
_cell_length_c   7.23074500
_cell_angle_alpha   90.00000000
_cell_angle_beta   90.00000000
_cell_angle_gamma   161.03464193
_symmetry_Int_Tables_number   1
_chemical_formula_structural   Tb2NiSn5Rh2
_chemical_formula_sum   'Tb4 Ni2 Sn10 Rh4'
_cell_volume   422.84724519
_cell_formula_units_Z   2
loop_
 _symmetry_equiv_pos_site_id
 _symmetry_equiv_pos_as_xyz
  1  'x, y, z'
loop_
 _atom_site_type_symbol
 _atom_site_label
 _atom_site_symmetry_multiplicity
 _atom_site_fract_x
 _atom_site_fract_y
 _atom_site_fract_z
 _atom_site_occupancy
  Tb  Tb0  1  0.171650  0.828350  0.753149  1
  Tb  Tb1  1  0.828350  0.171650  0.253149  1
  Tb  Tb2  1  0.475905  0.524095  0.741518  1
  Tb  Tb3  1  0.524095  0.475905  0.241518  1
  Ni  Ni4  1  0.049939  0.950061  0.518269  1
  Ni  Ni5  1  0.950061  0.049939  0.018269  1
  Sn  Sn6  1  0.881213  0.118787  0.733898  1
  Sn  Sn7  1  0.118787  0.881213  0.233898  1
  Sn  Sn8  1  0.703735  0.296265  0.047531  1
  Sn  Sn9  1  0.296265  0.703735  0.547531  1
  Sn  Sn10  1  0.593804  0.406196  0.609641  1
  Sn  Sn11  1  0.406196  0.593804  0.109641  1
  Sn  Sn12  1  0.954063  0.045937  0.397836  1
  Sn  Sn13  1  0.045937  0.954063  0.897836  1
  Sn  Sn14  1  0.290886  0.709114  0.978316  1
  Sn  Sn15  1  0.709114  0.290886  0.478316  1
  Rh  Rh16  1  0.777717  0.222283  0.766322  1
  Rh  Rh17  1  0.222283  0.777717  0.266322  1
  Rh  Rh18  1  0.396005  0.603995  0.481519  1
  Rh  Rh19  1  0.603995  0.396005  0.981519  1
