# generated using pymatgen
data_Ac2GdPa3N8
_symmetry_space_group_name_H-M   'P 1'
_cell_length_a   7.17863633
_cell_length_b   7.17863965
_cell_length_c   7.10550909
_cell_angle_alpha   120.33686488
_cell_angle_beta   90.00684443
_cell_angle_gamma   119.99616772
_symmetry_Int_Tables_number   1
_chemical_formula_structural   Ac2GdPa3N8
_chemical_formula_sum   'Ac2 Gd1 Pa3 N8'
_cell_volume   257.59241738
_cell_formula_units_Z   1
loop_
 _symmetry_equiv_pos_site_id
 _symmetry_equiv_pos_as_xyz
  1  'x, y, z'
loop_
 _atom_site_type_symbol
 _atom_site_label
 _atom_site_symmetry_multiplicity
 _atom_site_fract_x
 _atom_site_fract_y
 _atom_site_fract_z
 _atom_site_occupancy
  Ac  Ac0  1  0.995335  0.990677  0.986013  1
  Ac  Ac1  1  0.754666  0.509323  0.263987  1
  Gd  Gd2  1  0.375000  0.750000  0.125000  1
  Pa  Pa3  1  0.375000  0.750000  0.624999  1
  Pa  Pa4  1  0.375000  0.249999  0.624999  1
  Pa  Pa5  1  0.874999  0.249999  0.625000  1
  N  N6  1  0.614395  0.228838  0.414213  1
  N  N7  1  0.185376  0.799818  0.414213  1
  N  N8  1  0.614438  0.799824  0.414261  1
  N  N9  1  0.144599  0.289238  0.433836  1
  N  N10  1  0.605400  0.210763  0.816164  1
  N  N11  1  0.135562  0.700175  0.835737  1
  N  N12  1  0.135606  0.271163  0.835787  1
  N  N13  1  0.564624  0.700181  0.835787  1
