# generated using pymatgen
data_Cs8Tm(NbCl8)3
_symmetry_space_group_name_H-M   'P 1'
_cell_length_a   12.80108186
_cell_length_b   12.80108162
_cell_length_c   12.80108200
_cell_angle_alpha   132.09777491
_cell_angle_beta   132.09777997
_cell_angle_gamma   70.07464416
_symmetry_Int_Tables_number   1
_chemical_formula_structural   Cs8Tm(NbCl8)3
_chemical_formula_sum   'Cs8 Tm1 Nb3 Cl24'
_cell_volume   1132.20838262
_cell_formula_units_Z   1
loop_
 _symmetry_equiv_pos_site_id
 _symmetry_equiv_pos_as_xyz
  1  'x, y, z'
loop_
 _atom_site_type_symbol
 _atom_site_label
 _atom_site_symmetry_multiplicity
 _atom_site_fract_x
 _atom_site_fract_y
 _atom_site_fract_z
 _atom_site_occupancy
  Cs  Cs0  1  0.637617  0.636109  0.516410  1
  Cs  Cs1  1  0.878792  0.362383  0.998492  1
  Cs  Cs2  1  0.119699  0.121208  0.483590  1
  Cs  Cs3  1  0.363891  0.880301  0.001508  1
  Cs  Cs4  1  0.119699  0.636109  0.998492  1
  Cs  Cs5  1  0.878792  0.880301  0.516410  1
  Cs  Cs6  1  0.363891  0.362383  0.483590  1
  Cs  Cs7  1  0.637617  0.121208  0.001508  1
  Tm  Tm8  1  0.000000  0.000000  0.000000  1
  Nb  Nb9  1  0.250000  0.750000  0.500000  1
  Nb  Nb10  1  0.500000  0.500000  0.000000  1
  Nb  Nb11  1  0.750000  0.250000  0.500000  1
  Cl  Cl12  1  0.124268  0.124268  0.000000  1
  Cl  Cl13  1  0.480879  0.748532  0.732347  1
  Cl  Cl14  1  0.865687  0.365687  0.500000  1
  Cl  Cl15  1  0.984563  0.251612  0.732952  1
  Cl  Cl16  1  0.875732  0.875732  0.000000  1
  Cl  Cl17  1  0.251468  0.983815  0.732347  1
  Cl  Cl18  1  0.268023  0.500266  0.767758  1
  Cl  Cl19  1  0.499734  0.267492  0.767758  1
  Cl  Cl20  1  0.499734  0.731977  0.232242  1
  Cl  Cl21  1  0.518661  0.251612  0.267048  1
  Cl  Cl22  1  0.000692  0.750569  0.749877  1
  Cl  Cl23  1  0.251468  0.519121  0.267653  1
  Cl  Cl24  1  0.134825  0.634825  0.500000  1
  Cl  Cl25  1  0.732508  0.500266  0.232242  1
  Cl  Cl26  1  0.249431  0.999308  0.250123  1
  Cl  Cl27  1  0.748388  0.015437  0.267048  1
  Cl  Cl28  1  0.749186  0.999308  0.749877  1
  Cl  Cl29  1  0.634313  0.134313  0.500000  1
  Cl  Cl30  1  0.384506  0.384506  0.000000  1
  Cl  Cl31  1  0.615494  0.615494  0.000000  1
  Cl  Cl32  1  0.748388  0.481339  0.732952  1
  Cl  Cl33  1  0.016185  0.748532  0.267653  1
  Cl  Cl34  1  0.000692  0.250814  0.250123  1
  Cl  Cl35  1  0.365175  0.865175  0.500000  1
