# generated using pymatgen
data_Tb9Ce(SiB4)4
_symmetry_space_group_name_H-M   'P 1'
_cell_length_a   7.26132649
_cell_length_b   7.26132649
_cell_length_c   8.18618103
_cell_angle_alpha   89.99362880
_cell_angle_beta   89.99362880
_cell_angle_gamma   90.04166187
_symmetry_Int_Tables_number   1
_chemical_formula_structural   Tb9Ce(SiB4)4
_chemical_formula_sum   'Tb9 Ce1 Si4 B16'
_cell_volume   431.63152114
_cell_formula_units_Z   1
loop_
 _symmetry_equiv_pos_site_id
 _symmetry_equiv_pos_as_xyz
  1  'x, y, z'
loop_
 _atom_site_type_symbol
 _atom_site_label
 _atom_site_symmetry_multiplicity
 _atom_site_fract_x
 _atom_site_fract_y
 _atom_site_fract_z
 _atom_site_occupancy
  Tb  Tb0  1  0.318809  0.818809  0.777366  1
  Tb  Tb1  1  0.319498  0.819498  0.222523  1
  Tb  Tb2  1  0.819335  0.680574  0.222379  1
  Tb  Tb3  1  0.819659  0.680789  0.777407  1
  Tb  Tb4  1  0.680707  0.180707  0.776820  1
  Tb  Tb5  1  0.180789  0.319659  0.777407  1
  Tb  Tb6  1  0.180574  0.319335  0.222379  1
  Tb  Tb7  1  0.001047  0.998947  0.500397  1
  Tb  Tb8  1  0.498947  0.501047  0.500397  1
  Ce  Ce9  1  0.682208  0.182208  0.230497  1
  Si  Si10  1  0.114916  0.614916  0.501848  1
  Si  Si11  1  0.886179  0.386179  0.499961  1
  Si  Si12  1  0.385519  0.114042  0.499347  1
  Si  Si13  1  0.614042  0.885519  0.499347  1
  B  B14  1  0.172440  0.038957  0.999079  1
  B  B15  1  0.827736  0.960911  0.999852  1
  B  B16  1  0.960614  0.171714  0.999546  1
  B  B17  1  0.327476  0.539621  0.999171  1
  B  B18  1  0.039621  0.827476  0.999171  1
  B  B19  1  0.671714  0.460614  0.999546  1
  B  B20  1  0.538957  0.672440  0.999079  1
  B  B21  1  0.460911  0.327736  0.999852  1
  B  B22  1  0.090353  0.590353  0.999374  1
  B  B23  1  0.909394  0.409394  0.000997  1
  B  B24  1  0.409677  0.090044  0.999589  1
  B  B25  1  0.590044  0.909677  0.999589  1
  B  B26  1  0.999390  0.999470  0.159723  1
  B  B27  1  0.000221  0.999754  0.838817  1
  B  B28  1  0.499754  0.500221  0.838817  1
  B  B29  1  0.499470  0.499390  0.159723  1
