# generated using pymatgen
data_SmEr5(CI5)2
_symmetry_space_group_name_H-M   'P 1'
_cell_length_a   7.63061002
_cell_length_b   9.52060881
_cell_length_c   9.57156000
_cell_angle_alpha   106.83401380
_cell_angle_beta   96.25732737
_cell_angle_gamma   104.42497863
_symmetry_Int_Tables_number   1
_chemical_formula_structural   SmEr5(CI5)2
_chemical_formula_sum   'Sm1 Er5 C2 I10'
_cell_volume   632.14976875
_cell_formula_units_Z   1
loop_
 _symmetry_equiv_pos_site_id
 _symmetry_equiv_pos_as_xyz
  1  'x, y, z'
loop_
 _atom_site_type_symbol
 _atom_site_label
 _atom_site_symmetry_multiplicity
 _atom_site_fract_x
 _atom_site_fract_y
 _atom_site_fract_z
 _atom_site_occupancy
  Sm  Sm0  1  0.107063  0.039396  0.778991  1
  Er  Er1  1  0.371951  0.130550  0.175681  1
  Er  Er2  1  0.896220  0.961596  0.217149  1
  Er  Er3  1  0.028866  0.747542  0.926302  1
  Er  Er4  1  0.972043  0.251886  0.072263  1
  Er  Er5  1  0.627550  0.869027  0.824290  1
  C  C6  1  0.906357  0.969290  0.961437  1
  C  C7  1  0.090587  0.029322  0.044263  1
  I  I8  1  0.196187  0.731757  0.651702  1
  I  I9  1  0.085053  0.369588  0.826840  1
  I  I10  1  0.456485  0.812290  0.093283  1
  I  I11  1  0.253398  0.083636  0.454088  1
  I  I12  1  0.549471  0.190137  0.909343  1
  I  I13  1  0.806103  0.260159  0.346618  1
  I  I14  1  0.342313  0.448341  0.270425  1
  I  I15  1  0.913568  0.640022  0.176598  1
  I  I16  1  0.657752  0.551616  0.729388  1
  I  I17  1  0.739034  0.913845  0.541339  1
