# generated using pymatgen
data_Rb2V2PbO7
_symmetry_space_group_name_H-M   'P 1'
_cell_length_a   6.09405171
_cell_length_b   7.45078540
_cell_length_c   10.98019300
_cell_angle_alpha   103.86808818
_cell_angle_beta   97.95126787
_cell_angle_gamma   106.47538122
_symmetry_Int_Tables_number   1
_chemical_formula_structural   Rb2V2PbO7
_chemical_formula_sum   'Rb4 V4 Pb2 O14'
_cell_volume   452.61453517
_cell_formula_units_Z   2
loop_
 _symmetry_equiv_pos_site_id
 _symmetry_equiv_pos_as_xyz
  1  'x, y, z'
loop_
 _atom_site_type_symbol
 _atom_site_label
 _atom_site_symmetry_multiplicity
 _atom_site_fract_x
 _atom_site_fract_y
 _atom_site_fract_z
 _atom_site_occupancy
  Rb  Rb0  1  0.309102  0.576327  0.754546  1
  Rb  Rb1  1  0.104641  0.263149  0.024016  1
  Rb  Rb2  1  0.895359  0.736851  0.975984  1
  Rb  Rb3  1  0.690898  0.423673  0.245454  1
  V  V4  1  0.494149  0.885310  0.170432  1
  V  V5  1  0.695116  0.320601  0.610553  1
  V  V6  1  0.304884  0.679399  0.389447  1
  V  V7  1  0.505851  0.114690  0.829568  1
  Pb  Pb8  1  0.860370  0.874351  0.641512  1
  Pb  Pb9  1  0.139630  0.125649  0.358488  1
  O  O10  1  0.440620  0.712654  0.544586  1
  O  O11  1  0.472945  0.203857  0.688768  1
  O  O12  1  0.083068  0.778092  0.385268  1
  O  O13  1  0.227720  0.978386  0.832879  1
  O  O14  1  0.302705  0.023318  0.181134  1
  O  O15  1  0.559380  0.287346  0.455414  1
  O  O16  1  0.813217  0.567337  0.697323  1
  O  O17  1  0.379699  0.687632  0.037238  1
  O  O18  1  0.527055  0.796143  0.311232  1
  O  O19  1  0.620301  0.312368  0.962762  1
  O  O20  1  0.916932  0.221908  0.614732  1
  O  O21  1  0.772280  0.021614  0.167121  1
  O  O22  1  0.186783  0.432663  0.302677  1
  O  O23  1  0.697295  0.976682  0.818866  1
