# generated using pymatgen
data_Er2Ga9CoRu2
_symmetry_space_group_name_H-M   'P 1'
_cell_length_a   7.46555450
_cell_length_b   7.46555304
_cell_length_c   9.57537200
_cell_angle_alpha   90.00000000
_cell_angle_beta   90.00000000
_cell_angle_gamma   120.48229205
_symmetry_Int_Tables_number   1
_chemical_formula_structural   Er2Ga9CoRu2
_chemical_formula_sum   'Er4 Ga18 Co2 Ru4'
_cell_volume   459.91665357
_cell_formula_units_Z   2
loop_
 _symmetry_equiv_pos_site_id
 _symmetry_equiv_pos_as_xyz
  1  'x, y, z'
loop_
 _atom_site_type_symbol
 _atom_site_label
 _atom_site_symmetry_multiplicity
 _atom_site_fract_x
 _atom_site_fract_y
 _atom_site_fract_z
 _atom_site_occupancy
  Er  Er0  1  0.995829  0.657288  0.250000  1
  Er  Er1  1  0.004171  0.342712  0.750000  1
  Er  Er2  1  0.657288  0.995829  0.250000  1
  Er  Er3  1  0.342712  0.004171  0.750000  1
  Ga  Ga4  1  0.109378  0.109378  0.250000  1
  Ga  Ga5  1  0.890622  0.890622  0.750000  1
  Ga  Ga6  1  0.001749  0.324736  0.075724  1
  Ga  Ga7  1  0.998251  0.675264  0.924276  1
  Ga  Ga8  1  0.998251  0.675264  0.575724  1
  Ga  Ga9  1  0.324736  0.001749  0.424276  1
  Ga  Ga10  1  0.001749  0.324736  0.424276  1
  Ga  Ga11  1  0.675264  0.998251  0.575724  1
  Ga  Ga12  1  0.675264  0.998251  0.924276  1
  Ga  Ga13  1  0.324736  0.001749  0.075724  1
  Ga  Ga14  1  0.329017  0.329017  0.560955  1
  Ga  Ga15  1  0.670983  0.670983  0.439045  1
  Ga  Ga16  1  0.670983  0.670983  0.060955  1
  Ga  Ga17  1  0.329017  0.329017  0.939045  1
  Ga  Ga18  1  0.335985  0.541990  0.250000  1
  Ga  Ga19  1  0.664015  0.458010  0.750000  1
  Ga  Ga20  1  0.541990  0.335985  0.250000  1
  Ga  Ga21  1  0.458010  0.664015  0.750000  1
  Co  Co22  1  0.000000  0.000000  0.000000  1
  Co  Co23  1  0.000000  0.000000  0.500000  1
  Ru  Ru24  1  0.673548  0.326452  0.000000  1
  Ru  Ru25  1  0.326452  0.673548  0.000000  1
  Ru  Ru26  1  0.326452  0.673548  0.500000  1
  Ru  Ru27  1  0.673548  0.326452  0.500000  1
