# generated using pymatgen
data_Nd3Sc7Si20Ir7Pt
_symmetry_space_group_name_H-M   'P 1'
_cell_length_a   12.50317102
_cell_length_b   12.52724314
_cell_length_c   4.18634000
_cell_angle_alpha   90.00000000
_cell_angle_beta   90.00000000
_cell_angle_gamma   90.20972021
_symmetry_Int_Tables_number   1
_chemical_formula_structural   Nd3Sc7Si20Ir7Pt
_chemical_formula_sum   'Nd3 Sc7 Si20 Ir7 Pt1'
_cell_volume   655.70314432
_cell_formula_units_Z   1
loop_
 _symmetry_equiv_pos_site_id
 _symmetry_equiv_pos_as_xyz
  1  'x, y, z'
loop_
 _atom_site_type_symbol
 _atom_site_label
 _atom_site_symmetry_multiplicity
 _atom_site_fract_x
 _atom_site_fract_y
 _atom_site_fract_z
 _atom_site_occupancy
  Nd  Nd0  1  0.115299  0.615543  0.500000  1
  Nd  Nd1  1  0.884225  0.384698  0.500000  1
  Nd  Nd2  1  0.614842  0.885321  0.500000  1
  Sc  Sc3  1  0.384627  0.115376  0.500000  1
  Sc  Sc4  1  0.672706  0.174731  0.500000  1
  Sc  Sc5  1  0.325306  0.827193  0.500000  1
  Sc  Sc6  1  0.176766  0.325052  0.500000  1
  Sc  Sc7  1  0.825812  0.674168  0.500000  1
  Sc  Sc8  1  0.000703  0.997132  0.000000  1
  Sc  Sc9  1  0.499925  0.499374  0.000000  1
  Si  Si10  1  0.566532  0.068643  0.000000  1
  Si  Si11  1  0.431232  0.933286  0.000000  1
  Si  Si12  1  0.069926  0.433226  0.000000  1
  Si  Si13  1  0.930361  0.569491  0.000000  1
  Si  Si14  1  0.205440  0.164600  0.000000  1
  Si  Si15  1  0.800235  0.835131  0.000000  1
  Si  Si16  1  0.165711  0.802054  0.000000  1
  Si  Si17  1  0.697085  0.335157  0.000000  1
  Si  Si18  1  0.831863  0.199854  0.000000  1
  Si  Si19  1  0.300601  0.665196  0.000000  1
  Si  Si20  1  0.664718  0.699532  0.000000  1
  Si  Si21  1  0.336092  0.299098  0.000000  1
  Si  Si22  1  0.008489  0.146906  0.500000  1
  Si  Si23  1  0.992158  0.849640  0.500000  1
  Si  Si24  1  0.153127  0.993780  0.500000  1
  Si  Si25  1  0.506136  0.346727  0.500000  1
  Si  Si26  1  0.849894  0.010198  0.500000  1
  Si  Si27  1  0.489643  0.650728  0.500000  1
  Si  Si28  1  0.649798  0.507986  0.500000  1
  Si  Si29  1  0.349713  0.490802  0.500000  1
  Ir  Ir30  1  0.977943  0.759149  0.000000  1
  Ir  Ir31  1  0.245647  0.981114  0.000000  1
  Ir  Ir32  1  0.519024  0.254089  0.000000  1
  Ir  Ir33  1  0.757239  0.022159  0.000000  1
  Ir  Ir34  1  0.477916  0.743313  0.000000  1
  Ir  Ir35  1  0.740781  0.521943  0.000000  1
  Ir  Ir36  1  0.259229  0.476587  0.000000  1
  Pt  Pt37  1  0.023250  0.241026  0.000000  1
