# generated using pymatgen
data_EuNp6BiF30
_symmetry_space_group_name_H-M   'P 1'
_cell_length_a   8.64890992
_cell_length_b   8.64890973
_cell_length_c   8.67835000
_cell_angle_alpha   79.47244000
_cell_angle_beta   79.47244022
_cell_angle_gamma   100.03095708
_symmetry_Int_Tables_number   1
_chemical_formula_structural   EuNp6BiF30
_chemical_formula_sum   'Eu1 Np6 Bi1 F30'
_cell_volume   612.86370770
_cell_formula_units_Z   1
loop_
 _symmetry_equiv_pos_site_id
 _symmetry_equiv_pos_as_xyz
  1  'x, y, z'
loop_
 _atom_site_type_symbol
 _atom_site_label
 _atom_site_symmetry_multiplicity
 _atom_site_fract_x
 _atom_site_fract_y
 _atom_site_fract_z
 _atom_site_occupancy
  Eu  Eu0  1  0.177096  0.822904  0.250000  1
  Np  Np1  1  0.750211  0.249789  0.250000  1
  Np  Np2  1  0.249800  0.750200  0.750000  1
  Np  Np3  1  0.753299  0.677105  0.677671  1
  Np  Np4  1  0.322895  0.246701  0.822329  1
  Np  Np5  1  0.246535  0.322882  0.321905  1
  Np  Np6  1  0.677118  0.753465  0.178095  1
  Bi  Bi7  1  0.822318  0.177682  0.750000  1
  F  F8  1  0.468311  0.531689  0.250000  1
  F  F9  1  0.755101  0.963762  0.972752  1
  F  F10  1  0.036238  0.244899  0.527248  1
  F  F11  1  0.244712  0.040859  0.024666  1
  F  F12  1  0.959141  0.755288  0.475334  1
  F  F13  1  0.534891  0.465109  0.750000  1
  F  F14  1  0.221049  0.491598  0.778914  1
  F  F15  1  0.224843  0.716610  0.002415  1
  F  F16  1  0.987283  0.720197  0.787129  1
  F  F17  1  0.720349  0.986825  0.287746  1
  F  F18  1  0.714968  0.224486  0.506022  1
  F  F19  1  0.491746  0.219512  0.278574  1
  F  F20  1  0.780489  0.508254  0.221426  1
  F  F21  1  0.775514  0.285032  0.993978  1
  F  F22  1  0.013175  0.279651  0.212254  1
  F  F23  1  0.279803  0.012717  0.712871  1
  F  F24  1  0.283390  0.775157  0.497585  1
  F  F25  1  0.508402  0.778951  0.721086  1
  F  F26  1  0.543044  0.151563  0.824223  1
  F  F27  1  0.189152  0.064466  0.344725  1
  F  F28  1  0.653728  0.673903  0.450962  1
  F  F29  1  0.675478  0.656066  0.949438  1
  F  F30  1  0.059040  0.188511  0.842579  1
  F  F31  1  0.156536  0.541143  0.323406  1
  F  F32  1  0.458857  0.843464  0.176594  1
  F  F33  1  0.811489  0.940960  0.657421  1
  F  F34  1  0.343934  0.324522  0.550562  1
  F  F35  1  0.326097  0.346272  0.049038  1
  F  F36  1  0.935534  0.810848  0.155275  1
  F  F37  1  0.848437  0.456956  0.675777  1
