# generated using pymatgen
data_Dy20Tc5Au7
_symmetry_space_group_name_H-M   'P 1'
_cell_length_a   11.20859074
_cell_length_b   11.20859066
_cell_length_c   6.39202800
_cell_angle_alpha   90.26037932
_cell_angle_beta   90.26037420
_cell_angle_gamma   90.61391676
_symmetry_Int_Tables_number   1
_chemical_formula_structural   Dy20Tc5Au7
_chemical_formula_sum   'Dy20 Tc5 Au7'
_cell_volume   802.98363143
_cell_formula_units_Z   1
loop_
 _symmetry_equiv_pos_site_id
 _symmetry_equiv_pos_as_xyz
  1  'x, y, z'
loop_
 _atom_site_type_symbol
 _atom_site_label
 _atom_site_symmetry_multiplicity
 _atom_site_fract_x
 _atom_site_fract_y
 _atom_site_fract_z
 _atom_site_occupancy
  Dy  Dy0  1  0.305860  0.083986  0.357214  1
  Dy  Dy1  1  0.299821  0.918103  0.856969  1
  Dy  Dy2  1  0.707470  0.087907  0.864836  1
  Dy  Dy3  1  0.706694  0.925499  0.353535  1
  Dy  Dy4  1  0.583008  0.802972  0.853955  1
  Dy  Dy5  1  0.593495  0.201568  0.358108  1
  Dy  Dy6  1  0.419219  0.803136  0.354014  1
  Dy  Dy7  1  0.421607  0.197858  0.857049  1
  Dy  Dy8  1  0.197028  0.416992  0.646045  1
  Dy  Dy9  1  0.196864  0.580781  0.145986  1
  Dy  Dy10  1  0.798432  0.406505  0.141892  1
  Dy  Dy11  1  0.802142  0.578393  0.642951  1
  Dy  Dy12  1  0.916014  0.694140  0.142786  1
  Dy  Dy13  1  0.912093  0.292530  0.635164  1
  Dy  Dy14  1  0.081897  0.700179  0.643031  1
  Dy  Dy15  1  0.074501  0.293306  0.146465  1
  Dy  Dy16  1  0.998607  0.008982  0.497520  1
  Dy  Dy17  1  0.991018  0.001393  0.002480  1
  Dy  Dy18  1  0.498172  0.502295  0.001126  1
  Dy  Dy19  1  0.497705  0.501828  0.498874  1
  Tc  Tc20  1  0.849535  0.150465  0.250000  1
  Tc  Tc21  1  0.502013  0.001144  0.110181  1
  Tc  Tc22  1  0.501509  0.000616  0.611739  1
  Tc  Tc23  1  0.999384  0.498491  0.888261  1
  Tc  Tc24  1  0.998856  0.497987  0.389819  1
  Au  Au25  1  0.843454  0.842365  0.743325  1
  Au  Au26  1  0.157635  0.156546  0.756675  1
  Au  Au27  1  0.153221  0.846779  0.250000  1
  Au  Au28  1  0.652254  0.347746  0.750000  1
  Au  Au29  1  0.654614  0.657897  0.253055  1
  Au  Au30  1  0.342103  0.345386  0.246945  1
  Au  Au31  1  0.343772  0.656228  0.750000  1
