# generated using pymatgen
data_Lu3TcSn3Pt2
_symmetry_space_group_name_H-M   'P 1'
_cell_length_a   7.78459900
_cell_length_b   7.78440633
_cell_length_c   3.57337000
_cell_angle_alpha   90.00000000
_cell_angle_beta   90.00000000
_cell_angle_gamma   120.00088528
_symmetry_Int_Tables_number   1
_chemical_formula_structural   Lu3TcSn3Pt2
_chemical_formula_sum   'Lu3 Tc1 Sn3 Pt2'
_cell_volume   187.52815807
_cell_formula_units_Z   1
loop_
 _symmetry_equiv_pos_site_id
 _symmetry_equiv_pos_as_xyz
  1  'x, y, z'
loop_
 _atom_site_type_symbol
 _atom_site_label
 _atom_site_symmetry_multiplicity
 _atom_site_fract_x
 _atom_site_fract_y
 _atom_site_fract_z
 _atom_site_occupancy
  Lu  Lu0  1  0.397577  0.397591  0.500000  1
  Lu  Lu1  1  0.602425  0.000004  0.500000  1
  Lu  Lu2  1  0.999997  0.602415  0.500000  1
  Tc  Tc3  1  0.000000  0.999995  0.500000  1
  Sn  Sn4  1  0.730359  0.730360  0.000000  1
  Sn  Sn5  1  0.269634  0.000000  0.000000  1
  Sn  Sn6  1  0.999999  0.269631  0.000000  1
  Pt  Pt7  1  0.666669  0.333325  0.000000  1
  Pt  Pt8  1  0.333340  0.666678  0.000000  1
