# generated using pymatgen
data_Dy5Tm2Lu3(SiSb)4
_symmetry_space_group_name_H-M   'P 1'
_cell_length_a   8.36502604
_cell_length_b   8.53321952
_cell_length_c   7.78399523
_cell_angle_alpha   90.10678546
_cell_angle_beta   90.09771912
_cell_angle_gamma   125.36089716
_symmetry_Int_Tables_number   1
_chemical_formula_structural   Dy5Tm2Lu3(SiSb)4
_chemical_formula_sum   'Dy5 Tm2 Lu3 Si4 Sb4'
_cell_volume   453.12255303
_cell_formula_units_Z   1
loop_
 _symmetry_equiv_pos_site_id
 _symmetry_equiv_pos_as_xyz
  1  'x, y, z'
loop_
 _atom_site_type_symbol
 _atom_site_label
 _atom_site_symmetry_multiplicity
 _atom_site_fract_x
 _atom_site_fract_y
 _atom_site_fract_z
 _atom_site_occupancy
  Dy  Dy0  1  0.801794  0.544875  0.168245  1
  Dy  Dy1  1  0.537112  0.786948  0.165180  1
  Dy  Dy2  1  0.199533  0.455639  0.831433  1
  Dy  Dy3  1  0.698546  0.954776  0.668209  1
  Dy  Dy4  1  0.300486  0.043558  0.332355  1
  Tm  Tm5  1  0.036736  0.281323  0.336498  1
  Tm  Tm6  1  0.962093  0.716247  0.663558  1
  Lu  Lu7  1  0.462724  0.217362  0.836581  1
  Lu  Lu8  1  0.000698  0.000962  0.999384  1
  Lu  Lu9  1  0.499864  0.498958  0.500561  1
  Si  Si10  1  0.367209  0.366710  0.132011  1
  Si  Si11  1  0.632904  0.631718  0.867405  1
  Si  Si12  1  0.132773  0.131378  0.631509  1
  Si  Si13  1  0.868920  0.867902  0.369591  1
  Sb  Sb14  1  0.789133  0.201355  0.008331  1
  Sb  Sb15  1  0.213157  0.804123  0.987216  1
  Sb  Sb16  1  0.713537  0.301301  0.511065  1
  Sb  Sb17  1  0.282784  0.694866  0.490867  1
