# generated using pymatgen
data_Tb2YHfSn2Ir3
_symmetry_space_group_name_H-M   'P 1'
_cell_length_a   7.26153700
_cell_length_b   7.37036294
_cell_length_c   4.21388000
_cell_angle_alpha   90.00000000
_cell_angle_beta   90.00000000
_cell_angle_gamma   119.51274323
_symmetry_Int_Tables_number   1
_chemical_formula_structural   Tb2YHfSn2Ir3
_chemical_formula_sum   'Tb2 Y1 Hf1 Sn2 Ir3'
_cell_volume   196.26447883
_cell_formula_units_Z   1
loop_
 _symmetry_equiv_pos_site_id
 _symmetry_equiv_pos_as_xyz
  1  'x, y, z'
loop_
 _atom_site_type_symbol
 _atom_site_label
 _atom_site_symmetry_multiplicity
 _atom_site_fract_x
 _atom_site_fract_y
 _atom_site_fract_z
 _atom_site_occupancy
  Tb  Tb0  1  0.996255  0.585058  0.000000  1
  Tb  Tb1  1  0.411197  0.414942  0.000000  1
  Y  Y2  1  0.602910  0.000000  0.000000  1
  Hf  Hf3  1  0.248992  0.000000  0.500000  1
  Sn  Sn4  1  0.001446  0.254486  0.500000  1
  Sn  Sn5  1  0.746960  0.745514  0.500000  1
  Ir  Ir6  1  0.326714  0.679685  0.500000  1
  Ir  Ir7  1  0.647030  0.320315  0.500000  1
  Ir  Ir8  1  0.018499  0.000000  0.000000  1
