# generated using pymatgen
data_Ho8Er2Cd3Ru
_symmetry_space_group_name_H-M   'P 1'
_cell_length_a   9.54436821
_cell_length_b   9.54436898
_cell_length_c   9.80308200
_cell_angle_alpha   90.00277551
_cell_angle_beta   89.99722242
_cell_angle_gamma   119.97634563
_symmetry_Int_Tables_number   1
_chemical_formula_structural   Ho8Er2Cd3Ru
_chemical_formula_sum   'Ho16 Er4 Cd6 Ru2'
_cell_volume   773.55489774
_cell_formula_units_Z   2
loop_
 _symmetry_equiv_pos_site_id
 _symmetry_equiv_pos_as_xyz
  1  'x, y, z'
loop_
 _atom_site_type_symbol
 _atom_site_label
 _atom_site_symmetry_multiplicity
 _atom_site_fract_x
 _atom_site_fract_y
 _atom_site_fract_z
 _atom_site_occupancy
  Ho  Ho0  1  0.209791  0.790209  0.440481  1
  Ho  Ho1  1  0.209851  0.419643  0.440389  1
  Ho  Ho2  1  0.580357  0.790149  0.440389  1
  Ho  Ho3  1  0.790210  0.209790  0.559531  1
  Ho  Ho4  1  0.790213  0.580424  0.559518  1
  Ho  Ho5  1  0.419576  0.209787  0.559518  1
  Ho  Ho6  1  0.790242  0.209758  0.940547  1
  Ho  Ho7  1  0.790171  0.580492  0.940509  1
  Ho  Ho8  1  0.419508  0.209829  0.940509  1
  Ho  Ho9  1  0.209967  0.790033  0.059552  1
  Ho  Ho10  1  0.540928  0.459072  0.249879  1
  Ho  Ho11  1  0.541035  0.081948  0.249941  1
  Ho  Ho12  1  0.918052  0.458965  0.249941  1
  Ho  Ho13  1  0.458938  0.541062  0.750142  1
  Ho  Ho14  1  0.459025  0.917940  0.750095  1
  Ho  Ho15  1  0.082060  0.540975  0.750095  1
  Er  Er16  1  0.000026  0.999974  0.500035  1
  Er  Er17  1  0.999951  0.000049  0.000065  1
  Er  Er18  1  0.209947  0.419829  0.059519  1
  Er  Er19  1  0.580171  0.790053  0.059519  1
  Cd  Cd20  1  0.885524  0.114476  0.249935  1
  Cd  Cd21  1  0.885461  0.771029  0.249964  1
  Cd  Cd22  1  0.228971  0.114539  0.249964  1
  Cd  Cd23  1  0.114458  0.885542  0.750033  1
  Cd  Cd24  1  0.114528  0.229002  0.750078  1
  Cd  Cd25  1  0.770998  0.885472  0.750078  1
  Ru  Ru26  1  0.333339  0.666661  0.249806  1
  Ru  Ru27  1  0.666700  0.333300  0.749971  1
