# generated using pymatgen
data_Y13Ho3MgCo3NiAg3
_symmetry_space_group_name_H-M   'P 1'
_cell_length_a   9.48341374
_cell_length_b   9.49115818
_cell_length_c   9.49115800
_cell_angle_alpha   60.00000761
_cell_angle_beta   59.97299003
_cell_angle_gamma   59.97298789
_symmetry_Int_Tables_number   1
_chemical_formula_structural   Y13Ho3MgCo3NiAg3
_chemical_formula_sum   'Y13 Ho3 Mg1 Co3 Ni1 Ag3'
_cell_volume   603.82447068
_cell_formula_units_Z   1
loop_
 _symmetry_equiv_pos_site_id
 _symmetry_equiv_pos_as_xyz
  1  'x, y, z'
loop_
 _atom_site_type_symbol
 _atom_site_label
 _atom_site_symmetry_multiplicity
 _atom_site_fract_x
 _atom_site_fract_y
 _atom_site_fract_z
 _atom_site_occupancy
  Y  Y0  1  0.945598  0.351988  0.351988  1
  Y  Y1  1  0.806424  0.189419  0.189419  1
  Y  Y2  1  0.186043  0.813525  0.813525  1
  Y  Y3  1  0.187282  0.809895  0.187113  1
  Y  Y4  1  0.810009  0.188065  0.812898  1
  Y  Y5  1  0.187282  0.187113  0.809895  1
  Y  Y6  1  0.810009  0.812898  0.188065  1
  Y  Y7  1  0.935624  0.563624  0.563624  1
  Y  Y8  1  0.563299  0.936569  0.936569  1
  Y  Y9  1  0.562345  0.936757  0.564469  1
  Y  Y10  1  0.935246  0.564714  0.937491  1
  Y  Y11  1  0.562345  0.564469  0.936757  1
  Y  Y12  1  0.935246  0.937491  0.564714  1
  Ho  Ho13  1  0.346717  0.345881  0.345881  1
  Ho  Ho14  1  0.348314  0.347333  0.959164  1
  Ho  Ho15  1  0.348314  0.959164  0.347333  1
  Mg  Mg16  1  0.288203  0.570734  0.570734  1
  Co  Co17  1  0.140995  0.143114  0.573126  1
  Co  Co18  1  0.140995  0.573126  0.143114  1
  Co  Co19  1  0.570687  0.143106  0.143106  1
  Ni  Ni20  1  0.141398  0.143220  0.143220  1
  Ag  Ag21  1  0.582563  0.582572  0.582572  1
  Ag  Ag22  1  0.582530  0.582492  0.252730  1
  Ag  Ag23  1  0.582530  0.252730  0.582492  1
