# generated using pymatgen
data_Ca3GaGeIr2
_symmetry_space_group_name_H-M   'P 1'
_cell_length_a   5.76082100
_cell_length_b   7.86758300
_cell_length_c   13.66989900
_cell_angle_alpha   90.00000000
_cell_angle_beta   90.00000000
_cell_angle_gamma   90.00000000
_symmetry_Int_Tables_number   1
_chemical_formula_structural   Ca3GaGeIr2
_chemical_formula_sum   'Ca12 Ga4 Ge4 Ir8'
_cell_volume   619.57091209
_cell_formula_units_Z   4
loop_
 _symmetry_equiv_pos_site_id
 _symmetry_equiv_pos_as_xyz
  1  'x, y, z'
loop_
 _atom_site_type_symbol
 _atom_site_label
 _atom_site_symmetry_multiplicity
 _atom_site_fract_x
 _atom_site_fract_y
 _atom_site_fract_z
 _atom_site_occupancy
  Ca  Ca0  1  0.142398  0.605427  0.098229  1
  Ca  Ca1  1  0.142398  0.894573  0.901771  1
  Ca  Ca2  1  0.857602  0.105427  0.401771  1
  Ca  Ca3  1  0.857602  0.394573  0.598229  1
  Ca  Ca4  1  0.857602  0.394573  0.901771  1
  Ca  Ca5  1  0.857602  0.105427  0.098229  1
  Ca  Ca6  1  0.142398  0.894573  0.598229  1
  Ca  Ca7  1  0.142398  0.605427  0.401771  1
  Ca  Ca8  1  0.369915  0.257720  0.250000  1
  Ca  Ca9  1  0.369915  0.242280  0.750000  1
  Ca  Ca10  1  0.630085  0.757720  0.250000  1
  Ca  Ca11  1  0.630085  0.742280  0.750000  1
  Ga  Ga12  1  0.398092  0.250000  0.000000  1
  Ga  Ga13  1  0.601908  0.750000  0.500000  1
  Ga  Ga14  1  0.601908  0.750000  0.000000  1
  Ga  Ga15  1  0.398092  0.250000  0.500000  1
  Ge  Ge16  1  0.850573  0.409470  0.250000  1
  Ge  Ge17  1  0.850573  0.090530  0.750000  1
  Ge  Ge18  1  0.149427  0.909470  0.250000  1
  Ge  Ge19  1  0.149427  0.590530  0.750000  1
  Ir  Ir20  1  0.640570  0.473824  0.094617  1
  Ir  Ir21  1  0.640570  0.026176  0.905383  1
  Ir  Ir22  1  0.359430  0.973824  0.405383  1
  Ir  Ir23  1  0.359430  0.526176  0.594617  1
  Ir  Ir24  1  0.359430  0.526176  0.905383  1
  Ir  Ir25  1  0.359430  0.973824  0.094617  1
  Ir  Ir26  1  0.640570  0.026176  0.594617  1
  Ir  Ir27  1  0.640570  0.473824  0.405383  1
