# generated using pymatgen
data_Tb3HoEr2(Si3Ru)8
_symmetry_space_group_name_H-M   'P 1'
_cell_length_a   10.11900096
_cell_length_b   10.11900214
_cell_length_c   8.14675902
_cell_angle_alpha   90.07013298
_cell_angle_beta   89.92985929
_cell_angle_gamma   132.56502176
_symmetry_Int_Tables_number   1
_chemical_formula_structural   Tb3HoEr2(Si3Ru)8
_chemical_formula_sum   'Tb3 Ho1 Er2 Si24 Ru8'
_cell_volume   614.38210308
_cell_formula_units_Z   1
loop_
 _symmetry_equiv_pos_site_id
 _symmetry_equiv_pos_as_xyz
  1  'x, y, z'
loop_
 _atom_site_type_symbol
 _atom_site_label
 _atom_site_symmetry_multiplicity
 _atom_site_fract_x
 _atom_site_fract_y
 _atom_site_fract_z
 _atom_site_occupancy
  Tb  Tb0  1  0.502434  0.002434  0.750000  1
  Tb  Tb1  1  0.997553  0.497553  0.250000  1
  Tb  Tb2  1  0.497250  0.997250  0.250000  1
  Ho  Ho3  1  0.002603  0.502603  0.750000  1
  Er  Er4  1  0.499952  0.500055  0.500052  1
  Er  Er5  1  0.000055  0.999952  0.999948  1
  Si  Si6  1  0.794318  0.205296  0.500468  1
  Si  Si7  1  0.294687  0.705586  0.999811  1
  Si  Si8  1  0.205586  0.794687  0.500189  1
  Si  Si9  1  0.705296  0.294318  0.999532  1
  Si  Si10  1  0.332484  0.332249  0.833066  1
  Si  Si11  1  0.667546  0.667697  0.167024  1
  Si  Si12  1  0.167697  0.167546  0.332976  1
  Si  Si13  1  0.832249  0.832484  0.666934  1
  Si  Si14  1  0.121969  0.887905  0.727917  1
  Si  Si15  1  0.113553  0.879301  0.271271  1
  Si  Si16  1  0.611405  0.377098  0.228449  1
  Si  Si17  1  0.621330  0.387363  0.771579  1
  Si  Si18  1  0.877098  0.111405  0.271551  1
  Si  Si19  1  0.887363  0.121330  0.728421  1
  Si  Si20  1  0.387905  0.621969  0.772083  1
  Si  Si21  1  0.379301  0.613553  0.228729  1
  Si  Si22  1  0.346165  0.112333  0.504684  1
  Si  Si23  1  0.888684  0.655923  0.496125  1
  Si  Si24  1  0.387641  0.153765  0.005170  1
  Si  Si25  1  0.844280  0.611343  0.994936  1
  Si  Si26  1  0.653765  0.887641  0.494830  1
  Si  Si27  1  0.111343  0.344280  0.505064  1
  Si  Si28  1  0.612333  0.846165  0.995316  1
  Si  Si29  1  0.155923  0.388684  0.003875  1
  Ru  Ru30  1  0.670724  0.333455  0.500287  1
  Ru  Ru31  1  0.166585  0.829252  0.998870  1
  Ru  Ru32  1  0.329252  0.666585  0.501130  1
  Ru  Ru33  1  0.833455  0.170724  0.999713  1
  Ru  Ru34  1  0.126263  0.125965  0.626913  1
  Ru  Ru35  1  0.874029  0.873956  0.372926  1
  Ru  Ru36  1  0.373956  0.374029  0.127074  1
  Ru  Ru37  1  0.625965  0.626263  0.873087  1
