# generated using pymatgen
data_Ti7Nb(As2Se)2
_symmetry_space_group_name_H-M   'P 1'
_cell_length_a   7.42596608
_cell_length_b   7.42596566
_cell_length_c   18.89907700
_cell_angle_alpha   90.00000000
_cell_angle_beta   90.00000000
_cell_angle_gamma   152.67813409
_symmetry_Int_Tables_number   1
_chemical_formula_structural   Ti7Nb(As2Se)2
_chemical_formula_sum   'Ti14 Nb2 As8 Se4'
_cell_volume   478.35292619
_cell_formula_units_Z   2
loop_
 _symmetry_equiv_pos_site_id
 _symmetry_equiv_pos_as_xyz
  1  'x, y, z'
loop_
 _atom_site_type_symbol
 _atom_site_label
 _atom_site_symmetry_multiplicity
 _atom_site_fract_x
 _atom_site_fract_y
 _atom_site_fract_z
 _atom_site_occupancy
  Ti  Ti0  1  0.733947  0.266053  0.159061  1
  Ti  Ti1  1  0.266053  0.733947  0.840939  1
  Ti  Ti2  1  0.266053  0.733947  0.659061  1
  Ti  Ti3  1  0.733947  0.266053  0.340939  1
  Ti  Ti4  1  0.534023  0.465977  0.116874  1
  Ti  Ti5  1  0.465977  0.534023  0.883126  1
  Ti  Ti6  1  0.465977  0.534023  0.616874  1
  Ti  Ti7  1  0.534023  0.465977  0.383126  1
  Ti  Ti8  1  0.666718  0.333282  0.970922  1
  Ti  Ti9  1  0.333282  0.666718  0.029078  1
  Ti  Ti10  1  0.333282  0.666718  0.470922  1
  Ti  Ti11  1  0.666718  0.333282  0.529078  1
  Ti  Ti12  1  0.058002  0.941998  0.750000  1
  Ti  Ti13  1  0.941998  0.058002  0.250000  1
  Nb  Nb14  1  0.000000  0.000000  0.000000  1
  Nb  Nb15  1  0.000000  0.000000  0.500000  1
  As  As16  1  0.900886  0.099114  0.118358  1
  As  As17  1  0.099114  0.900886  0.881642  1
  As  As18  1  0.099114  0.900886  0.618358  1
  As  As19  1  0.900886  0.099114  0.381642  1
  As  As20  1  0.839766  0.160234  0.925184  1
  As  As21  1  0.160234  0.839766  0.074816  1
  As  As22  1  0.160234  0.839766  0.425184  1
  As  As23  1  0.839766  0.160234  0.574816  1
  Se  Se24  1  0.699620  0.300380  0.750000  1
  Se  Se25  1  0.300380  0.699620  0.250000  1
  Se  Se26  1  0.421818  0.578182  0.750000  1
  Se  Se27  1  0.578182  0.421818  0.250000  1
