# generated using pymatgen
data_Mg4AlSiPt10
_symmetry_space_group_name_H-M   'P 1'
_cell_length_a   4.07622800
_cell_length_b   5.52044861
_cell_length_c   10.83180124
_cell_angle_alpha   90.42783884
_cell_angle_beta   90.00000000
_cell_angle_gamma   90.00000000
_symmetry_Int_Tables_number   1
_chemical_formula_structural   Mg4AlSiPt10
_chemical_formula_sum   'Mg4 Al1 Si1 Pt10'
_cell_volume   243.73697301
_cell_formula_units_Z   1
loop_
 _symmetry_equiv_pos_site_id
 _symmetry_equiv_pos_as_xyz
  1  'x, y, z'
loop_
 _atom_site_type_symbol
 _atom_site_label
 _atom_site_symmetry_multiplicity
 _atom_site_fract_x
 _atom_site_fract_y
 _atom_site_fract_z
 _atom_site_occupancy
  Mg  Mg0  1  0.500000  0.179662  0.641071  1
  Mg  Mg1  1  0.500000  0.820338  0.358929  1
  Mg  Mg2  1  0.500000  0.684727  0.860044  1
  Mg  Mg3  1  0.500000  0.315273  0.139956  1
  Al  Al4  1  0.000000  0.000000  0.000000  1
  Si  Si5  1  0.000000  0.500000  0.500000  1
  Pt  Pt6  1  0.500000  0.311040  0.398507  1
  Pt  Pt7  1  0.500000  0.688960  0.601493  1
  Pt  Pt8  1  0.500000  0.804525  0.107123  1
  Pt  Pt9  1  0.500000  0.195475  0.892877  1
  Pt  Pt10  1  0.000000  0.439458  0.735560  1
  Pt  Pt11  1  0.000000  0.560542  0.264440  1
  Pt  Pt12  1  0.000000  0.937956  0.759514  1
  Pt  Pt13  1  0.000000  0.062044  0.240486  1
  Pt  Pt14  1  0.000000  0.500000  0.000000  1
  Pt  Pt15  1  0.000000  0.000000  0.500000  1
