# generated using pymatgen
data_YHoCo4(PIr)6
_symmetry_space_group_name_H-M   'P 1'
_cell_length_a   3.86728200
_cell_length_b   10.59291000
_cell_length_c   12.20238700
_cell_angle_alpha   90.00223716
_cell_angle_beta   90.00008670
_cell_angle_gamma   90.00014439
_symmetry_Int_Tables_number   1
_chemical_formula_structural   YHoCo4(PIr)6
_chemical_formula_sum   'Y2 Ho2 Co8 P12 Ir12'
_cell_volume   499.88018118
_cell_formula_units_Z   2
loop_
 _symmetry_equiv_pos_site_id
 _symmetry_equiv_pos_as_xyz
  1  'x, y, z'
loop_
 _atom_site_type_symbol
 _atom_site_label
 _atom_site_symmetry_multiplicity
 _atom_site_fract_x
 _atom_site_fract_y
 _atom_site_fract_z
 _atom_site_occupancy
  Y  Y0  1  0.750002  0.415660  0.289135  1
  Y  Y1  1  0.249998  0.584340  0.710865  1
  Ho  Ho2  1  0.250002  0.915618  0.210692  1
  Ho  Ho3  1  0.749998  0.084382  0.789308  1
  Co  Co4  1  0.249998  0.616929  0.196994  1
  Co  Co5  1  0.750002  0.383071  0.803006  1
  Co  Co6  1  0.750000  0.116510  0.302920  1
  Co  Co7  1  0.250000  0.883490  0.697080  1
  Co  Co8  1  0.249998  0.036109  0.433638  1
  Co  Co9  1  0.750002  0.963891  0.566362  1
  Co  Co10  1  0.750003  0.536261  0.066229  1
  Co  Co11  1  0.249997  0.463739  0.933771  1
  P  P12  1  0.250000  0.067331  0.611087  1
  P  P13  1  0.750000  0.932669  0.388913  1
  P  P14  1  0.750000  0.567363  0.889202  1
  P  P15  1  0.250000  0.432637  0.110798  1
  P  P16  1  0.250000  0.225409  0.370238  1
  P  P17  1  0.750000  0.774591  0.629762  1
  P  P18  1  0.749999  0.725668  0.129904  1
  P  P19  1  0.250001  0.274332  0.870096  1
  P  P20  1  0.250000  0.902191  0.876724  1
  P  P21  1  0.750000  0.097809  0.123276  1
  P  P22  1  0.750001  0.401930  0.623026  1
  P  P23  1  0.249999  0.598070  0.376974  1
  Ir  Ir24  1  0.249998  0.776753  0.490549  1
  Ir  Ir25  1  0.750002  0.223247  0.509451  1
  Ir  Ir26  1  0.749999  0.276630  0.009369  1
  Ir  Ir27  1  0.250001  0.723370  0.990631  1
  Ir  Ir28  1  0.250002  0.089561  0.976259  1
  Ir  Ir29  1  0.749998  0.910439  0.023741  1
  Ir  Ir30  1  0.750001  0.589619  0.523206  1
  Ir  Ir31  1  0.249999  0.410381  0.476794  1
  Ir  Ir32  1  0.249998  0.272123  0.678571  1
  Ir  Ir33  1  0.750002  0.727877  0.321429  1
  Ir  Ir34  1  0.750002  0.772671  0.821644  1
  Ir  Ir35  1  0.249998  0.227329  0.178356  1
