# generated using pymatgen
data_NdCuIO6
_symmetry_space_group_name_H-M   'P 1'
_cell_length_a   5.23722800
_cell_length_b   5.23722894
_cell_length_c   5.08577200
_cell_angle_alpha   90.00000000
_cell_angle_beta   90.00000000
_cell_angle_gamma   120.00000670
_symmetry_Int_Tables_number   1
_chemical_formula_structural   NdCuIO6
_chemical_formula_sum   'Nd1 Cu1 I1 O6'
_cell_volume   120.80656306
_cell_formula_units_Z   1
loop_
 _symmetry_equiv_pos_site_id
 _symmetry_equiv_pos_as_xyz
  1  'x, y, z'
loop_
 _atom_site_type_symbol
 _atom_site_label
 _atom_site_symmetry_multiplicity
 _atom_site_fract_x
 _atom_site_fract_y
 _atom_site_fract_z
 _atom_site_occupancy
  Nd  Nd0  1  0.333333  0.666667  0.000000  1
  Cu  Cu1  1  0.666667  0.333333  0.500000  1
  I  I2  1  0.000000  0.000000  0.500000  1
  O  O3  1  0.306593  0.017932  0.714585  1
  O  O4  1  0.982068  0.693407  0.285415  1
  O  O5  1  0.306593  0.288661  0.285415  1
  O  O6  1  0.711339  0.017932  0.285415  1
  O  O7  1  0.982068  0.288661  0.714585  1
  O  O8  1  0.711339  0.693407  0.714585  1
