# generated using pymatgen
data_Tb5Nd(Lu2Pb3)2
_symmetry_space_group_name_H-M   'P 1'
_cell_length_a   9.07322490
_cell_length_b   9.03867734
_cell_length_c   6.60384800
_cell_angle_alpha   90.00000000
_cell_angle_beta   90.00000000
_cell_angle_gamma   119.87412271
_symmetry_Int_Tables_number   1
_chemical_formula_structural   Tb5Nd(Lu2Pb3)2
_chemical_formula_sum   'Tb5 Nd1 Lu4 Pb6'
_cell_volume   469.61691608
_cell_formula_units_Z   1
loop_
 _symmetry_equiv_pos_site_id
 _symmetry_equiv_pos_as_xyz
  1  'x, y, z'
loop_
 _atom_site_type_symbol
 _atom_site_label
 _atom_site_symmetry_multiplicity
 _atom_site_fract_x
 _atom_site_fract_y
 _atom_site_fract_z
 _atom_site_occupancy
  Tb  Tb0  1  0.760140  0.761430  0.750000  1
  Tb  Tb1  1  0.239860  0.001290  0.750000  1
  Tb  Tb2  1  0.000000  0.234585  0.750000  1
  Tb  Tb3  1  0.238688  0.238098  0.250000  1
  Tb  Tb4  1  0.761312  0.999410  0.250000  1
  Nd  Nd5  1  0.000000  0.764434  0.250000  1
  Lu  Lu6  1  0.668157  0.334403  0.999856  1
  Lu  Lu7  1  0.331843  0.666247  0.999856  1
  Lu  Lu8  1  0.331843  0.666247  0.500144  1
  Lu  Lu9  1  0.668157  0.334403  0.500144  1
  Pb  Pb10  1  0.396719  0.397015  0.750000  1
  Pb  Pb11  1  0.603281  0.000296  0.750000  1
  Pb  Pb12  1  0.000000  0.602588  0.750000  1
  Pb  Pb13  1  0.598312  0.601663  0.250000  1
  Pb  Pb14  1  0.401688  0.003351  0.250000  1
  Pb  Pb15  1  0.000000  0.394539  0.250000  1
