# generated using pymatgen
data_PuZn(SeO5)2
_symmetry_space_group_name_H-M   'P 1'
_cell_length_a   5.95617307
_cell_length_b   5.55197253
_cell_length_c   7.71665535
_cell_angle_alpha   75.91793637
_cell_angle_beta   71.10189531
_cell_angle_gamma   100.83621504
_symmetry_Int_Tables_number   1
_chemical_formula_structural   PuZn(SeO5)2
_chemical_formula_sum   'Pu1 Zn1 Se2 O10'
_cell_volume   224.05198064
_cell_formula_units_Z   1
loop_
 _symmetry_equiv_pos_site_id
 _symmetry_equiv_pos_as_xyz
  1  'x, y, z'
loop_
 _atom_site_type_symbol
 _atom_site_label
 _atom_site_symmetry_multiplicity
 _atom_site_fract_x
 _atom_site_fract_y
 _atom_site_fract_z
 _atom_site_occupancy
  Pu  Pu0  1  0.000000  0.000000  0.500000  1
  Zn  Zn1  1  0.000000  0.000000  0.000000  1
  Se  Se2  1  0.317429  0.667373  0.765207  1
  Se  Se3  1  0.682571  0.332627  0.234793  1
  O  O4  1  0.307874  0.899431  0.867695  1
  O  O5  1  0.692126  0.100569  0.132305  1
  O  O6  1  0.148695  0.678000  0.624766  1
  O  O7  1  0.851305  0.322000  0.375234  1
  O  O8  1  0.232141  0.374604  0.926171  1
  O  O9  1  0.767859  0.625396  0.073829  1
  O  O10  1  0.611846  0.728316  0.607657  1
  O  O11  1  0.388154  0.271684  0.392343  1
  O  O12  1  0.931443  0.071093  0.723574  1
  O  O13  1  0.068557  0.928907  0.276426  1
