# generated using pymatgen
data_ErTm15In3HgIr4
_symmetry_space_group_name_H-M   'P 1'
_cell_length_a   9.52310368
_cell_length_b   9.55981961
_cell_length_c   9.53856491
_cell_angle_alpha   59.92625960
_cell_angle_beta   59.89126091
_cell_angle_gamma   59.87237391
_symmetry_Int_Tables_number   1
_chemical_formula_structural   ErTm15In3HgIr4
_chemical_formula_sum   'Er1 Tm15 In3 Hg1 Ir4'
_cell_volume   612.59912862
_cell_formula_units_Z   1
loop_
 _symmetry_equiv_pos_site_id
 _symmetry_equiv_pos_as_xyz
  1  'x, y, z'
loop_
 _atom_site_type_symbol
 _atom_site_label
 _atom_site_symmetry_multiplicity
 _atom_site_fract_x
 _atom_site_fract_y
 _atom_site_fract_z
 _atom_site_occupancy
  Er  Er0  1  0.057681  0.439527  0.063265  1
  Tm  Tm1  1  0.057868  0.063688  0.439099  1
  Tm  Tm2  1  0.649847  0.048251  0.650070  1
  Tm  Tm3  1  0.191677  0.808348  0.191625  1
  Tm  Tm4  1  0.437829  0.061276  0.439618  1
  Tm  Tm5  1  0.192399  0.190636  0.808876  1
  Tm  Tm6  1  0.649847  0.651832  0.650070  1
  Tm  Tm7  1  0.048203  0.651107  0.649584  1
  Tm  Tm8  1  0.438446  0.060866  0.060963  1
  Tm  Tm9  1  0.649246  0.650548  0.049658  1
  Tm  Tm10  1  0.192399  0.808088  0.808876  1
  Tm  Tm11  1  0.808673  0.190960  0.809408  1
  Tm  Tm12  1  0.809276  0.190114  0.191449  1
  Tm  Tm13  1  0.809276  0.809161  0.191449  1
  Tm  Tm14  1  0.057868  0.439345  0.439099  1
  Tm  Tm15  1  0.438446  0.439725  0.060963  1
  In  In16  1  0.417904  0.416699  0.748698  1
  In  In17  1  0.417571  0.748948  0.416705  1
  In  In18  1  0.417571  0.416775  0.416705  1
  Hg  Hg19  1  0.758735  0.413607  0.414049  1
  Ir  Ir20  1  0.858232  0.859110  0.858773  1
  Ir  Ir21  1  0.424398  0.858596  0.858412  1
  Ir  Ir22  1  0.858377  0.858906  0.423812  1
  Ir  Ir23  1  0.858232  0.423886  0.858773  1
