# generated using pymatgen
data_Tb12Ho4MgIn3Ru4
_symmetry_space_group_name_H-M   'P 1'
_cell_length_a   9.67089543
_cell_length_b   9.65188317
_cell_length_c   9.65188400
_cell_angle_alpha   59.99999715
_cell_angle_beta   60.06500816
_cell_angle_gamma   60.06501313
_symmetry_Int_Tables_number   1
_chemical_formula_structural   Tb12Ho4MgIn3Ru4
_chemical_formula_sum   'Tb12 Ho4 Mg1 In3 Ru4'
_cell_volume   637.67866226
_cell_formula_units_Z   1
loop_
 _symmetry_equiv_pos_site_id
 _symmetry_equiv_pos_as_xyz
  1  'x, y, z'
loop_
 _atom_site_type_symbol
 _atom_site_label
 _atom_site_symmetry_multiplicity
 _atom_site_fract_x
 _atom_site_fract_y
 _atom_site_fract_z
 _atom_site_occupancy
  Tb  Tb0  1  0.057285  0.442443  0.442443  1
  Tb  Tb1  1  0.440154  0.060280  0.060280  1
  Tb  Tb2  1  0.440154  0.060280  0.439287  1
  Tb  Tb3  1  0.057285  0.442443  0.057829  1
  Tb  Tb4  1  0.440154  0.439287  0.060280  1
  Tb  Tb5  1  0.057285  0.057829  0.442443  1
  Tb  Tb6  1  0.190300  0.810015  0.810015  1
  Tb  Tb7  1  0.810029  0.190022  0.190022  1
  Tb  Tb8  1  0.810029  0.190022  0.809928  1
  Tb  Tb9  1  0.190300  0.810015  0.189671  1
  Tb  Tb10  1  0.810029  0.809928  0.190022  1
  Tb  Tb11  1  0.190300  0.189671  0.810015  1
  Ho  Ho12  1  0.596991  0.596035  0.596035  1
  Ho  Ho13  1  0.596991  0.596035  0.210939  1
  Ho  Ho14  1  0.596991  0.210939  0.596035  1
  Ho  Ho15  1  0.207026  0.597659  0.597659  1
  Mg  Mg16  1  0.521806  0.826064  0.826064  1
  In  In17  1  0.830113  0.832091  0.832091  1
  In  In18  1  0.830113  0.832091  0.505703  1
  In  In19  1  0.830113  0.505703  0.832091  1
  Ru  Ru20  1  0.388861  0.390447  0.390447  1
  Ru  Ru21  1  0.388861  0.390447  0.830242  1
  Ru  Ru22  1  0.388861  0.830242  0.390447  1
  Ru  Ru23  1  0.829968  0.390011  0.390011  1
