# generated using pymatgen
data_Y2Ho3(In2Pd)2
_symmetry_space_group_name_H-M   'P 1'
_cell_length_a   3.62267700
_cell_length_b   8.15763830
_cell_length_c   18.25770468
_cell_angle_alpha   89.88467567
_cell_angle_beta   90.00000000
_cell_angle_gamma   90.00000000
_symmetry_Int_Tables_number   1
_chemical_formula_structural   Y2Ho3(In2Pd)2
_chemical_formula_sum   'Y4 Ho6 In8 Pd4'
_cell_volume   539.55951721
_cell_formula_units_Z   2
loop_
 _symmetry_equiv_pos_site_id
 _symmetry_equiv_pos_as_xyz
  1  'x, y, z'
loop_
 _atom_site_type_symbol
 _atom_site_label
 _atom_site_symmetry_multiplicity
 _atom_site_fract_x
 _atom_site_fract_y
 _atom_site_fract_z
 _atom_site_occupancy
  Y  Y0  1  0.000000  0.500000  0.500000  1
  Y  Y1  1  0.000000  0.000000  0.000000  1
  Y  Y2  1  0.000000  0.738555  0.280816  1
  Y  Y3  1  0.000000  0.261445  0.719184  1
  Ho  Ho4  1  0.000000  0.760819  0.780452  1
  Ho  Ho5  1  0.000000  0.239181  0.219548  1
  Ho  Ho6  1  0.000000  0.615425  0.083349  1
  Ho  Ho7  1  0.000000  0.384575  0.916651  1
  Ho  Ho8  1  0.000000  0.883886  0.583323  1
  Ho  Ho9  1  0.000000  0.116114  0.416677  1
  In  In10  1  0.500000  0.709149  0.932062  1
  In  In11  1  0.500000  0.290851  0.067938  1
  In  In12  1  0.500000  0.791792  0.432337  1
  In  In13  1  0.500000  0.208208  0.567663  1
  In  In14  1  0.500000  0.583051  0.650306  1
  In  In15  1  0.500000  0.416949  0.349694  1
  In  In16  1  0.500000  0.918306  0.150118  1
  In  In17  1  0.500000  0.081694  0.849882  1
  Pd  Pd18  1  0.500000  0.520484  0.195051  1
  Pd  Pd19  1  0.500000  0.479516  0.804949  1
  Pd  Pd20  1  0.500000  0.973832  0.695660  1
  Pd  Pd21  1  0.500000  0.026168  0.304340  1
