# generated using pymatgen
data_Tb12GaCo4Os
_symmetry_space_group_name_H-M   'P 1'
_cell_length_a   8.27327075
_cell_length_b   8.27327076
_cell_length_c   8.27327021
_cell_angle_alpha   111.66316843
_cell_angle_beta   109.73994754
_cell_angle_gamma   107.04357946
_symmetry_Int_Tables_number   1
_chemical_formula_structural   Tb12GaCo4Os
_chemical_formula_sum   'Tb12 Ga1 Co4 Os1'
_cell_volume   435.21084084
_cell_formula_units_Z   1
loop_
 _symmetry_equiv_pos_site_id
 _symmetry_equiv_pos_as_xyz
  1  'x, y, z'
loop_
 _atom_site_type_symbol
 _atom_site_label
 _atom_site_symmetry_multiplicity
 _atom_site_fract_x
 _atom_site_fract_y
 _atom_site_fract_z
 _atom_site_occupancy
  Tb  Tb0  1  0.039250  0.728038  0.311211  1
  Tb  Tb1  1  0.960750  0.271962  0.688789  1
  Tb  Tb2  1  0.583172  0.271962  0.311211  1
  Tb  Tb3  1  0.416828  0.728038  0.688789  1
  Tb  Tb4  1  0.674724  0.864444  0.189720  1
  Tb  Tb5  1  0.325276  0.514996  0.189720  1
  Tb  Tb6  1  0.325276  0.135556  0.810280  1
  Tb  Tb7  1  0.674724  0.485004  0.810280  1
  Tb  Tb8  1  0.178405  0.221072  0.399477  1
  Tb  Tb9  1  0.821595  0.221072  0.042667  1
  Tb  Tb10  1  0.178405  0.778928  0.957333  1
  Tb  Tb11  1  0.821595  0.778928  0.600523  1
  Ga  Ga12  1  0.500000  0.000000  0.500000  1
  Co  Co13  1  0.655353  0.500000  0.155353  1
  Co  Co14  1  0.344647  0.500000  0.844647  1
  Co  Co15  1  0.886606  0.886606  0.000000  1
  Co  Co16  1  0.113394  0.113394  0.000000  1
  Os  Os17  1  0.000000  0.500000  0.500000  1
