# generated using pymatgen
data_Y3Tm9Co4RhPb
_symmetry_space_group_name_H-M   'P 1'
_cell_length_a   8.27885978
_cell_length_b   8.26964126
_cell_length_c   8.26964000
_cell_angle_alpha   110.91637431
_cell_angle_beta   110.50204784
_cell_angle_gamma   106.98001524
_symmetry_Int_Tables_number   1
_chemical_formula_structural   Y3Tm9Co4RhPb
_chemical_formula_sum   'Y3 Tm9 Co4 Rh1 Pb1'
_cell_volume   435.45527217
_cell_formula_units_Z   1
loop_
 _symmetry_equiv_pos_site_id
 _symmetry_equiv_pos_as_xyz
  1  'x, y, z'
loop_
 _atom_site_type_symbol
 _atom_site_label
 _atom_site_symmetry_multiplicity
 _atom_site_fract_x
 _atom_site_fract_y
 _atom_site_fract_z
 _atom_site_occupancy
  Y  Y0  1  0.595721  0.289850  0.305871  1
  Y  Y1  1  0.185718  0.210287  0.397215  1
  Y  Y2  1  0.185718  0.788503  0.975432  1
  Tm  Tm3  1  0.689437  0.496134  0.810295  1
  Tm  Tm4  1  0.689437  0.879141  0.193303  1
  Tm  Tm5  1  0.985505  0.286359  0.699146  1
  Tm  Tm6  1  0.014511  0.708676  0.305834  1
  Tm  Tm7  1  0.311731  0.119119  0.807250  1
  Tm  Tm8  1  0.311731  0.504482  0.192613  1
  Tm  Tm9  1  0.813860  0.209194  0.022133  1
  Tm  Tm10  1  0.813860  0.791726  0.604666  1
  Tm  Tm11  1  0.413067  0.714073  0.698994  1
  Co  Co12  1  0.882182  0.888269  0.993913  1
  Co  Co13  1  0.377667  0.499408  0.878259  1
  Co  Co14  1  0.619639  0.500945  0.118694  1
  Co  Co15  1  0.103950  0.111785  0.992163  1
  Rh  Rh16  1  0.007482  0.502256  0.505226  1
  Pb  Pb17  1  0.498786  0.999793  0.498992  1
