# generated using pymatgen
data_Tm2Lu8(InBi)3
_symmetry_space_group_name_H-M   'P 1'
_cell_length_a   6.44165500
_cell_length_b   8.88847081
_cell_length_c   8.89119700
_cell_angle_alpha   120.01109210
_cell_angle_beta   89.99885495
_cell_angle_gamma   90.00251382
_symmetry_Int_Tables_number   1
_chemical_formula_structural   Tm2Lu8(InBi)3
_chemical_formula_sum   'Tm2 Lu8 In3 Bi3'
_cell_volume   440.82561658
_cell_formula_units_Z   1
loop_
 _symmetry_equiv_pos_site_id
 _symmetry_equiv_pos_as_xyz
  1  'x, y, z'
loop_
 _atom_site_type_symbol
 _atom_site_label
 _atom_site_symmetry_multiplicity
 _atom_site_fract_x
 _atom_site_fract_y
 _atom_site_fract_z
 _atom_site_occupancy
  Tm  Tm0  1  0.749804  0.234664  0.000038  1
  Tm  Tm1  1  0.749927  0.765403  0.765394  1
  Lu  Lu2  1  0.491812  0.333371  0.666740  1
  Lu  Lu3  1  0.491835  0.666616  0.333255  1
  Lu  Lu4  1  0.008237  0.666715  0.333380  1
  Lu  Lu5  1  0.008239  0.333333  0.666621  1
  Lu  Lu6  1  0.749925  0.000066  0.234637  1
  Lu  Lu7  1  0.249895  0.763217  0.000028  1
  Lu  Lu8  1  0.249878  0.236836  0.236875  1
  Lu  Lu9  1  0.249874  0.999991  0.763113  1
  In  In10  1  0.249986  0.392863  0.999982  1
  In  In11  1  0.250316  0.606934  0.606944  1
  In  In12  1  0.250316  0.999975  0.393071  1
  Bi  Bi13  1  0.750026  0.602483  0.000055  1
  Bi  Bi14  1  0.749966  0.397529  0.397579  1
  Bi  Bi15  1  0.749965  0.000007  0.602287  1
