# generated using pymatgen
data_TbY7SiPd24
_symmetry_space_group_name_H-M   'P 1'
_cell_length_a   8.35964264
_cell_length_b   8.35964226
_cell_length_c   8.35964300
_cell_angle_alpha   89.93346276
_cell_angle_beta   90.06653724
_cell_angle_gamma   90.06653222
_symmetry_Int_Tables_number   1
_chemical_formula_structural   TbY7SiPd24
_chemical_formula_sum   'Tb1 Y7 Si1 Pd24'
_cell_volume   584.20094953
_cell_formula_units_Z   1
loop_
 _symmetry_equiv_pos_site_id
 _symmetry_equiv_pos_as_xyz
  1  'x, y, z'
loop_
 _atom_site_type_symbol
 _atom_site_label
 _atom_site_symmetry_multiplicity
 _atom_site_fract_x
 _atom_site_fract_y
 _atom_site_fract_z
 _atom_site_occupancy
  Tb  Tb0  1  0.745790  0.254210  0.254210  1
  Y  Y1  1  0.252621  0.253374  0.253374  1
  Y  Y2  1  0.746717  0.746417  0.746417  1
  Y  Y3  1  0.746626  0.747379  0.253374  1
  Y  Y4  1  0.746626  0.253374  0.747379  1
  Y  Y5  1  0.253583  0.253283  0.746417  1
  Y  Y6  1  0.253583  0.746417  0.253283  1
  Y  Y7  1  0.253635  0.746365  0.746365  1
  Si  Si8  1  0.000451  0.999549  0.999549  1
  Pd  Pd9  1  0.257644  0.499727  0.999901  1
  Pd  Pd10  1  0.742597  0.499822  0.000920  1
  Pd  Pd11  1  0.999080  0.257403  0.499822  1
  Pd  Pd12  1  0.500178  0.257403  0.000920  1
  Pd  Pd13  1  0.000099  0.742356  0.499727  1
  Pd  Pd14  1  0.500273  0.742356  0.999901  1
  Pd  Pd15  1  0.500178  0.000920  0.257403  1
  Pd  Pd16  1  0.257644  0.999901  0.499727  1
  Pd  Pd17  1  0.500273  0.999901  0.742356  1
  Pd  Pd18  1  0.742597  0.000920  0.499822  1
  Pd  Pd19  1  0.999080  0.499822  0.257403  1
  Pd  Pd20  1  0.000099  0.499727  0.742356  1
  Pd  Pd21  1  0.252308  0.499748  0.499748  1
  Pd  Pd22  1  0.747320  0.500128  0.500128  1
  Pd  Pd23  1  0.499872  0.252680  0.500128  1
  Pd  Pd24  1  0.500252  0.747692  0.499748  1
  Pd  Pd25  1  0.499872  0.500128  0.252680  1
  Pd  Pd26  1  0.500252  0.499748  0.747692  1
  Pd  Pd27  1  0.280849  0.999803  0.999803  1
  Pd  Pd28  1  0.719887  0.000191  0.000191  1
  Pd  Pd29  1  0.999809  0.280113  0.000191  1
  Pd  Pd30  1  0.000197  0.719151  0.999803  1
  Pd  Pd31  1  0.999809  0.000191  0.280113  1
  Pd  Pd32  1  0.000197  0.999803  0.719151  1
