# generated using pymatgen
data_HoEr3Cd2Si3Ge
_symmetry_space_group_name_H-M   'P 1'
_cell_length_a   7.15756381
_cell_length_b   7.15740350
_cell_length_c   4.16608400
_cell_angle_alpha   90.00000000
_cell_angle_beta   90.00000000
_cell_angle_gamma   90.05194632
_symmetry_Int_Tables_number   1
_chemical_formula_structural   HoEr3Cd2Si3Ge
_chemical_formula_sum   'Ho1 Er3 Cd2 Si3 Ge1'
_cell_volume   213.42661380
_cell_formula_units_Z   1
loop_
 _symmetry_equiv_pos_site_id
 _symmetry_equiv_pos_as_xyz
  1  'x, y, z'
loop_
 _atom_site_type_symbol
 _atom_site_label
 _atom_site_symmetry_multiplicity
 _atom_site_fract_x
 _atom_site_fract_y
 _atom_site_fract_z
 _atom_site_occupancy
  Ho  Ho0  1  0.679922  0.177501  0.500000  1
  Er  Er1  1  0.322380  0.819928  0.500000  1
  Er  Er2  1  0.175727  0.324357  0.500000  1
  Er  Er3  1  0.822900  0.677167  0.500000  1
  Cd  Cd4  1  0.501127  0.503049  0.000000  1
  Cd  Cd5  1  0.997230  0.998729  0.000000  1
  Si  Si6  1  0.117635  0.617778  0.000000  1
  Si  Si7  1  0.882613  0.382758  0.000000  1
  Si  Si8  1  0.620478  0.879127  0.000000  1
  Ge  Ge9  1  0.379987  0.119605  0.000000  1
