# generated using pymatgen
data_K6InSb3
_symmetry_space_group_name_H-M   'P 1'
_cell_length_a   9.65460275
_cell_length_b   9.72327494
_cell_length_c   10.82481265
_cell_angle_alpha   82.87845026
_cell_angle_beta   107.46574136
_cell_angle_gamma   118.65469692
_symmetry_Int_Tables_number   1
_chemical_formula_structural   K6InSb3
_chemical_formula_sum   'K12 In2 Sb6'
_cell_volume   850.36441778
_cell_formula_units_Z   2
loop_
 _symmetry_equiv_pos_site_id
 _symmetry_equiv_pos_as_xyz
  1  'x, y, z'
loop_
 _atom_site_type_symbol
 _atom_site_label
 _atom_site_symmetry_multiplicity
 _atom_site_fract_x
 _atom_site_fract_y
 _atom_site_fract_z
 _atom_site_occupancy
  K  K0  1  0.364326  0.508366  0.135105  1
  K  K1  1  0.586280  0.852451  0.609203  1
  K  K2  1  0.630639  0.876907  0.994626  1
  K  K3  1  0.168739  0.186862  0.610193  1
  K  K4  1  0.160714  0.543720  0.395854  1
  K  K5  1  0.043851  0.776183  0.107363  1
  K  K6  1  0.956149  0.223817  0.892637  1
  K  K7  1  0.839286  0.456280  0.604146  1
  K  K8  1  0.831261  0.813138  0.389807  1
  K  K9  1  0.369361  0.123093  0.005374  1
  K  K10  1  0.413720  0.147549  0.390797  1
  K  K11  1  0.635674  0.491634  0.864895  1
  In  In12  1  0.240991  0.825546  0.750343  1
  In  In13  1  0.759009  0.174454  0.249657  1
  Sb  Sb14  1  0.476472  0.878046  0.258322  1
  Sb  Sb15  1  0.045657  0.166708  0.237402  1
  Sb  Sb16  1  0.271006  0.545811  0.760418  1
  Sb  Sb17  1  0.728994  0.454189  0.239582  1
  Sb  Sb18  1  0.954343  0.833292  0.762598  1
  Sb  Sb19  1  0.523528  0.121954  0.741678  1
