# generated using pymatgen
data_Tm4Al16GaGeIr6
_symmetry_space_group_name_H-M   'P 1'
_cell_length_a   7.52961728
_cell_length_b   7.52961641
_cell_length_c   9.43069600
_cell_angle_alpha   90.00000000
_cell_angle_beta   90.00000000
_cell_angle_gamma   119.55688933
_symmetry_Int_Tables_number   1
_chemical_formula_structural   Tm4Al16GaGeIr6
_chemical_formula_sum   'Tm4 Al16 Ga1 Ge1 Ir6'
_cell_volume   465.09537882
_cell_formula_units_Z   1
loop_
 _symmetry_equiv_pos_site_id
 _symmetry_equiv_pos_as_xyz
  1  'x, y, z'
loop_
 _atom_site_type_symbol
 _atom_site_label
 _atom_site_symmetry_multiplicity
 _atom_site_fract_x
 _atom_site_fract_y
 _atom_site_fract_z
 _atom_site_occupancy
  Tm  Tm0  1  0.994598  0.677378  0.250000  1
  Tm  Tm1  1  0.003415  0.326981  0.750000  1
  Tm  Tm2  1  0.677378  0.994598  0.250000  1
  Tm  Tm3  1  0.326981  0.003415  0.750000  1
  Al  Al4  1  0.999995  0.338069  0.074358  1
  Al  Al5  1  0.998288  0.664350  0.924680  1
  Al  Al6  1  0.998288  0.664350  0.575320  1
  Al  Al7  1  0.338069  0.999995  0.425642  1
  Al  Al8  1  0.999995  0.338069  0.425642  1
  Al  Al9  1  0.664350  0.998288  0.575320  1
  Al  Al10  1  0.664350  0.998288  0.924680  1
  Al  Al11  1  0.338069  0.999995  0.074358  1
  Al  Al12  1  0.332310  0.332310  0.560328  1
  Al  Al13  1  0.663772  0.663772  0.446343  1
  Al  Al14  1  0.663772  0.663772  0.053657  1
  Al  Al15  1  0.332310  0.332310  0.939672  1
  Al  Al16  1  0.337508  0.554672  0.250000  1
  Al  Al17  1  0.661922  0.450175  0.750000  1
  Al  Al18  1  0.554672  0.337508  0.250000  1
  Al  Al19  1  0.450175  0.661922  0.750000  1
  Ga  Ga20  1  0.869401  0.869401  0.750000  1
  Ge  Ge21  1  0.136913  0.136913  0.250000  1
  Ir  Ir22  1  0.669987  0.326791  0.999755  1
  Ir  Ir23  1  0.326791  0.669987  0.999755  1
  Ir  Ir24  1  0.326791  0.669987  0.500245  1
  Ir  Ir25  1  0.669987  0.326791  0.500245  1
  Ir  Ir26  1  0.999956  0.999956  0.003859  1
  Ir  Ir27  1  0.999956  0.999956  0.496141  1
