# generated using pymatgen
data_Ce2NdTh(Si3Rh)2
_symmetry_space_group_name_H-M   'P 1'
_cell_length_a   8.25327546
_cell_length_b   8.29527254
_cell_length_c   4.16744000
_cell_angle_alpha   90.00000000
_cell_angle_beta   90.00000000
_cell_angle_gamma   120.57054837
_symmetry_Int_Tables_number   1
_chemical_formula_structural   Ce2NdTh(Si3Rh)2
_chemical_formula_sum   'Ce2 Nd1 Th1 Si6 Rh2'
_cell_volume   245.65822547
_cell_formula_units_Z   1
loop_
 _symmetry_equiv_pos_site_id
 _symmetry_equiv_pos_as_xyz
  1  'x, y, z'
loop_
 _atom_site_type_symbol
 _atom_site_label
 _atom_site_symmetry_multiplicity
 _atom_site_fract_x
 _atom_site_fract_y
 _atom_site_fract_z
 _atom_site_occupancy
  Ce  Ce0  1  0.000000  0.000000  0.500000  1
  Ce  Ce1  1  0.500000  0.000000  0.500000  1
  Nd  Nd2  1  0.500000  0.500000  0.500000  1
  Th  Th3  1  0.000000  0.500000  0.500000  1
  Si  Si4  1  0.167158  0.329301  0.000000  1
  Si  Si5  1  0.664160  0.831978  0.000000  1
  Si  Si6  1  0.335840  0.168022  0.000000  1
  Si  Si7  1  0.165556  0.839255  0.000000  1
  Si  Si8  1  0.832842  0.670699  0.000000  1
  Si  Si9  1  0.834444  0.160745  0.000000  1
  Rh  Rh10  1  0.324333  0.665938  0.000000  1
  Rh  Rh11  1  0.675667  0.334062  0.000000  1
