# generated using pymatgen
data_Yb2Gd8Si5Sn
_symmetry_space_group_name_H-M   'P 1'
_cell_length_a   7.64491496
_cell_length_b   7.64491568
_cell_length_c   8.88047500
_cell_angle_alpha   115.49510906
_cell_angle_beta   115.49510330
_cell_angle_gamma   89.99999489
_symmetry_Int_Tables_number   1
_chemical_formula_structural   Yb2Gd8Si5Sn
_chemical_formula_sum   'Yb2 Gd8 Si5 Sn1'
_cell_volume   411.77812123
_cell_formula_units_Z   1
loop_
 _symmetry_equiv_pos_site_id
 _symmetry_equiv_pos_as_xyz
  1  'x, y, z'
loop_
 _atom_site_type_symbol
 _atom_site_label
 _atom_site_symmetry_multiplicity
 _atom_site_fract_x
 _atom_site_fract_y
 _atom_site_fract_z
 _atom_site_occupancy
  Yb  Yb0  1  0.508411  0.508411  0.016824  1
  Yb  Yb1  1  0.991589  0.991589  0.983176  1
  Gd  Gd2  1  0.979646  0.823371  0.285948  1
  Gd  Gd3  1  0.306302  0.462577  0.285948  1
  Gd  Gd4  1  0.823371  0.306302  0.285948  1
  Gd  Gd5  1  0.462577  0.979646  0.285948  1
  Gd  Gd6  1  0.037423  0.193698  0.714052  1
  Gd  Gd7  1  0.676629  0.520354  0.714052  1
  Gd  Gd8  1  0.193698  0.676629  0.714052  1
  Gd  Gd9  1  0.520354  0.037423  0.714052  1
  Si  Si10  1  0.250000  0.250000  0.500000  1
  Si  Si11  1  0.615826  0.884174  0.000000  1
  Si  Si12  1  0.384174  0.115826  0.000000  1
  Si  Si13  1  0.884174  0.384174  0.000000  1
  Si  Si14  1  0.115826  0.615826  0.000000  1
  Sn  Sn15  1  0.750000  0.750000  0.500000  1
