# generated using pymatgen
data_HoTm3(Ni2Hg)2
_symmetry_space_group_name_H-M   'P 1'
_cell_length_a   7.35445034
_cell_length_b   7.35444938
_cell_length_c   3.54372500
_cell_angle_alpha   90.00000000
_cell_angle_beta   90.00000000
_cell_angle_gamma   90.04242000
_symmetry_Int_Tables_number   1
_chemical_formula_structural   HoTm3(Ni2Hg)2
_chemical_formula_sum   'Ho1 Tm3 Ni4 Hg2'
_cell_volume   191.67270684
_cell_formula_units_Z   1
loop_
 _symmetry_equiv_pos_site_id
 _symmetry_equiv_pos_as_xyz
  1  'x, y, z'
loop_
 _atom_site_type_symbol
 _atom_site_label
 _atom_site_symmetry_multiplicity
 _atom_site_fract_x
 _atom_site_fract_y
 _atom_site_fract_z
 _atom_site_occupancy
  Ho  Ho0  1  0.674531  0.174531  0.500000  1
  Tm  Tm1  1  0.325539  0.825539  0.500000  1
  Tm  Tm2  1  0.825917  0.674133  0.500000  1
  Tm  Tm3  1  0.174133  0.325917  0.500000  1
  Ni  Ni4  1  0.379566  0.118257  0.000000  1
  Ni  Ni5  1  0.881940  0.381940  0.000000  1
  Ni  Ni6  1  0.119982  0.619982  0.000000  1
  Ni  Ni7  1  0.618257  0.879566  0.000000  1
  Hg  Hg8  1  0.000785  0.999350  0.000000  1
  Hg  Hg9  1  0.499350  0.500785  0.000000  1
