# generated using pymatgen
data_Nd7Ho13Ga16
_symmetry_space_group_name_H-M   'P 1'
_cell_length_a   7.52010923
_cell_length_b   7.98943701
_cell_length_c   15.33423567
_cell_angle_alpha   89.89123236
_cell_angle_beta   89.92089981
_cell_angle_gamma   90.01243709
_symmetry_Int_Tables_number   1
_chemical_formula_structural   Nd7Ho13Ga16
_chemical_formula_sum   'Nd7 Ho13 Ga16'
_cell_volume   921.30038529
_cell_formula_units_Z   1
loop_
 _symmetry_equiv_pos_site_id
 _symmetry_equiv_pos_as_xyz
  1  'x, y, z'
loop_
 _atom_site_type_symbol
 _atom_site_label
 _atom_site_symmetry_multiplicity
 _atom_site_fract_x
 _atom_site_fract_y
 _atom_site_fract_z
 _atom_site_occupancy
  Nd  Nd0  1  0.010195  0.819446  0.905526  1
  Nd  Nd1  1  0.490736  0.319698  0.093100  1
  Nd  Nd2  1  0.988407  0.181682  0.407231  1
  Nd  Nd3  1  0.489878  0.319790  0.408664  1
  Nd  Nd4  1  0.990686  0.180511  0.093527  1
  Nd  Nd5  1  0.510563  0.680201  0.906861  1
  Nd  Nd6  1  0.008993  0.817627  0.593687  1
  Ho  Ho7  1  0.666906  0.176571  0.622340  1
  Ho  Ho8  1  0.168435  0.323839  0.876726  1
  Ho  Ho9  1  0.331377  0.824411  0.121772  1
  Ho  Ho10  1  0.832184  0.676081  0.379186  1
  Ho  Ho11  1  0.332538  0.824038  0.379258  1
  Ho  Ho12  1  0.832971  0.677011  0.121422  1
  Ho  Ho13  1  0.667534  0.175766  0.876504  1
  Ho  Ho14  1  0.169456  0.323445  0.621098  1
  Ho  Ho15  1  0.509218  0.683166  0.594298  1
  Ho  Ho16  1  0.826478  0.513937  0.748977  1
  Ho  Ho17  1  0.327827  0.984719  0.749005  1
  Ho  Ho18  1  0.173723  0.487989  0.250355  1
  Ho  Ho19  1  0.671584  0.012168  0.250647  1
  Ga  Ga20  1  0.659155  0.965866  0.462580  1
  Ga  Ga21  1  0.160845  0.531072  0.038309  1
  Ga  Ga22  1  0.340333  0.031925  0.960517  1
  Ga  Ga23  1  0.834999  0.471518  0.540811  1
  Ga  Ga24  1  0.341185  0.026351  0.540956  1
  Ga  Ga25  1  0.840802  0.468246  0.960731  1
  Ga  Ga26  1  0.660195  0.969134  0.038482  1
  Ga  Ga27  1  0.161905  0.532045  0.461762  1
  Ga  Ga28  1  0.459262  0.388204  0.748442  1
  Ga  Ga29  1  0.958969  0.112593  0.748780  1
  Ga  Ga30  1  0.542190  0.615302  0.250178  1
  Ga  Ga31  1  0.041120  0.886643  0.250744  1
  Ga  Ga32  1  0.716214  0.875229  0.748505  1
  Ga  Ga33  1  0.219810  0.622519  0.747731  1
  Ga  Ga34  1  0.281796  0.124192  0.250477  1
  Ga  Ga35  1  0.781526  0.377067  0.250812  1
