# generated using pymatgen
data_Dy3Er4Lu(InIr)2
_symmetry_space_group_name_H-M   'P 1'
_cell_length_a   9.59927170
_cell_length_b   9.59927116
_cell_length_c   9.58665400
_cell_angle_alpha   60.04347005
_cell_angle_beta   60.04347191
_cell_angle_gamma   59.91305577
_symmetry_Int_Tables_number   1
_chemical_formula_structural   Dy3Er4Lu(InIr)2
_chemical_formula_sum   'Dy6 Er8 Lu2 In4 Ir4'
_cell_volume   624.63611832
_cell_formula_units_Z   2
loop_
 _symmetry_equiv_pos_site_id
 _symmetry_equiv_pos_as_xyz
  1  'x, y, z'
loop_
 _atom_site_type_symbol
 _atom_site_label
 _atom_site_symmetry_multiplicity
 _atom_site_fract_x
 _atom_site_fract_y
 _atom_site_fract_z
 _atom_site_occupancy
  Dy  Dy0  1  0.190277  0.809723  0.809723  1
  Dy  Dy1  1  0.809723  0.190277  0.190277  1
  Dy  Dy2  1  0.809723  0.190277  0.809723  1
  Dy  Dy3  1  0.190277  0.809723  0.190277  1
  Dy  Dy4  1  0.809846  0.809846  0.190154  1
  Dy  Dy5  1  0.190154  0.190154  0.809846  1
  Er  Er6  1  0.598263  0.598263  0.598819  1
  Er  Er7  1  0.598263  0.598263  0.204654  1
  Er  Er8  1  0.598819  0.204654  0.598263  1
  Er  Er9  1  0.204654  0.598819  0.598263  1
  Er  Er10  1  0.060104  0.439896  0.439896  1
  Er  Er11  1  0.439896  0.060104  0.060104  1
  Er  Er12  1  0.439896  0.060104  0.439896  1
  Er  Er13  1  0.060104  0.439896  0.060104  1
  Lu  Lu14  1  0.440241  0.440241  0.059759  1
  Lu  Lu15  1  0.059759  0.059759  0.440241  1
  In  In16  1  0.832744  0.832744  0.832421  1
  In  In17  1  0.832744  0.832744  0.502093  1
  In  In18  1  0.832421  0.502093  0.832744  1
  In  In19  1  0.502093  0.832421  0.832744  1
  Ir  Ir20  1  0.391376  0.391376  0.389521  1
  Ir  Ir21  1  0.391376  0.391376  0.827726  1
  Ir  Ir22  1  0.389521  0.827726  0.391376  1
  Ir  Ir23  1  0.827726  0.389521  0.391376  1
