# generated using pymatgen
data_Sc11FeNiRu2
_symmetry_space_group_name_H-M   'P 1'
_cell_length_a   9.42026359
_cell_length_b   9.41979552
_cell_length_c   9.44041600
_cell_angle_alpha   59.92837604
_cell_angle_beta   59.93232875
_cell_angle_gamma   60.13326649
_symmetry_Int_Tables_number   1
_chemical_formula_structural   Sc11FeNiRu2
_chemical_formula_sum   'Sc22 Fe2 Ni2 Ru4'
_cell_volume   592.32114832
_cell_formula_units_Z   2
loop_
 _symmetry_equiv_pos_site_id
 _symmetry_equiv_pos_as_xyz
  1  'x, y, z'
loop_
 _atom_site_type_symbol
 _atom_site_label
 _atom_site_symmetry_multiplicity
 _atom_site_fract_x
 _atom_site_fract_y
 _atom_site_fract_z
 _atom_site_occupancy
  Sc  Sc0  1  0.809169  0.809086  0.190837  1
  Sc  Sc1  1  0.192531  0.807474  0.192441  1
  Sc  Sc2  1  0.807519  0.192553  0.192402  1
  Sc  Sc3  1  0.190831  0.190914  0.809163  1
  Sc  Sc4  1  0.807469  0.192526  0.807559  1
  Sc  Sc5  1  0.192481  0.807447  0.807598  1
  Sc  Sc6  1  0.615729  0.615649  0.156689  1
  Sc  Sc7  1  0.611791  0.156795  0.615776  1
  Sc  Sc8  1  0.156756  0.611737  0.615769  1
  Sc  Sc9  1  0.615738  0.615561  0.611958  1
  Sc  Sc10  1  0.384271  0.384351  0.843311  1
  Sc  Sc11  1  0.388209  0.843205  0.384224  1
  Sc  Sc12  1  0.843244  0.388263  0.384231  1
  Sc  Sc13  1  0.384262  0.384439  0.388042  1
  Sc  Sc14  1  0.841803  0.841585  0.474339  1
  Sc  Sc15  1  0.842080  0.474418  0.841788  1
  Sc  Sc16  1  0.474384  0.841986  0.841912  1
  Sc  Sc17  1  0.841692  0.841593  0.842361  1
  Sc  Sc18  1  0.158197  0.158415  0.525661  1
  Sc  Sc19  1  0.157920  0.525582  0.158212  1
  Sc  Sc20  1  0.525616  0.158014  0.158088  1
  Sc  Sc21  1  0.158308  0.158407  0.157639  1
  Fe  Fe22  1  0.000000  0.000000  0.000000  1
  Fe  Fe23  1  0.500000  0.500000  0.500000  1
  Ni  Ni24  1  0.000000  0.000000  0.500000  1
  Ni  Ni25  1  0.500000  0.500000  0.000000  1
  Ru  Ru26  1  0.500000  0.000000  0.500000  1
  Ru  Ru27  1  0.000000  0.500000  0.500000  1
  Ru  Ru28  1  0.000000  0.500000  0.000000  1
  Ru  Ru29  1  0.500000  0.000000  0.000000  1
