# generated using pymatgen
data_La12Al3Ga5IrRh7
_symmetry_space_group_name_H-M   'P 1'
_cell_length_a   5.82705101
_cell_length_b   8.35247495
_cell_length_c   13.75439347
_cell_angle_alpha   89.93211540
_cell_angle_beta   89.99904174
_cell_angle_gamma   90.00581989
_symmetry_Int_Tables_number   1
_chemical_formula_structural   La12Al3Ga5IrRh7
_chemical_formula_sum   'La12 Al3 Ga5 Ir1 Rh7'
_cell_volume   669.42994979
_cell_formula_units_Z   1
loop_
 _symmetry_equiv_pos_site_id
 _symmetry_equiv_pos_as_xyz
  1  'x, y, z'
loop_
 _atom_site_type_symbol
 _atom_site_label
 _atom_site_symmetry_multiplicity
 _atom_site_fract_x
 _atom_site_fract_y
 _atom_site_fract_z
 _atom_site_occupancy
  La  La0  1  0.633844  0.259657  0.250573  1
  La  La1  1  0.366072  0.740757  0.748896  1
  La  La2  1  0.366464  0.759529  0.250196  1
  La  La3  1  0.636023  0.239503  0.748432  1
  La  La4  1  0.143622  0.398862  0.096736  1
  La  La5  1  0.855743  0.598185  0.903656  1
  La  La6  1  0.852735  0.597494  0.595760  1
  La  La7  1  0.851858  0.902514  0.404116  1
  La  La8  1  0.146534  0.398968  0.404432  1
  La  La9  1  0.146792  0.100831  0.595328  1
  La  La10  1  0.145053  0.099030  0.902298  1
  La  La11  1  0.857757  0.903080  0.096771  1
  Al  Al12  1  0.613976  0.249775  0.000410  1
  Al  Al13  1  0.385153  0.751412  0.001025  1
  Al  Al14  1  0.378733  0.749712  0.499793  1
  Ga  Ga15  1  0.140934  0.110814  0.250476  1
  Ga  Ga16  1  0.859950  0.886944  0.749378  1
  Ga  Ga17  1  0.860902  0.611864  0.250342  1
  Ga  Ga18  1  0.141874  0.388956  0.749936  1
  Ga  Ga19  1  0.628324  0.249803  0.499808  1
  Ir  Ir20  1  0.360529  0.028261  0.090418  1
  Rh  Rh21  1  0.640586  0.971943  0.909535  1
  Rh  Rh22  1  0.635531  0.967289  0.591168  1
  Rh  Rh23  1  0.636004  0.532388  0.409046  1
  Rh  Rh24  1  0.357190  0.026465  0.410969  1
  Rh  Rh25  1  0.358264  0.473760  0.589626  1
  Rh  Rh26  1  0.357946  0.473717  0.911300  1
  Rh  Rh27  1  0.641608  0.528487  0.089575  1
