# generated using pymatgen
data_Ce6Al20CoSi4Os7
_symmetry_space_group_name_H-M   'P 1'
_cell_length_a   8.79802700
_cell_length_b   8.79802735
_cell_length_c   9.55454700
_cell_angle_alpha   90.00000000
_cell_angle_beta   90.00000000
_cell_angle_gamma   120.00000245
_symmetry_Int_Tables_number   1
_chemical_formula_structural   Ce6Al20CoSi4Os7
_chemical_formula_sum   'Ce6 Al20 Co1 Si4 Os7'
_cell_volume   640.48847619
_cell_formula_units_Z   1
loop_
 _symmetry_equiv_pos_site_id
 _symmetry_equiv_pos_as_xyz
  1  'x, y, z'
loop_
 _atom_site_type_symbol
 _atom_site_label
 _atom_site_symmetry_multiplicity
 _atom_site_fract_x
 _atom_site_fract_y
 _atom_site_fract_z
 _atom_site_occupancy
  Ce  Ce0  1  0.194878  0.389757  0.249701  1
  Ce  Ce1  1  0.805122  0.610243  0.750299  1
  Ce  Ce2  1  0.610243  0.805122  0.249701  1
  Ce  Ce3  1  0.389757  0.194878  0.750299  1
  Ce  Ce4  1  0.194878  0.805122  0.249701  1
  Ce  Ce5  1  0.805122  0.194878  0.750299  1
  Al  Al6  1  0.163022  0.326043  0.577119  1
  Al  Al7  1  0.836978  0.673957  0.422881  1
  Al  Al8  1  0.673957  0.836978  0.577119  1
  Al  Al9  1  0.838648  0.677296  0.076687  1
  Al  Al10  1  0.326043  0.163022  0.422881  1
  Al  Al11  1  0.161352  0.322704  0.923313  1
  Al  Al12  1  0.163022  0.836978  0.577119  1
  Al  Al13  1  0.322704  0.161352  0.076687  1
  Al  Al14  1  0.836978  0.163022  0.422881  1
  Al  Al15  1  0.677296  0.838648  0.923313  1
  Al  Al16  1  0.838648  0.161352  0.076687  1
  Al  Al17  1  0.161352  0.838648  0.923313  1
  Al  Al18  1  0.564165  0.128330  0.249880  1
  Al  Al19  1  0.435835  0.871670  0.750120  1
  Al  Al20  1  0.871670  0.435835  0.249880  1
  Al  Al21  1  0.128330  0.564165  0.750120  1
  Al  Al22  1  0.564165  0.435835  0.249880  1
  Al  Al23  1  0.435835  0.564165  0.750120  1
  Al  Al24  1  0.000000  0.000000  0.242811  1
  Al  Al25  1  0.000000  0.000000  0.757189  1
  Co  Co26  1  0.000000  0.000000  0.000000  1
  Si  Si27  1  0.333333  0.666667  0.029933  1
  Si  Si28  1  0.666667  0.333333  0.970067  1
  Si  Si29  1  0.666667  0.333333  0.531995  1
  Si  Si30  1  0.333333  0.666667  0.468005  1
  Os  Os31  1  0.500000  0.000000  0.000000  1
  Os  Os32  1  0.000000  0.500000  0.000000  1
  Os  Os33  1  0.500000  0.000000  0.500000  1
  Os  Os34  1  0.500000  0.500000  0.000000  1
  Os  Os35  1  0.000000  0.500000  0.500000  1
  Os  Os36  1  0.500000  0.500000  0.500000  1
  Os  Os37  1  0.000000  0.000000  0.500000  1
