# generated using pymatgen
data_Ho2MgCo8P6Ru
_symmetry_space_group_name_H-M   'P 1'
_cell_length_a   3.69762700
_cell_length_b   10.39836600
_cell_length_c   11.91306400
_cell_angle_alpha   90.00000000
_cell_angle_beta   90.00000000
_cell_angle_gamma   90.00000000
_symmetry_Int_Tables_number   1
_chemical_formula_structural   Ho2MgCo8P6Ru
_chemical_formula_sum   'Ho4 Mg2 Co16 P12 Ru2'
_cell_volume   458.04872002
_cell_formula_units_Z   2
loop_
 _symmetry_equiv_pos_site_id
 _symmetry_equiv_pos_as_xyz
  1  'x, y, z'
loop_
 _atom_site_type_symbol
 _atom_site_label
 _atom_site_symmetry_multiplicity
 _atom_site_fract_x
 _atom_site_fract_y
 _atom_site_fract_z
 _atom_site_occupancy
  Ho  Ho0  1  0.250000  0.582521  0.704416  1
  Ho  Ho1  1  0.250000  0.917479  0.204416  1
  Ho  Ho2  1  0.750000  0.418835  0.296543  1
  Ho  Ho3  1  0.750000  0.081165  0.796543  1
  Mg  Mg4  1  0.750000  0.295781  0.009572  1
  Mg  Mg5  1  0.750000  0.204219  0.509572  1
  Co  Co6  1  0.250000  0.409924  0.484801  1
  Co  Co7  1  0.250000  0.090076  0.984801  1
  Co  Co8  1  0.750000  0.595374  0.511138  1
  Co  Co9  1  0.750000  0.904626  0.011138  1
  Co  Co10  1  0.250000  0.219790  0.172924  1
  Co  Co11  1  0.250000  0.280210  0.672924  1
  Co  Co12  1  0.750000  0.776039  0.823546  1
  Co  Co13  1  0.750000  0.723961  0.323546  1
  Co  Co14  1  0.250000  0.883496  0.702876  1
  Co  Co15  1  0.250000  0.616504  0.202876  1
  Co  Co16  1  0.750000  0.114218  0.299786  1
  Co  Co17  1  0.750000  0.385782  0.799786  1
  Co  Co18  1  0.250000  0.465826  0.934328  1
  Co  Co19  1  0.250000  0.034174  0.434328  1
  Co  Co20  1  0.750000  0.537869  0.069526  1
  Co  Co21  1  0.750000  0.962131  0.569526  1
  P  P22  1  0.250000  0.424142  0.118584  1
  P  P23  1  0.250000  0.075858  0.618584  1
  P  P24  1  0.750000  0.578895  0.887677  1
  P  P25  1  0.750000  0.921105  0.387677  1
  P  P26  1  0.250000  0.272162  0.856820  1
  P  P27  1  0.250000  0.227838  0.356820  1
  P  P28  1  0.750000  0.732488  0.134596  1
  P  P29  1  0.750000  0.767512  0.634596  1
  P  P30  1  0.250000  0.598623  0.391257  1
  P  P31  1  0.250000  0.901377  0.891257  1
  P  P32  1  0.750000  0.408192  0.609403  1
  P  P33  1  0.750000  0.091808  0.109403  1
  Ru  Ru34  1  0.250000  0.711433  0.992208  1
  Ru  Ru35  1  0.250000  0.788567  0.492208  1
