# generated using pymatgen
data_Ce2CF
_symmetry_space_group_name_H-M   'P 1'
_cell_length_a   6.34750212
_cell_length_b   6.34750210
_cell_length_c   6.34750260
_cell_angle_alpha   33.41521784
_cell_angle_beta   33.41522358
_cell_angle_gamma   33.41521814
_symmetry_Int_Tables_number   1
_chemical_formula_structural   Ce2CF
_chemical_formula_sum   'Ce2 C1 F1'
_cell_volume   69.06918300
_cell_formula_units_Z   1
loop_
 _symmetry_equiv_pos_site_id
 _symmetry_equiv_pos_as_xyz
  1  'x, y, z'
loop_
 _atom_site_type_symbol
 _atom_site_label
 _atom_site_symmetry_multiplicity
 _atom_site_fract_x
 _atom_site_fract_y
 _atom_site_fract_z
 _atom_site_occupancy
  Ce  Ce0  1  0.244266  0.244266  0.244266  1
  Ce  Ce1  1  0.755734  0.755734  0.755734  1
  C  C2  1  0.500000  0.500000  0.500000  1
  F  F3  1  0.000000  0.000000  0.000000  1
