# generated using pymatgen
data_Rb6Ti(VBr6)3
_symmetry_space_group_name_H-M   'P 1'
_cell_length_a   7.61564100
_cell_length_b   7.61564112
_cell_length_c   19.10469100
_cell_angle_alpha   90.00000000
_cell_angle_beta   90.00000000
_cell_angle_gamma   119.99999513
_symmetry_Int_Tables_number   1
_chemical_formula_structural   Rb6Ti(VBr6)3
_chemical_formula_sum   'Rb6 Ti1 V3 Br18'
_cell_volume   959.58533956
_cell_formula_units_Z   1
loop_
 _symmetry_equiv_pos_site_id
 _symmetry_equiv_pos_as_xyz
  1  'x, y, z'
loop_
 _atom_site_type_symbol
 _atom_site_label
 _atom_site_symmetry_multiplicity
 _atom_site_fract_x
 _atom_site_fract_y
 _atom_site_fract_z
 _atom_site_occupancy
  Rb  Rb0  1  0.666667  0.333333  0.557127  1
  Rb  Rb1  1  0.333333  0.666667  0.065056  1
  Rb  Rb2  1  0.333333  0.666667  0.422192  1
  Rb  Rb3  1  0.666667  0.333333  0.940847  1
  Rb  Rb4  1  0.000000  0.000000  0.249251  1
  Rb  Rb5  1  0.000000  0.000000  0.762326  1
  Ti  Ti6  1  0.333333  0.666667  0.663307  1
  V  V7  1  0.666667  0.333333  0.335772  1
  V  V8  1  0.333333  0.666667  0.833605  1
  V  V9  1  0.666667  0.333333  0.166522  1
  Br  Br10  1  0.825902  0.651804  0.408842  1
  Br  Br11  1  0.174253  0.825747  0.592720  1
  Br  Br12  1  0.651494  0.825747  0.592720  1
  Br  Br13  1  0.825902  0.174098  0.408842  1
  Br  Br14  1  0.348196  0.174098  0.408842  1
  Br  Br15  1  0.174427  0.348855  0.905641  1
  Br  Br16  1  0.018341  0.509171  0.748086  1
  Br  Br17  1  0.651145  0.825573  0.905641  1
  Br  Br18  1  0.825058  0.650115  0.094342  1
  Br  Br19  1  0.174253  0.348506  0.592720  1
  Br  Br20  1  0.490829  0.981659  0.748086  1
  Br  Br21  1  0.511206  0.488794  0.251701  1
  Br  Br22  1  0.490829  0.509171  0.748086  1
  Br  Br23  1  0.174427  0.825573  0.905641  1
  Br  Br24  1  0.349885  0.174942  0.094342  1
  Br  Br25  1  0.977589  0.488794  0.251701  1
  Br  Br26  1  0.511206  0.022411  0.251701  1
  Br  Br27  1  0.825058  0.174942  0.094342  1
