# generated using pymatgen
data_NdTm11(Si3Rh)4
_symmetry_space_group_name_H-M   'P 1'
_cell_length_a   4.20749400
_cell_length_b   10.59465089
_cell_length_c   12.26021249
_cell_angle_alpha   90.26235030
_cell_angle_beta   90.00000000
_cell_angle_gamma   90.00000000
_symmetry_Int_Tables_number   1
_chemical_formula_structural   NdTm11(Si3Rh)4
_chemical_formula_sum   'Nd1 Tm11 Si12 Rh4'
_cell_volume   546.51690512
_cell_formula_units_Z   1
loop_
 _symmetry_equiv_pos_site_id
 _symmetry_equiv_pos_as_xyz
  1  'x, y, z'
loop_
 _atom_site_type_symbol
 _atom_site_label
 _atom_site_symmetry_multiplicity
 _atom_site_fract_x
 _atom_site_fract_y
 _atom_site_fract_z
 _atom_site_occupancy
  Nd  Nd0  1  0.750000  0.157311  0.696193  1
  Tm  Tm1  1  0.250000  0.878098  0.022467  1
  Tm  Tm2  1  0.250000  0.621349  0.521220  1
  Tm  Tm3  1  0.750000  0.120023  0.981107  1
  Tm  Tm4  1  0.750000  0.381669  0.476890  1
  Tm  Tm5  1  0.250000  0.919359  0.603323  1
  Tm  Tm6  1  0.250000  0.579492  0.104722  1
  Tm  Tm7  1  0.750000  0.080425  0.393873  1
  Tm  Tm8  1  0.750000  0.421626  0.896293  1
  Tm  Tm9  1  0.250000  0.661843  0.800865  1
  Tm  Tm10  1  0.250000  0.838084  0.301072  1
  Tm  Tm11  1  0.750000  0.340328  0.199124  1
  Si  Si12  1  0.250000  0.010429  0.826022  1
  Si  Si13  1  0.250000  0.486202  0.322380  1
  Si  Si14  1  0.750000  0.984650  0.177353  1
  Si  Si15  1  0.750000  0.515383  0.677363  1
  Si  Si16  1  0.250000  0.248852  0.844570  1
  Si  Si17  1  0.250000  0.253342  0.339026  1
  Si  Si18  1  0.750000  0.751979  0.158627  1
  Si  Si19  1  0.750000  0.748482  0.658546  1
  Si  Si20  1  0.250000  0.201544  0.535342  1
  Si  Si21  1  0.250000  0.301942  0.043119  1
  Si  Si22  1  0.750000  0.801784  0.457435  1
  Si  Si23  1  0.750000  0.697137  0.958847  1
  Rh  Rh24  1  0.250000  0.395328  0.683326  1
  Rh  Rh25  1  0.250000  0.108924  0.180166  1
  Rh  Rh26  1  0.750000  0.608302  0.317342  1
  Rh  Rh27  1  0.750000  0.886112  0.823387  1
