# generated using pymatgen
data_Nd3Dy5Cd2RuPt
_symmetry_space_group_name_H-M   'P 1'
_cell_length_a   9.75177202
_cell_length_b   9.75177185
_cell_length_c   9.77149800
_cell_angle_alpha   59.93305603
_cell_angle_beta   59.93305661
_cell_angle_gamma   59.99330814
_symmetry_Int_Tables_number   1
_chemical_formula_structural   Nd3Dy5Cd2RuPt
_chemical_formula_sum   'Nd6 Dy10 Cd4 Ru2 Pt2'
_cell_volume   656.37361201
_cell_formula_units_Z   2
loop_
 _symmetry_equiv_pos_site_id
 _symmetry_equiv_pos_as_xyz
  1  'x, y, z'
loop_
 _atom_site_type_symbol
 _atom_site_label
 _atom_site_symmetry_multiplicity
 _atom_site_fract_x
 _atom_site_fract_y
 _atom_site_fract_z
 _atom_site_occupancy
  Nd  Nd0  1  0.939314  0.556389  0.563381  1
  Nd  Nd1  1  0.556389  0.939314  0.940915  1
  Nd  Nd2  1  0.556389  0.939314  0.563381  1
  Nd  Nd3  1  0.939314  0.556389  0.940915  1
  Nd  Nd4  1  0.560605  0.560605  0.939395  1
  Nd  Nd5  1  0.939729  0.939729  0.560271  1
  Dy  Dy6  1  0.347928  0.347928  0.352400  1
  Dy  Dy7  1  0.347928  0.347928  0.951746  1
  Dy  Dy8  1  0.344456  0.958775  0.348385  1
  Dy  Dy9  1  0.958775  0.344456  0.348385  1
  Dy  Dy10  1  0.817100  0.186332  0.188261  1
  Dy  Dy11  1  0.186332  0.817100  0.808307  1
  Dy  Dy12  1  0.186332  0.817100  0.188261  1
  Dy  Dy13  1  0.817100  0.186332  0.808307  1
  Dy  Dy14  1  0.186400  0.186400  0.813600  1
  Dy  Dy15  1  0.810186  0.810186  0.189814  1
  Cd  Cd16  1  0.579308  0.579308  0.579622  1
  Cd  Cd17  1  0.579308  0.579308  0.261762  1
  Cd  Cd18  1  0.580259  0.259924  0.579908  1
  Cd  Cd19  1  0.259924  0.580259  0.579908  1
  Ru  Ru20  1  0.143649  0.143649  0.137144  1
  Ru  Ru21  1  0.143649  0.143649  0.575558  1
  Pt  Pt22  1  0.145246  0.574379  0.140188  1
  Pt  Pt23  1  0.574379  0.145246  0.140188  1
