# generated using pymatgen
data_Tb2Pr(P2Rh3)3
_symmetry_space_group_name_H-M   'P 1'
_cell_length_a   3.94459100
_cell_length_b   11.26887100
_cell_length_c   12.90182700
_cell_angle_alpha   90.00000000
_cell_angle_beta   90.00000000
_cell_angle_gamma   90.00000000
_symmetry_Int_Tables_number   1
_chemical_formula_structural   Tb2Pr(P2Rh3)3
_chemical_formula_sum   'Tb4 Pr2 P12 Rh18'
_cell_volume   573.50023607
_cell_formula_units_Z   2
loop_
 _symmetry_equiv_pos_site_id
 _symmetry_equiv_pos_as_xyz
  1  'x, y, z'
loop_
 _atom_site_type_symbol
 _atom_site_label
 _atom_site_symmetry_multiplicity
 _atom_site_fract_x
 _atom_site_fract_y
 _atom_site_fract_z
 _atom_site_occupancy
  Tb  Tb0  1  0.500000  0.815045  0.203575  1
  Tb  Tb1  1  0.500000  0.184955  0.203575  1
  Tb  Tb2  1  0.000000  0.684955  0.796425  1
  Tb  Tb3  1  0.000000  0.315045  0.796425  1
  Pr  Pr4  1  0.000000  0.500000  0.520412  1
  Pr  Pr5  1  0.500000  0.000000  0.479588  1
  P  P6  1  0.500000  0.500000  0.880021  1
  P  P7  1  0.000000  0.000000  0.119979  1
  P  P8  1  0.500000  0.500000  0.346587  1
  P  P9  1  0.000000  0.000000  0.653413  1
  P  P10  1  0.500000  0.313386  0.619541  1
  P  P11  1  0.500000  0.686614  0.619541  1
  P  P12  1  0.000000  0.186614  0.380459  1
  P  P13  1  0.000000  0.813386  0.380459  1
  P  P14  1  0.500000  0.846013  0.893638  1
  P  P15  1  0.500000  0.153987  0.893638  1
  P  P16  1  0.000000  0.653987  0.106362  1
  P  P17  1  0.000000  0.346013  0.106362  1
  Rh  Rh18  1  0.500000  0.500000  0.167597  1
  Rh  Rh19  1  0.000000  0.000000  0.832403  1
  Rh  Rh20  1  0.500000  0.500000  0.704456  1
  Rh  Rh21  1  0.000000  0.000000  0.295544  1
  Rh  Rh22  1  0.000000  0.500000  0.980214  1
  Rh  Rh23  1  0.500000  0.000000  0.019786  1
  Rh  Rh24  1  0.500000  0.334311  0.994538  1
  Rh  Rh25  1  0.500000  0.665689  0.994538  1
  Rh  Rh26  1  0.000000  0.165689  0.005462  1
  Rh  Rh27  1  0.000000  0.834311  0.005462  1
  Rh  Rh28  1  0.500000  0.291162  0.428796  1
  Rh  Rh29  1  0.500000  0.708838  0.428796  1
  Rh  Rh30  1  0.000000  0.208838  0.571204  1
  Rh  Rh31  1  0.000000  0.791162  0.571204  1
  Rh  Rh32  1  0.500000  0.872843  0.713066  1
  Rh  Rh33  1  0.500000  0.127157  0.713066  1
  Rh  Rh34  1  0.000000  0.627157  0.286934  1
  Rh  Rh35  1  0.000000  0.372843  0.286934  1
