# generated using pymatgen
data_Ho10Lu2Ni4SnAu
_symmetry_space_group_name_H-M   'P 1'
_cell_length_a   8.28400965
_cell_length_b   8.33617785
_cell_length_c   8.33862293
_cell_angle_alpha   112.69412353
_cell_angle_beta   109.41919147
_cell_angle_gamma   106.58994587
_symmetry_Int_Tables_number   1
_chemical_formula_structural   Ho10Lu2Ni4SnAu
_chemical_formula_sum   'Ho10 Lu2 Ni4 Sn1 Au1'
_cell_volume   440.74812303
_cell_formula_units_Z   1
loop_
 _symmetry_equiv_pos_site_id
 _symmetry_equiv_pos_as_xyz
  1  'x, y, z'
loop_
 _atom_site_type_symbol
 _atom_site_label
 _atom_site_symmetry_multiplicity
 _atom_site_fract_x
 _atom_site_fract_y
 _atom_site_fract_z
 _atom_site_occupancy
  Ho  Ho0  1  0.025531  0.223345  0.802262  1
  Ho  Ho1  1  0.974469  0.776655  0.197738  1
  Ho  Ho2  1  0.182149  0.293848  0.473191  1
  Ho  Ho3  1  0.817851  0.706152  0.526809  1
  Ho  Ho4  1  0.182212  0.708888  0.888278  1
  Ho  Ho5  1  0.817788  0.291112  0.111722  1
  Ho  Ho6  1  0.326269  0.631326  0.309618  1
  Ho  Ho7  1  0.673731  0.368674  0.690382  1
  Ho  Ho8  1  0.326252  0.016528  0.694886  1
  Ho  Ho9  1  0.673748  0.983472  0.305114  1
  Lu  Lu10  1  0.420620  0.222972  0.197649  1
  Lu  Lu11  1  0.579380  0.777028  0.802351  1
  Ni  Ni12  1  0.359233  0.001131  0.358118  1
  Ni  Ni13  1  0.640767  0.998869  0.641882  1
  Ni  Ni14  1  0.126068  0.625186  0.500882  1
  Ni  Ni15  1  0.873932  0.374814  0.499118  1
  Sn  Sn16  1  0.500000  0.500000  0.000000  1
  Au  Au17  1  0.000000  0.000000  0.000000  1
