# generated using pymatgen
data_Mn3Fe4P4W
_symmetry_space_group_name_H-M   'P 1'
_cell_length_a   3.53238800
_cell_length_b   5.87580294
_cell_length_c   6.67654368
_cell_angle_alpha   90.13419217
_cell_angle_beta   90.00000000
_cell_angle_gamma   90.00000000
_symmetry_Int_Tables_number   1
_chemical_formula_structural   Mn3Fe4P4W
_chemical_formula_sum   'Mn3 Fe4 P4 W1'
_cell_volume   138.57539540
_cell_formula_units_Z   1
loop_
 _symmetry_equiv_pos_site_id
 _symmetry_equiv_pos_as_xyz
  1  'x, y, z'
loop_
 _atom_site_type_symbol
 _atom_site_label
 _atom_site_symmetry_multiplicity
 _atom_site_fract_x
 _atom_site_fract_y
 _atom_site_fract_z
 _atom_site_occupancy
  Mn  Mn0  1  0.750000  0.967358  0.171422  1
  Mn  Mn1  1  0.250000  0.524719  0.674013  1
  Mn  Mn2  1  0.250000  0.029034  0.828273  1
  Fe  Fe3  1  0.750000  0.360156  0.937141  1
  Fe  Fe4  1  0.750000  0.851804  0.564999  1
  Fe  Fe5  1  0.250000  0.643824  0.061703  1
  Fe  Fe6  1  0.250000  0.145817  0.432994  1
  P  P7  1  0.750000  0.733343  0.874305  1
  P  P8  1  0.750000  0.226207  0.628990  1
  P  P9  1  0.250000  0.261920  0.117778  1
  P  P10  1  0.250000  0.779271  0.375866  1
  W  W11  1  0.750000  0.476548  0.332518  1
