# generated using pymatgen
data_ErPa(TcB4)2
_symmetry_space_group_name_H-M   'P 1'
_cell_length_a   3.62819400
_cell_length_b   5.95533229
_cell_length_c   11.52337201
_cell_angle_alpha   89.83500760
_cell_angle_beta   90.00000000
_cell_angle_gamma   90.00000000
_symmetry_Int_Tables_number   1
_chemical_formula_structural   ErPa(TcB4)2
_chemical_formula_sum   'Er2 Pa2 Tc4 B16'
_cell_volume   248.98562902
_cell_formula_units_Z   2
loop_
 _symmetry_equiv_pos_site_id
 _symmetry_equiv_pos_as_xyz
  1  'x, y, z'
loop_
 _atom_site_type_symbol
 _atom_site_label
 _atom_site_symmetry_multiplicity
 _atom_site_fract_x
 _atom_site_fract_y
 _atom_site_fract_z
 _atom_site_occupancy
  Er  Er0  1  0.000000  0.127372  0.147906  1
  Er  Er1  1  0.000000  0.872628  0.852094  1
  Pa  Pa2  1  0.000000  0.628065  0.348138  1
  Pa  Pa3  1  0.000000  0.371935  0.651862  1
  Tc  Tc4  1  0.000000  0.636027  0.091220  1
  Tc  Tc5  1  0.000000  0.363973  0.908780  1
  Tc  Tc6  1  0.000000  0.139781  0.407186  1
  Tc  Tc7  1  0.000000  0.860219  0.592814  1
  B  B8  1  0.500000  0.788456  0.185618  1
  B  B9  1  0.500000  0.211544  0.814382  1
  B  B10  1  0.500000  0.287965  0.313564  1
  B  B11  1  0.500000  0.712035  0.686436  1
  B  B12  1  0.500000  0.863956  0.031274  1
  B  B13  1  0.500000  0.136044  0.968726  1
  B  B14  1  0.500000  0.364889  0.468667  1
  B  B15  1  0.500000  0.635111  0.531333  1
  B  B16  1  0.500000  0.888209  0.453256  1
  B  B17  1  0.500000  0.111791  0.546744  1
  B  B18  1  0.500000  0.386427  0.046100  1
  B  B19  1  0.500000  0.613573  0.953900  1
  B  B20  1  0.500000  0.974235  0.307945  1
  B  B21  1  0.500000  0.025765  0.692055  1
  B  B22  1  0.500000  0.477459  0.191189  1
  B  B23  1  0.500000  0.522541  0.808811  1
