# generated using pymatgen
data_La2Nd2Ga5Br2
_symmetry_space_group_name_H-M   'P 1'
_cell_length_a   11.60593588
_cell_length_b   11.60601378
_cell_length_c   4.28316000
_cell_angle_alpha   90.00000000
_cell_angle_beta   90.00000000
_cell_angle_gamma   93.47780439
_symmetry_Int_Tables_number   1
_chemical_formula_structural   La2Nd2Ga5Br2
_chemical_formula_sum   'La4 Nd4 Ga10 Br4'
_cell_volume   575.87337659
_cell_formula_units_Z   2
loop_
 _symmetry_equiv_pos_site_id
 _symmetry_equiv_pos_as_xyz
  1  'x, y, z'
loop_
 _atom_site_type_symbol
 _atom_site_label
 _atom_site_symmetry_multiplicity
 _atom_site_fract_x
 _atom_site_fract_y
 _atom_site_fract_z
 _atom_site_occupancy
  La  La0  1  0.674878  0.039910  0.500000  1
  La  La1  1  0.325122  0.960090  0.500000  1
  La  La2  1  0.039911  0.674877  0.500000  1
  La  La3  1  0.960089  0.325123  0.500000  1
  Nd  Nd4  1  0.727006  0.727007  0.000000  1
  Nd  Nd5  1  0.272994  0.272993  0.000000  1
  Nd  Nd6  1  0.370672  0.629328  0.000000  1
  Nd  Nd7  1  0.629328  0.370672  0.000000  1
  Ga  Ga8  1  0.579370  0.579370  0.500000  1
  Ga  Ga9  1  0.420630  0.420630  0.500000  1
  Ga  Ga10  1  0.537377  0.898280  0.000000  1
  Ga  Ga11  1  0.462623  0.101720  0.000000  1
  Ga  Ga12  1  0.898281  0.537380  0.000000  1
  Ga  Ga13  1  0.101719  0.462620  0.000000  1
  Ga  Ga14  1  0.511090  0.780530  0.500000  1
  Ga  Ga15  1  0.488910  0.219470  0.500000  1
  Ga  Ga16  1  0.219470  0.488908  0.500000  1
  Ga  Ga17  1  0.780530  0.511092  0.500000  1
  Br  Br18  1  0.127589  0.127589  0.500000  1
  Br  Br19  1  0.872411  0.872411  0.500000  1
  Br  Br20  1  0.822993  0.177008  0.000000  1
  Br  Br21  1  0.177007  0.822992  0.000000  1
