# generated using pymatgen
data_Y4Cu2PtRh
_symmetry_space_group_name_H-M   'P 1'
_cell_length_a   4.38822800
_cell_length_b   5.60189848
_cell_length_c   7.13805007
_cell_angle_alpha   90.07205862
_cell_angle_beta   90.00000000
_cell_angle_gamma   90.00000000
_symmetry_Int_Tables_number   1
_chemical_formula_structural   Y4Cu2PtRh
_chemical_formula_sum   'Y4 Cu2 Pt1 Rh1'
_cell_volume   175.47031863
_cell_formula_units_Z   1
loop_
 _symmetry_equiv_pos_site_id
 _symmetry_equiv_pos_as_xyz
  1  'x, y, z'
loop_
 _atom_site_type_symbol
 _atom_site_label
 _atom_site_symmetry_multiplicity
 _atom_site_fract_x
 _atom_site_fract_y
 _atom_site_fract_z
 _atom_site_occupancy
  Y  Y0  1  0.000000  0.116922  0.679527  1
  Y  Y1  1  0.000000  0.883819  0.184844  1
  Y  Y2  1  0.500000  0.395476  0.320896  1
  Y  Y3  1  0.500000  0.607481  0.813561  1
  Cu  Cu4  1  0.500000  0.888380  0.463436  1
  Cu  Cu5  1  0.500000  0.111215  0.963536  1
  Pt  Pt6  1  0.000000  0.383987  0.037214  1
  Rh  Rh7  1  0.000000  0.612719  0.536988  1
