# generated using pymatgen
data_La7ErSi12Ni3Pd
_symmetry_space_group_name_H-M   'P 1'
_cell_length_a   8.18606100
_cell_length_b   8.18566058
_cell_length_c   8.67858700
_cell_angle_alpha   89.99996947
_cell_angle_beta   90.00050603
_cell_angle_gamma   119.99908326
_symmetry_Int_Tables_number   1
_chemical_formula_structural   La7ErSi12Ni3Pd
_chemical_formula_sum   'La7 Er1 Si12 Ni3 Pd1'
_cell_volume   503.63090707
_cell_formula_units_Z   1
loop_
 _symmetry_equiv_pos_site_id
 _symmetry_equiv_pos_as_xyz
  1  'x, y, z'
loop_
 _atom_site_type_symbol
 _atom_site_label
 _atom_site_symmetry_multiplicity
 _atom_site_fract_x
 _atom_site_fract_y
 _atom_site_fract_z
 _atom_site_occupancy
  La  La0  1  0.500879  0.001863  0.248517  1
  La  La1  1  0.500925  0.002031  0.751189  1
  La  La2  1  0.998216  0.499182  0.248383  1
  La  La3  1  0.998030  0.499095  0.751241  1
  La  La4  1  0.500913  0.499067  0.248396  1
  La  La5  1  0.500998  0.498979  0.751299  1
  La  La6  1  0.999987  0.000031  0.249329  1
  Er  Er7  1  0.000029  0.000079  0.750511  1
  Si  Si8  1  0.169530  0.339502  0.996660  1
  Si  Si9  1  0.830528  0.661522  0.996513  1
  Si  Si10  1  0.660609  0.830433  0.996676  1
  Si  Si11  1  0.829891  0.659461  0.501839  1
  Si  Si12  1  0.338003  0.169217  0.996506  1
  Si  Si13  1  0.163261  0.326068  0.506097  1
  Si  Si14  1  0.169332  0.830489  0.996547  1
  Si  Si15  1  0.340313  0.170137  0.501903  1
  Si  Si16  1  0.830683  0.169269  0.996449  1
  Si  Si17  1  0.674436  0.836960  0.506210  1
  Si  Si18  1  0.830378  0.169898  0.501984  1
  Si  Si19  1  0.162955  0.836987  0.506170  1
  Ni  Ni20  1  0.333238  0.666996  0.997479  1
  Ni  Ni21  1  0.666162  0.333074  0.997983  1
  Ni  Ni22  1  0.666977  0.332833  0.502039  1
  Pd  Pd23  1  0.333727  0.666827  0.500078  1
