# generated using pymatgen
data_Ac2CeTe3
_symmetry_space_group_name_H-M   'P 1'
_cell_length_a   4.65419100
_cell_length_b   4.65419193
_cell_length_c   11.31585100
_cell_angle_alpha   90.00000000
_cell_angle_beta   90.00000000
_cell_angle_gamma   119.99998630
_symmetry_Int_Tables_number   1
_chemical_formula_structural   Ac2CeTe3
_chemical_formula_sum   'Ac2 Ce1 Te3'
_cell_volume   212.27869180
_cell_formula_units_Z   1
loop_
 _symmetry_equiv_pos_site_id
 _symmetry_equiv_pos_as_xyz
  1  'x, y, z'
loop_
 _atom_site_type_symbol
 _atom_site_label
 _atom_site_symmetry_multiplicity
 _atom_site_fract_x
 _atom_site_fract_y
 _atom_site_fract_z
 _atom_site_occupancy
  Ac  Ac0  1  0.333333  0.666667  0.674990  1
  Ac  Ac1  1  0.666667  0.333333  0.325010  1
  Ce  Ce2  1  0.000000  0.000000  0.000000  1
  Te  Te3  1  0.333333  0.666667  0.154551  1
  Te  Te4  1  0.666667  0.333333  0.845449  1
  Te  Te5  1  0.000000  0.000000  0.500000  1
