# generated using pymatgen
data_Tb4Dy3Th(ReB6)4
_symmetry_space_group_name_H-M   'P 1'
_cell_length_a   3.71820300
_cell_length_b   9.21336672
_cell_length_c   11.61649806
_cell_angle_alpha   90.04095527
_cell_angle_beta   90.00000000
_cell_angle_gamma   90.00000000
_symmetry_Int_Tables_number   1
_chemical_formula_structural   Tb4Dy3Th(ReB6)4
_chemical_formula_sum   'Tb4 Dy3 Th1 Re4 B24'
_cell_volume   397.94822155
_cell_formula_units_Z   1
loop_
 _symmetry_equiv_pos_site_id
 _symmetry_equiv_pos_as_xyz
  1  'x, y, z'
loop_
 _atom_site_type_symbol
 _atom_site_label
 _atom_site_symmetry_multiplicity
 _atom_site_fract_x
 _atom_site_fract_y
 _atom_site_fract_z
 _atom_site_occupancy
  Tb  Tb0  1  0.000000  0.677722  0.587215  1
  Tb  Tb1  1  0.000000  0.823237  0.085011  1
  Tb  Tb2  1  0.000000  0.176112  0.913967  1
  Tb  Tb3  1  0.000000  0.941541  0.369392  1
  Dy  Dy4  1  0.000000  0.056700  0.631625  1
  Dy  Dy5  1  0.000000  0.443001  0.128482  1
  Dy  Dy6  1  0.000000  0.557899  0.870379  1
  Th  Th7  1  0.000000  0.322416  0.414175  1
  Re  Re8  1  0.000000  0.638294  0.320513  1
  Re  Re9  1  0.000000  0.361993  0.679972  1
  Re  Re10  1  0.000000  0.138499  0.178377  1
  Re  Re11  1  0.000000  0.861673  0.821112  1
  B  B12  1  0.500000  0.555292  0.431974  1
  B  B13  1  0.500000  0.446944  0.569691  1
  B  B14  1  0.500000  0.053028  0.066579  1
  B  B15  1  0.500000  0.946570  0.932600  1
  B  B16  1  0.500000  0.749018  0.417659  1
  B  B17  1  0.500000  0.251571  0.585281  1
  B  B18  1  0.500000  0.248239  0.080694  1
  B  B19  1  0.500000  0.751485  0.917969  1
  B  B20  1  0.500000  0.790888  0.265088  1
  B  B21  1  0.500000  0.209033  0.735910  1
  B  B22  1  0.500000  0.289874  0.232118  1
  B  B23  1  0.500000  0.708964  0.765956  1
  B  B24  1  0.500000  0.631395  0.184750  1
  B  B25  1  0.500000  0.370059  0.814940  1
  B  B26  1  0.500000  0.129295  0.311870  1
  B  B27  1  0.500000  0.869369  0.686472  1
  B  B28  1  0.500000  0.982346  0.210726  1
  B  B29  1  0.500000  0.016974  0.788626  1
  B  B30  1  0.500000  0.485235  0.286326  1
  B  B31  1  0.500000  0.517955  0.713480  1
  B  B32  1  0.500000  0.601050  0.027721  1
  B  B33  1  0.500000  0.399664  0.971485  1
  B  B34  1  0.500000  0.097566  0.473106  1
  B  B35  1  0.500000  0.899101  0.528755  1
