# generated using pymatgen
data_YbFeO2
_symmetry_space_group_name_H-M   'P 1'
_cell_length_a   4.65551664
_cell_length_b   5.49165085
_cell_length_c   4.65578593
_cell_angle_alpha   115.06985436
_cell_angle_beta   89.99302762
_cell_angle_gamma   64.94022127
_symmetry_Int_Tables_number   1
_chemical_formula_structural   YbFeO2
_chemical_formula_sum   'Yb2 Fe2 O4'
_cell_volume   95.30065612
_cell_formula_units_Z   2
loop_
 _symmetry_equiv_pos_site_id
 _symmetry_equiv_pos_as_xyz
  1  'x, y, z'
loop_
 _atom_site_type_symbol
 _atom_site_label
 _atom_site_symmetry_multiplicity
 _atom_site_fract_x
 _atom_site_fract_y
 _atom_site_fract_z
 _atom_site_occupancy
  Yb  Yb0  1  0.500460  0.999996  0.500238  1
  Yb  Yb1  1  0.249558  0.500003  0.249952  1
  Fe  Fe2  1  0.999904  0.999999  0.999872  1
  Fe  Fe3  1  0.750048  0.500009  0.749935  1
  O  O4  1  0.514441  0.970533  0.985533  1
  O  O5  1  0.985843  0.029459  0.514587  1
  O  O6  1  0.764204  0.470535  0.235240  1
  O  O7  1  0.235542  0.529467  0.764643  1
