# generated using pymatgen
data_Sc4GaCo4Si3
_symmetry_space_group_name_H-M   'P 1'
_cell_length_a   4.05526700
_cell_length_b   6.50588041
_cell_length_c   6.80804131
_cell_angle_alpha   90.44546713
_cell_angle_beta   90.00000000
_cell_angle_gamma   90.00000000
_symmetry_Int_Tables_number   1
_chemical_formula_structural   Sc4GaCo4Si3
_chemical_formula_sum   'Sc4 Ga1 Co4 Si3'
_cell_volume   179.61168415
_cell_formula_units_Z   1
loop_
 _symmetry_equiv_pos_site_id
 _symmetry_equiv_pos_as_xyz
  1  'x, y, z'
loop_
 _atom_site_type_symbol
 _atom_site_label
 _atom_site_symmetry_multiplicity
 _atom_site_fract_x
 _atom_site_fract_y
 _atom_site_fract_z
 _atom_site_occupancy
  Sc  Sc0  1  0.250000  0.985972  0.304951  1
  Sc  Sc1  1  0.250000  0.489618  0.193713  1
  Sc  Sc2  1  0.750000  0.004327  0.696081  1
  Sc  Sc3  1  0.750000  0.512243  0.805860  1
  Ga  Ga4  1  0.250000  0.293991  0.610083  1
  Co  Co5  1  0.250000  0.145393  0.950141  1
  Co  Co6  1  0.250000  0.667186  0.559633  1
  Co  Co7  1  0.750000  0.846340  0.059101  1
  Co  Co8  1  0.750000  0.354136  0.428727  1
  Si  Si9  1  0.250000  0.793176  0.890689  1
  Si  Si10  1  0.750000  0.705478  0.389606  1
  Si  Si11  1  0.750000  0.202141  0.111413  1
