# generated using pymatgen
data_PrNd11IrOs3
_symmetry_space_group_name_H-M   'P 1'
_cell_length_a   6.59170500
_cell_length_b   7.52504441
_cell_length_c   9.78387900
_cell_angle_alpha   90.00000000
_cell_angle_beta   90.00000000
_cell_angle_gamma   90.30326752
_symmetry_Int_Tables_number   1
_chemical_formula_structural   PrNd11IrOs3
_chemical_formula_sum   'Pr1 Nd11 Ir1 Os3'
_cell_volume   485.30170799
_cell_formula_units_Z   1
loop_
 _symmetry_equiv_pos_site_id
 _symmetry_equiv_pos_as_xyz
  1  'x, y, z'
loop_
 _atom_site_type_symbol
 _atom_site_label
 _atom_site_symmetry_multiplicity
 _atom_site_fract_x
 _atom_site_fract_y
 _atom_site_fract_z
 _atom_site_occupancy
  Pr  Pr0  1  0.856566  0.538386  0.250000  1
  Nd  Nd1  1  0.331509  0.674457  0.066611  1
  Nd  Nd2  1  0.170797  0.177039  0.433866  1
  Nd  Nd3  1  0.671860  0.323268  0.568247  1
  Nd  Nd4  1  0.827019  0.824832  0.930373  1
  Nd  Nd5  1  0.671860  0.323268  0.931753  1
  Nd  Nd6  1  0.827019  0.824832  0.569627  1
  Nd  Nd7  1  0.331509  0.674457  0.433389  1
  Nd  Nd8  1  0.170797  0.177039  0.066134  1
  Nd  Nd9  1  0.641354  0.041644  0.250000  1
  Nd  Nd10  1  0.143214  0.461731  0.750000  1
  Nd  Nd11  1  0.355348  0.959281  0.750000  1
  Ir  Ir12  1  0.054620  0.884847  0.250000  1
  Os  Os13  1  0.445360  0.383974  0.250000  1
  Os  Os14  1  0.950434  0.115204  0.750000  1
  Os  Os15  1  0.550736  0.615743  0.750000  1
