# generated using pymatgen
data_KBa2Co5TcP6
_symmetry_space_group_name_H-M   'P 1'
_cell_length_a   5.35014762
_cell_length_b   6.91053729
_cell_length_c   8.45338900
_cell_angle_alpha   111.48152489
_cell_angle_beta   108.45727632
_cell_angle_gamma   90.00269063
_symmetry_Int_Tables_number   1
_chemical_formula_structural   KBa2Co5TcP6
_chemical_formula_sum   'K1 Ba2 Co5 Tc1 P6'
_cell_volume   273.47907660
_cell_formula_units_Z   1
loop_
 _symmetry_equiv_pos_site_id
 _symmetry_equiv_pos_as_xyz
  1  'x, y, z'
loop_
 _atom_site_type_symbol
 _atom_site_label
 _atom_site_symmetry_multiplicity
 _atom_site_fract_x
 _atom_site_fract_y
 _atom_site_fract_z
 _atom_site_occupancy
  K  K0  1  0.998868  0.997104  0.998568  1
  Ba  Ba1  1  0.663250  0.998515  0.321844  1
  Ba  Ba2  1  0.338542  0.003514  0.679004  1
  Co  Co3  1  0.082870  0.499090  0.667515  1
  Co  Co4  1  0.750195  0.499224  0.998202  1
  Co  Co5  1  0.585667  0.499502  0.670385  1
  Co  Co6  1  0.246974  0.499834  0.995748  1
  Co  Co7  1  0.917240  0.501407  0.334315  1
  Tc  Tc8  1  0.416120  0.501059  0.333724  1
  P  P9  1  0.214544  0.310663  0.441500  1
  P  P10  1  0.886208  0.318559  0.772371  1
  P  P11  1  0.557157  0.312169  0.100851  1
  P  P12  1  0.790097  0.691332  0.567272  1
  P  P13  1  0.445932  0.677426  0.892219  1
  P  P14  1  0.106338  0.690603  0.226482  1
