# generated using pymatgen
data_Tb2PdPtO7
_symmetry_space_group_name_H-M   'P 1'
_cell_length_a   7.28899606
_cell_length_b   7.28899551
_cell_length_c   7.28469900
_cell_angle_alpha   60.01950153
_cell_angle_beta   60.01950400
_cell_angle_gamma   60.01731749
_symmetry_Int_Tables_number   1
_chemical_formula_structural   Tb2PdPtO7
_chemical_formula_sum   'Tb4 Pd2 Pt2 O14'
_cell_volume   273.78951506
_cell_formula_units_Z   2
loop_
 _symmetry_equiv_pos_site_id
 _symmetry_equiv_pos_as_xyz
  1  'x, y, z'
loop_
 _atom_site_type_symbol
 _atom_site_label
 _atom_site_symmetry_multiplicity
 _atom_site_fract_x
 _atom_site_fract_y
 _atom_site_fract_z
 _atom_site_occupancy
  Tb  Tb0  1  0.625000  0.625000  0.125000  1
  Tb  Tb1  1  0.625000  0.625000  0.625000  1
  Tb  Tb2  1  0.625000  0.125000  0.625000  1
  Tb  Tb3  1  0.125000  0.625000  0.625000  1
  Pd  Pd4  1  0.625000  0.125000  0.125000  1
  Pd  Pd5  1  0.125000  0.625000  0.125000  1
  Pt  Pt6  1  0.125000  0.125000  0.125000  1
  Pt  Pt7  1  0.125000  0.125000  0.625000  1
  O  O8  1  0.035134  0.464010  0.465995  1
  O  O9  1  0.785139  0.785139  0.214861  1
  O  O10  1  0.785990  0.214866  0.215139  1
  O  O11  1  0.464010  0.035134  0.465995  1
  O  O12  1  0.035134  0.464010  0.034861  1
  O  O13  1  0.750080  0.750080  0.749920  1
  O  O14  1  0.034680  0.034680  0.465320  1
  O  O15  1  0.214866  0.785990  0.215139  1
  O  O16  1  0.215320  0.215320  0.784680  1
  O  O17  1  0.499920  0.499920  0.500080  1
  O  O18  1  0.785990  0.214866  0.784005  1
  O  O19  1  0.464010  0.035134  0.034861  1
  O  O20  1  0.464861  0.464861  0.035139  1
  O  O21  1  0.214866  0.785990  0.784005  1
