# generated using pymatgen
data_TbPr5(Sn6Ru)2
_symmetry_space_group_name_H-M   'P 1'
_cell_length_a   8.68471542
_cell_length_b   8.68471536
_cell_length_c   13.50025600
_cell_angle_alpha   90.00000000
_cell_angle_beta   90.00000000
_cell_angle_gamma   148.36456701
_symmetry_Int_Tables_number   1
_chemical_formula_structural   TbPr5(Sn6Ru)2
_chemical_formula_sum   'Tb1 Pr5 Sn12 Ru2'
_cell_volume   534.08336919
_cell_formula_units_Z   1
loop_
 _symmetry_equiv_pos_site_id
 _symmetry_equiv_pos_as_xyz
  1  'x, y, z'
loop_
 _atom_site_type_symbol
 _atom_site_label
 _atom_site_symmetry_multiplicity
 _atom_site_fract_x
 _atom_site_fract_y
 _atom_site_fract_z
 _atom_site_occupancy
  Tb  Tb0  1  0.603633  0.396367  0.250000  1
  Pr  Pr1  1  0.397393  0.602607  0.750000  1
  Pr  Pr2  1  0.400780  0.599220  0.404562  1
  Pr  Pr3  1  0.599688  0.400312  0.594022  1
  Pr  Pr4  1  0.400780  0.599220  0.095438  1
  Pr  Pr5  1  0.599688  0.400312  0.905978  1
  Sn  Sn6  1  0.928116  0.071884  0.923909  1
  Sn  Sn7  1  0.074018  0.925982  0.079368  1
  Sn  Sn8  1  0.928116  0.071884  0.576091  1
  Sn  Sn9  1  0.074018  0.925982  0.420632  1
  Sn  Sn10  1  0.958882  0.041118  0.250000  1
  Sn  Sn11  1  0.041268  0.958732  0.750000  1
  Sn  Sn12  1  0.745623  0.254378  0.432841  1
  Sn  Sn13  1  0.253520  0.746480  0.566395  1
  Sn  Sn14  1  0.745623  0.254378  0.067159  1
  Sn  Sn15  1  0.253520  0.746480  0.933605  1
  Sn  Sn16  1  0.231010  0.768990  0.250000  1
  Sn  Sn17  1  0.765921  0.234079  0.750000  1
  Ru  Ru18  1  0.798649  0.201351  0.250000  1
  Ru  Ru19  1  0.199754  0.800246  0.750000  1
