# generated using pymatgen
data_CeGd3Zr4F28
_symmetry_space_group_name_H-M   'P 1'
_cell_length_a   5.81103465
_cell_length_b   9.22333625
_cell_length_c   12.39798900
_cell_angle_alpha   62.27293181
_cell_angle_beta   89.97280660
_cell_angle_gamma   90.00866773
_symmetry_Int_Tables_number   1
_chemical_formula_structural   CeGd3Zr4F28
_chemical_formula_sum   'Ce1 Gd3 Zr4 F28'
_cell_volume   588.19493068
_cell_formula_units_Z   1
loop_
 _symmetry_equiv_pos_site_id
 _symmetry_equiv_pos_as_xyz
  1  'x, y, z'
loop_
 _atom_site_type_symbol
 _atom_site_label
 _atom_site_symmetry_multiplicity
 _atom_site_fract_x
 _atom_site_fract_y
 _atom_site_fract_z
 _atom_site_occupancy
  Ce  Ce0  1  0.756757  0.815011  0.766655  1
  Gd  Gd1  1  0.743574  0.815798  0.266617  1
  Gd  Gd2  1  0.243791  0.186850  0.233317  1
  Gd  Gd3  1  0.256910  0.189274  0.733027  1
  Zr  Zr4  1  0.744257  0.277517  0.453243  1
  Zr  Zr5  1  0.244048  0.725905  0.048507  1
  Zr  Zr6  1  0.254065  0.726120  0.540869  1
  Zr  Zr7  1  0.754993  0.270334  0.956947  1
  F  F8  1  0.460275  0.708544  0.926254  1
  F  F9  1  0.965498  0.289112  0.576525  1
  F  F10  1  0.534029  0.287846  0.077281  1
  F  F11  1  0.034422  0.709205  0.419990  1
  F  F12  1  0.458017  0.282618  0.548670  1
  F  F13  1  0.955340  0.716322  0.957516  1
  F  F14  1  0.544436  0.716903  0.450561  1
  F  F15  1  0.041875  0.280221  0.049356  1
  F  F16  1  0.770214  0.518047  0.860595  1
  F  F17  1  0.267073  0.477173  0.638510  1
  F  F18  1  0.234866  0.477445  0.143234  1
  F  F19  1  0.732819  0.525494  0.357134  1
  F  F20  1  0.759590  0.022424  0.057508  1
  F  F21  1  0.258844  0.974090  0.441759  1
  F  F22  1  0.240770  0.973501  0.943089  1
  F  F23  1  0.739572  0.029196  0.552898  1
  F  F24  1  0.984396  0.730659  0.643722  1
  F  F25  1  0.486377  0.266316  0.852351  1
  F  F26  1  0.009875  0.267382  0.349876  1
  F  F27  1  0.511459  0.734275  0.151403  1
  F  F28  1  0.036440  0.746401  0.174241  1
  F  F29  1  0.533121  0.256462  0.328754  1
  F  F30  1  0.965066  0.251078  0.830544  1
  F  F31  1  0.458225  0.743896  0.668941  1
  F  F32  1  0.431410  0.974255  0.235559  1
  F  F33  1  0.930575  0.026343  0.265027  1
  F  F34  1  0.574395  0.033793  0.766319  1
  F  F35  1  0.082621  0.974181  0.733201  1
