# generated using pymatgen
data_DyTmPa2(Al3Ir)6
_symmetry_space_group_name_H-M   'P 1'
_cell_length_a   7.58914904
_cell_length_b   7.59565241
_cell_length_c   9.35262100
_cell_angle_alpha   90.00000000
_cell_angle_beta   90.00000000
_cell_angle_gamma   119.70367363
_symmetry_Int_Tables_number   1
_chemical_formula_structural   DyTmPa2(Al3Ir)6
_chemical_formula_sum   'Dy1 Tm1 Pa2 Al18 Ir6'
_cell_volume   468.28602538
_cell_formula_units_Z   1
loop_
 _symmetry_equiv_pos_site_id
 _symmetry_equiv_pos_as_xyz
  1  'x, y, z'
loop_
 _atom_site_type_symbol
 _atom_site_label
 _atom_site_symmetry_multiplicity
 _atom_site_fract_x
 _atom_site_fract_y
 _atom_site_fract_z
 _atom_site_occupancy
  Dy  Dy0  1  0.669508  0.993553  0.250000  1
  Tm  Tm1  1  0.330331  0.006458  0.750000  1
  Pa  Pa2  1  0.997703  0.671038  0.250000  1
  Pa  Pa3  1  0.002296  0.328924  0.750000  1
  Al  Al4  1  0.130488  0.127277  0.250000  1
  Al  Al5  1  0.869903  0.872825  0.750000  1
  Al  Al6  1  0.000445  0.331521  0.077867  1
  Al  Al7  1  0.999974  0.668884  0.921834  1
  Al  Al8  1  0.999974  0.668884  0.578166  1
  Al  Al9  1  0.338099  0.003145  0.425789  1
  Al  Al10  1  0.000445  0.331521  0.422133  1
  Al  Al11  1  0.661499  0.996834  0.574866  1
  Al  Al12  1  0.661499  0.996834  0.925134  1
  Al  Al13  1  0.338099  0.003145  0.074211  1
  Al  Al14  1  0.335224  0.332956  0.554291  1
  Al  Al15  1  0.664778  0.666725  0.446083  1
  Al  Al16  1  0.664778  0.666725  0.053917  1
  Al  Al17  1  0.335224  0.332956  0.945709  1
  Al  Al18  1  0.340973  0.547982  0.250000  1
  Al  Al19  1  0.658678  0.451553  0.750000  1
  Al  Al20  1  0.548311  0.340323  0.250000  1
  Al  Al21  1  0.451546  0.659822  0.750000  1
  Ir  Ir22  1  0.675928  0.329689  0.999490  1
  Ir  Ir23  1  0.323895  0.670320  0.000179  1
  Ir  Ir24  1  0.323895  0.670320  0.499821  1
  Ir  Ir25  1  0.675928  0.329689  0.500510  1
  Ir  Ir26  1  0.000289  0.000048  0.999781  1
  Ir  Ir27  1  0.000289  0.000048  0.500219  1
