# generated using pymatgen
data_Tb8Tm11Si16Ag
_symmetry_space_group_name_H-M   'P 1'
_cell_length_a   7.23830200
_cell_length_b   7.62934711
_cell_length_c   14.45237100
_cell_angle_alpha   90.00000000
_cell_angle_beta   90.00000000
_cell_angle_gamma   89.99025212
_symmetry_Int_Tables_number   1
_chemical_formula_structural   Tb8Tm11Si16Ag
_chemical_formula_sum   'Tb8 Tm11 Si16 Ag1'
_cell_volume   798.11076499
_cell_formula_units_Z   1
loop_
 _symmetry_equiv_pos_site_id
 _symmetry_equiv_pos_as_xyz
  1  'x, y, z'
loop_
 _atom_site_type_symbol
 _atom_site_label
 _atom_site_symmetry_multiplicity
 _atom_site_fract_x
 _atom_site_fract_y
 _atom_site_fract_z
 _atom_site_occupancy
  Tb  Tb0  1  0.016498  0.180312  0.096240  1
  Tb  Tb1  1  0.984944  0.808191  0.899672  1
  Tb  Tb2  1  0.477353  0.675634  0.900441  1
  Tb  Tb3  1  0.984944  0.808191  0.600328  1
  Tb  Tb4  1  0.515422  0.321237  0.095480  1
  Tb  Tb5  1  0.016498  0.180312  0.403760  1
  Tb  Tb6  1  0.515422  0.321237  0.404520  1
  Tb  Tb7  1  0.477353  0.675634  0.599559  1
  Tm  Tm8  1  0.839338  0.489752  0.250000  1
  Tm  Tm9  1  0.344007  0.011664  0.250000  1
  Tm  Tm10  1  0.652932  0.990075  0.750000  1
  Tm  Tm11  1  0.320237  0.185212  0.627249  1
  Tm  Tm12  1  0.675102  0.822584  0.377041  1
  Tm  Tm13  1  0.173122  0.682909  0.375725  1
  Tm  Tm14  1  0.675102  0.822584  0.122959  1
  Tm  Tm15  1  0.836867  0.325932  0.627253  1
  Tm  Tm16  1  0.320237  0.185212  0.872751  1
  Tm  Tm17  1  0.836867  0.325932  0.872747  1
  Tm  Tm18  1  0.173122  0.682909  0.124275  1
  Si  Si19  1  0.024171  0.083260  0.750000  1
  Si  Si20  1  0.970817  0.896885  0.250000  1
  Si  Si21  1  0.467810  0.610310  0.250000  1
  Si  Si22  1  0.532036  0.397004  0.750000  1
  Si  Si23  1  0.278113  0.872853  0.750000  1
  Si  Si24  1  0.722442  0.128851  0.250000  1
  Si  Si25  1  0.220692  0.373257  0.250000  1
  Si  Si26  1  0.769712  0.628829  0.750000  1
  Si  Si27  1  0.160597  0.462676  0.530984  1
  Si  Si28  1  0.845925  0.531498  0.462292  1
  Si  Si29  1  0.347456  0.969727  0.464366  1
  Si  Si30  1  0.845925  0.531498  0.037708  1
  Si  Si31  1  0.654957  0.031125  0.540920  1
  Si  Si32  1  0.160597  0.462676  0.969016  1
  Si  Si33  1  0.654957  0.031125  0.959080  1
  Si  Si34  1  0.347456  0.969727  0.035634  1
  Ag  Ag35  1  0.160965  0.523183  0.750000  1
