# generated using pymatgen
data_Th10Sn5Ge2Sb
_symmetry_space_group_name_H-M   'P 1'
_cell_length_a   9.58951246
_cell_length_b   9.57202669
_cell_length_c   6.55484000
_cell_angle_alpha   90.00000000
_cell_angle_beta   90.00000000
_cell_angle_gamma   119.93970041
_symmetry_Int_Tables_number   1
_chemical_formula_structural   Th10Sn5Ge2Sb
_chemical_formula_sum   'Th10 Sn5 Ge2 Sb1'
_cell_volume   521.38282464
_cell_formula_units_Z   1
loop_
 _symmetry_equiv_pos_site_id
 _symmetry_equiv_pos_as_xyz
  1  'x, y, z'
loop_
 _atom_site_type_symbol
 _atom_site_label
 _atom_site_symmetry_multiplicity
 _atom_site_fract_x
 _atom_site_fract_y
 _atom_site_fract_z
 _atom_site_occupancy
  Th  Th0  1  0.667491  0.333795  0.999539  1
  Th  Th1  1  0.332509  0.666305  0.999539  1
  Th  Th2  1  0.332509  0.666305  0.500461  1
  Th  Th3  1  0.667491  0.333795  0.500461  1
  Th  Th4  1  0.737917  0.737973  0.750000  1
  Th  Th5  1  0.262083  0.000056  0.750000  1
  Th  Th6  1  0.000000  0.262129  0.750000  1
  Th  Th7  1  0.261099  0.261409  0.250000  1
  Th  Th8  1  0.738901  0.000310  0.250000  1
  Th  Th9  1  0.000000  0.737149  0.250000  1
  Sn  Sn10  1  0.388300  0.387822  0.750000  1
  Sn  Sn11  1  0.611700  0.999521  0.750000  1
  Sn  Sn12  1  0.000000  0.613268  0.750000  1
  Sn  Sn13  1  0.612120  0.611777  0.250000  1
  Sn  Sn14  1  0.387880  0.999658  0.250000  1
  Ge  Ge15  1  0.000000  0.000013  0.999986  1
  Ge  Ge16  1  0.000000  0.000013  0.500014  1
  Sb  Sb17  1  0.000000  0.388701  0.250000  1
