# generated using pymatgen
data_SrDy5(Si3Os)8
_symmetry_space_group_name_H-M   'P 1'
_cell_length_a   10.14937037
_cell_length_b   10.14937037
_cell_length_c   8.19600730
_cell_angle_alpha   90.05132823
_cell_angle_beta   89.94867212
_cell_angle_gamma   132.36939787
_symmetry_Int_Tables_number   1
_chemical_formula_structural   SrDy5(Si3Os)8
_chemical_formula_sum   'Sr1 Dy5 Si24 Os8'
_cell_volume   623.75819068
_cell_formula_units_Z   1
loop_
 _symmetry_equiv_pos_site_id
 _symmetry_equiv_pos_as_xyz
  1  'x, y, z'
loop_
 _atom_site_type_symbol
 _atom_site_label
 _atom_site_symmetry_multiplicity
 _atom_site_fract_x
 _atom_site_fract_y
 _atom_site_fract_z
 _atom_site_occupancy
  Sr  Sr0  1  0.001286  0.501286  0.750000  1
  Dy  Dy1  1  0.501693  0.001693  0.750000  1
  Dy  Dy2  1  0.998547  0.498547  0.250000  1
  Dy  Dy3  1  0.500998  0.000998  0.250000  1
  Dy  Dy4  1  0.000257  0.000329  0.999411  1
  Dy  Dy5  1  0.500329  0.500257  0.500589  1
  Si  Si6  1  0.793870  0.203554  0.499616  1
  Si  Si7  1  0.703554  0.293870  0.000384  1
  Si  Si8  1  0.206213  0.797098  0.498144  1
  Si  Si9  1  0.297098  0.706213  0.001856  1
  Si  Si10  1  0.668888  0.667415  0.166674  1
  Si  Si11  1  0.167415  0.168888  0.333326  1
  Si  Si12  1  0.832112  0.833698  0.667185  1
  Si  Si13  1  0.333698  0.332112  0.832815  1
  Si  Si14  1  0.844162  0.610971  0.001025  1
  Si  Si15  1  0.110971  0.344162  0.498975  1
  Si  Si16  1  0.655774  0.888736  0.496174  1
  Si  Si17  1  0.388736  0.155774  0.003826  1
  Si  Si18  1  0.153604  0.387887  0.009200  1
  Si  Si19  1  0.887887  0.653604  0.490800  1
  Si  Si20  1  0.127391  0.892569  0.729276  1
  Si  Si21  1  0.392569  0.627391  0.770724  1
  Si  Si22  1  0.377987  0.611260  0.227829  1
  Si  Si23  1  0.111260  0.877987  0.272171  1
  Si  Si24  1  0.879391  0.112576  0.273255  1
  Si  Si25  1  0.612576  0.379391  0.226745  1
  Si  Si26  1  0.616261  0.381673  0.771795  1
  Si  Si27  1  0.881673  0.116261  0.728205  1
  Si  Si28  1  0.611895  0.844191  0.994050  1
  Si  Si29  1  0.344191  0.111895  0.505950  1
  Os  Os30  1  0.626902  0.626381  0.871984  1
  Os  Os31  1  0.126381  0.126902  0.628016  1
  Os  Os32  1  0.373048  0.373725  0.126945  1
  Os  Os33  1  0.873725  0.873048  0.373055  1
  Os  Os34  1  0.171303  0.833076  0.003393  1
  Os  Os35  1  0.333076  0.671303  0.496607  1
  Os  Os36  1  0.828064  0.165218  0.004032  1
  Os  Os37  1  0.665218  0.328064  0.495968  1
