# generated using pymatgen
data_Sm8SiAsBr12
_symmetry_space_group_name_H-M   'P 1'
_cell_length_a   4.14655100
_cell_length_b   13.50643912
_cell_length_c   14.29641264
_cell_angle_alpha   89.88393491
_cell_angle_beta   90.00000000
_cell_angle_gamma   90.00000000
_symmetry_Int_Tables_number   1
_chemical_formula_structural   Sm8SiAsBr12
_chemical_formula_sum   'Sm8 Si1 As1 Br12'
_cell_volume   800.67092917
_cell_formula_units_Z   1
loop_
 _symmetry_equiv_pos_site_id
 _symmetry_equiv_pos_as_xyz
  1  'x, y, z'
loop_
 _atom_site_type_symbol
 _atom_site_label
 _atom_site_symmetry_multiplicity
 _atom_site_fract_x
 _atom_site_fract_y
 _atom_site_fract_z
 _atom_site_occupancy
  Sm  Sm0  1  0.500000  0.119025  0.340063  1
  Sm  Sm1  1  0.500000  0.880975  0.659937  1
  Sm  Sm2  1  0.500000  0.618674  0.159478  1
  Sm  Sm3  1  0.500000  0.381326  0.840522  1
  Sm  Sm4  1  0.000000  0.118368  0.578480  1
  Sm  Sm5  1  0.000000  0.881632  0.421520  1
  Sm  Sm6  1  0.000000  0.618937  0.921062  1
  Sm  Sm7  1  0.000000  0.381063  0.078938  1
  Si  Si8  1  0.500000  0.500000  0.000000  1
  As  As9  1  0.500000  0.000000  0.500000  1
  Br  Br10  1  0.500000  0.243425  0.162685  1
  Br  Br11  1  0.500000  0.756575  0.837315  1
  Br  Br12  1  0.500000  0.743793  0.337702  1
  Br  Br13  1  0.500000  0.256207  0.662298  1
  Br  Br14  1  0.000000  0.255456  0.411646  1
  Br  Br15  1  0.000000  0.744544  0.588354  1
  Br  Br16  1  0.000000  0.755713  0.088573  1
  Br  Br17  1  0.000000  0.244287  0.911427  1
  Br  Br18  1  0.000000  0.001240  0.243253  1
  Br  Br19  1  0.000000  0.998760  0.756747  1
  Br  Br20  1  0.000000  0.501385  0.257103  1
  Br  Br21  1  0.000000  0.498615  0.742897  1
