# generated using pymatgen
data_KBaAlH6
_symmetry_space_group_name_H-M   'P 1'
_cell_length_a   5.60594544
_cell_length_b   5.60594504
_cell_length_c   5.60594400
_cell_angle_alpha   59.99999435
_cell_angle_beta   59.99999669
_cell_angle_gamma   60.00000568
_symmetry_Int_Tables_number   1
_chemical_formula_structural   KBaAlH6
_chemical_formula_sum   'K1 Ba1 Al1 H6'
_cell_volume   124.57515867
_cell_formula_units_Z   1
loop_
 _symmetry_equiv_pos_site_id
 _symmetry_equiv_pos_as_xyz
  1  'x, y, z'
loop_
 _atom_site_type_symbol
 _atom_site_label
 _atom_site_symmetry_multiplicity
 _atom_site_fract_x
 _atom_site_fract_y
 _atom_site_fract_z
 _atom_site_occupancy
  K  K0  1  0.250000  0.250000  0.250000  1
  Ba  Ba1  1  0.750000  0.750000  0.750000  1
  Al  Al2  1  0.000000  0.000000  0.000000  1
  H  H3  1  0.777770  0.222230  0.222230  1
  H  H4  1  0.222230  0.777770  0.222230  1
  H  H5  1  0.777770  0.777770  0.222230  1
  H  H6  1  0.222230  0.777770  0.777770  1
  H  H7  1  0.777770  0.222230  0.777770  1
  H  H8  1  0.222230  0.222230  0.777770  1
