# generated using pymatgen
data_Tm4Si4Ir3Os
_symmetry_space_group_name_H-M   'P 1'
_cell_length_a   4.22483400
_cell_length_b   6.78751227
_cell_length_c   7.35599146
_cell_angle_alpha   90.07108557
_cell_angle_beta   90.00000000
_cell_angle_gamma   90.00000000
_symmetry_Int_Tables_number   1
_chemical_formula_structural   Tm4Si4Ir3Os
_chemical_formula_sum   'Tm4 Si4 Ir3 Os1'
_cell_volume   210.94107700
_cell_formula_units_Z   1
loop_
 _symmetry_equiv_pos_site_id
 _symmetry_equiv_pos_as_xyz
  1  'x, y, z'
loop_
 _atom_site_type_symbol
 _atom_site_label
 _atom_site_symmetry_multiplicity
 _atom_site_fract_x
 _atom_site_fract_y
 _atom_site_fract_z
 _atom_site_occupancy
  Tm  Tm0  1  0.250000  0.503830  0.185617  1
  Tm  Tm1  1  0.750000  0.497729  0.813967  1
  Tm  Tm2  1  0.750000  0.999197  0.687804  1
  Tm  Tm3  1  0.250000  0.997634  0.312930  1
  Si  Si4  1  0.250000  0.797277  0.882084  1
  Si  Si5  1  0.750000  0.202842  0.113746  1
  Si  Si6  1  0.750000  0.702376  0.394871  1
  Si  Si7  1  0.250000  0.299451  0.610134  1
  Ir  Ir8  1  0.750000  0.340325  0.434858  1
  Ir  Ir9  1  0.750000  0.841907  0.064188  1
  Ir  Ir10  1  0.250000  0.159541  0.935883  1
  Os  Os11  1  0.250000  0.657890  0.563920  1
