# generated using pymatgen
data_Dy4Al15(SiIr2)3
_symmetry_space_group_name_H-M   'P 1'
_cell_length_a   7.53735985
_cell_length_b   7.52066652
_cell_length_c   9.32182148
_cell_angle_alpha   90.00071771
_cell_angle_beta   89.91383740
_cell_angle_gamma   119.74812178
_symmetry_Int_Tables_number   1
_chemical_formula_structural   Dy4Al15(SiIr2)3
_chemical_formula_sum   'Dy4 Al15 Si3 Ir6'
_cell_volume   458.77848410
_cell_formula_units_Z   1
loop_
 _symmetry_equiv_pos_site_id
 _symmetry_equiv_pos_as_xyz
  1  'x, y, z'
loop_
 _atom_site_type_symbol
 _atom_site_label
 _atom_site_symmetry_multiplicity
 _atom_site_fract_x
 _atom_site_fract_y
 _atom_site_fract_z
 _atom_site_occupancy
  Dy  Dy0  1  0.993824  0.669077  0.748421  1
  Dy  Dy1  1  0.005088  0.325679  0.252990  1
  Dy  Dy2  1  0.678565  0.999714  0.748096  1
  Dy  Dy3  1  0.325967  0.005594  0.249661  1
  Al  Al4  1  0.998352  0.668404  0.422200  1
  Al  Al5  1  0.999132  0.664169  0.075181  1
  Al  Al6  1  0.335950  0.000194  0.924632  1
  Al  Al7  1  0.001464  0.336243  0.928369  1
  Al  Al8  1  0.663423  0.998993  0.075243  1
  Al  Al9  1  0.659375  0.994114  0.422539  1
  Al  Al10  1  0.335750  0.000307  0.576008  1
  Al  Al11  1  0.335727  0.335348  0.057708  1
  Al  Al12  1  0.664946  0.665447  0.942396  1
  Al  Al13  1  0.664493  0.665046  0.558761  1
  Al  Al14  1  0.338679  0.335433  0.442081  1
  Al  Al15  1  0.334670  0.546369  0.750379  1
  Al  Al16  1  0.665371  0.451442  0.250212  1
  Al  Al17  1  0.546252  0.335720  0.750315  1
  Al  Al18  1  0.450705  0.663459  0.249419  1
  Si  Si19  1  0.131565  0.127405  0.750818  1
  Si  Si20  1  0.871574  0.872833  0.249714  1
  Si  Si21  1  0.000927  0.337894  0.573004  1
  Ir  Ir22  1  0.679190  0.328673  0.501663  1
  Ir  Ir23  1  0.320237  0.663825  0.500347  1
  Ir  Ir24  1  0.327935  0.671109  0.999394  1
  Ir  Ir25  1  0.671949  0.328625  0.999196  1
  Ir  Ir26  1  0.999291  0.008281  0.501867  1
  Ir  Ir27  1  0.999600  0.000606  0.999385  1
