# generated using pymatgen
data_YMoF6
_symmetry_space_group_name_H-M   'P 1'
_cell_length_a   6.02300143
_cell_length_b   6.02300181
_cell_length_c   6.02300133
_cell_angle_alpha   57.20936167
_cell_angle_beta   57.20936765
_cell_angle_gamma   57.20937164
_symmetry_Int_Tables_number   1
_chemical_formula_structural   YMoF6
_chemical_formula_sum   'Y1 Mo1 F6'
_cell_volume   144.56747619
_cell_formula_units_Z   1
loop_
 _symmetry_equiv_pos_site_id
 _symmetry_equiv_pos_as_xyz
  1  'x, y, z'
loop_
 _atom_site_type_symbol
 _atom_site_label
 _atom_site_symmetry_multiplicity
 _atom_site_fract_x
 _atom_site_fract_y
 _atom_site_fract_z
 _atom_site_occupancy
  Y  Y0  1  0.500000  0.500000  0.500000  1
  Mo  Mo1  1  0.000000  0.000000  0.000000  1
  F  F2  1  0.665349  0.846841  0.241409  1
  F  F3  1  0.846841  0.241409  0.665349  1
  F  F4  1  0.758591  0.334651  0.153159  1
  F  F5  1  0.153159  0.758591  0.334651  1
  F  F6  1  0.334651  0.153159  0.758591  1
  F  F7  1  0.241409  0.665349  0.846841  1
