# generated using pymatgen
data_Ac14Ag51
_symmetry_space_group_name_H-M   'P 1'
_cell_length_a   13.38081200
_cell_length_b   13.38081240
_cell_length_c   9.82251800
_cell_angle_alpha   90.00000000
_cell_angle_beta   90.00000000
_cell_angle_gamma   120.00000396
_symmetry_Int_Tables_number   1
_chemical_formula_structural   Ac14Ag51
_chemical_formula_sum   'Ac14 Ag51'
_cell_volume   1523.06486110
_cell_formula_units_Z   1
loop_
 _symmetry_equiv_pos_site_id
 _symmetry_equiv_pos_as_xyz
  1  'x, y, z'
loop_
 _atom_site_type_symbol
 _atom_site_label
 _atom_site_symmetry_multiplicity
 _atom_site_fract_x
 _atom_site_fract_y
 _atom_site_fract_z
 _atom_site_occupancy
  Ac  Ac0  1  0.996837  0.194942  0.500000  1
  Ac  Ac1  1  0.198105  0.003163  0.500000  1
  Ac  Ac2  1  0.805058  0.801895  0.500000  1
  Ac  Ac3  1  0.336347  0.473758  0.500000  1
  Ac  Ac4  1  0.137411  0.663653  0.500000  1
  Ac  Ac5  1  0.526242  0.862589  0.500000  1
  Ac  Ac6  1  0.399486  0.954467  0.000000  1
  Ac  Ac7  1  0.554981  0.600514  0.000000  1
  Ac  Ac8  1  0.045533  0.445019  0.000000  1
  Ac  Ac9  1  0.950196  0.734968  0.000000  1
  Ac  Ac10  1  0.784773  0.049804  0.000000  1
  Ac  Ac11  1  0.265032  0.215227  0.000000  1
  Ac  Ac12  1  0.666667  0.333333  0.704864  1
  Ac  Ac13  1  0.666667  0.333333  0.295136  1
  Ag  Ag14  1  0.045790  0.217961  0.843549  1
  Ag  Ag15  1  0.172171  0.954210  0.843549  1
  Ag  Ag16  1  0.782039  0.827829  0.843549  1
  Ag  Ag17  1  0.283918  0.451566  0.846258  1
  Ag  Ag18  1  0.167648  0.716082  0.846258  1
  Ag  Ag19  1  0.548434  0.832352  0.846258  1
  Ag  Ag20  1  0.283918  0.451566  0.153742  1
  Ag  Ag21  1  0.167648  0.716082  0.153742  1
  Ag  Ag22  1  0.548434  0.832352  0.153742  1
  Ag  Ag23  1  0.045790  0.217961  0.156451  1
  Ag  Ag24  1  0.172171  0.954210  0.156451  1
  Ag  Ag25  1  0.782039  0.827829  0.156451  1
  Ag  Ag26  1  0.488765  0.093219  0.500000  1
  Ag  Ag27  1  0.604455  0.511235  0.500000  1
  Ag  Ag28  1  0.906781  0.395545  0.500000  1
  Ag  Ag29  1  0.845472  0.573988  0.500000  1
  Ag  Ag30  1  0.728516  0.154528  0.500000  1
  Ag  Ag31  1  0.426012  0.271484  0.500000  1
  Ag  Ag32  1  0.000000  0.000000  0.000000  1
  Ag  Ag33  1  0.333333  0.666667  0.000000  1
  Ag  Ag34  1  0.340020  0.899229  0.676636  1
  Ag  Ag35  1  0.559209  0.659980  0.676636  1
  Ag  Ag36  1  0.100771  0.440791  0.676636  1
  Ag  Ag37  1  0.997130  0.772142  0.672887  1
  Ag  Ag38  1  0.775012  0.002870  0.672887  1
  Ag  Ag39  1  0.227858  0.224988  0.672887  1
  Ag  Ag40  1  0.997130  0.772142  0.327113  1
  Ag  Ag41  1  0.775012  0.002870  0.327113  1
  Ag  Ag42  1  0.227858  0.224988  0.327113  1
  Ag  Ag43  1  0.340020  0.899229  0.323364  1
  Ag  Ag44  1  0.559209  0.659980  0.323364  1
  Ag  Ag45  1  0.100771  0.440791  0.323364  1
  Ag  Ag46  1  0.597174  0.061292  0.756888  1
  Ag  Ag47  1  0.464118  0.402826  0.756888  1
  Ag  Ag48  1  0.938708  0.535882  0.756888  1
  Ag  Ag49  1  0.744013  0.604196  0.759842  1
  Ag  Ag50  1  0.860183  0.255987  0.759842  1
  Ag  Ag51  1  0.395804  0.139817  0.759842  1
  Ag  Ag52  1  0.744013  0.604196  0.240158  1
  Ag  Ag53  1  0.860183  0.255987  0.240158  1
  Ag  Ag54  1  0.395804  0.139817  0.240158  1
  Ag  Ag55  1  0.597174  0.061292  0.243112  1
  Ag  Ag56  1  0.464118  0.402826  0.243112  1
  Ag  Ag57  1  0.938708  0.535882  0.243112  1
  Ag  Ag58  1  0.000000  0.000000  0.717628  1
  Ag  Ag59  1  0.333333  0.666667  0.716359  1
  Ag  Ag60  1  0.333333  0.666667  0.283641  1
  Ag  Ag61  1  0.000000  0.000000  0.282372  1
  Ag  Ag62  1  0.684999  0.217985  0.000000  1
  Ag  Ag63  1  0.532986  0.315001  0.000000  1
  Ag  Ag64  1  0.782015  0.467014  0.000000  1
