# generated using pymatgen
data_Yb2DyY(Ru2O7)2
_symmetry_space_group_name_H-M   'P 1'
_cell_length_a   7.23767279
_cell_length_b   7.22722214
_cell_length_c   7.22722231
_cell_angle_alpha   59.84500252
_cell_angle_beta   60.12517905
_cell_angle_gamma   60.12518165
_symmetry_Int_Tables_number   1
_chemical_formula_structural   Yb2DyY(Ru2O7)2
_chemical_formula_sum   'Yb2 Dy1 Y1 Ru4 O14'
_cell_volume   267.50548073
_cell_formula_units_Z   1
loop_
 _symmetry_equiv_pos_site_id
 _symmetry_equiv_pos_as_xyz
  1  'x, y, z'
loop_
 _atom_site_type_symbol
 _atom_site_label
 _atom_site_symmetry_multiplicity
 _atom_site_fract_x
 _atom_site_fract_y
 _atom_site_fract_z
 _atom_site_occupancy
  Yb  Yb0  1  0.125000  0.125000  0.625000  1
  Yb  Yb1  1  0.125000  0.625000  0.125000  1
  Dy  Dy2  1  0.625000  0.125000  0.125000  1
  Y  Y3  1  0.125000  0.125000  0.125000  1
  Ru  Ru4  1  0.625000  0.625000  0.125000  1
  Ru  Ru5  1  0.625000  0.125000  0.625000  1
  Ru  Ru6  1  0.125000  0.625000  0.625000  1
  Ru  Ru7  1  0.625000  0.625000  0.625000  1
  O  O8  1  0.254986  0.245208  0.245208  1
  O  O9  1  0.995014  0.004792  0.004792  1
  O  O10  1  0.297854  0.703670  0.296471  1
  O  O11  1  0.548272  0.954036  0.545210  1
  O  O12  1  0.297854  0.296471  0.703670  1
  O  O13  1  0.708685  0.290873  0.290873  1
  O  O14  1  0.302216  0.697792  0.697792  1
  O  O15  1  0.701728  0.704790  0.295964  1
  O  O16  1  0.701728  0.295964  0.704790  1
  O  O17  1  0.947784  0.552208  0.552208  1
  O  O18  1  0.541315  0.959127  0.959127  1
  O  O19  1  0.952146  0.546330  0.953529  1
  O  O20  1  0.548272  0.545210  0.954036  1
  O  O21  1  0.952146  0.953529  0.546330  1
