# generated using pymatgen
data_Hf3AlIr2C
_symmetry_space_group_name_H-M   'P 1'
_cell_length_a   8.53498899
_cell_length_b   8.53498976
_cell_length_c   8.53499000
_cell_angle_alpha   59.99999908
_cell_angle_beta   59.99999610
_cell_angle_gamma   60.00000038
_symmetry_Int_Tables_number   1
_chemical_formula_structural   Hf3AlIr2C
_chemical_formula_sum   'Hf12 Al4 Ir8 C4'
_cell_volume   439.63673535
_cell_formula_units_Z   4
loop_
 _symmetry_equiv_pos_site_id
 _symmetry_equiv_pos_as_xyz
  1  'x, y, z'
loop_
 _atom_site_type_symbol
 _atom_site_label
 _atom_site_symmetry_multiplicity
 _atom_site_fract_x
 _atom_site_fract_y
 _atom_site_fract_z
 _atom_site_occupancy
  Hf  Hf0  1  0.442879  0.442879  0.057121  1
  Hf  Hf1  1  0.057121  0.442879  0.057121  1
  Hf  Hf2  1  0.442879  0.057121  0.057121  1
  Hf  Hf3  1  0.057121  0.057121  0.442879  1
  Hf  Hf4  1  0.442879  0.057121  0.442879  1
  Hf  Hf5  1  0.057121  0.442879  0.442879  1
  Hf  Hf6  1  0.807121  0.807121  0.192879  1
  Hf  Hf7  1  0.192879  0.807121  0.192879  1
  Hf  Hf8  1  0.807121  0.192879  0.192879  1
  Hf  Hf9  1  0.192879  0.192879  0.807121  1
  Hf  Hf10  1  0.807121  0.192879  0.807121  1
  Hf  Hf11  1  0.192879  0.807121  0.807121  1
  Al  Al12  1  0.625000  0.625000  0.125000  1
  Al  Al13  1  0.625000  0.125000  0.625000  1
  Al  Al14  1  0.125000  0.625000  0.625000  1
  Al  Al15  1  0.625000  0.625000  0.625000  1
  Ir  Ir16  1  0.834156  0.834156  0.497532  1
  Ir  Ir17  1  0.834156  0.497532  0.834156  1
  Ir  Ir18  1  0.497532  0.834156  0.834156  1
  Ir  Ir19  1  0.834156  0.834156  0.834156  1
  Ir  Ir20  1  0.415844  0.415844  0.752468  1
  Ir  Ir21  1  0.415844  0.752468  0.415844  1
  Ir  Ir22  1  0.752468  0.415844  0.415844  1
  Ir  Ir23  1  0.415844  0.415844  0.415844  1
  C  C24  1  0.125000  0.125000  0.625000  1
  C  C25  1  0.125000  0.625000  0.125000  1
  C  C26  1  0.625000  0.125000  0.125000  1
  C  C27  1  0.125000  0.125000  0.125000  1
