# generated using pymatgen
data_Pm3C3Cl
_symmetry_space_group_name_H-M   'P 1'
_cell_length_a   3.88893236
_cell_length_b   3.73807282
_cell_length_c   10.73904900
_cell_angle_alpha   100.18195590
_cell_angle_beta   97.88801836
_cell_angle_gamma   118.80466901
_symmetry_Int_Tables_number   1
_chemical_formula_structural   Pm3C3Cl
_chemical_formula_sum   'Pm3 C3 Cl1'
_cell_volume   130.08987002
_cell_formula_units_Z   1
loop_
 _symmetry_equiv_pos_site_id
 _symmetry_equiv_pos_as_xyz
  1  'x, y, z'
loop_
 _atom_site_type_symbol
 _atom_site_label
 _atom_site_symmetry_multiplicity
 _atom_site_fract_x
 _atom_site_fract_y
 _atom_site_fract_z
 _atom_site_occupancy
  Pm  Pm0  1  0.232590  0.658560  0.048460  1
  Pm  Pm1  1  0.098927  0.230503  0.321237  1
  Pm  Pm2  1  0.462286  0.613507  0.737804  1
  C  C3  1  0.536333  0.241514  0.916478  1
  C  C4  1  0.664185  0.457478  0.211978  1
  C  C5  1  0.155734  0.016635  0.846532  1
  Cl  Cl6  1  0.616394  0.092254  0.537632  1
