# generated using pymatgen
data_Ca19Nd(Cd3Pd)2
_symmetry_space_group_name_H-M   'P 1'
_cell_length_a   10.24796500
_cell_length_b   10.24796473
_cell_length_c   10.15866100
_cell_angle_alpha   90.00000000
_cell_angle_beta   90.00000000
_cell_angle_gamma   119.99999765
_symmetry_Int_Tables_number   1
_chemical_formula_structural   Ca19Nd(Cd3Pd)2
_chemical_formula_sum   'Ca19 Nd1 Cd6 Pd2'
_cell_volume   923.93701287
_cell_formula_units_Z   1
loop_
 _symmetry_equiv_pos_site_id
 _symmetry_equiv_pos_as_xyz
  1  'x, y, z'
loop_
 _atom_site_type_symbol
 _atom_site_label
 _atom_site_symmetry_multiplicity
 _atom_site_fract_x
 _atom_site_fract_y
 _atom_site_fract_z
 _atom_site_occupancy
  Ca  Ca0  1  0.205518  0.794482  0.937201  1
  Ca  Ca1  1  0.205518  0.411037  0.937201  1
  Ca  Ca2  1  0.588963  0.794482  0.937201  1
  Ca  Ca3  1  0.794482  0.205518  0.062799  1
  Ca  Ca4  1  0.794482  0.588963  0.062799  1
  Ca  Ca5  1  0.411037  0.205518  0.062799  1
  Ca  Ca6  1  0.794595  0.205405  0.436803  1
  Ca  Ca7  1  0.794595  0.589189  0.436803  1
  Ca  Ca8  1  0.410811  0.205405  0.436803  1
  Ca  Ca9  1  0.205405  0.794595  0.563197  1
  Ca  Ca10  1  0.205405  0.410811  0.563197  1
  Ca  Ca11  1  0.589189  0.794595  0.563197  1
  Ca  Ca12  1  0.539437  0.460563  0.750068  1
  Ca  Ca13  1  0.539437  0.078873  0.750068  1
  Ca  Ca14  1  0.921127  0.460563  0.750068  1
  Ca  Ca15  1  0.460563  0.539437  0.249932  1
  Ca  Ca16  1  0.460563  0.921127  0.249932  1
  Ca  Ca17  1  0.078873  0.539437  0.249932  1
  Ca  Ca18  1  0.000000  0.000000  0.500000  1
  Nd  Nd19  1  0.000000  0.000000  0.000000  1
  Cd  Cd20  1  0.882403  0.117597  0.750165  1
  Cd  Cd21  1  0.882403  0.764806  0.750165  1
  Cd  Cd22  1  0.235194  0.117597  0.750165  1
  Cd  Cd23  1  0.117597  0.882403  0.249835  1
  Cd  Cd24  1  0.117597  0.235194  0.249835  1
  Cd  Cd25  1  0.764806  0.882403  0.249835  1
  Pd  Pd26  1  0.333333  0.666667  0.749647  1
  Pd  Pd27  1  0.666667  0.333333  0.250353  1
