# generated using pymatgen
data_Sc7Ta13Si16
_symmetry_space_group_name_H-M   'P 1'
_cell_length_a   6.88668792
_cell_length_b   6.88094597
_cell_length_c   12.66840880
_cell_angle_alpha   90.08001790
_cell_angle_beta   90.00512289
_cell_angle_gamma   89.99653158
_symmetry_Int_Tables_number   1
_chemical_formula_structural   Sc7Ta13Si16
_chemical_formula_sum   'Sc7 Ta13 Si16'
_cell_volume   600.31638020
_cell_formula_units_Z   1
loop_
 _symmetry_equiv_pos_site_id
 _symmetry_equiv_pos_as_xyz
  1  'x, y, z'
loop_
 _atom_site_type_symbol
 _atom_site_label
 _atom_site_symmetry_multiplicity
 _atom_site_fract_x
 _atom_site_fract_y
 _atom_site_fract_z
 _atom_site_occupancy
  Sc  Sc0  1  0.838756  0.499337  0.278918  1
  Sc  Sc1  1  0.159086  0.500097  0.780406  1
  Sc  Sc2  1  0.499486  0.839017  0.720306  1
  Sc  Sc3  1  0.499904  0.159838  0.218670  1
  Sc  Sc4  1  0.000327  0.339141  0.530057  1
  Sc  Sc5  1  0.662618  0.997482  0.970599  1
  Sc  Sc6  1  0.339825  0.999828  0.469846  1
  Ta  Ta7  1  0.008183  0.656384  0.030680  1
  Ta  Ta8  1  0.327086  0.333409  0.999719  1
  Ta  Ta9  1  0.170497  0.828599  0.248841  1
  Ta  Ta10  1  0.829300  0.171419  0.751733  1
  Ta  Ta11  1  0.669583  0.669715  0.500093  1
  Ta  Ta12  1  0.004658  0.150769  0.124882  1
  Ta  Ta13  1  0.348616  0.506663  0.375239  1
  Ta  Ta14  1  0.650902  0.496551  0.877545  1
  Ta  Ta15  1  0.505989  0.349487  0.624266  1
  Ta  Ta16  1  0.493630  0.652592  0.121987  1
  Ta  Ta17  1  0.994503  0.848758  0.626995  1
  Ta  Ta18  1  0.147169  0.005706  0.875731  1
  Ta  Ta19  1  0.849325  0.992603  0.372555  1
  Si  Si20  1  0.303258  0.958397  0.063964  1
  Si  Si21  1  0.544013  0.802147  0.312916  1
  Si  Si22  1  0.455531  0.198254  0.814389  1
  Si  Si23  1  0.803033  0.543398  0.686431  1
  Si  Si24  1  0.197485  0.456309  0.186086  1
  Si  Si25  1  0.697217  0.042044  0.564109  1
  Si  Si26  1  0.955531  0.305899  0.936523  1
  Si  Si27  1  0.041738  0.695970  0.436399  1
  Si  Si28  1  0.708612  0.364164  0.073117  1
  Si  Si29  1  0.138193  0.205043  0.321798  1
  Si  Si30  1  0.861354  0.792491  0.824176  1
  Si  Si31  1  0.205144  0.138907  0.678499  1
  Si  Si32  1  0.797079  0.858387  0.174909  1
  Si  Si33  1  0.294369  0.639336  0.571522  1
  Si  Si34  1  0.358777  0.707940  0.927850  1
  Si  Si35  1  0.639223  0.293921  0.428240  1
