# generated using pymatgen
data_Er9TmIrRu3
_symmetry_space_group_name_H-M   'P 1'
_cell_length_a   6.28132494
_cell_length_b   7.27379747
_cell_length_c   8.37104149
_cell_angle_alpha   96.81509184
_cell_angle_beta   111.93210740
_cell_angle_gamma   90.12117729
_symmetry_Int_Tables_number   1
_chemical_formula_structural   Er9TmIrRu3
_chemical_formula_sum   'Er9 Tm1 Ir1 Ru3'
_cell_volume   351.83029648
_cell_formula_units_Z   1
loop_
 _symmetry_equiv_pos_site_id
 _symmetry_equiv_pos_as_xyz
  1  'x, y, z'
loop_
 _atom_site_type_symbol
 _atom_site_label
 _atom_site_symmetry_multiplicity
 _atom_site_fract_x
 _atom_site_fract_y
 _atom_site_fract_z
 _atom_site_occupancy
  Er  Er0  1  0.792510  0.082405  0.814961  1
  Er  Er1  1  0.978065  0.414830  0.186897  1
  Er  Er2  1  0.208066  0.915057  0.185705  1
  Er  Er3  1  0.024638  0.586011  0.815061  1
  Er  Er4  1  0.204652  0.183460  0.564256  1
  Er  Er5  1  0.642392  0.316449  0.434570  1
  Er  Er6  1  0.793691  0.815351  0.434746  1
  Er  Er7  1  0.356677  0.685283  0.563631  1
  Er  Er8  1  0.419753  0.249704  0.000411  1
  Tm  Tm9  1  0.580149  0.751304  0.000794  1
  Ir  Ir10  1  0.601733  0.423200  0.779082  1
  Ru  Ru11  1  0.823950  0.076744  0.219707  1
  Ru  Ru12  1  0.395819  0.576418  0.220317  1
  Ru  Ru13  1  0.177906  0.923785  0.779863  1
