# generated using pymatgen
data_YTh3Al4(Ga7Ir3)2
_symmetry_space_group_name_H-M   'P 1'
_cell_length_a   7.66999784
_cell_length_b   7.68091756
_cell_length_c   9.49728800
_cell_angle_alpha   90.00000000
_cell_angle_beta   90.00000000
_cell_angle_gamma   119.69978820
_symmetry_Int_Tables_number   1
_chemical_formula_structural   YTh3Al4(Ga7Ir3)2
_chemical_formula_sum   'Y1 Th3 Al4 Ga14 Ir6'
_cell_volume   486.00915549
_cell_formula_units_Z   1
loop_
 _symmetry_equiv_pos_site_id
 _symmetry_equiv_pos_as_xyz
  1  'x, y, z'
loop_
 _atom_site_type_symbol
 _atom_site_label
 _atom_site_symmetry_multiplicity
 _atom_site_fract_x
 _atom_site_fract_y
 _atom_site_fract_z
 _atom_site_occupancy
  Y  Y0  1  0.328708  0.002380  0.750000  1
  Th  Th1  1  0.998204  0.670326  0.250000  1
  Th  Th2  1  0.000230  0.329940  0.750000  1
  Th  Th3  1  0.669974  0.997464  0.250000  1
  Al  Al4  1  0.335014  0.331522  0.555021  1
  Al  Al5  1  0.664325  0.664176  0.451011  1
  Al  Al6  1  0.664325  0.664176  0.048989  1
  Al  Al7  1  0.335014  0.331522  0.944979  1
  Ga  Ga8  1  0.135605  0.132590  0.250000  1
  Ga  Ga9  1  0.871503  0.869847  0.750000  1
  Ga  Ga10  1  0.005002  0.335314  0.078991  1
  Ga  Ga11  1  0.001296  0.670223  0.918576  1
  Ga  Ga12  1  0.001296  0.670223  0.581424  1
  Ga  Ga13  1  0.335205  0.003470  0.426858  1
  Ga  Ga14  1  0.005002  0.335314  0.421009  1
  Ga  Ga15  1  0.659098  0.996031  0.581457  1
  Ga  Ga16  1  0.659098  0.996031  0.918543  1
  Ga  Ga17  1  0.335205  0.003470  0.073142  1
  Ga  Ga18  1  0.349145  0.546583  0.250000  1
  Ga  Ga19  1  0.649313  0.447593  0.750000  1
  Ga  Ga20  1  0.546411  0.345709  0.250000  1
  Ga  Ga21  1  0.451779  0.655643  0.750000  1
  Ir  Ir22  1  0.672937  0.331806  0.000424  1
  Ir  Ir23  1  0.329187  0.668261  0.000636  1
  Ir  Ir24  1  0.329187  0.668261  0.499364  1
  Ir  Ir25  1  0.672937  0.331806  0.499576  1
  Ir  Ir26  1  0.997499  0.000159  0.000974  1
  Ir  Ir27  1  0.997499  0.000159  0.499026  1
