# generated using pymatgen
data_Dy8Ta3Si16W9
_symmetry_space_group_name_H-M   'P 1'
_cell_length_a   6.90733011
_cell_length_b   6.90733001
_cell_length_c   12.87382794
_cell_angle_alpha   89.99470745
_cell_angle_beta   90.00529502
_cell_angle_gamma   89.68431292
_symmetry_Int_Tables_number   1
_chemical_formula_structural   Dy8Ta3Si16W9
_chemical_formula_sum   'Dy8 Ta3 Si16 W9'
_cell_volume   614.21656180
_cell_formula_units_Z   1
loop_
 _symmetry_equiv_pos_site_id
 _symmetry_equiv_pos_as_xyz
  1  'x, y, z'
loop_
 _atom_site_type_symbol
 _atom_site_label
 _atom_site_symmetry_multiplicity
 _atom_site_fract_x
 _atom_site_fract_y
 _atom_site_fract_z
 _atom_site_occupancy
  Dy  Dy0  1  0.999761  0.662664  0.031180  1
  Dy  Dy1  1  0.998739  0.338635  0.531269  1
  Dy  Dy2  1  0.662664  0.999761  0.968820  1
  Dy  Dy3  1  0.162902  0.500886  0.780466  1
  Dy  Dy4  1  0.836039  0.501213  0.281386  1
  Dy  Dy5  1  0.500886  0.162902  0.219534  1
  Dy  Dy6  1  0.501213  0.836039  0.718614  1
  Dy  Dy7  1  0.338635  0.998739  0.468731  1
  Ta  Ta8  1  0.831638  0.167339  0.748415  1
  Ta  Ta9  1  0.167339  0.831638  0.251585  1
  Ta  Ta10  1  0.333102  0.333102  0.000000  1
  Si  Si11  1  0.032814  0.711516  0.439809  1
  Si  Si12  1  0.961190  0.291229  0.936972  1
  Si  Si13  1  0.711516  0.032814  0.560191  1
  Si  Si14  1  0.209065  0.461298  0.186689  1
  Si  Si15  1  0.788815  0.541048  0.684220  1
  Si  Si16  1  0.461298  0.209065  0.813311  1
  Si  Si17  1  0.541048  0.788815  0.315780  1
  Si  Si18  1  0.291229  0.961190  0.063028  1
  Si  Si19  1  0.795982  0.873063  0.183267  1
  Si  Si20  1  0.302144  0.625217  0.565289  1
  Si  Si21  1  0.702846  0.372537  0.066760  1
  Si  Si22  1  0.625217  0.302144  0.434711  1
  Si  Si23  1  0.372537  0.702846  0.933240  1
  Si  Si24  1  0.127267  0.204800  0.316795  1
  Si  Si25  1  0.204800  0.127267  0.683205  1
  Si  Si26  1  0.873063  0.795982  0.816733  1
  W  W27  1  0.330993  0.502852  0.375000  1
  W  W28  1  0.840289  0.999782  0.371929  1
  W  W29  1  0.004168  0.161304  0.125799  1
  W  W30  1  0.999782  0.840289  0.628071  1
  W  W31  1  0.502852  0.330993  0.625000  1
  W  W32  1  0.161304  0.004168  0.874201  1
  W  W33  1  0.666422  0.666422  0.500000  1
  W  W34  1  0.497406  0.663038  0.124522  1
  W  W35  1  0.663038  0.497406  0.875478  1
