# generated using pymatgen
data_PbS4(IO8)2
_symmetry_space_group_name_H-M   'P 1'
_cell_length_a   6.73125742
_cell_length_b   6.73125573
_cell_length_c   9.24676330
_cell_angle_alpha   75.44192447
_cell_angle_beta   75.44192672
_cell_angle_gamma   89.27994327
_symmetry_Int_Tables_number   1
_chemical_formula_structural   PbS4(IO8)2
_chemical_formula_sum   'Pb1 S4 I2 O16'
_cell_volume   391.92434403
_cell_formula_units_Z   1
loop_
 _symmetry_equiv_pos_site_id
 _symmetry_equiv_pos_as_xyz
  1  'x, y, z'
loop_
 _atom_site_type_symbol
 _atom_site_label
 _atom_site_symmetry_multiplicity
 _atom_site_fract_x
 _atom_site_fract_y
 _atom_site_fract_z
 _atom_site_occupancy
  Pb  Pb0  1  0.000000  0.000000  0.000000  1
  S  S1  1  0.081188  0.583754  0.743954  1
  S  S2  1  0.583754  0.081188  0.743954  1
  S  S3  1  0.918812  0.416246  0.256046  1
  S  S4  1  0.416246  0.918812  0.256046  1
  I  I5  1  0.000000  0.000000  0.500000  1
  I  I6  1  0.500000  0.500000  0.500000  1
  O  O7  1  0.316349  0.630942  0.678379  1
  O  O8  1  0.630942  0.316349  0.678379  1
  O  O9  1  0.683651  0.369058  0.321621  1
  O  O10  1  0.369058  0.683651  0.321621  1
  O  O11  1  0.015342  0.695557  0.861353  1
  O  O12  1  0.695557  0.015342  0.861353  1
  O  O13  1  0.984658  0.304443  0.138647  1
  O  O14  1  0.304443  0.984658  0.138647  1
  O  O15  1  0.988277  0.671563  0.604193  1
  O  O16  1  0.671563  0.988277  0.604193  1
  O  O17  1  0.011723  0.328437  0.395807  1
  O  O18  1  0.328437  0.011723  0.395807  1
  O  O19  1  0.031903  0.363948  0.789255  1
  O  O20  1  0.363948  0.031903  0.789255  1
  O  O21  1  0.968097  0.636052  0.210745  1
  O  O22  1  0.636052  0.968097  0.210745  1
