# generated using pymatgen
data_YbNiB4Os3
_symmetry_space_group_name_H-M   'P 1'
_cell_length_a   7.46691004
_cell_length_b   7.25564351
_cell_length_c   4.03053300
_cell_angle_alpha   90.00000000
_cell_angle_beta   90.00000000
_cell_angle_gamma   87.35982111
_symmetry_Int_Tables_number   1
_chemical_formula_structural   YbNiB4Os3
_chemical_formula_sum   'Yb2 Ni2 B8 Os6'
_cell_volume   218.13135325
_cell_formula_units_Z   2
loop_
 _symmetry_equiv_pos_site_id
 _symmetry_equiv_pos_as_xyz
  1  'x, y, z'
loop_
 _atom_site_type_symbol
 _atom_site_label
 _atom_site_symmetry_multiplicity
 _atom_site_fract_x
 _atom_site_fract_y
 _atom_site_fract_z
 _atom_site_occupancy
  Yb  Yb0  1  0.500000  0.500000  0.978215  1
  Yb  Yb1  1  0.000000  0.000000  0.406289  1
  Ni  Ni2  1  0.368417  0.117971  0.121138  1
  Ni  Ni3  1  0.631583  0.882029  0.121138  1
  B  B4  1  0.657017  0.816782  0.617388  1
  B  B5  1  0.175309  0.287356  0.892463  1
  B  B6  1  0.294231  0.828721  0.120322  1
  B  B7  1  0.705769  0.171279  0.120322  1
  B  B8  1  0.342983  0.183218  0.617388  1
  B  B9  1  0.824691  0.712644  0.892463  1
  B  B10  1  0.212574  0.665244  0.395918  1
  B  B11  1  0.787426  0.334756  0.395918  1
  Os  Os12  1  0.624849  0.129114  0.625588  1
  Os  Os13  1  0.109226  0.647813  0.893356  1
  Os  Os14  1  0.151404  0.381625  0.391574  1
  Os  Os15  1  0.848596  0.618375  0.391574  1
  Os  Os16  1  0.890774  0.352187  0.893356  1
  Os  Os17  1  0.375151  0.870886  0.625588  1
