# generated using pymatgen
data_Dy7Ho3(InSb)3
_symmetry_space_group_name_H-M   'P 1'
_cell_length_a   8.97625400
_cell_length_b   8.95357043
_cell_length_c   6.54663701
_cell_angle_alpha   90.00493085
_cell_angle_beta   90.00078329
_cell_angle_gamma   120.08042922
_symmetry_Int_Tables_number   1
_chemical_formula_structural   Dy7Ho3(InSb)3
_chemical_formula_sum   'Dy7 Ho3 In3 Sb3'
_cell_volume   455.28959977
_cell_formula_units_Z   1
loop_
 _symmetry_equiv_pos_site_id
 _symmetry_equiv_pos_as_xyz
  1  'x, y, z'
loop_
 _atom_site_type_symbol
 _atom_site_label
 _atom_site_symmetry_multiplicity
 _atom_site_fract_x
 _atom_site_fract_y
 _atom_site_fract_z
 _atom_site_occupancy
  Dy  Dy0  1  0.331083  0.666020  0.000804  1
  Dy  Dy1  1  0.760648  0.000001  0.749961  1
  Dy  Dy2  1  0.762990  0.759611  0.250041  1
  Dy  Dy3  1  0.003279  0.240345  0.250032  1
  Dy  Dy4  1  0.002179  0.762791  0.749931  1
  Dy  Dy5  1  0.239439  0.237190  0.749940  1
  Dy  Dy6  1  0.238111  0.000057  0.250055  1
  Ho  Ho7  1  0.665068  0.333957  0.499129  1
  Ho  Ho8  1  0.665003  0.333932  0.000890  1
  Ho  Ho9  1  0.331097  0.666038  0.499156  1
  In  In10  1  0.396508  0.000212  0.749861  1
  In  In11  1  0.395196  0.396192  0.250165  1
  In  In12  1  0.998611  0.603628  0.250185  1
  Sb  Sb13  1  0.997554  0.391961  0.749849  1
  Sb  Sb14  1  0.605809  0.607898  0.749833  1
  Sb  Sb15  1  0.607422  0.000168  0.250169  1
