# generated using pymatgen
data_LiBe5(Co2Si)6
_symmetry_space_group_name_H-M   'P 1'
_cell_length_a   3.80000900
_cell_length_b   5.37662200
_cell_length_c   11.40175600
_cell_angle_alpha   90.00000000
_cell_angle_beta   90.00041712
_cell_angle_gamma   90.00000000
_symmetry_Int_Tables_number   1
_chemical_formula_structural   LiBe5(Co2Si)6
_chemical_formula_sum   'Li1 Be5 Co12 Si6'
_cell_volume   232.95169389
_cell_formula_units_Z   1
loop_
 _symmetry_equiv_pos_site_id
 _symmetry_equiv_pos_as_xyz
  1  'x, y, z'
loop_
 _atom_site_type_symbol
 _atom_site_label
 _atom_site_symmetry_multiplicity
 _atom_site_fract_x
 _atom_site_fract_y
 _atom_site_fract_z
 _atom_site_occupancy
  Li  Li0  1  0.000000  0.000000  0.000000  1
  Be  Be1  1  0.499627  0.500001  0.166778  1
  Be  Be2  1  0.999629  0.000000  0.333207  1
  Be  Be3  1  0.499999  0.500001  0.500000  1
  Be  Be4  1  0.000371  0.000000  0.666793  1
  Be  Be5  1  0.500373  0.500001  0.833222  1
  Co  Co6  1  0.499999  0.257567  0.000000  1
  Co  Co7  1  0.499999  0.742433  0.000000  1
  Co  Co8  1  0.999733  0.253059  0.170518  1
  Co  Co9  1  0.999733  0.746940  0.170518  1
  Co  Co10  1  0.499743  0.249454  0.334204  1
  Co  Co11  1  0.499743  0.750546  0.334204  1
  Co  Co12  1  0.000000  0.249899  0.500000  1
  Co  Co13  1  0.000000  0.750100  0.500000  1
  Co  Co14  1  0.500257  0.249454  0.665796  1
  Co  Co15  1  0.500257  0.750546  0.665796  1
  Co  Co16  1  0.000267  0.253059  0.829482  1
  Co  Co17  1  0.000267  0.746940  0.829482  1
  Si  Si18  1  0.000000  0.500001  0.000000  1
  Si  Si19  1  0.499728  0.000000  0.164886  1
  Si  Si20  1  0.999725  0.500001  0.334069  1
  Si  Si21  1  0.499999  0.000000  0.500000  1
  Si  Si22  1  0.000275  0.500001  0.665931  1
  Si  Si23  1  0.500272  0.000000  0.835114  1
