# generated using pymatgen
data_Tb2ZrSnIr2
_symmetry_space_group_name_H-M   'P 1'
_cell_length_a   4.39341500
_cell_length_b   7.18526500
_cell_length_c   8.41617800
_cell_angle_alpha   90.00000000
_cell_angle_beta   90.00000000
_cell_angle_gamma   90.00000000
_symmetry_Int_Tables_number   1
_chemical_formula_structural   Tb2ZrSnIr2
_chemical_formula_sum   'Tb4 Zr2 Sn2 Ir4'
_cell_volume   265.68065335
_cell_formula_units_Z   2
loop_
 _symmetry_equiv_pos_site_id
 _symmetry_equiv_pos_as_xyz
  1  'x, y, z'
loop_
 _atom_site_type_symbol
 _atom_site_label
 _atom_site_symmetry_multiplicity
 _atom_site_fract_x
 _atom_site_fract_y
 _atom_site_fract_z
 _atom_site_occupancy
  Tb  Tb0  1  0.250000  0.034207  0.329641  1
  Tb  Tb1  1  0.250000  0.534207  0.170359  1
  Tb  Tb2  1  0.750000  0.971605  0.678268  1
  Tb  Tb3  1  0.750000  0.471605  0.821732  1
  Zr  Zr4  1  0.250000  0.129321  0.939904  1
  Zr  Zr5  1  0.250000  0.629321  0.560096  1
  Sn  Sn6  1  0.750000  0.856390  0.071324  1
  Sn  Sn7  1  0.750000  0.356390  0.428676  1
  Ir  Ir8  1  0.250000  0.259706  0.634837  1
  Ir  Ir9  1  0.250000  0.759706  0.865163  1
  Ir  Ir10  1  0.750000  0.748772  0.394951  1
  Ir  Ir11  1  0.750000  0.248772  0.105049  1
