# generated using pymatgen
data_Sc8Mn11Si16W
_symmetry_space_group_name_H-M   'P 1'
_cell_length_a   6.46846984
_cell_length_b   6.44882851
_cell_length_c   12.13484400
_cell_angle_alpha   90.00000000
_cell_angle_beta   90.00000000
_cell_angle_gamma   89.89575068
_symmetry_Int_Tables_number   1
_chemical_formula_structural   Sc8Mn11Si16W
_chemical_formula_sum   'Sc8 Mn11 Si16 W1'
_cell_volume   506.19268453
_cell_formula_units_Z   1
loop_
 _symmetry_equiv_pos_site_id
 _symmetry_equiv_pos_as_xyz
  1  'x, y, z'
loop_
 _atom_site_type_symbol
 _atom_site_label
 _atom_site_symmetry_multiplicity
 _atom_site_fract_x
 _atom_site_fract_y
 _atom_site_fract_z
 _atom_site_occupancy
  Sc  Sc0  1  0.491786  0.663216  0.595781  1
  Sc  Sc1  1  0.995099  0.834303  0.903254  1
  Sc  Sc2  1  0.507190  0.334500  0.093803  1
  Sc  Sc3  1  0.006482  0.163457  0.406241  1
  Sc  Sc4  1  0.507190  0.334500  0.406197  1
  Sc  Sc5  1  0.006482  0.163457  0.093759  1
  Sc  Sc6  1  0.491786  0.663216  0.904219  1
  Sc  Sc7  1  0.995099  0.834303  0.596746  1
  Mn  Mn8  1  0.668227  0.159133  0.622092  1
  Mn  Mn9  1  0.167592  0.344125  0.881517  1
  Mn  Mn10  1  0.338706  0.844683  0.116694  1
  Mn  Mn11  1  0.827019  0.658700  0.382185  1
  Mn  Mn12  1  0.338706  0.844683  0.383306  1
  Mn  Mn13  1  0.827019  0.658700  0.117815  1
  Mn  Mn14  1  0.668227  0.159133  0.877908  1
  Mn  Mn15  1  0.167592  0.344125  0.618483  1
  Mn  Mn16  1  0.825851  0.509306  0.750000  1
  Mn  Mn17  1  0.324241  0.990610  0.750000  1
  Mn  Mn18  1  0.172206  0.493375  0.250000  1
  Si  Si19  1  0.664026  0.952814  0.458745  1
  Si  Si20  1  0.160087  0.551488  0.050401  1
  Si  Si21  1  0.337928  0.050161  0.948729  1
  Si  Si22  1  0.838398  0.450791  0.549948  1
  Si  Si23  1  0.337928  0.050161  0.551271  1
  Si  Si24  1  0.838398  0.450791  0.950052  1
  Si  Si25  1  0.664026  0.952814  0.041255  1
  Si  Si26  1  0.160087  0.551488  0.449599  1
  Si  Si27  1  0.461848  0.348353  0.750000  1
  Si  Si28  1  0.965370  0.151814  0.750000  1
  Si  Si29  1  0.526634  0.635996  0.250000  1
  Si  Si30  1  0.046592  0.844968  0.250000  1
  Si  Si31  1  0.691252  0.874732  0.750000  1
  Si  Si32  1  0.191723  0.623612  0.750000  1
  Si  Si33  1  0.302310  0.131562  0.250000  1
  Si  Si34  1  0.811018  0.379452  0.250000  1
  W  W35  1  0.675874  0.001480  0.250000  1
