# generated using pymatgen
data_LaSm5OsBr10
_symmetry_space_group_name_H-M   'P 1'
_cell_length_a   7.63051371
_cell_length_b   9.36714959
_cell_length_c   9.61304303
_cell_angle_alpha   108.48619761
_cell_angle_beta   96.85544559
_cell_angle_gamma   105.06243301
_symmetry_Int_Tables_number   1
_chemical_formula_structural   LaSm5OsBr10
_chemical_formula_sum   'La1 Sm5 Os1 Br10'
_cell_volume   613.79933763
_cell_formula_units_Z   1
loop_
 _symmetry_equiv_pos_site_id
 _symmetry_equiv_pos_as_xyz
  1  'x, y, z'
loop_
 _atom_site_type_symbol
 _atom_site_label
 _atom_site_symmetry_multiplicity
 _atom_site_fract_x
 _atom_site_fract_y
 _atom_site_fract_z
 _atom_site_occupancy
  La  La0  1  0.532365  0.211654  0.412010  1
  Sm  Sm1  1  0.465920  0.782494  0.586417  1
  Sm  Sm2  1  0.132798  0.360362  0.314714  1
  Sm  Sm3  1  0.868247  0.643035  0.686034  1
  Sm  Sm4  1  0.629765  0.549260  0.249766  1
  Sm  Sm5  1  0.373252  0.450207  0.751014  1
  Os  Os6  1  0.502739  0.491310  0.497677  1
  Br  Br7  1  0.137554  0.044325  0.223928  1
  Br  Br8  1  0.841093  0.953306  0.768915  1
  Br  Br9  1  0.254134  0.418768  0.048517  1
  Br  Br10  1  0.748712  0.585438  0.952917  1
  Br  Br11  1  0.715536  0.251153  0.148157  1
  Br  Br12  1  0.293891  0.755095  0.843271  1
  Br  Br13  1  0.051059  0.677685  0.421313  1
  Br  Br14  1  0.960071  0.329483  0.584789  1
  Br  Br15  1  0.408319  0.131702  0.679553  1
  Br  Br16  1  0.584546  0.864722  0.331008  1
