# generated using pymatgen
data_EuReN2
_symmetry_space_group_name_H-M   'P 1'
_cell_length_a   6.78465972
_cell_length_b   7.26524700
_cell_length_c   5.06719100
_cell_angle_alpha   90.00000000
_cell_angle_beta   111.94105317
_cell_angle_gamma   90.00000000
_symmetry_Int_Tables_number   1
_chemical_formula_structural   EuReN2
_chemical_formula_sum   'Eu4 Re4 N8'
_cell_volume   231.68176106
_cell_formula_units_Z   4
loop_
 _symmetry_equiv_pos_site_id
 _symmetry_equiv_pos_as_xyz
  1  'x, y, z'
loop_
 _atom_site_type_symbol
 _atom_site_label
 _atom_site_symmetry_multiplicity
 _atom_site_fract_x
 _atom_site_fract_y
 _atom_site_fract_z
 _atom_site_occupancy
  Eu  Eu0  1  0.330751  0.912312  0.665358  1
  Eu  Eu1  1  0.669249  0.412312  0.834642  1
  Eu  Eu2  1  0.669249  0.087688  0.334642  1
  Eu  Eu3  1  0.330751  0.587688  0.165358  1
  Re  Re4  1  0.139567  0.342930  0.569824  1
  Re  Re5  1  0.860433  0.842930  0.930176  1
  Re  Re6  1  0.860433  0.657070  0.430176  1
  Re  Re7  1  0.139567  0.157070  0.069824  1
  N  N8  1  0.186110  0.896330  0.093061  1
  N  N9  1  0.813890  0.396330  0.406939  1
  N  N10  1  0.813890  0.103670  0.906939  1
  N  N11  1  0.186110  0.603670  0.593061  1
  N  N12  1  0.356828  0.249811  0.928344  1
  N  N13  1  0.643172  0.749811  0.571656  1
  N  N14  1  0.643172  0.750189  0.071656  1
  N  N15  1  0.356828  0.250189  0.428344  1
