# generated using pymatgen
data_Yb4DyCo16(MoP4)3
_symmetry_space_group_name_H-M   'P 1'
_cell_length_a   11.95942600
_cell_length_b   11.95942660
_cell_length_c   3.65195200
_cell_angle_alpha   90.00000000
_cell_angle_beta   90.00000000
_cell_angle_gamma   119.99999281
_symmetry_Int_Tables_number   1
_chemical_formula_structural   Yb4DyCo16(MoP4)3
_chemical_formula_sum   'Yb4 Dy1 Co16 Mo3 P12'
_cell_volume   452.35189858
_cell_formula_units_Z   1
loop_
 _symmetry_equiv_pos_site_id
 _symmetry_equiv_pos_as_xyz
  1  'x, y, z'
loop_
 _atom_site_type_symbol
 _atom_site_label
 _atom_site_symmetry_multiplicity
 _atom_site_fract_x
 _atom_site_fract_y
 _atom_site_fract_z
 _atom_site_occupancy
  Yb  Yb0  1  0.666667  0.333333  0.000000  1
  Yb  Yb1  1  0.181330  0.182098  0.500000  1
  Yb  Yb2  1  0.817902  0.999232  0.500000  1
  Yb  Yb3  1  0.000768  0.818670  0.500000  1
  Dy  Dy4  1  0.333333  0.666667  0.000000  1
  Co  Co5  1  0.821719  0.197167  0.000000  1
  Co  Co6  1  0.802833  0.624553  0.000000  1
  Co  Co7  1  0.375447  0.178281  0.000000  1
  Co  Co8  1  0.196516  0.822277  0.000000  1
  Co  Co9  1  0.625763  0.803484  0.000000  1
  Co  Co10  1  0.177723  0.374237  0.000000  1
  Co  Co11  1  0.646601  0.126252  0.500000  1
  Co  Co12  1  0.873748  0.520351  0.500000  1
  Co  Co13  1  0.479649  0.353399  0.500000  1
  Co  Co14  1  0.126820  0.646411  0.500000  1
  Co  Co15  1  0.519592  0.873180  0.500000  1
  Co  Co16  1  0.353589  0.480408  0.500000  1
  Co  Co17  1  0.720084  0.719305  0.500000  1
  Co  Co18  1  0.280695  0.000779  0.500000  1
  Co  Co19  1  0.999221  0.279916  0.500000  1
  Co  Co20  1  0.000000  0.000000  0.000000  1
  Mo  Mo21  1  0.553791  0.553857  0.000000  1
  Mo  Mo22  1  0.446143  0.999934  0.000000  1
  Mo  Mo23  1  0.000066  0.446209  0.000000  1
  P  P24  1  0.358243  0.357758  0.000000  1
  P  P25  1  0.642242  0.000485  0.000000  1
  P  P26  1  0.999515  0.641757  0.000000  1
  P  P27  1  0.833365  0.314396  0.500000  1
  P  P28  1  0.685604  0.518968  0.500000  1
  P  P29  1  0.481032  0.166635  0.500000  1
  P  P30  1  0.313836  0.835156  0.500000  1
  P  P31  1  0.521319  0.686164  0.500000  1
  P  P32  1  0.164844  0.478681  0.500000  1
  P  P33  1  0.821090  0.820181  0.000000  1
  P  P34  1  0.179819  0.000909  0.000000  1
  P  P35  1  0.999091  0.178910  0.000000  1
