# generated using pymatgen
data_Zr10AlGaSb4
_symmetry_space_group_name_H-M   'P 1'
_cell_length_a   5.58274532
_cell_length_b   8.37717605
_cell_length_c   8.37716366
_cell_angle_alpha   96.37262096
_cell_angle_beta   109.46374282
_cell_angle_gamma   70.53603771
_symmetry_Int_Tables_number   1
_chemical_formula_structural   Zr10AlGaSb4
_chemical_formula_sum   'Zr10 Al1 Ga1 Sb4'
_cell_volume   348.28070806
_cell_formula_units_Z   1
loop_
 _symmetry_equiv_pos_site_id
 _symmetry_equiv_pos_as_xyz
  1  'x, y, z'
loop_
 _atom_site_type_symbol
 _atom_site_label
 _atom_site_symmetry_multiplicity
 _atom_site_fract_x
 _atom_site_fract_y
 _atom_site_fract_z
 _atom_site_occupancy
  Zr  Zr0  1  0.424412  0.862371  0.709647  1
  Zr  Zr1  1  0.577135  0.137623  0.290350  1
  Zr  Zr2  1  0.922864  0.290353  0.137629  1
  Zr  Zr3  1  0.075592  0.709650  0.862377  1
  Zr  Zr4  1  0.714802  0.709615  0.137699  1
  Zr  Zr5  1  0.286714  0.290388  0.862300  1
  Zr  Zr6  1  0.785198  0.137700  0.709612  1
  Zr  Zr7  1  0.213281  0.862301  0.290385  1
  Zr  Zr8  1  0.249997  0.500003  0.499997  1
  Zr  Zr9  1  0.749996  0.500004  0.499996  1
  Al  Al10  1  0.750008  0.999992  0.000008  1
  Ga  Ga11  1  0.250009  0.999991  0.000009  1
  Sb  Sb12  1  0.336748  0.499977  0.173485  1
  Sb  Sb13  1  0.663238  0.500033  0.826519  1
  Sb  Sb14  1  0.836759  0.826515  0.500023  1
  Sb  Sb15  1  0.163248  0.173481  0.499967  1
