# generated using pymatgen
data_Cs3K9(AlSe3)4
_symmetry_space_group_name_H-M   'P 1'
_cell_length_a   13.96983551
_cell_length_b   8.27425763
_cell_length_c   10.49228938
_cell_angle_alpha   53.34092517
_cell_angle_beta   89.46781244
_cell_angle_gamma   89.96807695
_symmetry_Int_Tables_number   1
_chemical_formula_structural   Cs3K9(AlSe3)4
_chemical_formula_sum   'Cs3 K9 Al4 Se12'
_cell_volume   972.85332553
_cell_formula_units_Z   1
loop_
 _symmetry_equiv_pos_site_id
 _symmetry_equiv_pos_as_xyz
  1  'x, y, z'
loop_
 _atom_site_type_symbol
 _atom_site_label
 _atom_site_symmetry_multiplicity
 _atom_site_fract_x
 _atom_site_fract_y
 _atom_site_fract_z
 _atom_site_occupancy
  Cs  Cs0  1  0.312649  0.188857  0.048762  1
  Cs  Cs1  1  0.681371  0.816821  0.952576  1
  Cs  Cs2  1  0.817217  0.817536  0.458070  1
  K  K3  1  0.900708  0.303914  0.409343  1
  K  K4  1  0.614510  0.372784  0.472608  1
  K  K5  1  0.114279  0.631979  0.022025  1
  K  K6  1  0.383278  0.632436  0.528098  1
  K  K7  1  0.890547  0.355959  0.980081  1
  K  K8  1  0.612717  0.298444  0.911781  1
  K  K9  1  0.110259  0.694898  0.590092  1
  K  K10  1  0.383703  0.709955  0.086960  1
  K  K11  1  0.183322  0.178033  0.551546  1
  Al  Al12  1  0.067431  0.945845  0.152354  1
  Al  Al13  1  0.562995  0.045997  0.348589  1
  Al  Al14  1  0.430144  0.969615  0.646484  1
  Al  Al15  1  0.937733  0.038851  0.848999  1
  Se  Se16  1  0.415878  0.206750  0.355126  1
  Se  Se17  1  0.915094  0.807331  0.140595  1
  Se  Se18  1  0.576738  0.807637  0.640729  1
  Se  Se19  1  0.090434  0.179472  0.859070  1
  Se  Se20  1  0.692911  0.284789  0.221641  1
  Se  Se21  1  0.188120  0.689679  0.288791  1
  Se  Se22  1  0.299033  0.735016  0.771480  1
  Se  Se23  1  0.812632  0.284118  0.719272  1
  Se  Se24  1  0.543349  0.864467  0.239781  1
  Se  Se25  1  0.055052  0.135688  0.255917  1
  Se  Se26  1  0.452055  0.146232  0.758842  1
  Se  Se27  1  0.955842  0.856894  0.740387  1
