# generated using pymatgen
data_Sr6LiSc(NiO6)2
_symmetry_space_group_name_H-M   'P 1'
_cell_length_a   6.63217912
_cell_length_b   6.63217926
_cell_length_c   6.63217901
_cell_angle_alpha   92.75904466
_cell_angle_beta   92.75904770
_cell_angle_gamma   92.75906748
_symmetry_Int_Tables_number   1
_chemical_formula_structural   Sr6LiSc(NiO6)2
_chemical_formula_sum   'Sr6 Li1 Sc1 Ni2 O12'
_cell_volume   290.67337475
_cell_formula_units_Z   1
loop_
 _symmetry_equiv_pos_site_id
 _symmetry_equiv_pos_as_xyz
  1  'x, y, z'
loop_
 _atom_site_type_symbol
 _atom_site_label
 _atom_site_symmetry_multiplicity
 _atom_site_fract_x
 _atom_site_fract_y
 _atom_site_fract_z
 _atom_site_occupancy
  Sr  Sr0  1  0.379459  0.750000  0.120542  1
  Sr  Sr1  1  0.892562  0.607438  0.250000  1
  Sr  Sr2  1  0.750000  0.120542  0.379459  1
  Sr  Sr3  1  0.250000  0.892561  0.607438  1
  Sr  Sr4  1  0.120541  0.379459  0.750000  1
  Sr  Sr5  1  0.607437  0.250000  0.892562  1
  Li  Li6  1  0.250000  0.250000  0.250000  1
  Sc  Sc7  1  0.750000  0.750000  0.750000  1
  Ni  Ni8  1  0.000738  0.000738  0.000738  1
  Ni  Ni9  1  0.499262  0.499262  0.499262  1
  O  O10  1  0.718159  0.906084  0.034452  1
  O  O11  1  0.953340  0.270717  0.081394  1
  O  O12  1  0.546660  0.418606  0.229284  1
  O  O13  1  0.081394  0.953340  0.270717  1
  O  O14  1  0.229284  0.546660  0.418607  1
  O  O15  1  0.593915  0.781840  0.465548  1
  O  O16  1  0.418607  0.229284  0.546660  1
  O  O17  1  0.781840  0.465548  0.593915  1
  O  O18  1  0.906084  0.034452  0.718159  1
  O  O19  1  0.465548  0.593915  0.781840  1
  O  O20  1  0.034452  0.718159  0.906084  1
  O  O21  1  0.270716  0.081393  0.953341  1
