# generated using pymatgen
data_Tb5NdTcTe2
_symmetry_space_group_name_H-M   'P 1'
_cell_length_a   8.37955550
_cell_length_b   8.46375935
_cell_length_c   4.09061600
_cell_angle_alpha   90.00000000
_cell_angle_beta   90.00000000
_cell_angle_gamma   120.33296564
_symmetry_Int_Tables_number   1
_chemical_formula_structural   Tb5NdTcTe2
_chemical_formula_sum   'Tb5 Nd1 Tc1 Te2'
_cell_volume   250.40136711
_cell_formula_units_Z   1
loop_
 _symmetry_equiv_pos_site_id
 _symmetry_equiv_pos_as_xyz
  1  'x, y, z'
loop_
 _atom_site_type_symbol
 _atom_site_label
 _atom_site_symmetry_multiplicity
 _atom_site_fract_x
 _atom_site_fract_y
 _atom_site_fract_z
 _atom_site_occupancy
  Tb  Tb0  1  0.605724  0.606355  0.500000  1
  Tb  Tb1  1  0.394276  0.000631  0.500000  1
  Tb  Tb2  1  0.000000  0.758982  0.000000  1
  Tb  Tb3  1  0.235663  0.237818  0.000000  1
  Tb  Tb4  1  0.764337  0.002154  0.000000  1
  Nd  Nd5  1  0.000000  0.401417  0.500000  1
  Tc  Tc6  1  0.000000  0.988151  0.500000  1
  Te  Te7  1  0.337737  0.671115  0.000000  1
  Te  Te8  1  0.662263  0.333377  0.000000  1
