# generated using pymatgen
data_Nd3Dy2Y3(CdIr)2
_symmetry_space_group_name_H-M   'P 1'
_cell_length_a   9.76265728
_cell_length_b   9.76265792
_cell_length_c   9.76265700
_cell_angle_alpha   59.99999974
_cell_angle_beta   59.99999755
_cell_angle_gamma   60.00000251
_symmetry_Int_Tables_number   1
_chemical_formula_structural   Nd3Dy2Y3(CdIr)2
_chemical_formula_sum   'Nd6 Dy4 Y6 Cd4 Ir4'
_cell_volume   657.94432937
_cell_formula_units_Z   2
loop_
 _symmetry_equiv_pos_site_id
 _symmetry_equiv_pos_as_xyz
  1  'x, y, z'
loop_
 _atom_site_type_symbol
 _atom_site_label
 _atom_site_symmetry_multiplicity
 _atom_site_fract_x
 _atom_site_fract_y
 _atom_site_fract_z
 _atom_site_occupancy
  Nd  Nd0  1  0.940512  0.559488  0.559488  1
  Nd  Nd1  1  0.559488  0.940512  0.940512  1
  Nd  Nd2  1  0.559488  0.940512  0.559488  1
  Nd  Nd3  1  0.940512  0.559488  0.940512  1
  Nd  Nd4  1  0.559488  0.559488  0.940512  1
  Nd  Nd5  1  0.940512  0.940512  0.559488  1
  Dy  Dy6  1  0.347540  0.347540  0.347540  1
  Dy  Dy7  1  0.347540  0.347540  0.957381  1
  Dy  Dy8  1  0.347540  0.957381  0.347540  1
  Dy  Dy9  1  0.957381  0.347540  0.347540  1
  Y  Y10  1  0.812002  0.187998  0.187998  1
  Y  Y11  1  0.187998  0.812002  0.812002  1
  Y  Y12  1  0.187998  0.812002  0.187998  1
  Y  Y13  1  0.812002  0.187998  0.812002  1
  Y  Y14  1  0.187998  0.187998  0.812002  1
  Y  Y15  1  0.812002  0.812002  0.187998  1
  Cd  Cd16  1  0.579527  0.579527  0.579527  1
  Cd  Cd17  1  0.579527  0.579527  0.261418  1
  Cd  Cd18  1  0.579527  0.261418  0.579527  1
  Cd  Cd19  1  0.261418  0.579527  0.579527  1
  Ir  Ir20  1  0.142017  0.142017  0.142017  1
  Ir  Ir21  1  0.142017  0.142017  0.573950  1
  Ir  Ir22  1  0.142017  0.573950  0.142017  1
  Ir  Ir23  1  0.573950  0.142017  0.142017  1
