# generated using pymatgen
data_Hf17ScTa2(CoRe3)2
_symmetry_space_group_name_H-M   'P 1'
_cell_length_a   8.65912357
_cell_length_b   8.65912133
_cell_length_c   8.44313000
_cell_angle_alpha   90.00000000
_cell_angle_beta   90.00000000
_cell_angle_gamma   119.84846158
_symmetry_Int_Tables_number   1
_chemical_formula_structural   Hf17ScTa2(CoRe3)2
_chemical_formula_sum   'Hf17 Sc1 Ta2 Co2 Re6'
_cell_volume   549.08934358
_cell_formula_units_Z   1
loop_
 _symmetry_equiv_pos_site_id
 _symmetry_equiv_pos_as_xyz
  1  'x, y, z'
loop_
 _atom_site_type_symbol
 _atom_site_label
 _atom_site_symmetry_multiplicity
 _atom_site_fract_x
 _atom_site_fract_y
 _atom_site_fract_z
 _atom_site_occupancy
  Hf  Hf0  1  0.201277  0.798723  0.440399  1
  Hf  Hf1  1  0.201682  0.402589  0.440382  1
  Hf  Hf2  1  0.597411  0.798318  0.440382  1
  Hf  Hf3  1  0.798617  0.201383  0.559329  1
  Hf  Hf4  1  0.798739  0.597567  0.559404  1
  Hf  Hf5  1  0.402433  0.201261  0.559404  1
  Hf  Hf6  1  0.798617  0.201383  0.940671  1
  Hf  Hf7  1  0.798739  0.597567  0.940596  1
  Hf  Hf8  1  0.402433  0.201261  0.940596  1
  Hf  Hf9  1  0.201277  0.798723  0.059601  1
  Hf  Hf10  1  0.201682  0.402589  0.059618  1
  Hf  Hf11  1  0.597411  0.798318  0.059618  1
  Hf  Hf12  1  0.542055  0.084013  0.250000  1
  Hf  Hf13  1  0.915987  0.457945  0.250000  1
  Hf  Hf14  1  0.457762  0.542238  0.750000  1
  Hf  Hf15  1  0.457842  0.915713  0.750000  1
  Hf  Hf16  1  0.084287  0.542158  0.750000  1
  Sc  Sc17  1  0.541922  0.458078  0.250000  1
  Ta  Ta18  1  0.000026  0.999974  0.499434  1
  Ta  Ta19  1  0.000026  0.999974  0.000566  1
  Co  Co20  1  0.332460  0.667540  0.250000  1
  Co  Co21  1  0.666743  0.333257  0.750000  1
  Re  Re22  1  0.885614  0.114386  0.250000  1
  Re  Re23  1  0.887698  0.772544  0.250000  1
  Re  Re24  1  0.227456  0.112302  0.250000  1
  Re  Re25  1  0.114253  0.885747  0.750000  1
  Re  Re26  1  0.113880  0.228330  0.750000  1
  Re  Re27  1  0.771670  0.886120  0.750000  1
