# generated using pymatgen
data_Dy17Sc3Si15Ag
_symmetry_space_group_name_H-M   'P 1'
_cell_length_a   7.35096506
_cell_length_b   7.63603896
_cell_length_c   14.56621075
_cell_angle_alpha   89.79591933
_cell_angle_beta   89.39000571
_cell_angle_gamma   90.14950641
_symmetry_Int_Tables_number   1
_chemical_formula_structural   Dy17Sc3Si15Ag
_chemical_formula_sum   'Dy17 Sc3 Si15 Ag1'
_cell_volume   817.57987579
_cell_formula_units_Z   1
loop_
 _symmetry_equiv_pos_site_id
 _symmetry_equiv_pos_as_xyz
  1  'x, y, z'
loop_
 _atom_site_type_symbol
 _atom_site_label
 _atom_site_symmetry_multiplicity
 _atom_site_fract_x
 _atom_site_fract_y
 _atom_site_fract_z
 _atom_site_occupancy
  Dy  Dy0  1  0.351076  0.010721  0.749839  1
  Dy  Dy1  1  0.976605  0.821165  0.102979  1
  Dy  Dy2  1  0.472614  0.683992  0.399604  1
  Dy  Dy3  1  0.521694  0.317334  0.898820  1
  Dy  Dy4  1  0.027384  0.183424  0.597993  1
  Dy  Dy5  1  0.025959  0.179314  0.899965  1
  Dy  Dy6  1  0.529837  0.317516  0.597911  1
  Dy  Dy7  1  0.475723  0.683176  0.102424  1
  Dy  Dy8  1  0.970942  0.816444  0.398789  1
  Dy  Dy9  1  0.676644  0.822975  0.876120  1
  Dy  Dy10  1  0.180653  0.677947  0.621780  1
  Dy  Dy11  1  0.821003  0.326692  0.126262  1
  Dy  Dy12  1  0.316906  0.176302  0.374902  1
  Dy  Dy13  1  0.322671  0.178094  0.125958  1
  Dy  Dy14  1  0.819114  0.322586  0.375515  1
  Dy  Dy15  1  0.179281  0.672229  0.877801  1
  Dy  Dy16  1  0.683521  0.821333  0.622180  1
  Sc  Sc17  1  0.650332  0.990867  0.250173  1
  Sc  Sc18  1  0.151876  0.511975  0.249261  1
  Sc  Sc19  1  0.848064  0.487104  0.747780  1
  Si  Si20  1  0.770892  0.636061  0.251576  1
  Si  Si21  1  0.271574  0.865507  0.251014  1
  Si  Si22  1  0.736351  0.132964  0.748794  1
  Si  Si23  1  0.224668  0.373695  0.747425  1
  Si  Si24  1  0.014663  0.099135  0.250526  1
  Si  Si25  1  0.517176  0.401515  0.252147  1
  Si  Si26  1  0.480432  0.599683  0.747956  1
  Si  Si27  1  0.977623  0.893266  0.748706  1
  Si  Si28  1  0.354273  0.971769  0.538975  1
  Si  Si29  1  0.651915  0.029591  0.042729  1
  Si  Si30  1  0.147389  0.471244  0.457972  1
  Si  Si31  1  0.158222  0.473435  0.046099  1
  Si  Si32  1  0.645877  0.027809  0.456962  1
  Si  Si33  1  0.350248  0.968750  0.962947  1
  Si  Si34  1  0.854453  0.527527  0.540338  1
  Ag  Ag35  1  0.842340  0.526853  0.959775  1
