# generated using pymatgen
data_Ho11Er9(Bi2Ru)4
_symmetry_space_group_name_H-M   'P 1'
_cell_length_a   7.93125603
_cell_length_b   8.98994500
_cell_length_c   12.44807405
_cell_angle_alpha   90.00000000
_cell_angle_beta   89.98937411
_cell_angle_gamma   90.00000000
_symmetry_Int_Tables_number   1
_chemical_formula_structural   Ho11Er9(Bi2Ru)4
_chemical_formula_sum   'Ho11 Er9 Bi8 Ru4'
_cell_volume   887.56702807
_cell_formula_units_Z   1
loop_
 _symmetry_equiv_pos_site_id
 _symmetry_equiv_pos_as_xyz
  1  'x, y, z'
loop_
 _atom_site_type_symbol
 _atom_site_label
 _atom_site_symmetry_multiplicity
 _atom_site_fract_x
 _atom_site_fract_y
 _atom_site_fract_z
 _atom_site_occupancy
  Ho  Ho0  1  0.661134  0.750000  0.707683  1
  Ho  Ho1  1  0.338962  0.250000  0.292196  1
  Ho  Ho2  1  0.161053  0.250000  0.792172  1
  Ho  Ho3  1  0.838992  0.750000  0.207862  1
  Ho  Ho4  1  0.127818  0.750000  0.812129  1
  Ho  Ho5  1  0.872187  0.250000  0.187870  1
  Ho  Ho6  1  0.627851  0.250000  0.687872  1
  Ho  Ho7  1  0.372220  0.750000  0.312144  1
  Ho  Ho8  1  0.554645  0.750000  0.995290  1
  Ho  Ho9  1  0.445354  0.250000  0.004719  1
  Ho  Ho10  1  0.054652  0.250000  0.504727  1
  Er  Er11  1  0.944991  0.750000  0.495272  1
  Er  Er12  1  0.827486  0.458397  0.933757  1
  Er  Er13  1  0.172542  0.541742  0.066247  1
  Er  Er14  1  0.327440  0.541726  0.566218  1
  Er  Er15  1  0.172542  0.958258  0.066247  1
  Er  Er16  1  0.672560  0.458536  0.433868  1
  Er  Er17  1  0.827486  0.041603  0.933757  1
  Er  Er18  1  0.672560  0.041464  0.433868  1
  Er  Er19  1  0.327440  0.958274  0.566218  1
  Bi  Bi20  1  0.936110  0.005138  0.672590  1
  Bi  Bi21  1  0.063809  0.994523  0.327385  1
  Bi  Bi22  1  0.436091  0.994682  0.827200  1
  Bi  Bi23  1  0.063809  0.505477  0.327385  1
  Bi  Bi24  1  0.563952  0.005313  0.172794  1
  Bi  Bi25  1  0.936110  0.494862  0.672590  1
  Bi  Bi26  1  0.563952  0.494687  0.172794  1
  Bi  Bi27  1  0.436091  0.505318  0.827200  1
  Ru  Ru28  1  0.927188  0.750000  0.991117  1
  Ru  Ru29  1  0.072774  0.250000  0.008856  1
  Ru  Ru30  1  0.427115  0.250000  0.508890  1
  Ru  Ru31  1  0.573083  0.750000  0.491083  1
