# generated using pymatgen
data_YZn2P6IN12
_symmetry_space_group_name_H-M   'P 1'
_cell_length_a   7.36673715
_cell_length_b   7.35109528
_cell_length_c   7.36673681
_cell_angle_alpha   109.44266167
_cell_angle_beta   109.79911867
_cell_angle_gamma   109.44264144
_symmetry_Int_Tables_number   1
_chemical_formula_structural   YZn2P6IN12
_chemical_formula_sum   'Y1 Zn2 P6 I1 N12'
_cell_volume   306.06702570
_cell_formula_units_Z   1
loop_
 _symmetry_equiv_pos_site_id
 _symmetry_equiv_pos_as_xyz
  1  'x, y, z'
loop_
 _atom_site_type_symbol
 _atom_site_label
 _atom_site_symmetry_multiplicity
 _atom_site_fract_x
 _atom_site_fract_y
 _atom_site_fract_z
 _atom_site_occupancy
  Y  Y0  1  0.017783  0.358647  0.017783  1
  Zn  Zn1  1  0.999043  0.004560  0.405957  1
  Zn  Zn2  1  0.405957  0.004560  0.999043  1
  P  P3  1  0.497864  0.258969  0.745743  1
  P  P4  1  0.248287  0.755191  0.497354  1
  P  P5  1  0.742396  0.504947  0.259245  1
  P  P6  1  0.745743  0.258969  0.497864  1
  P  P7  1  0.497354  0.755191  0.248287  1
  P  P8  1  0.259245  0.504947  0.742396  1
  I  I9  1  0.996716  0.938241  0.996716  1
  N  N10  1  0.389074  0.687229  0.389074  1
  N  N11  1  0.707003  0.431964  0.430169  1
  N  N12  1  0.430169  0.431964  0.707003  1
  N  N13  1  0.715240  0.280970  0.715240  1
  N  N14  1  0.991374  0.576179  0.290620  1
  N  N15  1  0.290620  0.576179  0.991374  1
  N  N16  1  0.278863  0.004911  0.566526  1
  N  N17  1  0.999479  0.283468  0.572344  1
  N  N18  1  0.718152  0.727265  0.290763  1
  N  N19  1  0.566526  0.004911  0.278863  1
  N  N20  1  0.290763  0.727265  0.718152  1
  N  N21  1  0.572344  0.283468  0.999479  1
