# generated using pymatgen
data_Ho4Si6IrRh
_symmetry_space_group_name_H-M   'P 1'
_cell_length_a   8.14661700
_cell_length_b   8.14661701
_cell_length_c   7.87163200
_cell_angle_alpha   90.00000000
_cell_angle_beta   90.00000000
_cell_angle_gamma   120.00000402
_symmetry_Int_Tables_number   1
_chemical_formula_structural   Ho4Si6IrRh
_chemical_formula_sum   'Ho8 Si12 Ir2 Rh2'
_cell_volume   452.42854240
_cell_formula_units_Z   2
loop_
 _symmetry_equiv_pos_site_id
 _symmetry_equiv_pos_as_xyz
  1  'x, y, z'
loop_
 _atom_site_type_symbol
 _atom_site_label
 _atom_site_symmetry_multiplicity
 _atom_site_fract_x
 _atom_site_fract_y
 _atom_site_fract_z
 _atom_site_occupancy
  Ho  Ho0  1  0.000000  0.000000  0.248812  1
  Ho  Ho1  1  0.000000  0.000000  0.751188  1
  Ho  Ho2  1  0.509316  0.490684  0.250260  1
  Ho  Ho3  1  0.509316  0.018632  0.250260  1
  Ho  Ho4  1  0.981368  0.490684  0.250260  1
  Ho  Ho5  1  0.490684  0.509316  0.749740  1
  Ho  Ho6  1  0.490684  0.981368  0.749740  1
  Ho  Ho7  1  0.018632  0.509316  0.749740  1
  Si  Si8  1  0.166731  0.833269  0.499159  1
  Si  Si9  1  0.166731  0.333460  0.499159  1
  Si  Si10  1  0.666540  0.833269  0.499159  1
  Si  Si11  1  0.833269  0.166731  0.500841  1
  Si  Si12  1  0.833269  0.666540  0.500841  1
  Si  Si13  1  0.333460  0.166731  0.500841  1
  Si  Si14  1  0.833085  0.166915  0.999890  1
  Si  Si15  1  0.833085  0.666171  0.999890  1
  Si  Si16  1  0.333829  0.166915  0.999890  1
  Si  Si17  1  0.166915  0.833085  0.000110  1
  Si  Si18  1  0.166915  0.333829  0.000110  1
  Si  Si19  1  0.666171  0.833085  0.000110  1
  Ir  Ir20  1  0.333333  0.666667  0.468072  1
  Ir  Ir21  1  0.666667  0.333333  0.531928  1
  Rh  Rh22  1  0.666667  0.333333  0.964093  1
  Rh  Rh23  1  0.333333  0.666667  0.035907  1
