# generated using pymatgen
data_Tb6PrSn23Rh6
_symmetry_space_group_name_H-M   'P 1'
_cell_length_a   9.88917000
_cell_length_b   9.88916925
_cell_length_c   10.13832700
_cell_angle_alpha   90.00000000
_cell_angle_beta   90.00000000
_cell_angle_gamma   120.00000920
_symmetry_Int_Tables_number   1
_chemical_formula_structural   Tb6PrSn23Rh6
_chemical_formula_sum   'Tb6 Pr1 Sn23 Rh6'
_cell_volume   858.65072063
_cell_formula_units_Z   1
loop_
 _symmetry_equiv_pos_site_id
 _symmetry_equiv_pos_as_xyz
  1  'x, y, z'
loop_
 _atom_site_type_symbol
 _atom_site_label
 _atom_site_symmetry_multiplicity
 _atom_site_fract_x
 _atom_site_fract_y
 _atom_site_fract_z
 _atom_site_occupancy
  Tb  Tb0  1  0.478737  0.521263  0.307314  1
  Tb  Tb1  1  0.521263  0.478737  0.692686  1
  Tb  Tb2  1  0.478737  0.957475  0.307314  1
  Tb  Tb3  1  0.521263  0.042525  0.692686  1
  Tb  Tb4  1  0.042525  0.521263  0.307314  1
  Tb  Tb5  1  0.957475  0.478737  0.692686  1
  Pr  Pr6  1  0.000000  0.000000  0.000000  1
  Sn  Sn7  1  0.351702  0.000000  0.000000  1
  Sn  Sn8  1  0.648298  0.000000  0.000000  1
  Sn  Sn9  1  0.000000  0.351702  0.000000  1
  Sn  Sn10  1  0.000000  0.648298  0.000000  1
  Sn  Sn11  1  0.648298  0.648298  0.000000  1
  Sn  Sn12  1  0.351702  0.351702  0.000000  1
  Sn  Sn13  1  0.333333  0.666667  0.819616  1
  Sn  Sn14  1  0.666667  0.333333  0.180384  1
  Sn  Sn15  1  0.000000  0.000000  0.500000  1
  Sn  Sn16  1  0.778695  0.221305  0.455749  1
  Sn  Sn17  1  0.221305  0.778695  0.544251  1
  Sn  Sn18  1  0.778695  0.557389  0.455749  1
  Sn  Sn19  1  0.221305  0.442611  0.544251  1
  Sn  Sn20  1  0.442611  0.221305  0.455749  1
  Sn  Sn21  1  0.557389  0.778695  0.544251  1
  Sn  Sn22  1  0.333333  0.666667  0.118039  1
  Sn  Sn23  1  0.666667  0.333333  0.881961  1
  Sn  Sn24  1  0.119281  0.880719  0.280519  1
  Sn  Sn25  1  0.880719  0.119281  0.719481  1
  Sn  Sn26  1  0.119281  0.238562  0.280519  1
  Sn  Sn27  1  0.880719  0.761438  0.719481  1
  Sn  Sn28  1  0.761438  0.880719  0.280519  1
  Sn  Sn29  1  0.238562  0.119281  0.719481  1
  Rh  Rh30  1  0.831052  0.168948  0.198656  1
  Rh  Rh31  1  0.168948  0.831052  0.801344  1
  Rh  Rh32  1  0.831052  0.662105  0.198656  1
  Rh  Rh33  1  0.168948  0.337895  0.801344  1
  Rh  Rh34  1  0.337895  0.168948  0.198656  1
  Rh  Rh35  1  0.662105  0.831052  0.801344  1
