# generated using pymatgen
data_Y8SnPd23Au
_symmetry_space_group_name_H-M   'P 1'
_cell_length_a   8.40849000
_cell_length_b   8.45030100
_cell_length_c   8.44449500
_cell_angle_alpha   90.00000000
_cell_angle_beta   90.00000000
_cell_angle_gamma   90.00000000
_symmetry_Int_Tables_number   1
_chemical_formula_structural   Y8SnPd23Au
_chemical_formula_sum   'Y8 Sn1 Pd23 Au1'
_cell_volume   600.01744003
_cell_formula_units_Z   1
loop_
 _symmetry_equiv_pos_site_id
 _symmetry_equiv_pos_as_xyz
  1  'x, y, z'
loop_
 _atom_site_type_symbol
 _atom_site_label
 _atom_site_symmetry_multiplicity
 _atom_site_fract_x
 _atom_site_fract_y
 _atom_site_fract_z
 _atom_site_occupancy
  Y  Y0  1  0.252553  0.249100  0.257357  1
  Y  Y1  1  0.747095  0.747052  0.746648  1
  Y  Y2  1  0.747095  0.747052  0.253352  1
  Y  Y3  1  0.747095  0.252948  0.746648  1
  Y  Y4  1  0.252553  0.249100  0.742643  1
  Y  Y5  1  0.252553  0.750900  0.257357  1
  Y  Y6  1  0.252553  0.750900  0.742643  1
  Y  Y7  1  0.747095  0.252948  0.253352  1
  Sn  Sn8  1  0.000150  0.000000  0.000000  1
  Pd  Pd9  1  0.735242  0.500000  0.000000  1
  Pd  Pd10  1  0.999400  0.264384  0.500000  1
  Pd  Pd11  1  0.500174  0.263284  0.000000  1
  Pd  Pd12  1  0.999400  0.735616  0.500000  1
  Pd  Pd13  1  0.500174  0.736716  0.000000  1
  Pd  Pd14  1  0.500325  0.000000  0.264794  1
  Pd  Pd15  1  0.264874  0.000000  0.500000  1
  Pd  Pd16  1  0.500325  0.000000  0.735206  1
  Pd  Pd17  1  0.735027  0.000000  0.500000  1
  Pd  Pd18  1  0.000398  0.500000  0.264961  1
  Pd  Pd19  1  0.000398  0.500000  0.735039  1
  Pd  Pd20  1  0.254328  0.500000  0.500000  1
  Pd  Pd21  1  0.745493  0.500000  0.500000  1
  Pd  Pd22  1  0.500546  0.254488  0.500000  1
  Pd  Pd23  1  0.500546  0.745512  0.500000  1
  Pd  Pd24  1  0.499709  0.500000  0.255736  1
  Pd  Pd25  1  0.499709  0.500000  0.744264  1
  Pd  Pd26  1  0.307866  0.000000  0.000000  1
  Pd  Pd27  1  0.691706  0.000000  0.000000  1
  Pd  Pd28  1  0.000045  0.306518  0.000000  1
  Pd  Pd29  1  0.000045  0.693482  0.000000  1
  Pd  Pd30  1  0.999276  0.000000  0.307541  1
  Pd  Pd31  1  0.999276  0.000000  0.692459  1
  Au  Au32  1  0.266979  0.500000  0.000000  1
