# generated using pymatgen
data_Ce(Fe5Mo)2
_symmetry_space_group_name_H-M   'P 1'
_cell_length_a   4.70720704
_cell_length_b   6.51208369
_cell_length_c   6.51208466
_cell_angle_alpha   96.92382477
_cell_angle_beta   111.18747329
_cell_angle_gamma   68.81252067
_symmetry_Int_Tables_number   1
_chemical_formula_structural   Ce(Fe5Mo)2
_chemical_formula_sum   'Ce1 Fe10 Mo2'
_cell_volume   173.53269200
_cell_formula_units_Z   1
loop_
 _symmetry_equiv_pos_site_id
 _symmetry_equiv_pos_as_xyz
  1  'x, y, z'
loop_
 _atom_site_type_symbol
 _atom_site_label
 _atom_site_symmetry_multiplicity
 _atom_site_fract_x
 _atom_site_fract_y
 _atom_site_fract_z
 _atom_site_occupancy
  Ce  Ce0  1  0.000000  0.000000  0.000000  1
  Fe  Fe1  1  0.500000  0.000000  0.500000  1
  Fe  Fe2  1  0.000000  0.000000  0.500000  1
  Fe  Fe3  1  0.500000  0.500000  0.000000  1
  Fe  Fe4  1  0.000000  0.500000  0.000000  1
  Fe  Fe5  1  0.719961  0.780039  0.219961  1
  Fe  Fe6  1  0.280039  0.219961  0.780039  1
  Fe  Fe7  1  0.500000  0.771251  0.771251  1
  Fe  Fe8  1  0.500000  0.228749  0.228749  1
  Fe  Fe9  1  0.642505  0.357495  0.642505  1
  Fe  Fe10  1  0.357495  0.642505  0.357495  1
  Mo  Mo11  1  0.000000  0.357500  0.357500  1
  Mo  Mo12  1  0.000000  0.642500  0.642500  1
