# generated using pymatgen
data_Sm5Co19(Si5P)2
_symmetry_space_group_name_H-M   'P 1'
_cell_length_a   12.21880200
_cell_length_b   12.24488387
_cell_length_c   3.75309500
_cell_angle_alpha   90.00000000
_cell_angle_beta   90.00000000
_cell_angle_gamma   119.92956443
_symmetry_Int_Tables_number   1
_chemical_formula_structural   Sm5Co19(Si5P)2
_chemical_formula_sum   'Sm5 Co19 Si10 P2'
_cell_volume   486.64390994
_cell_formula_units_Z   1
loop_
 _symmetry_equiv_pos_site_id
 _symmetry_equiv_pos_as_xyz
  1  'x, y, z'
loop_
 _atom_site_type_symbol
 _atom_site_label
 _atom_site_symmetry_multiplicity
 _atom_site_fract_x
 _atom_site_fract_y
 _atom_site_fract_z
 _atom_site_occupancy
  Sm  Sm0  1  0.332769  0.666146  0.000000  1
  Sm  Sm1  1  0.666622  0.333854  0.000000  1
  Sm  Sm2  1  0.185853  0.000000  0.500000  1
  Sm  Sm3  1  0.000834  0.186411  0.500000  1
  Sm  Sm4  1  0.814423  0.813589  0.500000  1
  Co  Co5  1  0.198081  0.374179  0.000000  1
  Co  Co6  1  0.621849  0.819547  0.000000  1
  Co  Co7  1  0.176367  0.802127  0.000000  1
  Co  Co8  1  0.823902  0.625821  0.000000  1
  Co  Co9  1  0.802302  0.180453  0.000000  1
  Co  Co10  1  0.374240  0.197873  0.000000  1
  Co  Co11  1  0.559781  0.000000  0.000000  1
  Co  Co12  1  0.000654  0.559910  0.000000  1
  Co  Co13  1  0.440745  0.440090  0.000000  1
  Co  Co14  1  0.122649  0.479274  0.500000  1
  Co  Co15  1  0.520225  0.641906  0.500000  1
  Co  Co16  1  0.356443  0.877459  0.500000  1
  Co  Co17  1  0.643375  0.520726  0.500000  1
  Co  Co18  1  0.878318  0.358094  0.500000  1
  Co  Co19  1  0.478984  0.122541  0.500000  1
  Co  Co20  1  0.717727  0.000000  0.500000  1
  Co  Co21  1  0.999990  0.721377  0.500000  1
  Co  Co22  1  0.278613  0.278623  0.500000  1
  Co  Co23  1  0.004271  0.000000  0.000000  1
  Si  Si24  1  0.373571  0.000000  0.000000  1
  Si  Si25  1  0.000180  0.373646  0.000000  1
  Si  Si26  1  0.626535  0.626354  0.000000  1
  Si  Si27  1  0.317346  0.476028  0.500000  1
  Si  Si28  1  0.523352  0.839883  0.500000  1
  Si  Si29  1  0.159070  0.682671  0.500000  1
  Si  Si30  1  0.841318  0.523972  0.500000  1
  Si  Si31  1  0.683470  0.160117  0.500000  1
  Si  Si32  1  0.476399  0.317329  0.500000  1
  Si  Si33  1  0.814925  0.000000  0.000000  1
  P  P34  1  0.000082  0.815345  0.000000  1
  P  P35  1  0.184738  0.184655  0.000000  1
