# generated using pymatgen
data_Nd2VGa6
_symmetry_space_group_name_H-M   'P 1'
_cell_length_a   6.31310448
_cell_length_b   6.31310491
_cell_length_c   6.31310400
_cell_angle_alpha   60.00000478
_cell_angle_beta   60.00000254
_cell_angle_gamma   60.00000696
_symmetry_Int_Tables_number   1
_chemical_formula_structural   Nd2VGa6
_chemical_formula_sum   'Nd2 V1 Ga6'
_cell_volume   177.91557826
_cell_formula_units_Z   1
loop_
 _symmetry_equiv_pos_site_id
 _symmetry_equiv_pos_as_xyz
  1  'x, y, z'
loop_
 _atom_site_type_symbol
 _atom_site_label
 _atom_site_symmetry_multiplicity
 _atom_site_fract_x
 _atom_site_fract_y
 _atom_site_fract_z
 _atom_site_occupancy
  Nd  Nd0  1  0.750000  0.750000  0.750000  1
  Nd  Nd1  1  0.250000  0.250000  0.250000  1
  V  V2  1  0.500000  0.500000  0.500000  1
  Ga  Ga3  1  0.782221  0.782221  0.217779  1
  Ga  Ga4  1  0.217779  0.782221  0.217779  1
  Ga  Ga5  1  0.782221  0.217779  0.217779  1
  Ga  Ga6  1  0.217779  0.217779  0.782221  1
  Ga  Ga7  1  0.782221  0.217779  0.782221  1
  Ga  Ga8  1  0.217779  0.782221  0.782221  1
