# generated using pymatgen
data_HoCoNiP2
_symmetry_space_group_name_H-M   'P 1'
_cell_length_a   3.92140900
_cell_length_b   3.92142100
_cell_length_c   9.12043700
_cell_angle_alpha   90.00000000
_cell_angle_beta   90.00000000
_cell_angle_gamma   90.00000000
_symmetry_Int_Tables_number   1
_chemical_formula_structural   HoCoNiP2
_chemical_formula_sum   'Ho2 Co2 Ni2 P4'
_cell_volume   140.24947986
_cell_formula_units_Z   2
loop_
 _symmetry_equiv_pos_site_id
 _symmetry_equiv_pos_as_xyz
  1  'x, y, z'
loop_
 _atom_site_type_symbol
 _atom_site_label
 _atom_site_symmetry_multiplicity
 _atom_site_fract_x
 _atom_site_fract_y
 _atom_site_fract_z
 _atom_site_occupancy
  Ho  Ho0  1  0.000000  0.500000  0.745582  1
  Ho  Ho1  1  0.500000  0.000000  0.254418  1
  Co  Co2  1  0.000000  0.500000  0.386999  1
  Co  Co3  1  0.500000  0.000000  0.613001  1
  Ni  Ni4  1  0.500000  0.500000  0.000003  1
  Ni  Ni5  1  0.000000  0.000000  0.999997  1
  P  P6  1  0.500000  0.000000  0.859899  1
  P  P7  1  0.000000  0.500000  0.140101  1
  P  P8  1  0.000000  0.000000  0.500001  1
  P  P9  1  0.500000  0.500000  0.499999  1
