# generated using pymatgen
data_NaTmPa2(Ga3Ir)6
_symmetry_space_group_name_H-M   'P 1'
_cell_length_a   7.62842941
_cell_length_b   7.62876498
_cell_length_c   9.40714700
_cell_angle_alpha   90.00000000
_cell_angle_beta   90.00000000
_cell_angle_gamma   119.95485543
_symmetry_Int_Tables_number   1
_chemical_formula_structural   NaTmPa2(Ga3Ir)6
_chemical_formula_sum   'Na1 Tm1 Pa2 Ga18 Ir6'
_cell_volume   474.32423387
_cell_formula_units_Z   1
loop_
 _symmetry_equiv_pos_site_id
 _symmetry_equiv_pos_as_xyz
  1  'x, y, z'
loop_
 _atom_site_type_symbol
 _atom_site_label
 _atom_site_symmetry_multiplicity
 _atom_site_fract_x
 _atom_site_fract_y
 _atom_site_fract_z
 _atom_site_occupancy
  Na  Na0  1  0.668434  0.995264  0.750000  1
  Tm  Tm1  1  0.332271  0.003918  0.250000  1
  Pa  Pa2  1  0.999109  0.668031  0.750000  1
  Pa  Pa3  1  0.000982  0.331730  0.250000  1
  Ga  Ga4  1  0.128111  0.125541  0.750000  1
  Ga  Ga5  1  0.868642  0.872095  0.250000  1
  Ga  Ga6  1  0.993208  0.324616  0.585613  1
  Ga  Ga7  1  0.001135  0.670423  0.416103  1
  Ga  Ga8  1  0.001135  0.670423  0.083897  1
  Ga  Ga9  1  0.343682  0.002103  0.917677  1
  Ga  Ga10  1  0.993208  0.324616  0.914387  1
  Ga  Ga11  1  0.661194  0.997842  0.076247  1
  Ga  Ga12  1  0.661194  0.997842  0.423753  1
  Ga  Ga13  1  0.343682  0.002103  0.582323  1
  Ga  Ga14  1  0.334882  0.331420  0.067790  1
  Ga  Ga15  1  0.665393  0.673041  0.930547  1
  Ga  Ga16  1  0.665393  0.673041  0.569453  1
  Ga  Ga17  1  0.334882  0.331420  0.432210  1
  Ga  Ga18  1  0.340414  0.548325  0.750000  1
  Ga  Ga19  1  0.659788  0.455359  0.250000  1
  Ga  Ga20  1  0.547113  0.340519  0.750000  1
  Ga  Ga21  1  0.456017  0.662479  0.250000  1
  Ir  Ir22  1  0.676344  0.334187  0.497826  1
  Ir  Ir23  1  0.319510  0.664748  0.498134  1
  Ir  Ir24  1  0.319510  0.664748  0.001866  1
  Ir  Ir25  1  0.676344  0.334187  0.002174  1
  Ir  Ir26  1  0.004211  0.999989  0.497677  1
  Ir  Ir27  1  0.004211  0.999989  0.002323  1
