# generated using pymatgen
data_Li2Tm3MgPb3
_symmetry_space_group_name_H-M   'P 1'
_cell_length_a   7.28747466
_cell_length_b   7.51048384
_cell_length_c   4.68046500
_cell_angle_alpha   90.00000000
_cell_angle_beta   90.00000000
_cell_angle_gamma   121.01755941
_symmetry_Int_Tables_number   1
_chemical_formula_structural   Li2Tm3MgPb3
_chemical_formula_sum   'Li2 Tm3 Mg1 Pb3'
_cell_volume   219.54298748
_cell_formula_units_Z   1
loop_
 _symmetry_equiv_pos_site_id
 _symmetry_equiv_pos_as_xyz
  1  'x, y, z'
loop_
 _atom_site_type_symbol
 _atom_site_label
 _atom_site_symmetry_multiplicity
 _atom_site_fract_x
 _atom_site_fract_y
 _atom_site_fract_z
 _atom_site_occupancy
  Li  Li0  1  0.769227  0.761861  0.500000  1
  Li  Li1  1  0.230773  0.992633  0.500000  1
  Tm  Tm2  1  0.000000  0.560559  0.000000  1
  Tm  Tm3  1  0.437867  0.448151  0.000000  1
  Tm  Tm4  1  0.562133  0.010284  0.000000  1
  Mg  Mg5  1  0.000000  0.228957  0.500000  1
  Pb  Pb6  1  0.657094  0.338083  0.500000  1
  Pb  Pb7  1  0.000000  0.978483  0.000000  1
  Pb  Pb8  1  0.342906  0.680990  0.500000  1
