# generated using pymatgen
data_Pr2Dy3Sc3(P3Ir4)4
_symmetry_space_group_name_H-M   'P 1'
_cell_length_a   12.88723500
_cell_length_b   12.88723534
_cell_length_c   3.98631700
_cell_angle_alpha   90.00000000
_cell_angle_beta   90.00000000
_cell_angle_gamma   120.00000169
_symmetry_Int_Tables_number   1
_chemical_formula_structural   Pr2Dy3Sc3(P3Ir4)4
_chemical_formula_sum   'Pr2 Dy3 Sc3 P12 Ir16'
_cell_volume   573.35283400
_cell_formula_units_Z   1
loop_
 _symmetry_equiv_pos_site_id
 _symmetry_equiv_pos_as_xyz
  1  'x, y, z'
loop_
 _atom_site_type_symbol
 _atom_site_label
 _atom_site_symmetry_multiplicity
 _atom_site_fract_x
 _atom_site_fract_y
 _atom_site_fract_z
 _atom_site_occupancy
  Pr  Pr0  1  0.333333  0.666667  0.500000  1
  Pr  Pr1  1  0.666667  0.333333  0.500000  1
  Dy  Dy2  1  0.000000  0.811516  0.000000  1
  Dy  Dy3  1  0.188484  0.188484  0.000000  1
  Dy  Dy4  1  0.811516  0.000000  0.000000  1
  Sc  Sc5  1  0.000000  0.444268  0.500000  1
  Sc  Sc6  1  0.555732  0.555732  0.500000  1
  Sc  Sc7  1  0.444268  0.000000  0.500000  1
  P  P8  1  0.000000  0.645198  0.500000  1
  P  P9  1  0.354802  0.354802  0.500000  1
  P  P10  1  0.645198  0.000000  0.500000  1
  P  P11  1  0.519339  0.686949  0.000000  1
  P  P12  1  0.313051  0.832389  0.000000  1
  P  P13  1  0.167611  0.480661  0.000000  1
  P  P14  1  0.480661  0.167611  0.000000  1
  P  P15  1  0.686949  0.519339  0.000000  1
  P  P16  1  0.832389  0.313051  0.000000  1
  P  P17  1  0.000000  0.176492  0.500000  1
  P  P18  1  0.823508  0.823508  0.500000  1
  P  P19  1  0.176492  0.000000  0.500000  1
  Ir  Ir20  1  0.512742  0.870380  0.000000  1
  Ir  Ir21  1  0.129620  0.642362  0.000000  1
  Ir  Ir22  1  0.357638  0.487258  0.000000  1
  Ir  Ir23  1  0.487258  0.357638  0.000000  1
  Ir  Ir24  1  0.870380  0.512742  0.000000  1
  Ir  Ir25  1  0.642362  0.129620  0.000000  1
  Ir  Ir26  1  0.000000  0.277433  0.000000  1
  Ir  Ir27  1  0.722567  0.722567  0.000000  1
  Ir  Ir28  1  0.277433  0.000000  0.000000  1
  Ir  Ir29  1  0.629176  0.807496  0.500000  1
  Ir  Ir30  1  0.192504  0.821680  0.500000  1
  Ir  Ir31  1  0.178320  0.370824  0.500000  1
  Ir  Ir32  1  0.370824  0.178320  0.500000  1
  Ir  Ir33  1  0.807496  0.629176  0.500000  1
  Ir  Ir34  1  0.821680  0.192504  0.500000  1
  Ir  Ir35  1  0.000000  0.000000  0.500000  1
