# generated using pymatgen
data_Np3Sb4Pt2Rh
_symmetry_space_group_name_H-M   'P 1'
_cell_length_a   8.44197510
_cell_length_b   8.44197644
_cell_length_c   8.44197602
_cell_angle_alpha   109.46742952
_cell_angle_beta   109.47881051
_cell_angle_gamma   109.46743047
_symmetry_Int_Tables_number   1
_chemical_formula_structural   Np3Sb4Pt2Rh
_chemical_formula_sum   'Np6 Sb8 Pt4 Rh2'
_cell_volume   463.13795686
_cell_formula_units_Z   2
loop_
 _symmetry_equiv_pos_site_id
 _symmetry_equiv_pos_as_xyz
  1  'x, y, z'
loop_
 _atom_site_type_symbol
 _atom_site_label
 _atom_site_symmetry_multiplicity
 _atom_site_fract_x
 _atom_site_fract_y
 _atom_site_fract_z
 _atom_site_occupancy
  Np  Np0  1  0.875000  0.250000  0.125000  1
  Np  Np1  1  0.625000  0.750000  0.375000  1
  Np  Np2  1  0.250000  0.122227  0.872227  1
  Np  Np3  1  0.750000  0.377773  0.627773  1
  Np  Np4  1  0.127773  0.877773  0.250000  1
  Np  Np5  1  0.372227  0.622227  0.750000  1
  Sb  Sb6  1  0.672604  0.497447  0.996048  1
  Sb  Sb7  1  0.498601  0.002553  0.675157  1
  Sb  Sb8  1  0.001399  0.676557  0.503952  1
  Sb  Sb9  1  0.827396  0.823443  0.824843  1
  Sb  Sb10  1  0.496048  0.997447  0.172604  1
  Sb  Sb11  1  0.175157  0.502553  0.998601  1
  Sb  Sb12  1  0.003952  0.176557  0.501399  1
  Sb  Sb13  1  0.324843  0.323443  0.327396  1
  Pt  Pt14  1  0.250000  0.624203  0.374203  1
  Pt  Pt15  1  0.750000  0.875797  0.125797  1
  Pt  Pt16  1  0.625797  0.375797  0.250000  1
  Pt  Pt17  1  0.874203  0.124203  0.750000  1
  Rh  Rh18  1  0.375000  0.250000  0.625000  1
  Rh  Rh19  1  0.125000  0.750000  0.875000  1
