# generated using pymatgen
data_Ca3PrSb6Rh7
_symmetry_space_group_name_H-M   'P 1'
_cell_length_a   7.66587736
_cell_length_b   7.66587929
_cell_length_c   7.66587800
_cell_angle_alpha   109.49536094
_cell_angle_beta   109.49536605
_cell_angle_gamma   109.49538359
_symmetry_Int_Tables_number   1
_chemical_formula_structural   Ca3PrSb6Rh7
_chemical_formula_sum   'Ca3 Pr1 Sb6 Rh7'
_cell_volume   346.47742167
_cell_formula_units_Z   1
loop_
 _symmetry_equiv_pos_site_id
 _symmetry_equiv_pos_as_xyz
  1  'x, y, z'
loop_
 _atom_site_type_symbol
 _atom_site_label
 _atom_site_symmetry_multiplicity
 _atom_site_fract_x
 _atom_site_fract_y
 _atom_site_fract_z
 _atom_site_occupancy
  Ca  Ca0  1  0.500000  0.000000  0.000000  1
  Ca  Ca1  1  0.000000  0.500000  0.000000  1
  Ca  Ca2  1  0.000000  0.000000  0.500000  1
  Pr  Pr3  1  0.500000  0.500000  0.500000  1
  Sb  Sb4  1  0.994268  0.317088  0.317088  1
  Sb  Sb5  1  0.682912  0.005732  0.682912  1
  Sb  Sb6  1  0.682912  0.682912  0.005732  1
  Sb  Sb7  1  0.005732  0.682912  0.682912  1
  Sb  Sb8  1  0.317088  0.994268  0.317088  1
  Sb  Sb9  1  0.317088  0.317088  0.994268  1
  Rh  Rh10  1  0.000000  0.000000  0.000000  1
  Rh  Rh11  1  0.500000  0.749179  0.250821  1
  Rh  Rh12  1  0.749179  0.500000  0.250821  1
  Rh  Rh13  1  0.250821  0.749179  0.500000  1
  Rh  Rh14  1  0.250821  0.500000  0.749179  1
  Rh  Rh15  1  0.500000  0.250821  0.749179  1
  Rh  Rh16  1  0.749179  0.250821  0.500000  1
