# generated using pymatgen
data_Ac2WO6
_symmetry_space_group_name_H-M   'P 1'
_cell_length_a   5.66442100
_cell_length_b   9.76864000
_cell_length_c   10.72574100
_cell_angle_alpha   90.00000000
_cell_angle_beta   90.00000000
_cell_angle_gamma   90.00000000
_symmetry_Int_Tables_number   1
_chemical_formula_structural   Ac2WO6
_chemical_formula_sum   'Ac8 W4 O24'
_cell_volume   593.49482277
_cell_formula_units_Z   4
loop_
 _symmetry_equiv_pos_site_id
 _symmetry_equiv_pos_as_xyz
  1  'x, y, z'
loop_
 _atom_site_type_symbol
 _atom_site_label
 _atom_site_symmetry_multiplicity
 _atom_site_fract_x
 _atom_site_fract_y
 _atom_site_fract_z
 _atom_site_occupancy
  Ac  Ac0  1  0.023717  0.395565  0.041073  1
  Ac  Ac1  1  0.027620  0.281533  0.637560  1
  Ac  Ac2  1  0.472380  0.718467  0.137560  1
  Ac  Ac3  1  0.476283  0.604435  0.541073  1
  Ac  Ac4  1  0.523717  0.104435  0.958927  1
  Ac  Ac5  1  0.527620  0.218467  0.362440  1
  Ac  Ac6  1  0.972380  0.781533  0.862440  1
  Ac  Ac7  1  0.976283  0.895565  0.458927  1
  W  W8  1  0.040405  0.002218  0.143528  1
  W  W9  1  0.459595  0.997782  0.643528  1
  W  W10  1  0.540405  0.497782  0.856472  1
  W  W11  1  0.959595  0.502218  0.356472  1
  O  O12  1  0.067016  0.644893  0.473792  1
  O  O13  1  0.162879  0.550417  0.221089  1
  O  O14  1  0.202329  0.869066  0.674173  1
  O  O15  1  0.178456  0.867302  0.253606  1
  O  O16  1  0.214618  0.390159  0.434274  1
  O  O17  1  0.255169  0.087879  0.512236  1
  O  O18  1  0.244831  0.912121  0.012236  1
  O  O19  1  0.285382  0.609841  0.934274  1
  O  O20  1  0.321544  0.132698  0.753606  1
  O  O21  1  0.297671  0.130934  0.174173  1
  O  O22  1  0.337121  0.449583  0.721089  1
  O  O23  1  0.432984  0.355107  0.973792  1
  O  O24  1  0.567016  0.855107  0.526208  1
  O  O25  1  0.662879  0.949583  0.778911  1
  O  O26  1  0.702329  0.630934  0.325827  1
  O  O27  1  0.678456  0.632698  0.746394  1
  O  O28  1  0.714618  0.109841  0.565726  1
  O  O29  1  0.755169  0.412121  0.487764  1
  O  O30  1  0.744831  0.587879  0.987764  1
  O  O31  1  0.785382  0.890159  0.065726  1
  O  O32  1  0.821544  0.367302  0.246394  1
  O  O33  1  0.797671  0.369066  0.825827  1
  O  O34  1  0.837121  0.050417  0.278911  1
  O  O35  1  0.932984  0.144893  0.026208  1
