# generated using pymatgen
data_Er8In2CoPt
_symmetry_space_group_name_H-M   'P 1'
_cell_length_a   9.49138556
_cell_length_b   9.52946860
_cell_length_c   9.52946870
_cell_angle_alpha   60.29967793
_cell_angle_beta   60.13210249
_cell_angle_gamma   60.13211299
_symmetry_Int_Tables_number   1
_chemical_formula_structural   Er8In2CoPt
_chemical_formula_sum   'Er16 In4 Co2 Pt2'
_cell_volume   612.06027778
_cell_formula_units_Z   2
loop_
 _symmetry_equiv_pos_site_id
 _symmetry_equiv_pos_as_xyz
  1  'x, y, z'
loop_
 _atom_site_type_symbol
 _atom_site_label
 _atom_site_symmetry_multiplicity
 _atom_site_fract_x
 _atom_site_fract_y
 _atom_site_fract_z
 _atom_site_occupancy
  Er  Er0  1  0.196781  0.181592  0.810195  1
  Er  Er1  1  0.438614  0.061386  0.061386  1
  Er  Er2  1  0.437434  0.062163  0.439402  1
  Er  Er3  1  0.061001  0.439402  0.062163  1
  Er  Er4  1  0.648481  0.044670  0.658369  1
  Er  Er5  1  0.188039  0.811961  0.811961  1
  Er  Er6  1  0.061001  0.062163  0.439402  1
  Er  Er7  1  0.809199  0.190801  0.190801  1
  Er  Er8  1  0.811432  0.810195  0.181592  1
  Er  Er9  1  0.648481  0.658369  0.044670  1
  Er  Er10  1  0.642892  0.653885  0.653885  1
  Er  Er11  1  0.061623  0.438377  0.438377  1
  Er  Er12  1  0.049339  0.653885  0.653885  1
  Er  Er13  1  0.811432  0.181592  0.810195  1
  Er  Er14  1  0.437434  0.439402  0.062163  1
  Er  Er15  1  0.196781  0.810195  0.181592  1
  In  In16  1  0.417283  0.748812  0.416622  1
  In  In17  1  0.417283  0.416622  0.748812  1
  In  In18  1  0.749413  0.416724  0.416724  1
  In  In19  1  0.417138  0.416724  0.416724  1
  Co  Co20  1  0.424865  0.858610  0.858610  1
  Co  Co21  1  0.857916  0.858610  0.858610  1
  Pt  Pt22  1  0.858071  0.426474  0.857384  1
  Pt  Pt23  1  0.858071  0.857384  0.426474  1
