# generated using pymatgen
data_Pr16MgCd2HgIr4
_symmetry_space_group_name_H-M   'P 1'
_cell_length_a   10.03897466
_cell_length_b   10.03892880
_cell_length_c   10.04163039
_cell_angle_alpha   60.16756550
_cell_angle_beta   60.16606110
_cell_angle_gamma   60.16304464
_symmetry_Int_Tables_number   1
_chemical_formula_structural   Pr16MgCd2HgIr4
_chemical_formula_sum   'Pr16 Mg1 Cd2 Hg1 Ir4'
_cell_volume   718.27603090
_cell_formula_units_Z   1
loop_
 _symmetry_equiv_pos_site_id
 _symmetry_equiv_pos_as_xyz
  1  'x, y, z'
loop_
 _atom_site_type_symbol
 _atom_site_label
 _atom_site_symmetry_multiplicity
 _atom_site_fract_x
 _atom_site_fract_y
 _atom_site_fract_z
 _atom_site_occupancy
  Pr  Pr0  1  0.348676  0.348679  0.348513  1
  Pr  Pr1  1  0.348422  0.348416  0.955527  1
  Pr  Pr2  1  0.348641  0.954908  0.348474  1
  Pr  Pr3  1  0.954925  0.348629  0.348481  1
  Pr  Pr4  1  0.808468  0.191387  0.191854  1
  Pr  Pr5  1  0.188429  0.809877  0.810098  1
  Pr  Pr6  1  0.191373  0.808471  0.191844  1
  Pr  Pr7  1  0.809891  0.188420  0.810110  1
  Pr  Pr8  1  0.190611  0.190613  0.809749  1
  Pr  Pr9  1  0.809745  0.809748  0.189338  1
  Pr  Pr10  1  0.939379  0.561195  0.562132  1
  Pr  Pr11  1  0.558683  0.939530  0.941428  1
  Pr  Pr12  1  0.561179  0.939382  0.562141  1
  Pr  Pr13  1  0.939524  0.558680  0.941442  1
  Pr  Pr14  1  0.561033  0.561046  0.940836  1
  Pr  Pr15  1  0.939969  0.939974  0.559205  1
  Mg  Mg16  1  0.574594  0.574591  0.572360  1
  Cd  Cd17  1  0.580608  0.257249  0.581734  1
  Cd  Cd18  1  0.257243  0.580613  0.581728  1
  Hg  Hg19  1  0.584972  0.584981  0.249379  1
  Ir  Ir20  1  0.141978  0.141987  0.142082  1
  Ir  Ir21  1  0.142921  0.142898  0.575738  1
  Ir  Ir22  1  0.143209  0.575518  0.142896  1
  Ir  Ir23  1  0.575524  0.143201  0.142909  1
