# generated using pymatgen
data_Y8Nb9Si16W3
_symmetry_space_group_name_H-M   'P 1'
_cell_length_a   6.82126950
_cell_length_b   7.05971909
_cell_length_c   13.37018400
_cell_angle_alpha   90.00000000
_cell_angle_beta   90.00000000
_cell_angle_gamma   90.02900004
_symmetry_Int_Tables_number   1
_chemical_formula_structural   Y8Nb9Si16W3
_chemical_formula_sum   'Y8 Nb9 Si16 W3'
_cell_volume   643.85779406
_cell_formula_units_Z   1
loop_
 _symmetry_equiv_pos_site_id
 _symmetry_equiv_pos_as_xyz
  1  'x, y, z'
loop_
 _atom_site_type_symbol
 _atom_site_label
 _atom_site_symmetry_multiplicity
 _atom_site_fract_x
 _atom_site_fract_y
 _atom_site_fract_z
 _atom_site_occupancy
  Y  Y0  1  0.502164  0.328717  0.095261  1
  Y  Y1  1  0.002434  0.171591  0.404686  1
  Y  Y2  1  0.497246  0.671560  0.595011  1
  Y  Y3  1  0.996861  0.828404  0.905182  1
  Y  Y4  1  0.497246  0.671560  0.904989  1
  Y  Y5  1  0.996861  0.828404  0.594818  1
  Y  Y6  1  0.502164  0.328717  0.404739  1
  Y  Y7  1  0.002434  0.171591  0.095314  1
  Nb  Nb8  1  0.835528  0.329861  0.625756  1
  Nb  Nb9  1  0.334200  0.171745  0.874507  1
  Nb  Nb10  1  0.165174  0.669874  0.126643  1
  Nb  Nb11  1  0.666166  0.829382  0.372986  1
  Nb  Nb12  1  0.165174  0.669874  0.373357  1
  Nb  Nb13  1  0.666166  0.829382  0.127014  1
  Nb  Nb14  1  0.835528  0.329861  0.874244  1
  Nb  Nb15  1  0.334200  0.171745  0.625493  1
  Nb  Nb16  1  0.660841  0.008577  0.750000  1
  Si  Si17  1  0.662686  0.039082  0.541262  1
  Si  Si18  1  0.162830  0.460818  0.957079  1
  Si  Si19  1  0.337848  0.960837  0.043544  1
  Si  Si20  1  0.837324  0.539197  0.456785  1
  Si  Si21  1  0.337848  0.960837  0.456456  1
  Si  Si22  1  0.837324  0.539197  0.043215  1
  Si  Si23  1  0.662686  0.039082  0.958738  1
  Si  Si24  1  0.162830  0.460818  0.542921  1
  Si  Si25  1  0.534594  0.379347  0.750000  1
  Si  Si26  1  0.038447  0.122723  0.750000  1
  Si  Si27  1  0.464620  0.621963  0.250000  1
  Si  Si28  1  0.965610  0.879031  0.250000  1
  Si  Si29  1  0.798584  0.628069  0.750000  1
  Si  Si30  1  0.293416  0.867018  0.750000  1
  Si  Si31  1  0.201425  0.368553  0.250000  1
  Si  Si32  1  0.701495  0.132149  0.250000  1
  W  W33  1  0.160292  0.490020  0.750000  1
  W  W34  1  0.339740  0.990068  0.250000  1
  W  W35  1  0.840011  0.510341  0.250000  1
