# generated using pymatgen
data_TbErGa8Fe9
_symmetry_space_group_name_H-M   'P 1'
_cell_length_a   6.56593576
_cell_length_b   6.56593620
_cell_length_c   6.56593600
_cell_angle_alpha   83.72566954
_cell_angle_beta   96.27433121
_cell_angle_gamma   96.27433259
_symmetry_Int_Tables_number   1
_chemical_formula_structural   TbErGa8Fe9
_chemical_formula_sum   'Tb1 Er1 Ga8 Fe9'
_cell_volume   278.32576715
_cell_formula_units_Z   1
loop_
 _symmetry_equiv_pos_site_id
 _symmetry_equiv_pos_as_xyz
  1  'x, y, z'
loop_
 _atom_site_type_symbol
 _atom_site_label
 _atom_site_symmetry_multiplicity
 _atom_site_fract_x
 _atom_site_fract_y
 _atom_site_fract_z
 _atom_site_occupancy
  Tb  Tb0  1  0.363794  0.636208  0.636207  1
  Er  Er1  1  0.634566  0.365435  0.365435  1
  Ga  Ga2  1  0.319873  0.318676  0.000669  1
  Ga  Ga3  1  0.681324  0.680127  0.000669  1
  Ga  Ga4  1  0.869118  0.130883  0.130883  1
  Ga  Ga5  1  0.999331  0.680128  0.318675  1
  Ga  Ga6  1  0.319873  0.000669  0.318676  1
  Ga  Ga7  1  0.681324  0.000669  0.680127  1
  Ga  Ga8  1  0.999331  0.318675  0.680127  1
  Ga  Ga9  1  0.129245  0.870757  0.870756  1
  Fe  Fe10  1  0.500187  0.999732  0.999732  1
  Fe  Fe11  1  0.000268  0.499813  0.999732  1
  Fe  Fe12  1  0.337064  0.662937  0.164430  1
  Fe  Fe13  1  0.164745  0.336470  0.336470  1
  Fe  Fe14  1  0.663530  0.835254  0.336471  1
  Fe  Fe15  1  0.000268  0.999732  0.499813  1
  Fe  Fe16  1  0.835569  0.662937  0.662936  1
  Fe  Fe17  1  0.337064  0.164430  0.662937  1
  Fe  Fe18  1  0.663529  0.336470  0.835254  1
