# generated using pymatgen
data_PrYErRuO7
_symmetry_space_group_name_H-M   'P 1'
_cell_length_a   6.45066204
_cell_length_b   6.46057098
_cell_length_c   7.53572900
_cell_angle_alpha   90.00000000
_cell_angle_beta   90.00000000
_cell_angle_gamma   109.96458377
_symmetry_Int_Tables_number   1
_chemical_formula_structural   PrYErRuO7
_chemical_formula_sum   'Pr2 Y2 Er2 Ru2 O14'
_cell_volume   295.17793779
_cell_formula_units_Z   2
loop_
 _symmetry_equiv_pos_site_id
 _symmetry_equiv_pos_as_xyz
  1  'x, y, z'
loop_
 _atom_site_type_symbol
 _atom_site_label
 _atom_site_symmetry_multiplicity
 _atom_site_fract_x
 _atom_site_fract_y
 _atom_site_fract_z
 _atom_site_occupancy
  Pr  Pr0  1  0.000000  0.000000  0.500000  1
  Pr  Pr1  1  0.000000  0.000000  0.000000  1
  Y  Y2  1  0.482366  0.931973  0.750000  1
  Y  Y3  1  0.517634  0.068027  0.250000  1
  Er  Er4  1  0.933309  0.483694  0.750000  1
  Er  Er5  1  0.066691  0.516306  0.250000  1
  Ru  Ru6  1  0.500000  0.500000  0.500000  1
  Ru  Ru7  1  0.500000  0.500000  0.000000  1
  O  O8  1  0.590628  0.585416  0.750000  1
  O  O9  1  0.409372  0.414584  0.250000  1
  O  O10  1  0.839005  0.122736  0.750000  1
  O  O11  1  0.160995  0.877264  0.250000  1
  O  O12  1  0.117085  0.835600  0.750000  1
  O  O13  1  0.882915  0.164400  0.250000  1
  O  O14  1  0.436524  0.180973  0.964649  1
  O  O15  1  0.563476  0.819027  0.464649  1
  O  O16  1  0.181831  0.444349  0.963957  1
  O  O17  1  0.818169  0.555651  0.463957  1
  O  O18  1  0.436524  0.180973  0.535351  1
  O  O19  1  0.563476  0.819027  0.035351  1
  O  O20  1  0.818169  0.555651  0.036043  1
  O  O21  1  0.181831  0.444349  0.536043  1
