# generated using pymatgen
data_Hf7Zr3ZnPPb6
_symmetry_space_group_name_H-M   'P 1'
_cell_length_a   8.76056900
_cell_length_b   8.76054537
_cell_length_c   5.90658100
_cell_angle_alpha   89.99996076
_cell_angle_beta   90.00013734
_cell_angle_gamma   120.00011566
_symmetry_Int_Tables_number   1
_chemical_formula_structural   Hf7Zr3ZnPPb6
_chemical_formula_sum   'Hf7 Zr3 Zn1 P1 Pb6'
_cell_volume   392.58142521
_cell_formula_units_Z   1
loop_
 _symmetry_equiv_pos_site_id
 _symmetry_equiv_pos_as_xyz
  1  'x, y, z'
loop_
 _atom_site_type_symbol
 _atom_site_label
 _atom_site_symmetry_multiplicity
 _atom_site_fract_x
 _atom_site_fract_y
 _atom_site_fract_z
 _atom_site_occupancy
  Hf  Hf0  1  0.666666  0.333333  0.999977  1
  Hf  Hf1  1  0.333334  0.666667  0.999977  1
  Hf  Hf2  1  0.333333  0.666666  0.500911  1
  Hf  Hf3  1  0.666667  0.333333  0.500912  1
  Hf  Hf4  1  0.741957  0.741958  0.739701  1
  Hf  Hf5  1  0.258043  0.000000  0.739700  1
  Hf  Hf6  1  0.000000  0.258043  0.739701  1
  Zr  Zr7  1  0.254642  0.254643  0.259321  1
  Zr  Zr8  1  0.745357  0.999999  0.259320  1
  Zr  Zr9  1  0.000000  0.745357  0.259322  1
  Zn  Zn10  1  0.000001  0.000000  0.994097  1
  P  P11  1  0.000000  0.000000  0.506588  1
  Pb  Pb12  1  0.391523  0.391522  0.756723  1
  Pb  Pb13  1  0.608478  0.000001  0.756723  1
  Pb  Pb14  1  0.999999  0.608478  0.756723  1
  Pb  Pb15  1  0.606823  0.606822  0.243435  1
  Pb  Pb16  1  0.393177  0.000000  0.243435  1
  Pb  Pb17  1  0.000000  0.393177  0.243435  1
