# generated using pymatgen
data_EuPaF7
_symmetry_space_group_name_H-M   'P 1'
_cell_length_a   7.53978300
_cell_length_b   5.22118476
_cell_length_c   7.12071300
_cell_angle_alpha   86.69027671
_cell_angle_beta   90.00000000
_cell_angle_gamma   90.00000000
_symmetry_Int_Tables_number   1
_chemical_formula_structural   EuPaF7
_chemical_formula_sum   'Eu2 Pa2 F14'
_cell_volume   279.85069965
_cell_formula_units_Z   2
loop_
 _symmetry_equiv_pos_site_id
 _symmetry_equiv_pos_as_xyz
  1  'x, y, z'
loop_
 _atom_site_type_symbol
 _atom_site_label
 _atom_site_symmetry_multiplicity
 _atom_site_fract_x
 _atom_site_fract_y
 _atom_site_fract_z
 _atom_site_occupancy
  Eu  Eu0  1  0.250000  0.018167  0.692106  1
  Eu  Eu1  1  0.750000  0.981833  0.307894  1
  Pa  Pa2  1  0.250000  0.476831  0.223711  1
  Pa  Pa3  1  0.750000  0.523169  0.776289  1
  F  F4  1  0.250000  0.679515  0.937432  1
  F  F5  1  0.504005  0.305771  0.775812  1
  F  F6  1  0.750000  0.320485  0.062568  1
  F  F7  1  0.004005  0.694229  0.224188  1
  F  F8  1  0.250000  0.173546  0.031123  1
  F  F9  1  0.073438  0.187916  0.370439  1
  F  F10  1  0.426562  0.187916  0.370439  1
  F  F11  1  0.573438  0.812084  0.629561  1
  F  F12  1  0.995995  0.305771  0.775812  1
  F  F13  1  0.750000  0.826454  0.968877  1
  F  F14  1  0.495995  0.694229  0.224188  1
  F  F15  1  0.750000  0.369842  0.496638  1
  F  F16  1  0.926562  0.812084  0.629561  1
  F  F17  1  0.250000  0.630158  0.503362  1
