# generated using pymatgen
data_ErZr2(InPd2)3
_symmetry_space_group_name_H-M   'P 1'
_cell_length_a   4.71904800
_cell_length_b   6.58510300
_cell_length_c   14.39748100
_cell_angle_alpha   90.00000000
_cell_angle_beta   90.00014907
_cell_angle_gamma   90.00000000
_symmetry_Int_Tables_number   1
_chemical_formula_structural   ErZr2(InPd2)3
_chemical_formula_sum   'Er2 Zr4 In6 Pd12'
_cell_volume   447.40772787
_cell_formula_units_Z   2
loop_
 _symmetry_equiv_pos_site_id
 _symmetry_equiv_pos_as_xyz
  1  'x, y, z'
loop_
 _atom_site_type_symbol
 _atom_site_label
 _atom_site_symmetry_multiplicity
 _atom_site_fract_x
 _atom_site_fract_y
 _atom_site_fract_z
 _atom_site_occupancy
  Er  Er0  1  0.000049  0.000000  0.998692  1
  Er  Er1  1  0.500201  0.500001  0.167936  1
  Zr  Zr2  1  0.000125  0.000000  0.334773  1
  Zr  Zr3  1  0.499978  0.500001  0.500079  1
  Zr  Zr4  1  0.999746  0.000000  0.666560  1
  Zr  Zr5  1  0.499881  0.500001  0.831921  1
  In  In6  1  0.000012  0.500001  0.999589  1
  In  In7  1  0.500161  0.000000  0.167083  1
  In  In8  1  0.999921  0.500001  0.336634  1
  In  In9  1  0.500022  0.000000  0.502816  1
  In  In10  1  0.999978  0.500001  0.663902  1
  In  In11  1  0.499950  0.000000  0.829994  1
  Pd  Pd12  1  0.500064  0.259155  0.995882  1
  Pd  Pd13  1  0.500064  0.740844  0.995882  1
  Pd  Pd14  1  0.000212  0.240839  0.170794  1
  Pd  Pd15  1  0.000212  0.759160  0.170794  1
  Pd  Pd16  1  0.500079  0.244000  0.336923  1
  Pd  Pd17  1  0.500079  0.756001  0.336923  1
  Pd  Pd18  1  0.000026  0.245317  0.500469  1
  Pd  Pd19  1  0.000026  0.754683  0.500469  1
  Pd  Pd20  1  0.499754  0.254833  0.666197  1
  Pd  Pd21  1  0.499754  0.745168  0.666197  1
  Pd  Pd22  1  0.999854  0.256045  0.829747  1
  Pd  Pd23  1  0.999854  0.743954  0.829747  1
