# generated using pymatgen
data_Np4Al18Pt5Rh
_symmetry_space_group_name_H-M   'P 1'
_cell_length_a   7.63797430
_cell_length_b   7.63862963
_cell_length_c   9.50740603
_cell_angle_alpha   90.03795937
_cell_angle_beta   90.04036168
_cell_angle_gamma   119.60476110
_symmetry_Int_Tables_number   1
_chemical_formula_structural   Np4Al18Pt5Rh
_chemical_formula_sum   'Np4 Al18 Pt5 Rh1'
_cell_volume   482.28287043
_cell_formula_units_Z   1
loop_
 _symmetry_equiv_pos_site_id
 _symmetry_equiv_pos_as_xyz
  1  'x, y, z'
loop_
 _atom_site_type_symbol
 _atom_site_label
 _atom_site_symmetry_multiplicity
 _atom_site_fract_x
 _atom_site_fract_y
 _atom_site_fract_z
 _atom_site_occupancy
  Np  Np0  1  0.995007  0.669417  0.252200  1
  Np  Np1  1  0.004993  0.330583  0.747800  1
  Np  Np2  1  0.669285  0.995045  0.252299  1
  Np  Np3  1  0.330715  0.004955  0.747701  1
  Al  Al4  1  0.128487  0.128517  0.251972  1
  Al  Al5  1  0.871513  0.871483  0.748028  1
  Al  Al6  1  0.998700  0.335350  0.075209  1
  Al  Al7  1  0.001300  0.664650  0.924791  1
  Al  Al8  1  0.999375  0.667724  0.575903  1
  Al  Al9  1  0.332194  0.000778  0.424110  1
  Al  Al10  1  0.000625  0.332276  0.424097  1
  Al  Al11  1  0.667806  0.999222  0.575890  1
  Al  Al12  1  0.664594  0.001172  0.924918  1
  Al  Al13  1  0.335406  0.998828  0.075082  1
  Al  Al14  1  0.329779  0.329853  0.555545  1
  Al  Al15  1  0.670221  0.670147  0.444455  1
  Al  Al16  1  0.668645  0.668632  0.057290  1
  Al  Al17  1  0.331355  0.331368  0.942710  1
  Al  Al18  1  0.341569  0.547625  0.249820  1
  Al  Al19  1  0.658431  0.452375  0.750180  1
  Al  Al20  1  0.547909  0.341455  0.249767  1
  Al  Al21  1  0.452091  0.658545  0.750233  1
  Pt  Pt22  1  0.669814  0.330126  0.999873  1
  Pt  Pt23  1  0.330186  0.669874  0.000127  1
  Pt  Pt24  1  0.329202  0.670963  0.499893  1
  Pt  Pt25  1  0.670798  0.329037  0.500107  1
  Pt  Pt26  1  0.000000  0.000000  0.000000  1
  Rh  Rh27  1  0.000000  0.000000  0.500000  1
