# generated using pymatgen
data_La5Cd4IrPt
_symmetry_space_group_name_H-M   'P 1'
_cell_length_a   3.89239200
_cell_length_b   8.32616364
_cell_length_c   18.78549357
_cell_angle_alpha   89.45106586
_cell_angle_beta   90.00000000
_cell_angle_gamma   90.00000000
_symmetry_Int_Tables_number   1
_chemical_formula_structural   La5Cd4IrPt
_chemical_formula_sum   'La10 Cd8 Ir2 Pt2'
_cell_volume   608.78534761
_cell_formula_units_Z   2
loop_
 _symmetry_equiv_pos_site_id
 _symmetry_equiv_pos_as_xyz
  1  'x, y, z'
loop_
 _atom_site_type_symbol
 _atom_site_label
 _atom_site_symmetry_multiplicity
 _atom_site_fract_x
 _atom_site_fract_y
 _atom_site_fract_z
 _atom_site_occupancy
  La  La0  1  0.000000  0.113100  0.410877  1
  La  La1  1  0.000000  0.886900  0.589123  1
  La  La2  1  0.000000  0.382902  0.914187  1
  La  La3  1  0.000000  0.617098  0.085813  1
  La  La4  1  0.000000  0.234818  0.220647  1
  La  La5  1  0.000000  0.765182  0.779353  1
  La  La6  1  0.000000  0.251509  0.718237  1
  La  La7  1  0.000000  0.748491  0.281763  1
  La  La8  1  0.000000  0.000000  0.000000  1
  La  La9  1  0.000000  0.500000  0.500000  1
  Cd  Cd10  1  0.500000  0.430521  0.351867  1
  Cd  Cd11  1  0.500000  0.569479  0.648133  1
  Cd  Cd12  1  0.500000  0.070080  0.851444  1
  Cd  Cd13  1  0.500000  0.929920  0.148556  1
  Cd  Cd14  1  0.500000  0.286775  0.067466  1
  Cd  Cd15  1  0.500000  0.713225  0.932534  1
  Cd  Cd16  1  0.500000  0.213268  0.567705  1
  Cd  Cd17  1  0.500000  0.786732  0.432295  1
  Ir  Ir18  1  0.500000  0.023428  0.303781  1
  Ir  Ir19  1  0.500000  0.976572  0.696219  1
  Pt  Pt20  1  0.500000  0.476696  0.803110  1
  Pt  Pt21  1  0.500000  0.523304  0.196890  1
