# generated using pymatgen
data_Ce6MnCo3Si4
_symmetry_space_group_name_H-M   'P 1'
_cell_length_a   5.55921300
_cell_length_b   7.90351264
_cell_length_c   12.22802262
_cell_angle_alpha   90.23710996
_cell_angle_beta   90.00000000
_cell_angle_gamma   90.00000000
_symmetry_Int_Tables_number   1
_chemical_formula_structural   Ce6MnCo3Si4
_chemical_formula_sum   'Ce12 Mn2 Co6 Si8'
_cell_volume   537.26182226
_cell_formula_units_Z   2
loop_
 _symmetry_equiv_pos_site_id
 _symmetry_equiv_pos_as_xyz
  1  'x, y, z'
loop_
 _atom_site_type_symbol
 _atom_site_label
 _atom_site_symmetry_multiplicity
 _atom_site_fract_x
 _atom_site_fract_y
 _atom_site_fract_z
 _atom_site_occupancy
  Ce  Ce0  1  0.354391  0.740439  0.749011  1
  Ce  Ce1  1  0.354391  0.759561  0.250989  1
  Ce  Ce2  1  0.649724  0.247343  0.748537  1
  Ce  Ce3  1  0.649724  0.252657  0.251463  1
  Ce  Ce4  1  0.164368  0.402343  0.413681  1
  Ce  Ce5  1  0.164368  0.097657  0.586319  1
  Ce  Ce6  1  0.840529  0.902142  0.089377  1
  Ce  Ce7  1  0.840529  0.597858  0.910623  1
  Ce  Ce8  1  0.837941  0.596430  0.595165  1
  Ce  Ce9  1  0.837941  0.903570  0.404835  1
  Ce  Ce10  1  0.158032  0.098674  0.910947  1
  Ce  Ce11  1  0.158032  0.401326  0.089053  1
  Mn  Mn12  1  0.348990  0.038202  0.426188  1
  Mn  Mn13  1  0.348990  0.461798  0.573812  1
  Co  Co14  1  0.615630  0.541127  0.089210  1
  Co  Co15  1  0.615630  0.958873  0.910790  1
  Co  Co16  1  0.382630  0.041548  0.088489  1
  Co  Co17  1  0.382630  0.458452  0.911511  1
  Co  Co18  1  0.642568  0.544057  0.415940  1
  Co  Co19  1  0.642568  0.955943  0.584060  1
  Si  Si20  1  0.638865  0.250000  0.500000  1
  Si  Si21  1  0.355524  0.750000  0.000000  1
  Si  Si22  1  0.366176  0.750000  0.500000  1
  Si  Si23  1  0.643477  0.250000  0.000000  1
  Si  Si24  1  0.848287  0.895374  0.752051  1
  Si  Si25  1  0.848287  0.604626  0.247949  1
  Si  Si26  1  0.154889  0.392806  0.750430  1
  Si  Si27  1  0.154889  0.107194  0.249570  1
