# generated using pymatgen
data_Ti2B(IrRh)3
_symmetry_space_group_name_H-M   'P 1'
_cell_length_a   5.61376156
_cell_length_b   5.61376146
_cell_length_c   5.61018457
_cell_angle_alpha   59.97889716
_cell_angle_beta   59.97889888
_cell_angle_gamma   60.00000110
_symmetry_Int_Tables_number   1
_chemical_formula_structural   Ti2B(IrRh)3
_chemical_formula_sum   'Ti2 B1 Ir3 Rh3'
_cell_volume   124.97739793
_cell_formula_units_Z   1
loop_
 _symmetry_equiv_pos_site_id
 _symmetry_equiv_pos_as_xyz
  1  'x, y, z'
loop_
 _atom_site_type_symbol
 _atom_site_label
 _atom_site_symmetry_multiplicity
 _atom_site_fract_x
 _atom_site_fract_y
 _atom_site_fract_z
 _atom_site_occupancy
  Ti  Ti0  1  0.749749  0.749749  0.750752  1
  Ti  Ti1  1  0.249848  0.249848  0.250455  1
  B  B2  1  0.499089  0.499089  0.502732  1
  Ir  Ir3  1  0.759090  0.759090  0.240654  1
  Ir  Ir4  1  0.759090  0.241167  0.240654  1
  Ir  Ir5  1  0.241167  0.759090  0.240654  1
  Rh  Rh6  1  0.241705  0.241705  0.758033  1
  Rh  Rh7  1  0.758557  0.241705  0.758033  1
  Rh  Rh8  1  0.241705  0.758557  0.758033  1
