# generated using pymatgen
data_Sr6TbTm13Sn16
_symmetry_space_group_name_H-M   'P 1'
_cell_length_a   7.98397607
_cell_length_b   8.40990799
_cell_length_c   15.85528300
_cell_angle_alpha   89.97162431
_cell_angle_beta   90.19036012
_cell_angle_gamma   89.26245317
_symmetry_Int_Tables_number   1
_chemical_formula_structural   Sr6TbTm13Sn16
_chemical_formula_sum   'Sr6 Tb1 Tm13 Sn16'
_cell_volume   1064.50088191
_cell_formula_units_Z   1
loop_
 _symmetry_equiv_pos_site_id
 _symmetry_equiv_pos_as_xyz
  1  'x, y, z'
loop_
 _atom_site_type_symbol
 _atom_site_label
 _atom_site_symmetry_multiplicity
 _atom_site_fract_x
 _atom_site_fract_y
 _atom_site_fract_z
 _atom_site_occupancy
  Sr  Sr0  1  0.997713  0.824547  0.901660  1
  Sr  Sr1  1  0.500996  0.324403  0.091799  1
  Sr  Sr2  1  0.998223  0.176023  0.412021  1
  Sr  Sr3  1  0.499428  0.323406  0.412191  1
  Sr  Sr4  1  0.999988  0.175469  0.091971  1
  Sr  Sr5  1  0.497002  0.674732  0.902773  1
  Tb  Tb6  1  0.999717  0.816905  0.598480  1
  Tm  Tm7  1  0.670817  0.160635  0.625936  1
  Tm  Tm8  1  0.173528  0.338394  0.869758  1
  Tm  Tm9  1  0.329733  0.838176  0.124333  1
  Tm  Tm10  1  0.832657  0.662282  0.377362  1
  Tm  Tm11  1  0.332051  0.837482  0.377081  1
  Tm  Tm12  1  0.830704  0.662885  0.124453  1
  Tm  Tm13  1  0.672295  0.162282  0.869605  1
  Tm  Tm14  1  0.171096  0.339528  0.625193  1
  Tm  Tm15  1  0.498524  0.684813  0.599155  1
  Tm  Tm16  1  0.833995  0.503451  0.747777  1
  Tm  Tm17  1  0.335455  0.996237  0.747739  1
  Tm  Tm18  1  0.168147  0.496954  0.250786  1
  Tm  Tm19  1  0.666920  0.002024  0.250651  1
  Sn  Sn20  1  0.669503  0.946190  0.464921  1
  Sn  Sn21  1  0.164622  0.542563  0.041726  1
  Sn  Sn22  1  0.335967  0.041977  0.954757  1
  Sn  Sn23  1  0.822408  0.472363  0.548133  1
  Sn  Sn24  1  0.325381  0.027339  0.547649  1
  Sn  Sn25  1  0.836492  0.457559  0.954741  1
  Sn  Sn26  1  0.664792  0.957696  0.041501  1
  Sn  Sn27  1  0.171408  0.553615  0.464674  1
  Sn  Sn28  1  0.474889  0.372899  0.745802  1
  Sn  Sn29  1  0.976474  0.129771  0.746203  1
  Sn  Sn30  1  0.530532  0.630033  0.250600  1
  Sn  Sn31  1  0.028967  0.865159  0.250980  1
  Sn  Sn32  1  0.695287  0.852814  0.741653  1
  Sn  Sn33  1  0.196779  0.645795  0.741909  1
  Sn  Sn34  1  0.299818  0.137451  0.251831  1
  Sn  Sn35  1  0.797693  0.366147  0.252194  1
