# generated using pymatgen
data_Y5Ho3AlPd24
_symmetry_space_group_name_H-M   'P 1'
_cell_length_a   8.35116905
_cell_length_b   8.35116905
_cell_length_c   8.35074000
_cell_angle_alpha   89.99909430
_cell_angle_beta   90.00086453
_cell_angle_gamma   90.01259645
_symmetry_Int_Tables_number   1
_chemical_formula_structural   Y5Ho3AlPd24
_chemical_formula_sum   'Y5 Ho3 Al1 Pd24'
_cell_volume   582.39749961
_cell_formula_units_Z   1
loop_
 _symmetry_equiv_pos_site_id
 _symmetry_equiv_pos_as_xyz
  1  'x, y, z'
loop_
 _atom_site_type_symbol
 _atom_site_label
 _atom_site_symmetry_multiplicity
 _atom_site_fract_x
 _atom_site_fract_y
 _atom_site_fract_z
 _atom_site_occupancy
  Y  Y0  1  0.251431  0.251422  0.251428  1
  Y  Y1  1  0.748553  0.748549  0.748558  1
  Y  Y2  1  0.748580  0.748567  0.251428  1
  Y  Y3  1  0.748568  0.251434  0.748590  1
  Y  Y4  1  0.251448  0.251449  0.748557  1
  Ho  Ho5  1  0.251479  0.748529  0.251462  1
  Ho  Ho6  1  0.251436  0.748570  0.748586  1
  Ho  Ho7  1  0.748540  0.251454  0.251437  1
  Al  Al8  1  0.000023  0.999976  0.000020  1
  Pd  Pd9  1  0.259803  0.500713  0.000004  1
  Pd  Pd10  1  0.740236  0.499652  0.000376  1
  Pd  Pd11  1  0.999594  0.259771  0.499652  1
  Pd  Pd12  1  0.500348  0.259772  0.000376  1
  Pd  Pd13  1  0.000784  0.740188  0.499973  1
  Pd  Pd14  1  0.499287  0.740189  0.000003  1
  Pd  Pd15  1  0.499978  0.000008  0.259775  1
  Pd  Pd16  1  0.259802  0.999215  0.499972  1
  Pd  Pd17  1  0.499648  0.999613  0.740264  1
  Pd  Pd18  1  0.740239  0.000406  0.499652  1
  Pd  Pd19  1  0.999992  0.500021  0.259774  1
  Pd  Pd20  1  0.000386  0.500352  0.740265  1
  Pd  Pd21  1  0.252715  0.500779  0.500004  1
  Pd  Pd22  1  0.747300  0.499605  0.499605  1
  Pd  Pd23  1  0.500394  0.252709  0.499604  1
  Pd  Pd24  1  0.499220  0.747275  0.500004  1
  Pd  Pd25  1  0.499993  0.500007  0.252688  1
  Pd  Pd26  1  0.499614  0.500387  0.747323  1
  Pd  Pd27  1  0.289294  0.999328  0.999986  1
  Pd  Pd28  1  0.710677  0.000357  0.000339  1
  Pd  Pd29  1  0.999641  0.289333  0.000339  1
  Pd  Pd30  1  0.000671  0.710697  0.999985  1
  Pd  Pd31  1  0.999990  0.000010  0.289269  1
  Pd  Pd32  1  0.000334  0.999665  0.710700  1
