# generated using pymatgen
data_Sc8Al14ZnIr7
_symmetry_space_group_name_H-M   'P 1'
_cell_length_a   8.89754230
_cell_length_b   8.89754198
_cell_length_c   8.89754100
_cell_angle_alpha   120.32992215
_cell_angle_beta   119.99588702
_cell_angle_gamma   89.71831307
_symmetry_Int_Tables_number   1
_chemical_formula_structural   Sc8Al14ZnIr7
_chemical_formula_sum   'Sc8 Al14 Zn1 Ir7'
_cell_volume   496.83720365
_cell_formula_units_Z   1
loop_
 _symmetry_equiv_pos_site_id
 _symmetry_equiv_pos_as_xyz
  1  'x, y, z'
loop_
 _atom_site_type_symbol
 _atom_site_label
 _atom_site_symmetry_multiplicity
 _atom_site_fract_x
 _atom_site_fract_y
 _atom_site_fract_z
 _atom_site_occupancy
  Sc  Sc0  1  0.792540  0.285905  0.068455  1
  Sc  Sc1  1  0.217450  0.285905  0.493365  1
  Sc  Sc2  1  0.206163  0.706163  0.500000  1
  Sc  Sc3  1  0.217450  0.724085  0.931545  1
  Sc  Sc4  1  0.792540  0.724085  0.506635  1
  Sc  Sc5  1  0.775232  0.275232  0.500000  1
  Sc  Sc6  1  0.379107  0.119224  0.740118  1
  Sc  Sc7  1  0.379107  0.638988  0.259882  1
  Al  Al8  1  0.161924  0.335620  0.173694  1
  Al  Al9  1  0.161924  0.988230  0.826306  1
  Al  Al10  1  0.156128  0.341101  0.815027  1
  Al  Al11  1  0.526074  0.341101  0.184973  1
  Al  Al12  1  0.840531  0.657457  0.816926  1
  Al  Al13  1  0.840531  0.023604  0.183074  1
  Al  Al14  1  0.837703  0.659917  0.177788  1
  Al  Al15  1  0.482128  0.659917  0.822212  1
  Al  Al16  1  0.379747  0.122690  0.257058  1
  Al  Al17  1  0.865633  0.122690  0.742942  1
  Al  Al18  1  0.621338  0.874393  0.253055  1
  Al  Al19  1  0.621338  0.368284  0.746945  1
  Al  Al20  1  0.621090  0.877023  0.744066  1
  Al  Al21  1  0.132957  0.877023  0.255934  1
  Zn  Zn22  1  0.991252  0.491252  0.500000  1
  Ir  Ir23  1  0.994225  0.998124  0.497291  1
  Ir  Ir24  1  0.500834  0.998124  0.003900  1
  Ir  Ir25  1  0.501839  0.501839  0.000000  1
  Ir  Ir26  1  0.500834  0.496934  0.502709  1
  Ir  Ir27  1  0.994225  0.496934  0.996100  1
  Ir  Ir28  1  0.000043  0.000043  0.000000  1
  Ir  Ir29  1  0.508113  0.008113  0.500000  1
