# generated using pymatgen
data_Hf4Si3Ni4P
_symmetry_space_group_name_H-M   'P 1'
_cell_length_a   3.78385900
_cell_length_b   6.38164989
_cell_length_c   7.19924016
_cell_angle_alpha   90.28519738
_cell_angle_beta   90.00000000
_cell_angle_gamma   90.00000000
_symmetry_Int_Tables_number   1
_chemical_formula_structural   Hf4Si3Ni4P
_chemical_formula_sum   'Hf4 Si3 Ni4 P1'
_cell_volume   173.83979449
_cell_formula_units_Z   1
loop_
 _symmetry_equiv_pos_site_id
 _symmetry_equiv_pos_as_xyz
  1  'x, y, z'
loop_
 _atom_site_type_symbol
 _atom_site_label
 _atom_site_symmetry_multiplicity
 _atom_site_fract_x
 _atom_site_fract_y
 _atom_site_fract_z
 _atom_site_occupancy
  Hf  Hf0  1  0.250000  0.020225  0.316334  1
  Hf  Hf1  1  0.250000  0.519139  0.184362  1
  Hf  Hf2  1  0.750000  0.983856  0.687167  1
  Hf  Hf3  1  0.750000  0.480011  0.811338  1
  Si  Si4  1  0.250000  0.772346  0.885790  1
  Si  Si5  1  0.750000  0.729689  0.386279  1
  Si  Si6  1  0.750000  0.227147  0.112834  1
  Ni  Ni7  1  0.250000  0.143511  0.936689  1
  Ni  Ni8  1  0.250000  0.644231  0.563226  1
  Ni  Ni9  1  0.750000  0.854872  0.063308  1
  Ni  Ni10  1  0.750000  0.353268  0.437361  1
  P  P11  1  0.250000  0.271706  0.615312  1
