# generated using pymatgen
data_Y2SnAsP5Rh12
_symmetry_space_group_name_H-M   'P 1'
_cell_length_a   9.84663036
_cell_length_b   9.88692700
_cell_length_c   3.89606886
_cell_angle_alpha   89.22672952
_cell_angle_beta   90.83099379
_cell_angle_gamma   120.97199483
_symmetry_Int_Tables_number   1
_chemical_formula_structural   Y2SnAsP5Rh12
_chemical_formula_sum   'Y2 Sn1 As1 P5 Rh12'
_cell_volume   325.17131660
_cell_formula_units_Z   1
loop_
 _symmetry_equiv_pos_site_id
 _symmetry_equiv_pos_as_xyz
  1  'x, y, z'
loop_
 _atom_site_type_symbol
 _atom_site_label
 _atom_site_symmetry_multiplicity
 _atom_site_fract_x
 _atom_site_fract_y
 _atom_site_fract_z
 _atom_site_occupancy
  Y  Y0  1  0.335700  0.669000  0.756041  1
  Y  Y1  1  0.666801  0.331399  0.242099  1
  Sn  Sn2  1  0.002171  0.002629  0.516591  1
  As  As3  1  0.403577  0.286139  0.738759  1
  P  P4  1  0.712648  0.117617  0.748549  1
  P  P5  1  0.879754  0.593713  0.743464  1
  P  P6  1  0.598557  0.713431  0.258980  1
  P  P7  1  0.288536  0.877753  0.248518  1
  P  P8  1  0.118591  0.409972  0.258220  1
  Rh  Rh9  1  0.453027  0.057452  0.741308  1
  Rh  Rh10  1  0.928170  0.386909  0.747499  1
  Rh  Rh11  1  0.620456  0.557691  0.743441  1
  Rh  Rh12  1  0.548055  0.930086  0.256212  1
  Rh  Rh13  1  0.066868  0.612894  0.250271  1
  Rh  Rh14  1  0.383861  0.456203  0.251212  1
  Rh  Rh15  1  0.151767  0.292690  0.767430  1
  Rh  Rh16  1  0.715057  0.879476  0.770956  1
  Rh  Rh17  1  0.123816  0.834448  0.748650  1
  Rh  Rh18  1  0.846227  0.716695  0.234877  1
  Rh  Rh19  1  0.280039  0.108771  0.228855  1
  Rh  Rh20  1  0.876319  0.165032  0.248068  1
