# generated using pymatgen
data_TbY7(ScIr3)2
_symmetry_space_group_name_H-M   'P 1'
_cell_length_a   10.83475212
_cell_length_b   10.82760100
_cell_length_c   6.28420965
_cell_angle_alpha   90.00000000
_cell_angle_beta   89.94779124
_cell_angle_gamma   90.00000000
_symmetry_Int_Tables_number   1
_chemical_formula_structural   TbY7(ScIr3)2
_chemical_formula_sum   'Tb2 Y14 Sc4 Ir12'
_cell_volume   737.22780870
_cell_formula_units_Z   2
loop_
 _symmetry_equiv_pos_site_id
 _symmetry_equiv_pos_as_xyz
  1  'x, y, z'
loop_
 _atom_site_type_symbol
 _atom_site_label
 _atom_site_symmetry_multiplicity
 _atom_site_fract_x
 _atom_site_fract_y
 _atom_site_fract_z
 _atom_site_occupancy
  Tb  Tb0  1  0.287671  0.086515  0.378244  1
  Tb  Tb1  1  0.287671  0.913485  0.878244  1
  Y  Y2  1  0.712257  0.086150  0.878674  1
  Y  Y3  1  0.712257  0.913850  0.378674  1
  Y  Y4  1  0.586508  0.787502  0.878487  1
  Y  Y5  1  0.586508  0.212498  0.378487  1
  Y  Y6  1  0.414162  0.787187  0.378493  1
  Y  Y7  1  0.414162  0.212813  0.878493  1
  Y  Y8  1  0.212413  0.413950  0.621963  1
  Y  Y9  1  0.212413  0.586050  0.121963  1
  Y  Y10  1  0.787636  0.413807  0.121543  1
  Y  Y11  1  0.787636  0.586193  0.621543  1
  Y  Y12  1  0.913750  0.712431  0.121602  1
  Y  Y13  1  0.913750  0.287569  0.621602  1
  Y  Y14  1  0.086015  0.712351  0.620957  1
  Y  Y15  1  0.086015  0.287649  0.120957  1
  Sc  Sc16  1  0.999674  0.999756  0.499984  1
  Sc  Sc17  1  0.999674  0.000244  0.999984  1
  Sc  Sc18  1  0.500190  0.499903  0.000417  1
  Sc  Sc19  1  0.500190  0.500097  0.500417  1
  Ir  Ir20  1  0.853654  0.146484  0.250008  1
  Ir  Ir21  1  0.853654  0.853516  0.750008  1
  Ir  Ir22  1  0.146834  0.146232  0.749323  1
  Ir  Ir23  1  0.146834  0.853768  0.249323  1
  Ir  Ir24  1  0.646365  0.353544  0.750000  1
  Ir  Ir25  1  0.646365  0.646456  0.250000  1
  Ir  Ir26  1  0.353614  0.353383  0.250247  1
  Ir  Ir27  1  0.353614  0.646617  0.750247  1
  Ir  Ir28  1  0.499347  0.999967  0.124544  1
  Ir  Ir29  1  0.499347  0.000033  0.624544  1
  Ir  Ir30  1  0.999909  0.499990  0.875513  1
  Ir  Ir31  1  0.999909  0.500010  0.375513  1
