# generated using pymatgen
data_NdGd3(TcB4)4
_symmetry_space_group_name_H-M   'P 1'
_cell_length_a   3.63374800
_cell_length_b   6.01169555
_cell_length_c   11.63998048
_cell_angle_alpha   90.09370093
_cell_angle_beta   90.00000000
_cell_angle_gamma   90.00000000
_symmetry_Int_Tables_number   1
_chemical_formula_structural   NdGd3(TcB4)4
_chemical_formula_sum   'Nd1 Gd3 Tc4 B16'
_cell_volume   254.27487865
_cell_formula_units_Z   1
loop_
 _symmetry_equiv_pos_site_id
 _symmetry_equiv_pos_as_xyz
  1  'x, y, z'
loop_
 _atom_site_type_symbol
 _atom_site_label
 _atom_site_symmetry_multiplicity
 _atom_site_fract_x
 _atom_site_fract_y
 _atom_site_fract_z
 _atom_site_occupancy
  Nd  Nd0  1  0.000000  0.873543  0.849082  1
  Gd  Gd1  1  0.000000  0.626760  0.349628  1
  Gd  Gd2  1  0.000000  0.373525  0.649841  1
  Gd  Gd3  1  0.000000  0.126626  0.151016  1
  Tc  Tc4  1  0.000000  0.631610  0.088348  1
  Tc  Tc5  1  0.000000  0.367876  0.913698  1
  Tc  Tc6  1  0.000000  0.132727  0.412458  1
  Tc  Tc7  1  0.000000  0.867479  0.585669  1
  B  B8  1  0.500000  0.785993  0.185239  1
  B  B9  1  0.500000  0.217169  0.815056  1
  B  B10  1  0.500000  0.285754  0.315425  1
  B  B11  1  0.500000  0.713639  0.682792  1
  B  B12  1  0.500000  0.862297  0.033519  1
  B  B13  1  0.500000  0.138080  0.969508  1
  B  B14  1  0.500000  0.363258  0.467851  1
  B  B15  1  0.500000  0.636612  0.530839  1
  B  B16  1  0.500000  0.887184  0.452676  1
  B  B17  1  0.500000  0.113339  0.545797  1
  B  B18  1  0.500000  0.386411  0.047979  1
  B  B19  1  0.500000  0.610359  0.954841  1
  B  B20  1  0.500000  0.976552  0.308306  1
  B  B21  1  0.500000  0.025231  0.689580  1
  B  B22  1  0.500000  0.476315  0.192353  1
  B  B23  1  0.500000  0.521663  0.808501  1
