# generated using pymatgen
data_Pr6ErMoO12
_symmetry_space_group_name_H-M   'P 1'
_cell_length_a   6.96035777
_cell_length_b   6.96035782
_cell_length_c   6.96035752
_cell_angle_alpha   92.73832448
_cell_angle_beta   92.73832729
_cell_angle_gamma   92.73832847
_symmetry_Int_Tables_number   1
_chemical_formula_structural   Pr6ErMoO12
_chemical_formula_sum   'Pr6 Er1 Mo1 O12'
_cell_volume   336.01217651
_cell_formula_units_Z   1
loop_
 _symmetry_equiv_pos_site_id
 _symmetry_equiv_pos_as_xyz
  1  'x, y, z'
loop_
 _atom_site_type_symbol
 _atom_site_label
 _atom_site_symmetry_multiplicity
 _atom_site_fract_x
 _atom_site_fract_y
 _atom_site_fract_z
 _atom_site_occupancy
  Pr  Pr0  1  0.743429  0.930645  0.439330  1
  Pr  Pr1  1  0.439330  0.743429  0.930645  1
  Pr  Pr2  1  0.069355  0.560670  0.256571  1
  Pr  Pr3  1  0.930645  0.439330  0.743429  1
  Pr  Pr4  1  0.560670  0.256571  0.069355  1
  Pr  Pr5  1  0.256571  0.069355  0.560670  1
  Er  Er6  1  0.000000  0.000000  0.000000  1
  Mo  Mo7  1  0.500000  0.500000  0.500000  1
  O  O8  1  0.065228  0.912088  0.307604  1
  O  O9  1  0.692396  0.934772  0.087912  1
  O  O10  1  0.463747  0.801221  0.591549  1
  O  O11  1  0.087912  0.692396  0.934772  1
  O  O12  1  0.801221  0.591549  0.463747  1
  O  O13  1  0.408451  0.536253  0.198779  1
  O  O14  1  0.591549  0.463747  0.801221  1
  O  O15  1  0.198779  0.408451  0.536253  1
  O  O16  1  0.912088  0.307604  0.065228  1
  O  O17  1  0.536253  0.198779  0.408451  1
  O  O18  1  0.307604  0.065228  0.912088  1
  O  O19  1  0.934772  0.087912  0.692396  1
