# generated using pymatgen
data_TbDy(MnSb3)2
_symmetry_space_group_name_H-M   'P 1'
_cell_length_a   6.01845900
_cell_length_b   6.21088000
_cell_length_c   12.79549300
_cell_angle_alpha   90.00107239
_cell_angle_beta   90.00000000
_cell_angle_gamma   90.00000000
_symmetry_Int_Tables_number   1
_chemical_formula_structural   TbDy(MnSb3)2
_chemical_formula_sum   'Tb2 Dy2 Mn4 Sb12'
_cell_volume   478.29458954
_cell_formula_units_Z   2
loop_
 _symmetry_equiv_pos_site_id
 _symmetry_equiv_pos_as_xyz
  1  'x, y, z'
loop_
 _atom_site_type_symbol
 _atom_site_label
 _atom_site_symmetry_multiplicity
 _atom_site_fract_x
 _atom_site_fract_y
 _atom_site_fract_z
 _atom_site_occupancy
  Tb  Tb0  1  0.250000  0.504595  0.309088  1
  Tb  Tb1  1  0.750000  0.495405  0.690912  1
  Dy  Dy2  1  0.250000  0.004581  0.690923  1
  Dy  Dy3  1  0.750000  0.995419  0.309077  1
  Mn  Mn4  1  0.000012  0.750016  0.903996  1
  Mn  Mn5  1  0.999988  0.249984  0.096004  1
  Mn  Mn6  1  0.500012  0.249984  0.096004  1
  Mn  Mn7  1  0.499988  0.750016  0.903996  1
  Sb  Sb8  1  0.000008  0.750131  0.502676  1
  Sb  Sb9  1  0.999992  0.249869  0.497324  1
  Sb  Sb10  1  0.500008  0.249869  0.497324  1
  Sb  Sb11  1  0.499992  0.750131  0.502676  1
  Sb  Sb12  1  0.250000  0.602873  0.063615  1
  Sb  Sb13  1  0.750000  0.397127  0.936385  1
  Sb  Sb14  1  0.250000  0.102844  0.936345  1
  Sb  Sb15  1  0.750000  0.897156  0.063655  1
  Sb  Sb16  1  0.250000  0.999814  0.229150  1
  Sb  Sb17  1  0.750000  0.000186  0.770850  1
  Sb  Sb18  1  0.250000  0.499814  0.770863  1
  Sb  Sb19  1  0.750000  0.500186  0.229137  1
