# generated using pymatgen
data_Y2Ga(Co2Si)3
_symmetry_space_group_name_H-M   'P 1'
_cell_length_a   6.33811830
_cell_length_b   6.33602207
_cell_length_c   6.33811772
_cell_angle_alpha   130.64144575
_cell_angle_beta   112.99961073
_cell_angle_gamma   87.60166633
_symmetry_Int_Tables_number   1
_chemical_formula_structural   Y2Ga(Co2Si)3
_chemical_formula_sum   'Y2 Ga1 Co6 Si3'
_cell_volume   169.34500533
_cell_formula_units_Z   1
loop_
 _symmetry_equiv_pos_site_id
 _symmetry_equiv_pos_as_xyz
  1  'x, y, z'
loop_
 _atom_site_type_symbol
 _atom_site_label
 _atom_site_symmetry_multiplicity
 _atom_site_fract_x
 _atom_site_fract_y
 _atom_site_fract_z
 _atom_site_occupancy
  Y  Y0  1  0.251240  0.533638  0.282398  1
  Y  Y1  1  0.749439  0.476755  0.727315  1
  Ga  Ga2  1  0.089694  0.875393  0.785699  1
  Co  Co3  1  0.719175  0.003292  0.723720  1
  Co  Co4  1  0.232845  0.493439  0.731802  1
  Co  Co5  1  0.279572  0.003292  0.284116  1
  Co  Co6  1  0.761637  0.493439  0.260594  1
  Co  Co7  1  0.981236  0.001868  0.478228  1
  Co  Co8  1  0.523640  0.001868  0.020633  1
  Si  Si9  1  0.930440  0.140926  0.210486  1
  Si  Si10  1  0.574087  0.783415  0.209329  1
  Si  Si11  1  0.406994  0.192676  0.785682  1
