# generated using pymatgen
data_NdThZn5Ge
_symmetry_space_group_name_H-M   'P 1'
_cell_length_a   8.36503305
_cell_length_b   8.36503258
_cell_length_c   8.94900400
_cell_angle_alpha   90.00000000
_cell_angle_beta   90.00000000
_cell_angle_gamma   149.21182004
_symmetry_Int_Tables_number   1
_chemical_formula_structural   NdThZn5Ge
_chemical_formula_sum   'Nd2 Th2 Zn10 Ge2'
_cell_volume   320.52801033
_cell_formula_units_Z   2
loop_
 _symmetry_equiv_pos_site_id
 _symmetry_equiv_pos_as_xyz
  1  'x, y, z'
loop_
 _atom_site_type_symbol
 _atom_site_label
 _atom_site_symmetry_multiplicity
 _atom_site_fract_x
 _atom_site_fract_y
 _atom_site_fract_z
 _atom_site_occupancy
  Nd  Nd0  1  0.000000  0.000000  0.500000  1
  Nd  Nd1  1  0.000000  0.000000  0.000000  1
  Th  Th2  1  0.201098  0.798902  0.250000  1
  Th  Th3  1  0.798902  0.201098  0.750000  1
  Zn  Zn4  1  0.814892  0.185108  0.392100  1
  Zn  Zn5  1  0.185108  0.814892  0.607900  1
  Zn  Zn6  1  0.814892  0.185108  0.107900  1
  Zn  Zn7  1  0.185108  0.814892  0.892100  1
  Zn  Zn8  1  0.652800  0.347200  0.479149  1
  Zn  Zn9  1  0.347200  0.652800  0.520851  1
  Zn  Zn10  1  0.652800  0.347200  0.020851  1
  Zn  Zn11  1  0.347200  0.652800  0.979149  1
  Zn  Zn12  1  0.401269  0.598731  0.250000  1
  Zn  Zn13  1  0.598731  0.401269  0.750000  1
  Ge  Ge14  1  0.556611  0.443389  0.250000  1
  Ge  Ge15  1  0.443389  0.556611  0.750000  1
