# generated using pymatgen
data_Ce5Er3Ti12Si15Pb
_symmetry_space_group_name_H-M   'P 1'
_cell_length_a   7.14412238
_cell_length_b   7.10204423
_cell_length_c   13.13566438
_cell_angle_alpha   89.92283203
_cell_angle_beta   89.58507912
_cell_angle_gamma   90.25454025
_symmetry_Int_Tables_number   1
_chemical_formula_structural   Ce5Er3Ti12Si15Pb
_chemical_formula_sum   'Ce5 Er3 Ti12 Si15 Pb1'
_cell_volume   666.45098610
_cell_formula_units_Z   1
loop_
 _symmetry_equiv_pos_site_id
 _symmetry_equiv_pos_as_xyz
  1  'x, y, z'
loop_
 _atom_site_type_symbol
 _atom_site_label
 _atom_site_symmetry_multiplicity
 _atom_site_fract_x
 _atom_site_fract_y
 _atom_site_fract_z
 _atom_site_occupancy
  Ce  Ce0  1  0.343362  0.999142  0.459415  1
  Ce  Ce1  1  0.498976  0.827496  0.718464  1
  Ce  Ce2  1  0.509087  0.164882  0.217534  1
  Ce  Ce3  1  0.836095  0.491408  0.280925  1
  Ce  Ce4  1  0.167233  0.519185  0.786745  1
  Er  Er5  1  0.661348  0.998910  0.970425  1
  Er  Er6  1  0.989442  0.349573  0.524543  1
  Er  Er7  1  0.002041  0.659219  0.033033  1
  Ti  Ti8  1  0.326401  0.327077  0.001643  1
  Ti  Ti9  1  0.174732  0.826168  0.250102  1
  Ti  Ti10  1  0.811719  0.175380  0.753625  1
  Ti  Ti11  1  0.670875  0.674631  0.499630  1
  Ti  Ti12  1  0.153437  0.009441  0.886535  1
  Ti  Ti13  1  0.496651  0.654003  0.126092  1
  Ti  Ti14  1  0.516327  0.348510  0.627031  1
  Ti  Ti15  1  0.658282  0.496673  0.876283  1
  Ti  Ti16  1  0.342319  0.506542  0.371739  1
  Ti  Ti17  1  0.843833  0.990531  0.375499  1
  Ti  Ti18  1  0.010069  0.153788  0.122351  1
  Ti  Ti19  1  0.978023  0.827611  0.617501  1
  Si  Si20  1  0.374949  0.703977  0.940566  1
  Si  Si21  1  0.626463  0.300718  0.436777  1
  Si  Si22  1  0.703928  0.372308  0.063429  1
  Si  Si23  1  0.296252  0.624841  0.562017  1
  Si  Si24  1  0.801165  0.869588  0.183094  1
  Si  Si25  1  0.126945  0.201523  0.313049  1
  Si  Si26  1  0.869783  0.803724  0.817398  1
  Si  Si27  1  0.294031  0.953003  0.068536  1
  Si  Si28  1  0.549557  0.785912  0.312269  1
  Si  Si29  1  0.462966  0.210903  0.822452  1
  Si  Si30  1  0.795472  0.539785  0.686801  1
  Si  Si31  1  0.210076  0.456714  0.184073  1
  Si  Si32  1  0.708193  0.046964  0.566117  1
  Si  Si33  1  0.953413  0.293210  0.934465  1
  Si  Si34  1  0.045437  0.709060  0.431486  1
  Pb  Pb35  1  0.191113  0.127597  0.678360  1
