# generated using pymatgen
data_Pr3TmTh4(ZnRh)8
_symmetry_space_group_name_H-M   'P 1'
_cell_length_a   3.98169100
_cell_length_b   7.40119067
_cell_length_c   16.60081878
_cell_angle_alpha   90.53219837
_cell_angle_beta   90.00000000
_cell_angle_gamma   90.00000000
_symmetry_Int_Tables_number   1
_chemical_formula_structural   Pr3TmTh4(ZnRh)8
_chemical_formula_sum   'Pr3 Tm1 Th4 Zn8 Rh8'
_cell_volume   489.19264581
_cell_formula_units_Z   1
loop_
 _symmetry_equiv_pos_site_id
 _symmetry_equiv_pos_as_xyz
  1  'x, y, z'
loop_
 _atom_site_type_symbol
 _atom_site_label
 _atom_site_symmetry_multiplicity
 _atom_site_fract_x
 _atom_site_fract_y
 _atom_site_fract_z
 _atom_site_occupancy
  Pr  Pr0  1  0.250000  0.557029  0.786780  1
  Pr  Pr1  1  0.750000  0.330622  0.440912  1
  Pr  Pr2  1  0.250000  0.678316  0.561212  1
  Tm  Tm3  1  0.250000  0.167204  0.940075  1
  Th  Th4  1  0.750000  0.437522  0.212303  1
  Th  Th5  1  0.750000  0.942680  0.285019  1
  Th  Th6  1  0.750000  0.825208  0.056966  1
  Th  Th7  1  0.250000  0.060239  0.717678  1
  Zn  Zn8  1  0.250000  0.003689  0.441953  1
  Zn  Zn9  1  0.750000  0.485869  0.940124  1
  Zn  Zn10  1  0.750000  0.006696  0.558852  1
  Zn  Zn11  1  0.250000  0.612687  0.348686  1
  Zn  Zn12  1  0.750000  0.390410  0.653814  1
  Zn  Zn13  1  0.750000  0.889835  0.853618  1
  Zn  Zn14  1  0.250000  0.486177  0.055653  1
  Zn  Zn15  1  0.250000  0.112453  0.148738  1
  Rh  Rh16  1  0.250000  0.247379  0.571106  1
  Rh  Rh17  1  0.750000  0.243589  0.063485  1
  Rh  Rh18  1  0.250000  0.238471  0.306793  1
  Rh  Rh19  1  0.750000  0.246580  0.813792  1
  Rh  Rh20  1  0.250000  0.754268  0.941401  1
  Rh  Rh21  1  0.750000  0.782211  0.689610  1
  Rh  Rh22  1  0.750000  0.765893  0.427561  1
  Rh  Rh23  1  0.250000  0.734975  0.183869  1
