# generated using pymatgen
data_PrZr2Ti6(In2Co)7
_symmetry_space_group_name_H-M   'P 1'
_cell_length_a   9.32957665
_cell_length_b   9.31979424
_cell_length_c   9.31979388
_cell_angle_alpha   59.87472427
_cell_angle_beta   59.96526291
_cell_angle_gamma   59.96527056
_symmetry_Int_Tables_number   1
_chemical_formula_structural   PrZr2Ti6(In2Co)7
_chemical_formula_sum   'Pr1 Zr2 Ti6 In14 Co7'
_cell_volume   572.16190141
_cell_formula_units_Z   1
loop_
 _symmetry_equiv_pos_site_id
 _symmetry_equiv_pos_as_xyz
  1  'x, y, z'
loop_
 _atom_site_type_symbol
 _atom_site_label
 _atom_site_symmetry_multiplicity
 _atom_site_fract_x
 _atom_site_fract_y
 _atom_site_fract_z
 _atom_site_occupancy
  Pr  Pr0  1  0.500000  0.498143  0.501857  1
  Zr  Zr1  1  0.877286  0.364222  0.881203  1
  Zr  Zr2  1  0.122714  0.118797  0.635778  1
  Ti  Ti3  1  0.115809  0.652876  0.115507  1
  Ti  Ti4  1  0.347652  0.882466  0.887161  1
  Ti  Ti5  1  0.882719  0.882466  0.887161  1
  Ti  Ti6  1  0.652348  0.112839  0.117534  1
  Ti  Ti7  1  0.884191  0.884493  0.347124  1
  Ti  Ti8  1  0.117281  0.112839  0.117534  1
  In  In9  1  0.500000  0.847135  0.152865  1
  In  In10  1  0.503400  0.845509  0.500370  1
  In  In11  1  0.503624  0.148060  0.501602  1
  In  In12  1  0.496376  0.498398  0.851940  1
  In  In13  1  0.152194  0.502648  0.497352  1
  In  In14  1  0.846714  0.148060  0.501602  1
  In  In15  1  0.150722  0.845509  0.500370  1
  In  In16  1  0.500000  0.149460  0.850540  1
  In  In17  1  0.153286  0.498398  0.851940  1
  In  In18  1  0.496600  0.499630  0.154491  1
  In  In19  1  0.847806  0.502648  0.497352  1
  In  In20  1  0.849278  0.499630  0.154491  1
  In  In21  1  0.255387  0.256029  0.233196  1
  In  In22  1  0.744613  0.766804  0.743971  1
  Co  Co23  1  0.787325  0.789029  0.210971  1
  Co  Co24  1  0.000000  0.995702  0.004298  1
  Co  Co25  1  0.212675  0.789029  0.210971  1
  Co  Co26  1  0.213404  0.781590  0.791602  1
  Co  Co27  1  0.219680  0.209596  0.790404  1
  Co  Co28  1  0.780320  0.209596  0.790404  1
  Co  Co29  1  0.786596  0.208398  0.218410  1
