# generated using pymatgen
data_Eu2Cu7P4Pd
_symmetry_space_group_name_H-M   'P 1'
_cell_length_a   7.40622184
_cell_length_b   7.43968291
_cell_length_c   3.83826000
_cell_angle_alpha   90.00000000
_cell_angle_beta   90.00000000
_cell_angle_gamma   90.04748192
_symmetry_Int_Tables_number   1
_chemical_formula_structural   Eu2Cu7P4Pd
_chemical_formula_sum   'Eu2 Cu7 P4 Pd1'
_cell_volume   211.48783108
_cell_formula_units_Z   1
loop_
 _symmetry_equiv_pos_site_id
 _symmetry_equiv_pos_as_xyz
  1  'x, y, z'
loop_
 _atom_site_type_symbol
 _atom_site_label
 _atom_site_symmetry_multiplicity
 _atom_site_fract_x
 _atom_site_fract_y
 _atom_site_fract_z
 _atom_site_occupancy
  Eu  Eu0  1  0.997116  0.999927  0.000000  1
  Eu  Eu1  1  0.499257  0.499975  0.500000  1
  Cu  Cu2  1  0.160941  0.584294  0.000000  1
  Cu  Cu3  1  0.408743  0.839251  0.000000  1
  Cu  Cu4  1  0.923315  0.654788  0.500000  1
  Cu  Cu5  1  0.838970  0.416101  0.000000  1
  Cu  Cu6  1  0.584249  0.165413  0.000000  1
  Cu  Cu7  1  0.085096  0.336727  0.500000  1
  Cu  Cu8  1  0.331924  0.086590  0.500000  1
  P  P9  1  0.281653  0.283826  0.000000  1
  P  P10  1  0.722671  0.710978  0.000000  1
  P  P11  1  0.784329  0.226252  0.500000  1
  P  P12  1  0.221407  0.784252  0.500000  1
  Pd  Pd13  1  0.660330  0.911626  0.500000  1
