# generated using pymatgen
data_Tb2Tm8Si5P
_symmetry_space_group_name_H-M   'P 1'
_cell_length_a   8.31620044
_cell_length_b   8.33560591
_cell_length_c   6.21379300
_cell_angle_alpha   90.00000000
_cell_angle_beta   90.00000000
_cell_angle_gamma   120.02719371
_symmetry_Int_Tables_number   1
_chemical_formula_structural   Tb2Tm8Si5P
_chemical_formula_sum   'Tb2 Tm8 Si5 P1'
_cell_volume   372.93269902
_cell_formula_units_Z   1
loop_
 _symmetry_equiv_pos_site_id
 _symmetry_equiv_pos_as_xyz
  1  'x, y, z'
loop_
 _atom_site_type_symbol
 _atom_site_label
 _atom_site_symmetry_multiplicity
 _atom_site_fract_x
 _atom_site_fract_y
 _atom_site_fract_z
 _atom_site_occupancy
  Tb  Tb0  1  0.754904  0.000039  0.750000  1
  Tb  Tb1  1  0.243554  0.242854  0.750000  1
  Tm  Tm2  1  0.000759  0.756173  0.750000  1
  Tm  Tm3  1  0.001119  0.245040  0.250000  1
  Tm  Tm4  1  0.757570  0.755957  0.250000  1
  Tm  Tm5  1  0.243115  0.999487  0.250000  1
  Tm  Tm6  1  0.333513  0.667541  0.500152  1
  Tm  Tm7  1  0.666643  0.332892  0.999931  1
  Tm  Tm8  1  0.666643  0.332892  0.500069  1
  Tm  Tm9  1  0.333513  0.667541  0.999848  1
  Si  Si10  1  0.394349  0.393484  0.250000  1
  Si  Si11  1  0.000765  0.606162  0.250000  1
  Si  Si12  1  0.000184  0.396466  0.750000  1
  Si  Si13  1  0.607213  0.605649  0.750000  1
  Si  Si14  1  0.607267  0.999867  0.250000  1
  P  P15  1  0.388890  0.997956  0.750000  1
