# generated using pymatgen
data_DyHo9(SiPb3)2
_symmetry_space_group_name_H-M   'P 1'
_cell_length_a   9.30334502
_cell_length_b   9.30334511
_cell_length_c   6.50415900
_cell_angle_alpha   90.00000000
_cell_angle_beta   90.00000000
_cell_angle_gamma   119.99226705
_symmetry_Int_Tables_number   1
_chemical_formula_structural   DyHo9(SiPb3)2
_chemical_formula_sum   'Dy1 Ho9 Si2 Pb6'
_cell_volume   487.56651983
_cell_formula_units_Z   1
loop_
 _symmetry_equiv_pos_site_id
 _symmetry_equiv_pos_as_xyz
  1  'x, y, z'
loop_
 _atom_site_type_symbol
 _atom_site_label
 _atom_site_symmetry_multiplicity
 _atom_site_fract_x
 _atom_site_fract_y
 _atom_site_fract_z
 _atom_site_occupancy
  Dy  Dy0  1  0.751177  0.751177  0.250000  1
  Ho  Ho1  1  0.248438  0.999964  0.250000  1
  Ho  Ho2  1  0.000028  0.751471  0.750000  1
  Ho  Ho3  1  0.999964  0.248438  0.250000  1
  Ho  Ho4  1  0.333297  0.666666  0.499925  1
  Ho  Ho5  1  0.751471  0.000028  0.750000  1
  Ho  Ho6  1  0.666666  0.333297  0.499925  1
  Ho  Ho7  1  0.248514  0.248514  0.750000  1
  Ho  Ho8  1  0.333297  0.666666  0.000075  1
  Ho  Ho9  1  0.666666  0.333297  0.000075  1
  Si  Si10  1  0.000225  0.000225  0.999773  1
  Si  Si11  1  0.000225  0.000225  0.500227  1
  Pb  Pb12  1  0.607226  0.000118  0.250000  1
  Pb  Pb13  1  0.392862  0.000030  0.750000  1
  Pb  Pb14  1  0.000118  0.607226  0.250000  1
  Pb  Pb15  1  0.607138  0.607138  0.750000  1
  Pb  Pb16  1  0.392659  0.392659  0.250000  1
  Pb  Pb17  1  0.000030  0.392862  0.750000  1
