# generated using pymatgen
data_Ti2Nb4Re5Si6Mo
_symmetry_space_group_name_H-M   'P 1'
_cell_length_a   7.61121310
_cell_length_b   7.61153834
_cell_length_c   7.61153820
_cell_angle_alpha   126.11545304
_cell_angle_beta   128.53240609
_cell_angle_gamma   77.73966887
_symmetry_Int_Tables_number   1
_chemical_formula_structural   Ti2Nb4Re5Si6Mo
_chemical_formula_sum   'Ti2 Nb4 Re5 Si6 Mo1'
_cell_volume   270.16291037
_cell_formula_units_Z   1
loop_
 _symmetry_equiv_pos_site_id
 _symmetry_equiv_pos_as_xyz
  1  'x, y, z'
loop_
 _atom_site_type_symbol
 _atom_site_label
 _atom_site_symmetry_multiplicity
 _atom_site_fract_x
 _atom_site_fract_y
 _atom_site_fract_z
 _atom_site_occupancy
  Ti  Ti0  1  0.553802  0.098768  0.044455  1
  Ti  Ti1  1  0.446198  0.490653  0.544966  1
  Nb  Nb2  1  0.949694  0.493817  0.041646  1
  Nb  Nb3  1  0.050306  0.091951  0.544123  1
  Nb  Nb4  1  0.754274  0.906296  0.650522  1
  Nb  Nb5  1  0.245726  0.896247  0.152021  1
  Re  Re6  1  0.000000  0.241423  0.241423  1
  Re  Re7  1  0.133879  0.755016  0.630659  1
  Re  Re8  1  0.866121  0.496779  0.621136  1
  Re  Re9  1  0.624547  0.756221  0.121128  1
  Re  Re10  1  0.375453  0.496582  0.131674  1
  Si  Si11  1  0.751830  0.501084  0.248359  1
  Si  Si12  1  0.248170  0.496529  0.749253  1
  Si  Si13  1  0.339789  0.825027  0.503544  1
  Si  Si14  1  0.660211  0.163755  0.485238  1
  Si  Si15  1  0.822739  0.828149  0.987337  1
  Si  Si16  1  0.177261  0.164598  0.005410  1
  Mo  Mo17  1  0.500000  0.239305  0.739305  1
