# generated using pymatgen
data_TbY3(HoAu)4
_symmetry_space_group_name_H-M   'P 1'
_cell_length_a   4.93667800
_cell_length_b   7.16599000
_cell_length_c   8.95777579
_cell_angle_alpha   89.92358283
_cell_angle_beta   90.00000000
_cell_angle_gamma   90.00000000
_symmetry_Int_Tables_number   1
_chemical_formula_structural   TbY3(HoAu)4
_chemical_formula_sum   'Tb1 Y3 Ho4 Au4'
_cell_volume   316.89165303
_cell_formula_units_Z   1
loop_
 _symmetry_equiv_pos_site_id
 _symmetry_equiv_pos_as_xyz
  1  'x, y, z'
loop_
 _atom_site_type_symbol
 _atom_site_label
 _atom_site_symmetry_multiplicity
 _atom_site_fract_x
 _atom_site_fract_y
 _atom_site_fract_z
 _atom_site_occupancy
  Tb  Tb0  1  0.750000  0.013275  0.676036  1
  Y  Y1  1  0.250000  0.486522  0.176659  1
  Y  Y2  1  0.750000  0.513952  0.823298  1
  Y  Y3  1  0.250000  0.986207  0.322751  1
  Ho  Ho4  1  0.750000  0.648412  0.420259  1
  Ho  Ho5  1  0.250000  0.351365  0.580245  1
  Ho  Ho6  1  0.750000  0.148323  0.080028  1
  Ho  Ho7  1  0.250000  0.852021  0.919853  1
  Au  Au8  1  0.250000  0.254512  0.900002  1
  Au  Au9  1  0.750000  0.745386  0.100293  1
  Au  Au10  1  0.250000  0.754662  0.600298  1
  Au  Au11  1  0.750000  0.245364  0.400276  1
