# generated using pymatgen
data_Zr6Ta3Nb(Pt3O)2
_symmetry_space_group_name_H-M   'P 1'
_cell_length_a   8.18846000
_cell_length_b   8.18846054
_cell_length_c   5.24313500
_cell_angle_alpha   90.00000000
_cell_angle_beta   90.00000000
_cell_angle_gamma   119.99999782
_symmetry_Int_Tables_number   1
_chemical_formula_structural   Zr6Ta3Nb(Pt3O)2
_chemical_formula_sum   'Zr6 Ta3 Nb1 Pt6 O2'
_cell_volume   304.45714714
_cell_formula_units_Z   1
loop_
 _symmetry_equiv_pos_site_id
 _symmetry_equiv_pos_as_xyz
  1  'x, y, z'
loop_
 _atom_site_type_symbol
 _atom_site_label
 _atom_site_symmetry_multiplicity
 _atom_site_fract_x
 _atom_site_fract_y
 _atom_site_fract_z
 _atom_site_occupancy
  Zr  Zr0  1  0.240529  0.240764  0.749922  1
  Zr  Zr1  1  0.240529  0.999765  0.250078  1
  Zr  Zr2  1  0.759236  0.999765  0.749922  1
  Zr  Zr3  1  0.000235  0.759471  0.749922  1
  Zr  Zr4  1  0.000235  0.240764  0.250078  1
  Zr  Zr5  1  0.759236  0.759471  0.250078  1
  Ta  Ta6  1  0.333333  0.666667  0.500000  1
  Ta  Ta7  1  0.333333  0.666667  0.000000  1
  Ta  Ta8  1  0.666667  0.333333  0.500000  1
  Nb  Nb9  1  0.666667  0.333333  0.000000  1
  Pt  Pt10  1  0.001325  0.406496  0.748954  1
  Pt  Pt11  1  0.001325  0.594829  0.251046  1
  Pt  Pt12  1  0.405171  0.406496  0.251046  1
  Pt  Pt13  1  0.405171  0.998675  0.748954  1
  Pt  Pt14  1  0.593504  0.594829  0.748954  1
  Pt  Pt15  1  0.593504  0.998675  0.251046  1
  O  O16  1  0.000000  0.000000  0.500000  1
  O  O17  1  0.000000  0.000000  0.000000  1
