# generated using pymatgen
data_Y7Ho13Sn16
_symmetry_space_group_name_H-M   'P 1'
_cell_length_a   8.03560642
_cell_length_b   8.18180220
_cell_length_c   15.41744545
_cell_angle_alpha   90.00219218
_cell_angle_beta   90.02747434
_cell_angle_gamma   89.97503552
_symmetry_Int_Tables_number   1
_chemical_formula_structural   Y7Ho13Sn16
_chemical_formula_sum   'Y7 Ho13 Sn16'
_cell_volume   1013.63118117
_cell_formula_units_Z   1
loop_
 _symmetry_equiv_pos_site_id
 _symmetry_equiv_pos_as_xyz
  1  'x, y, z'
loop_
 _atom_site_type_symbol
 _atom_site_label
 _atom_site_symmetry_multiplicity
 _atom_site_fract_x
 _atom_site_fract_y
 _atom_site_fract_z
 _atom_site_occupancy
  Y  Y0  1  0.022462  0.179266  0.597949  1
  Y  Y1  1  0.477528  0.679246  0.402119  1
  Y  Y2  1  0.977507  0.820781  0.097900  1
  Y  Y3  1  0.477472  0.679171  0.097877  1
  Y  Y4  1  0.977510  0.820745  0.402125  1
  Y  Y5  1  0.522475  0.320792  0.597890  1
  Y  Y6  1  0.022514  0.179284  0.902096  1
  Ho  Ho7  1  0.367450  0.836285  0.877811  1
  Ho  Ho8  1  0.867392  0.663733  0.622241  1
  Ho  Ho9  1  0.632567  0.163770  0.377841  1
  Ho  Ho10  1  0.132464  0.336218  0.122167  1
  Ho  Ho11  1  0.632430  0.163902  0.122040  1
  Ho  Ho12  1  0.132577  0.336238  0.377830  1
  Ho  Ho13  1  0.367452  0.836249  0.622246  1
  Ho  Ho14  1  0.867391  0.663697  0.877824  1
  Ho  Ho15  1  0.522538  0.320708  0.901940  1
  Ho  Ho16  1  0.198660  0.503201  0.750092  1
  Ho  Ho17  1  0.698398  0.996860  0.750104  1
  Ho  Ho18  1  0.801480  0.496677  0.249994  1
  Ho  Ho19  1  0.301493  0.003298  0.249994  1
  Sn  Sn20  1  0.292641  0.035129  0.041826  1
  Sn  Sn21  1  0.792628  0.464915  0.458149  1
  Sn  Sn22  1  0.707368  0.964933  0.541912  1
  Sn  Sn23  1  0.207920  0.534651  0.958045  1
  Sn  Sn24  1  0.707265  0.965254  0.958053  1
  Sn  Sn25  1  0.207366  0.535087  0.541912  1
  Sn  Sn26  1  0.292622  0.035055  0.458149  1
  Sn  Sn27  1  0.792351  0.464798  0.041674  1
  Sn  Sn28  1  0.564821  0.620197  0.750036  1
  Sn  Sn29  1  0.064806  0.879758  0.750014  1
  Sn  Sn30  1  0.435113  0.379872  0.250004  1
  Sn  Sn31  1  0.935112  0.120150  0.250010  1
  Sn  Sn32  1  0.330412  0.147281  0.750097  1
  Sn  Sn33  1  0.830162  0.352800  0.750027  1
  Sn  Sn34  1  0.669826  0.852867  0.250004  1
  Sn  Sn35  1  0.169826  0.647135  0.250010  1
