# generated using pymatgen
data_NaLu3Sc4(B6Ir)4
_symmetry_space_group_name_H-M   'P 1'
_cell_length_a   3.52154200
_cell_length_b   8.95209229
_cell_length_c   11.31218913
_cell_angle_alpha   89.90188325
_cell_angle_beta   90.00000000
_cell_angle_gamma   90.00000000
_symmetry_Int_Tables_number   1
_chemical_formula_structural   NaLu3Sc4(B6Ir)4
_chemical_formula_sum   'Na1 Lu3 Sc4 B24 Ir4'
_cell_volume   356.61815123
_cell_formula_units_Z   1
loop_
 _symmetry_equiv_pos_site_id
 _symmetry_equiv_pos_as_xyz
  1  'x, y, z'
loop_
 _atom_site_type_symbol
 _atom_site_label
 _atom_site_symmetry_multiplicity
 _atom_site_fract_x
 _atom_site_fract_y
 _atom_site_fract_z
 _atom_site_occupancy
  Na  Na0  1  0.500000  0.319176  0.414083  1
  Lu  Lu1  1  0.500000  0.679961  0.586568  1
  Lu  Lu2  1  0.500000  0.181549  0.913143  1
  Lu  Lu3  1  0.500000  0.818959  0.086802  1
  Sc  Sc4  1  0.500000  0.444212  0.125010  1
  Sc  Sc5  1  0.500000  0.554425  0.875723  1
  Sc  Sc6  1  0.500000  0.056784  0.622842  1
  Sc  Sc7  1  0.500000  0.947678  0.376120  1
  B  B8  1  0.000000  0.099270  0.473038  1
  B  B9  1  0.000000  0.898520  0.527393  1
  B  B10  1  0.000000  0.397921  0.972558  1
  B  B11  1  0.000000  0.601726  0.027819  1
  B  B12  1  0.000000  0.130104  0.318422  1
  B  B13  1  0.000000  0.869607  0.680948  1
  B  B14  1  0.000000  0.370154  0.818835  1
  B  B15  1  0.000000  0.630159  0.182280  1
  B  B16  1  0.000000  0.053565  0.065171  1
  B  B17  1  0.000000  0.946165  0.934325  1
  B  B18  1  0.000000  0.445481  0.565901  1
  B  B19  1  0.000000  0.553881  0.434135  1
  B  B20  1  0.000000  0.480845  0.286362  1
  B  B21  1  0.000000  0.519330  0.714057  1
  B  B22  1  0.000000  0.019614  0.785119  1
  B  B23  1  0.000000  0.981294  0.213817  1
  B  B24  1  0.000000  0.253303  0.079801  1
  B  B25  1  0.000000  0.746078  0.920700  1
  B  B26  1  0.000000  0.246319  0.579062  1
  B  B27  1  0.000000  0.753364  0.420435  1
  B  B28  1  0.000000  0.293820  0.235242  1
  B  B29  1  0.000000  0.705175  0.763797  1
  B  B30  1  0.000000  0.205552  0.735508  1
  B  B31  1  0.000000  0.795445  0.264740  1
  Ir  Ir32  1  0.500000  0.139170  0.179027  1
  Ir  Ir33  1  0.500000  0.860515  0.820563  1
  Ir  Ir34  1  0.500000  0.359978  0.681404  1
  Ir  Ir35  1  0.500000  0.640899  0.319248  1
