# generated using pymatgen
data_Y2Tm2Fe13Co
_symmetry_space_group_name_H-M   'P 1'
_cell_length_a   5.05640616
_cell_length_b   5.05640667
_cell_length_c   12.30440482
_cell_angle_alpha   78.14290573
_cell_angle_beta   78.14290332
_cell_angle_gamma   60.00000328
_symmetry_Int_Tables_number   1
_chemical_formula_structural   Y2Tm2Fe13Co
_chemical_formula_sum   'Y2 Tm2 Fe13 Co1'
_cell_volume   264.66357690
_cell_formula_units_Z   1
loop_
 _symmetry_equiv_pos_site_id
 _symmetry_equiv_pos_as_xyz
  1  'x, y, z'
loop_
 _atom_site_type_symbol
 _atom_site_label
 _atom_site_symmetry_multiplicity
 _atom_site_fract_x
 _atom_site_fract_y
 _atom_site_fract_z
 _atom_site_occupancy
  Y  Y0  1  0.947434  0.947434  0.157696  1
  Y  Y1  1  0.052566  0.052566  0.842304  1
  Tm  Tm2  1  0.850275  0.850275  0.449173  1
  Tm  Tm3  1  0.149725  0.149725  0.550827  1
  Fe  Fe4  1  0.721198  0.721198  0.836406  1
  Fe  Fe5  1  0.278802  0.278802  0.163594  1
  Fe  Fe6  1  0.612433  0.612433  0.162700  1
  Fe  Fe7  1  0.387567  0.387567  0.837300  1
  Fe  Fe8  1  0.000000  0.500000  0.000000  1
  Fe  Fe9  1  0.500000  0.000000  0.000000  1
  Fe  Fe10  1  0.500000  0.500000  0.000000  1
  Fe  Fe11  1  0.389680  0.389680  0.329136  1
  Fe  Fe12  1  0.891504  0.389680  0.329136  1
  Fe  Fe13  1  0.389680  0.891504  0.329136  1
  Fe  Fe14  1  0.610320  0.610320  0.670864  1
  Fe  Fe15  1  0.108496  0.610320  0.670864  1
  Fe  Fe16  1  0.610320  0.108496  0.670864  1
  Co  Co17  1  0.500000  0.500000  0.500000  1
