# generated using pymatgen
data_Er6Th2MgZnCo2
_symmetry_space_group_name_H-M   'P 1'
_cell_length_a   9.46891801
_cell_length_b   9.46891875
_cell_length_c   9.48036600
_cell_angle_alpha   59.96000087
_cell_angle_beta   59.95999830
_cell_angle_gamma   60.15294383
_symmetry_Int_Tables_number   1
_chemical_formula_structural   Er6Th2MgZnCo2
_chemical_formula_sum   'Er12 Th4 Mg2 Zn2 Co4'
_cell_volume   601.37708605
_cell_formula_units_Z   2
loop_
 _symmetry_equiv_pos_site_id
 _symmetry_equiv_pos_as_xyz
  1  'x, y, z'
loop_
 _atom_site_type_symbol
 _atom_site_label
 _atom_site_symmetry_multiplicity
 _atom_site_fract_x
 _atom_site_fract_y
 _atom_site_fract_z
 _atom_site_occupancy
  Er  Er0  1  0.062804  0.436745  0.437100  1
  Er  Er1  1  0.436745  0.062804  0.063351  1
  Er  Er2  1  0.436745  0.062804  0.437100  1
  Er  Er3  1  0.062804  0.436745  0.063351  1
  Er  Er4  1  0.436717  0.436717  0.063283  1
  Er  Er5  1  0.061261  0.061261  0.438739  1
  Er  Er6  1  0.182126  0.814043  0.815434  1
  Er  Er7  1  0.814043  0.182126  0.188397  1
  Er  Er8  1  0.814043  0.182126  0.815434  1
  Er  Er9  1  0.182126  0.814043  0.188397  1
  Er  Er10  1  0.814670  0.814670  0.185330  1
  Er  Er11  1  0.185726  0.185726  0.814274  1
  Th  Th12  1  0.596485  0.596485  0.595955  1
  Th  Th13  1  0.596485  0.596485  0.211075  1
  Th  Th14  1  0.599931  0.206256  0.596907  1
  Th  Th15  1  0.206256  0.599931  0.596907  1
  Mg  Mg16  1  0.830932  0.519795  0.824637  1
  Mg  Mg17  1  0.519795  0.830932  0.824637  1
  Zn  Zn18  1  0.832760  0.832760  0.834494  1
  Zn  Zn19  1  0.832760  0.832760  0.499987  1
  Co  Co20  1  0.393162  0.393162  0.396082  1
  Co  Co21  1  0.393162  0.393162  0.817594  1
  Co  Co22  1  0.392180  0.816283  0.395768  1
  Co  Co23  1  0.816283  0.392180  0.395768  1
