# generated using pymatgen
data_Sr2NdTh(NiAs)4
_symmetry_space_group_name_H-M   'P 1'
_cell_length_a   4.12689600
_cell_length_b   4.12689720
_cell_length_c   17.11687700
_cell_angle_alpha   90.00000000
_cell_angle_beta   90.00000000
_cell_angle_gamma   120.00002248
_symmetry_Int_Tables_number   1
_chemical_formula_structural   Sr2NdTh(NiAs)4
_chemical_formula_sum   'Sr2 Nd1 Th1 Ni4 As4'
_cell_volume   252.46561564
_cell_formula_units_Z   1
loop_
 _symmetry_equiv_pos_site_id
 _symmetry_equiv_pos_as_xyz
  1  'x, y, z'
loop_
 _atom_site_type_symbol
 _atom_site_label
 _atom_site_symmetry_multiplicity
 _atom_site_fract_x
 _atom_site_fract_y
 _atom_site_fract_z
 _atom_site_occupancy
  Sr  Sr0  1  0.000000  0.000000  0.251119  1
  Sr  Sr1  1  0.000000  0.000000  0.748881  1
  Nd  Nd2  1  0.000000  0.000000  0.500000  1
  Th  Th3  1  0.000000  0.000000  0.000000  1
  Ni  Ni4  1  0.333333  0.666667  0.107767  1
  Ni  Ni5  1  0.666667  0.333333  0.892233  1
  Ni  Ni6  1  0.666667  0.333333  0.618069  1
  Ni  Ni7  1  0.333333  0.666667  0.381931  1
  As  As8  1  0.333333  0.666667  0.618911  1
  As  As9  1  0.666667  0.333333  0.381089  1
  As  As10  1  0.666667  0.333333  0.119894  1
  As  As11  1  0.333333  0.666667  0.880106  1
