# generated using pymatgen
data_K3B2Pt6Au
_symmetry_space_group_name_H-M   'P 1'
_cell_length_a   8.51270099
_cell_length_b   8.51270052
_cell_length_c   8.51269932
_cell_angle_alpha   38.97455719
_cell_angle_beta   38.97455953
_cell_angle_gamma   38.97455878
_symmetry_Int_Tables_number   1
_chemical_formula_structural   K3B2Pt6Au
_chemical_formula_sum   'K3 B2 Pt6 Au1'
_cell_volume   219.46260551
_cell_formula_units_Z   1
loop_
 _symmetry_equiv_pos_site_id
 _symmetry_equiv_pos_as_xyz
  1  'x, y, z'
loop_
 _atom_site_type_symbol
 _atom_site_label
 _atom_site_symmetry_multiplicity
 _atom_site_fract_x
 _atom_site_fract_y
 _atom_site_fract_z
 _atom_site_occupancy
  K  K0  1  0.857881  0.857881  0.857881  1
  K  K1  1  0.142119  0.142119  0.142119  1
  K  K2  1  0.000000  0.000000  0.000000  1
  B  B3  1  0.668760  0.668760  0.668760  1
  B  B4  1  0.331240  0.331240  0.331240  1
  Pt  Pt5  1  0.439520  0.934146  0.439520  1
  Pt  Pt6  1  0.439520  0.439520  0.934146  1
  Pt  Pt7  1  0.934146  0.439520  0.439520  1
  Pt  Pt8  1  0.560480  0.065854  0.560480  1
  Pt  Pt9  1  0.560480  0.560480  0.065854  1
  Pt  Pt10  1  0.065854  0.560480  0.560480  1
  Au  Au11  1  0.500000  0.500000  0.500000  1
