# generated using pymatgen
data_La4Pr6Al4OsRu5
_symmetry_space_group_name_H-M   'P 1'
_cell_length_a   8.56610587
_cell_length_b   8.64365352
_cell_length_c   8.63898358
_cell_angle_alpha   109.38738020
_cell_angle_beta   109.51453749
_cell_angle_gamma   109.05665305
_symmetry_Int_Tables_number   1
_chemical_formula_structural   La4Pr6Al4OsRu5
_chemical_formula_sum   'La4 Pr6 Al4 Os1 Ru5'
_cell_volume   495.14388789
_cell_formula_units_Z   1
loop_
 _symmetry_equiv_pos_site_id
 _symmetry_equiv_pos_as_xyz
  1  'x, y, z'
loop_
 _atom_site_type_symbol
 _atom_site_label
 _atom_site_symmetry_multiplicity
 _atom_site_fract_x
 _atom_site_fract_y
 _atom_site_fract_z
 _atom_site_occupancy
  La  La0  1  0.251502  0.688658  0.439557  1
  La  La1  1  0.751487  0.813632  0.062224  1
  La  La2  1  0.440432  0.250527  0.687192  1
  La  La3  1  0.687196  0.437887  0.250014  1
  Pr  Pr4  1  0.065144  0.749957  0.815653  1
  Pr  Pr5  1  0.819100  0.065619  0.751364  1
  Pr  Pr6  1  0.215053  0.216093  0.213611  1
  Pr  Pr7  1  0.499723  0.996938  0.284623  1
  Pr  Pr8  1  0.285668  0.501210  0.999664  1
  Pr  Pr9  1  0.000008  0.286097  0.501655  1
  Al  Al10  1  0.590889  0.590096  0.589560  1
  Al  Al11  1  0.498817  0.001228  0.911903  1
  Al  Al12  1  0.913210  0.498903  0.999441  1
  Al  Al13  1  0.001041  0.913194  0.502305  1
  Os  Os14  1  0.249089  0.119647  0.862309  1
  Ru  Ru15  1  0.741011  0.376661  0.633272  1
  Ru  Ru16  1  0.861749  0.253576  0.120201  1
  Ru  Ru17  1  0.112089  0.861451  0.247287  1
  Ru  Ru18  1  0.632320  0.740777  0.378729  1
  Ru  Ru19  1  0.384469  0.637844  0.749435  1
