# generated using pymatgen
data_Y3Al3GePd2
_symmetry_space_group_name_H-M   'P 1'
_cell_length_a   7.07827400
_cell_length_b   7.07827441
_cell_length_c   4.18067300
_cell_angle_alpha   90.00000000
_cell_angle_beta   90.00000000
_cell_angle_gamma   120.00000741
_symmetry_Int_Tables_number   1
_chemical_formula_structural   Y3Al3GePd2
_chemical_formula_sum   'Y3 Al3 Ge1 Pd2'
_cell_volume   181.39761164
_cell_formula_units_Z   1
loop_
 _symmetry_equiv_pos_site_id
 _symmetry_equiv_pos_as_xyz
  1  'x, y, z'
loop_
 _atom_site_type_symbol
 _atom_site_label
 _atom_site_symmetry_multiplicity
 _atom_site_fract_x
 _atom_site_fract_y
 _atom_site_fract_z
 _atom_site_occupancy
  Y  Y0  1  0.415753  0.419192  0.500000  1
  Y  Y1  1  0.580808  0.996561  0.500000  1
  Y  Y2  1  0.003439  0.584247  0.500000  1
  Al  Al3  1  0.013133  0.243967  0.000000  1
  Al  Al4  1  0.756033  0.769166  0.000000  1
  Al  Al5  1  0.230834  0.986867  0.000000  1
  Ge  Ge6  1  0.666667  0.333333  0.000000  1
  Pd  Pd7  1  0.000000  0.000000  0.500000  1
  Pd  Pd8  1  0.333333  0.666667  0.000000  1
