# generated using pymatgen
data_Dy4Al5Re2Mo
_symmetry_space_group_name_H-M   'P 1'
_cell_length_a   5.59883100
_cell_length_b   5.55291960
_cell_length_c   8.78998600
_cell_angle_alpha   90.00000000
_cell_angle_beta   90.00000000
_cell_angle_gamma   120.27387539
_symmetry_Int_Tables_number   1
_chemical_formula_structural   Dy4Al5Re2Mo
_chemical_formula_sum   'Dy4 Al5 Re2 Mo1'
_cell_volume   236.01107745
_cell_formula_units_Z   1
loop_
 _symmetry_equiv_pos_site_id
 _symmetry_equiv_pos_as_xyz
  1  'x, y, z'
loop_
 _atom_site_type_symbol
 _atom_site_label
 _atom_site_symmetry_multiplicity
 _atom_site_fract_x
 _atom_site_fract_y
 _atom_site_fract_z
 _atom_site_occupancy
  Dy  Dy0  1  0.668050  0.336099  0.052613  1
  Dy  Dy1  1  0.668050  0.336099  0.447387  1
  Dy  Dy2  1  0.332623  0.665246  0.555519  1
  Dy  Dy3  1  0.332623  0.665246  0.944481  1
  Al  Al4  1  0.152657  0.816038  0.250001  1
  Al  Al5  1  0.663382  0.816038  0.250001  1
  Al  Al6  1  0.323566  0.163979  0.750000  1
  Al  Al7  1  0.840412  0.163979  0.750000  1
  Al  Al8  1  0.839801  0.679601  0.750000  1
  Re  Re9  1  0.009412  0.018823  0.008637  1
  Re  Re10  1  0.009412  0.018823  0.491363  1
  Mo  Mo11  1  0.160010  0.320022  0.250001  1
