# generated using pymatgen
data_CaDy3Er2(Si3Ru)8
_symmetry_space_group_name_H-M   'P 1'
_cell_length_a   10.13225357
_cell_length_b   10.13225316
_cell_length_c   8.13676359
_cell_angle_alpha   89.89422400
_cell_angle_beta   90.10578257
_cell_angle_gamma   132.64010816
_symmetry_Int_Tables_number   1
_chemical_formula_structural   CaDy3Er2(Si3Ru)8
_chemical_formula_sum   'Ca1 Dy3 Er2 Si24 Ru8'
_cell_volume   614.49484597
_cell_formula_units_Z   1
loop_
 _symmetry_equiv_pos_site_id
 _symmetry_equiv_pos_as_xyz
  1  'x, y, z'
loop_
 _atom_site_type_symbol
 _atom_site_label
 _atom_site_symmetry_multiplicity
 _atom_site_fract_x
 _atom_site_fract_y
 _atom_site_fract_z
 _atom_site_occupancy
  Ca  Ca0  1  0.498375  0.998375  0.250000  1
  Dy  Dy1  1  0.001366  0.501366  0.750000  1
  Dy  Dy2  1  0.502896  0.002896  0.750000  1
  Dy  Dy3  1  0.997305  0.497305  0.250000  1
  Er  Er4  1  0.499706  0.499536  0.499298  1
  Er  Er5  1  0.999536  0.999706  0.000702  1
  Si  Si6  1  0.388568  0.155379  0.002010  1
  Si  Si7  1  0.655379  0.888568  0.497990  1
  Si  Si8  1  0.111808  0.344835  0.504888  1
  Si  Si9  1  0.844835  0.611808  0.995112  1
  Si  Si10  1  0.612005  0.845251  0.993438  1
  Si  Si11  1  0.345251  0.112005  0.506562  1
  Si  Si12  1  0.887966  0.655678  0.495400  1
  Si  Si13  1  0.155678  0.387966  0.004600  1
  Si  Si14  1  0.614385  0.380343  0.228241  1
  Si  Si15  1  0.880343  0.114385  0.271759  1
  Si  Si16  1  0.888600  0.122063  0.727841  1
  Si  Si17  1  0.622063  0.388600  0.772159  1
  Si  Si18  1  0.388134  0.621257  0.771359  1
  Si  Si19  1  0.121257  0.888134  0.728641  1
  Si  Si20  1  0.704890  0.294025  0.001106  1
  Si  Si21  1  0.794025  0.204890  0.498894  1
  Si  Si22  1  0.295644  0.705974  0.000139  1
  Si  Si23  1  0.205974  0.795644  0.499861  1
  Si  Si24  1  0.166220  0.167628  0.332843  1
  Si  Si25  1  0.667628  0.666220  0.167157  1
  Si  Si26  1  0.333045  0.330989  0.832817  1
  Si  Si27  1  0.830989  0.833045  0.667183  1
  Si  Si28  1  0.375857  0.609370  0.228308  1
  Si  Si29  1  0.109370  0.875857  0.271692  1
  Ru  Ru30  1  0.625992  0.626547  0.873117  1
  Ru  Ru31  1  0.126547  0.125992  0.626883  1
  Ru  Ru32  1  0.872973  0.873379  0.372903  1
  Ru  Ru33  1  0.373379  0.372973  0.127097  1
  Ru  Ru34  1  0.329954  0.668708  0.500627  1
  Ru  Ru35  1  0.168708  0.829954  0.999373  1
  Ru  Ru36  1  0.670591  0.332755  0.501828  1
  Ru  Ru37  1  0.832755  0.170591  0.998172  1
