# generated using pymatgen
data_Ta6CrSi6Tc5
_symmetry_space_group_name_H-M   'P 1'
_cell_length_a   7.53009417
_cell_length_b   7.53000834
_cell_length_c   7.53000737
_cell_angle_alpha   127.24895632
_cell_angle_beta   125.29158419
_cell_angle_gamma   79.45417383
_symmetry_Int_Tables_number   1
_chemical_formula_structural   Ta6CrSi6Tc5
_chemical_formula_sum   'Ta6 Cr1 Si6 Tc5'
_cell_volume   268.12581854
_cell_formula_units_Z   1
loop_
 _symmetry_equiv_pos_site_id
 _symmetry_equiv_pos_as_xyz
  1  'x, y, z'
loop_
 _atom_site_type_symbol
 _atom_site_label
 _atom_site_symmetry_multiplicity
 _atom_site_fract_x
 _atom_site_fract_y
 _atom_site_fract_z
 _atom_site_occupancy
  Ta  Ta0  1  0.558438  0.098584  0.043638  1
  Ta  Ta1  1  0.441562  0.485200  0.540146  1
  Ta  Ta2  1  0.961120  0.495577  0.036953  1
  Ta  Ta3  1  0.038880  0.075832  0.534457  1
  Ta  Ta4  1  0.756347  0.913972  0.663484  1
  Ta  Ta5  1  0.243653  0.907137  0.157626  1
  Cr  Cr6  1  0.000000  0.243965  0.243965  1
  Si  Si7  1  0.336520  0.825359  0.497217  1
  Si  Si8  1  0.663480  0.160696  0.488839  1
  Si  Si9  1  0.828314  0.827448  0.990204  1
  Si  Si10  1  0.171686  0.161890  0.999135  1
  Si  Si11  1  0.774474  0.526557  0.258134  1
  Si  Si12  1  0.225526  0.483660  0.752083  1
  Tc  Tc13  1  0.157657  0.750527  0.653275  1
  Tc  Tc14  1  0.842343  0.495617  0.592871  1
  Tc  Tc15  1  0.597676  0.749083  0.093447  1
  Tc  Tc16  1  0.402324  0.495770  0.151407  1
  Tc  Tc17  1  0.500000  0.245121  0.745121  1
