# generated using pymatgen
data_Tm4ScP12Ir10Ru9
_symmetry_space_group_name_H-M   'P 1'
_cell_length_a   12.60616700
_cell_length_b   12.60616737
_cell_length_c   3.92808200
_cell_angle_alpha   90.00000000
_cell_angle_beta   90.00000000
_cell_angle_gamma   120.00000166
_symmetry_Int_Tables_number   1
_chemical_formula_structural   Tm4ScP12Ir10Ru9
_chemical_formula_sum   'Tm4 Sc1 P12 Ir10 Ru9'
_cell_volume   540.60155992
_cell_formula_units_Z   1
loop_
 _symmetry_equiv_pos_site_id
 _symmetry_equiv_pos_as_xyz
  1  'x, y, z'
loop_
 _atom_site_type_symbol
 _atom_site_label
 _atom_site_symmetry_multiplicity
 _atom_site_fract_x
 _atom_site_fract_y
 _atom_site_fract_z
 _atom_site_occupancy
  Tm  Tm0  1  0.333333  0.666667  0.000000  1
  Tm  Tm1  1  0.811547  0.999893  0.500000  1
  Tm  Tm2  1  0.000107  0.811654  0.500000  1
  Tm  Tm3  1  0.188346  0.188453  0.500000  1
  Sc  Sc4  1  0.666667  0.333333  0.000000  1
  P  P5  1  0.181600  0.001181  0.000000  1
  P  P6  1  0.998819  0.180419  0.000000  1
  P  P7  1  0.819581  0.818400  0.000000  1
  P  P8  1  0.172462  0.480704  0.500000  1
  P  P9  1  0.519296  0.691757  0.500000  1
  P  P10  1  0.308243  0.827538  0.500000  1
  P  P11  1  0.692680  0.517176  0.500000  1
  P  P12  1  0.824495  0.307320  0.500000  1
  P  P13  1  0.482824  0.175505  0.500000  1
  P  P14  1  0.636732  0.999923  0.000000  1
  P  P15  1  0.000077  0.636810  0.000000  1
  P  P16  1  0.363190  0.363268  0.000000  1
  Ir  Ir17  1  0.363661  0.493882  0.500000  1
  Ir  Ir18  1  0.506118  0.869777  0.500000  1
  Ir  Ir19  1  0.130223  0.636339  0.500000  1
  Ir  Ir20  1  0.868462  0.503659  0.500000  1
  Ir  Ir21  1  0.635196  0.131538  0.500000  1
  Ir  Ir22  1  0.496341  0.364804  0.500000  1
  Ir  Ir23  1  0.286237  0.001242  0.500000  1
  Ir  Ir24  1  0.998758  0.284995  0.500000  1
  Ir  Ir25  1  0.715005  0.713763  0.500000  1
  Ir  Ir26  1  0.000000  0.000000  0.000000  1
  Ru  Ru27  1  0.452164  0.999815  0.000000  1
  Ru  Ru28  1  0.000185  0.452349  0.000000  1
  Ru  Ru29  1  0.547651  0.547836  0.000000  1
  Ru  Ru30  1  0.181625  0.377346  0.000000  1
  Ru  Ru31  1  0.622654  0.804280  0.000000  1
  Ru  Ru32  1  0.195720  0.818375  0.000000  1
  Ru  Ru33  1  0.803666  0.620086  0.000000  1
  Ru  Ru34  1  0.816422  0.196334  0.000000  1
  Ru  Ru35  1  0.379914  0.183578  0.000000  1
