# generated using pymatgen
data_Ho16MnTl5InAu
_symmetry_space_group_name_H-M   'P 1'
_cell_length_a   10.44002072
_cell_length_b   10.44002122
_cell_length_c   7.01713331
_cell_angle_alpha   89.98486859
_cell_angle_beta   90.01513394
_cell_angle_gamma   119.95243246
_symmetry_Int_Tables_number   1
_chemical_formula_structural   Ho16MnTl5InAu
_chemical_formula_sum   'Ho16 Mn1 Tl5 In1 Au1'
_cell_volume   662.67570375
_cell_formula_units_Z   1
loop_
 _symmetry_equiv_pos_site_id
 _symmetry_equiv_pos_as_xyz
  1  'x, y, z'
loop_
 _atom_site_type_symbol
 _atom_site_label
 _atom_site_symmetry_multiplicity
 _atom_site_fract_x
 _atom_site_fract_y
 _atom_site_fract_z
 _atom_site_occupancy
  Ho  Ho0  1  0.524582  0.052131  0.512171  1
  Ho  Ho1  1  0.947869  0.475418  0.512171  1
  Ho  Ho2  1  0.526435  0.473565  0.514151  1
  Ho  Ho3  1  0.461690  0.923069  0.009898  1
  Ho  Ho4  1  0.076931  0.538310  0.009898  1
  Ho  Ho5  1  0.461165  0.538835  0.009223  1
  Ho  Ho6  1  0.173841  0.348802  0.716097  1
  Ho  Ho7  1  0.651198  0.826159  0.716097  1
  Ho  Ho8  1  0.174158  0.825842  0.718759  1
  Ho  Ho9  1  0.826034  0.653219  0.208085  1
  Ho  Ho10  1  0.346781  0.173966  0.208085  1
  Ho  Ho11  1  0.827249  0.172751  0.209161  1
  Ho  Ho12  1  0.667243  0.332757  0.875696  1
  Ho  Ho13  1  0.333115  0.666885  0.389174  1
  Ho  Ho14  1  0.001161  0.998839  0.487232  1
  Ho  Ho15  1  0.000931  0.999069  0.991030  1
  Mn  Mn16  1  0.332990  0.667010  0.764887  1
  Tl  Tl17  1  0.835167  0.670815  0.751149  1
  Tl  Tl18  1  0.329185  0.164833  0.751149  1
  Tl  Tl19  1  0.835510  0.164490  0.750352  1
  Tl  Tl20  1  0.162864  0.325839  0.258282  1
  Tl  Tl21  1  0.674161  0.837136  0.258282  1
  In  In22  1  0.162748  0.837252  0.256916  1
  Au  Au23  1  0.666993  0.333007  0.280096  1
