# generated using pymatgen
data_Ce2Be25Co
_symmetry_space_group_name_H-M   'P 1'
_cell_length_a   7.28346796
_cell_length_b   7.26224786
_cell_length_c   7.26425995
_cell_angle_alpha   60.18421045
_cell_angle_beta   59.89419463
_cell_angle_gamma   60.42579034
_symmetry_Int_Tables_number   1
_chemical_formula_structural   Ce2Be25Co
_chemical_formula_sum   'Ce2 Be25 Co1'
_cell_volume   272.71999481
_cell_formula_units_Z   1
loop_
 _symmetry_equiv_pos_site_id
 _symmetry_equiv_pos_as_xyz
  1  'x, y, z'
loop_
 _atom_site_type_symbol
 _atom_site_label
 _atom_site_symmetry_multiplicity
 _atom_site_fract_x
 _atom_site_fract_y
 _atom_site_fract_z
 _atom_site_occupancy
  Ce  Ce0  1  0.250545  0.243809  0.250283  1
  Ce  Ce1  1  0.756191  0.749455  0.744638  1
  Be  Be2  1  0.287816  0.712184  0.065923  1
  Be  Be3  1  0.000863  0.999137  0.003906  1
  Be  Be4  1  0.502943  0.497057  0.499568  1
  Be  Be5  1  0.708066  0.291934  0.935458  1
  Be  Be6  1  0.436134  0.788434  0.212203  1
  Be  Be7  1  0.211566  0.563866  0.436770  1
  Be  Be8  1  0.435921  0.564079  0.789803  1
  Be  Be9  1  0.562455  0.437545  0.207736  1
  Be  Be10  1  0.563474  0.787479  0.437825  1
  Be  Be11  1  0.212521  0.436526  0.788779  1
  Be  Be12  1  0.936906  0.291841  0.061159  1
  Be  Be13  1  0.060987  0.289993  0.707953  1
  Be  Be14  1  0.289992  0.062772  0.938657  1
  Be  Be15  1  0.061798  0.706313  0.939525  1
  Be  Be16  1  0.293687  0.938202  0.707636  1
  Be  Be17  1  0.937228  0.710008  0.291421  1
  Be  Be18  1  0.708159  0.063094  0.289907  1
  Be  Be19  1  0.710007  0.939013  0.058933  1
  Be  Be20  1  0.216343  0.783657  0.566231  1
  Be  Be21  1  0.788108  0.437957  0.563220  1
  Be  Be22  1  0.785767  0.566906  0.210798  1
  Be  Be23  1  0.433094  0.214233  0.563471  1
  Be  Be24  1  0.562043  0.211892  0.789285  1
  Be  Be25  1  0.786950  0.213050  0.434397  1
  Be  Be26  1  0.941769  0.058231  0.704715  1
  Co  Co27  1  0.058668  0.941332  0.299799  1
