# generated using pymatgen
data_Ho4MnTc5Os2
_symmetry_space_group_name_H-M   'P 1'
_cell_length_a   5.30769304
_cell_length_b   5.24490234
_cell_length_c   9.00186113
_cell_angle_alpha   90.00000024
_cell_angle_beta   89.83635230
_cell_angle_gamma   119.60944804
_symmetry_Int_Tables_number   1
_chemical_formula_structural   Ho4MnTc5Os2
_chemical_formula_sum   'Ho4 Mn1 Tc5 Os2'
_cell_volume   217.87105333
_cell_formula_units_Z   1
loop_
 _symmetry_equiv_pos_site_id
 _symmetry_equiv_pos_as_xyz
  1  'x, y, z'
loop_
 _atom_site_type_symbol
 _atom_site_label
 _atom_site_symmetry_multiplicity
 _atom_site_fract_x
 _atom_site_fract_y
 _atom_site_fract_z
 _atom_site_occupancy
  Ho  Ho0  1  0.332770  0.666385  0.435146  1
  Ho  Ho1  1  0.668355  0.334177  0.566922  1
  Ho  Ho2  1  0.669540  0.334769  0.935436  1
  Ho  Ho3  1  0.332205  0.666103  0.062990  1
  Mn  Mn4  1  0.000592  0.000296  0.502122  1
  Tc  Tc5  1  0.830075  0.169791  0.252371  1
  Tc  Tc6  1  0.830075  0.660282  0.252371  1
  Tc  Tc7  1  0.337050  0.168525  0.253457  1
  Tc  Tc8  1  0.169252  0.830911  0.747453  1
  Tc  Tc9  1  0.169252  0.338342  0.747453  1
  Os  Os10  1  0.003153  0.001577  0.998049  1
  Os  Os11  1  0.657684  0.828842  0.746230  1
