# generated using pymatgen
data_Ho3Er2LuFeBi2
_symmetry_space_group_name_H-M   'P 1'
_cell_length_a   8.24523400
_cell_length_b   8.23195265
_cell_length_c   4.15505500
_cell_angle_alpha   90.00000000
_cell_angle_beta   90.00000000
_cell_angle_gamma   120.05338486
_symmetry_Int_Tables_number   1
_chemical_formula_structural   Ho3Er2LuFeBi2
_chemical_formula_sum   'Ho3 Er2 Lu1 Fe1 Bi2'
_cell_volume   244.10652117
_cell_formula_units_Z   1
loop_
 _symmetry_equiv_pos_site_id
 _symmetry_equiv_pos_as_xyz
  1  'x, y, z'
loop_
 _atom_site_type_symbol
 _atom_site_label
 _atom_site_symmetry_multiplicity
 _atom_site_fract_x
 _atom_site_fract_y
 _atom_site_fract_z
 _atom_site_occupancy
  Ho  Ho0  1  0.000334  0.611926  0.500000  1
  Ho  Ho1  1  0.388408  0.388074  0.500000  1
  Ho  Ho2  1  0.610188  0.000000  0.500000  1
  Er  Er3  1  0.770415  0.770295  0.000000  1
  Er  Er4  1  0.000120  0.229705  0.000000  1
  Lu  Lu5  1  0.229053  0.000000  0.000000  1
  Fe  Fe6  1  0.002617  0.000000  0.500000  1
  Bi  Bi7  1  0.333272  0.667681  0.000000  1
  Bi  Bi8  1  0.665592  0.332319  0.000000  1
