# generated using pymatgen
data_AcHoP7Ru12
_symmetry_space_group_name_H-M   'P 1'
_cell_length_a   9.51017100
_cell_length_b   9.51017053
_cell_length_c   3.97172700
_cell_angle_alpha   90.00000000
_cell_angle_beta   90.00000000
_cell_angle_gamma   119.99999121
_symmetry_Int_Tables_number   1
_chemical_formula_structural   AcHoP7Ru12
_chemical_formula_sum   'Ac1 Ho1 P7 Ru12'
_cell_volume   311.09045757
_cell_formula_units_Z   1
loop_
 _symmetry_equiv_pos_site_id
 _symmetry_equiv_pos_as_xyz
  1  'x, y, z'
loop_
 _atom_site_type_symbol
 _atom_site_label
 _atom_site_symmetry_multiplicity
 _atom_site_fract_x
 _atom_site_fract_y
 _atom_site_fract_z
 _atom_site_occupancy
  Ac  Ac0  1  0.333333  0.666667  0.000000  1
  Ho  Ho1  1  0.666667  0.333333  0.500000  1
  P  P2  1  0.611477  0.718085  0.500000  1
  P  P3  1  0.000000  0.000000  0.000000  1
  P  P4  1  0.281915  0.893392  0.500000  1
  P  P5  1  0.106608  0.388523  0.500000  1
  P  P6  1  0.888430  0.570415  0.000000  1
  P  P7  1  0.429585  0.318015  0.000000  1
  P  P8  1  0.681985  0.111570  0.000000  1
  Ru  Ru9  1  0.562083  0.960912  0.500000  1
  Ru  Ru10  1  0.398830  0.437917  0.500000  1
  Ru  Ru11  1  0.914298  0.117076  0.500000  1
  Ru  Ru12  1  0.202778  0.085702  0.500000  1
  Ru  Ru13  1  0.882924  0.797222  0.500000  1
  Ru  Ru14  1  0.729882  0.893061  0.000000  1
  Ru  Ru15  1  0.106939  0.836821  0.000000  1
  Ru  Ru16  1  0.163179  0.270118  0.000000  1
  Ru  Ru17  1  0.420587  0.072347  0.000000  1
  Ru  Ru18  1  0.927653  0.348241  0.000000  1
  Ru  Ru19  1  0.651759  0.579413  0.000000  1
  Ru  Ru20  1  0.039088  0.601170  0.500000  1
