# generated using pymatgen
data_Ho7ErCr2(OsC4)2
_symmetry_space_group_name_H-M   'P 1'
_cell_length_a   5.04600700
_cell_length_b   6.45802943
_cell_length_c   9.74331825
_cell_angle_alpha   90.25986822
_cell_angle_beta   90.00000000
_cell_angle_gamma   90.00000000
_symmetry_Int_Tables_number   1
_chemical_formula_structural   Ho7ErCr2(OsC4)2
_chemical_formula_sum   'Ho7 Er1 Cr2 Os2 C8'
_cell_volume   317.50479592
_cell_formula_units_Z   1
loop_
 _symmetry_equiv_pos_site_id
 _symmetry_equiv_pos_as_xyz
  1  'x, y, z'
loop_
 _atom_site_type_symbol
 _atom_site_label
 _atom_site_symmetry_multiplicity
 _atom_site_fract_x
 _atom_site_fract_y
 _atom_site_fract_z
 _atom_site_occupancy
  Ho  Ho0  1  0.750000  0.318084  0.442189  1
  Ho  Ho1  1  0.750000  0.821977  0.054014  1
  Ho  Ho2  1  0.250000  0.177901  0.945915  1
  Ho  Ho3  1  0.250000  0.532042  0.216211  1
  Ho  Ho4  1  0.750000  0.468226  0.783916  1
  Ho  Ho5  1  0.750000  0.972212  0.715454  1
  Ho  Ho6  1  0.250000  0.027584  0.284515  1
  Er  Er7  1  0.250000  0.681168  0.558320  1
  Cr  Cr8  1  0.250000  0.724375  0.861717  1
  Cr  Cr9  1  0.750000  0.275726  0.138030  1
  Os  Os10  1  0.750000  0.776561  0.362705  1
  Os  Os11  1  0.250000  0.223498  0.637503  1
  C  C12  1  0.250000  0.462758  0.763671  1
  C  C13  1  0.750000  0.537488  0.236127  1
  C  C14  1  0.750000  0.047377  0.256026  1
  C  C15  1  0.250000  0.952327  0.743481  1
  C  C16  1  0.250000  0.813676  0.039890  1
  C  C17  1  0.750000  0.186346  0.959972  1
  C  C18  1  0.750000  0.678371  0.548794  1
  C  C19  1  0.250000  0.322303  0.451553  1
