# generated using pymatgen
data_TaMnVF12
_symmetry_space_group_name_H-M   'P 1'
_cell_length_a   5.26234463
_cell_length_b   5.56464649
_cell_length_c   9.14981808
_cell_angle_alpha   73.85767011
_cell_angle_beta   88.68627464
_cell_angle_gamma   62.34458232
_symmetry_Int_Tables_number   1
_chemical_formula_structural   TaMnVF12
_chemical_formula_sum   'Ta1 Mn1 V1 F12'
_cell_volume   226.18786916
_cell_formula_units_Z   1
loop_
 _symmetry_equiv_pos_site_id
 _symmetry_equiv_pos_as_xyz
  1  'x, y, z'
loop_
 _atom_site_type_symbol
 _atom_site_label
 _atom_site_symmetry_multiplicity
 _atom_site_fract_x
 _atom_site_fract_y
 _atom_site_fract_z
 _atom_site_occupancy
  Ta  Ta0  1  0.229315  0.993181  0.763395  1
  Mn  Mn1  1  0.498383  0.505032  0.491861  1
  V  V2  1  0.773401  0.004565  0.240325  1
  F  F3  1  0.939167  0.222800  0.202575  1
  F  F4  1  0.052411  0.760909  0.796965  1
  F  F5  1  0.003250  0.772091  0.141672  1
  F  F6  1  0.467805  0.771280  0.628054  1
  F  F7  1  0.544042  0.219480  0.366422  1
  F  F8  1  0.945938  0.242792  0.573185  1
  F  F9  1  0.047561  0.767370  0.418892  1
  F  F10  1  0.408764  0.241232  0.683532  1
  F  F11  1  0.600087  0.771216  0.311574  1
  F  F12  1  0.516191  0.772587  0.931374  1
  F  F13  1  0.498890  0.213937  0.085180  1
  F  F14  1  0.974796  0.241529  0.864994  1
