# generated using pymatgen
data_PuZr4BiF22
_symmetry_space_group_name_H-M   'P 1'
_cell_length_a   8.47939967
_cell_length_b   8.47940030
_cell_length_c   8.47940000
_cell_angle_alpha   124.57859865
_cell_angle_beta   106.43895481
_cell_angle_gamma   98.59622371
_symmetry_Int_Tables_number   1
_chemical_formula_structural   PuZr4BiF22
_chemical_formula_sum   'Pu1 Zr4 Bi1 F22'
_cell_volume   442.78357866
_cell_formula_units_Z   1
loop_
 _symmetry_equiv_pos_site_id
 _symmetry_equiv_pos_as_xyz
  1  'x, y, z'
loop_
 _atom_site_type_symbol
 _atom_site_label
 _atom_site_symmetry_multiplicity
 _atom_site_fract_x
 _atom_site_fract_y
 _atom_site_fract_z
 _atom_site_occupancy
  Pu  Pu0  1  0.750000  0.250000  0.500000  1
  Zr  Zr1  1  0.181271  0.134652  0.315603  1
  Zr  Zr2  1  0.819050  0.865668  0.684397  1
  Zr  Zr3  1  0.680950  0.365348  0.046618  1
  Zr  Zr4  1  0.318729  0.634332  0.953382  1
  Bi  Bi5  1  0.250000  0.750000  0.500000  1
  F  F6  1  0.206948  0.396960  0.341674  1
  F  F7  1  0.790992  0.603472  0.656130  1
  F  F8  1  0.055286  0.865275  0.658326  1
  F  F9  1  0.444714  0.103040  0.809988  1
  F  F10  1  0.947341  0.134861  0.343870  1
  F  F11  1  0.552659  0.896528  0.187520  1
  F  F12  1  0.293052  0.634725  0.190012  1
  F  F13  1  0.709008  0.365139  0.812480  1
  F  F14  1  0.000054  0.000054  0.000000  1
  F  F15  1  0.499946  0.499946  0.000000  1
  F  F16  1  0.281162  0.370862  0.652741  1
  F  F17  1  0.718119  0.628420  0.347259  1
  F  F18  1  0.781881  0.129138  0.910302  1
  F  F19  1  0.218838  0.871580  0.089698  1
  F  F20  1  0.453932  0.242962  0.421831  1
  F  F21  1  0.545383  0.759603  0.580720  1
  F  F22  1  0.821131  0.032101  0.578169  1
  F  F23  1  0.678869  0.257038  0.210970  1
  F  F24  1  0.178883  0.964663  0.419280  1
  F  F25  1  0.321117  0.740397  0.785780  1
  F  F26  1  0.046068  0.467899  0.789030  1
  F  F27  1  0.954617  0.535337  0.214220  1
