# generated using pymatgen
data_Tm4Tc3SnF28
_symmetry_space_group_name_H-M   'P 1'
_cell_length_a   5.52425816
_cell_length_b   8.80750521
_cell_length_c   11.90199100
_cell_angle_alpha   62.59292890
_cell_angle_beta   90.03707872
_cell_angle_gamma   90.03229667
_symmetry_Int_Tables_number   1
_chemical_formula_structural   Tm4Tc3SnF28
_chemical_formula_sum   'Tm4 Tc3 Sn1 F28'
_cell_volume   514.09249235
_cell_formula_units_Z   1
loop_
 _symmetry_equiv_pos_site_id
 _symmetry_equiv_pos_as_xyz
  1  'x, y, z'
loop_
 _atom_site_type_symbol
 _atom_site_label
 _atom_site_symmetry_multiplicity
 _atom_site_fract_x
 _atom_site_fract_y
 _atom_site_fract_z
 _atom_site_occupancy
  Tm  Tm0  1  0.257989  0.814908  0.264004  1
  Tm  Tm1  1  0.741390  0.184162  0.735772  1
  Tm  Tm2  1  0.758670  0.185791  0.235604  1
  Tm  Tm3  1  0.241735  0.814744  0.764945  1
  Tc  Tc4  1  0.758051  0.726738  0.043084  1
  Tc  Tc5  1  0.241760  0.273191  0.956922  1
  Tc  Tc6  1  0.258634  0.273523  0.456455  1
  Sn  Sn7  1  0.742829  0.727368  0.542173  1
  F  F8  1  0.945736  0.704722  0.412680  1
  F  F9  1  0.053553  0.293026  0.583271  1
  F  F10  1  0.447144  0.292904  0.083480  1
  F  F11  1  0.551720  0.706829  0.917039  1
  F  F12  1  0.473698  0.729661  0.140659  1
  F  F13  1  0.526768  0.269929  0.859887  1
  F  F14  1  0.973901  0.272156  0.358542  1
  F  F15  1  0.034349  0.728105  0.641143  1
  F  F16  1  0.958840  0.746068  0.172635  1
  F  F17  1  0.042469  0.253971  0.826399  1
  F  F18  1  0.457130  0.255472  0.325568  1
  F  F19  1  0.546018  0.745316  0.677027  1
  F  F20  1  0.773058  0.476944  0.141578  1
  F  F21  1  0.227015  0.522891  0.858860  1
  F  F22  1  0.274228  0.523194  0.357477  1
  F  F23  1  0.724289  0.474367  0.643070  1
  F  F24  1  0.944423  0.277569  0.047282  1
  F  F25  1  0.055078  0.722420  0.952561  1
  F  F26  1  0.434961  0.722223  0.454239  1
  F  F27  1  0.556048  0.277680  0.547018  1
  F  F28  1  0.740406  0.981133  0.445482  1
  F  F29  1  0.258569  0.024278  0.553698  1
  F  F30  1  0.242216  0.023981  0.054115  1
  F  F31  1  0.758355  0.976052  0.945885  1
  F  F32  1  0.581140  0.970158  0.233646  1
  F  F33  1  0.418831  0.029155  0.767880  1
  F  F34  1  0.080312  0.028508  0.268462  1
  F  F35  1  0.918693  0.970864  0.731463  1
