# generated using pymatgen
data_DyCo3GeB
_symmetry_space_group_name_H-M   'P 1'
_cell_length_a   5.18478500
_cell_length_b   5.18636661
_cell_length_c   6.55659800
_cell_angle_alpha   90.00000000
_cell_angle_beta   90.00000000
_cell_angle_gamma   119.98990632
_symmetry_Int_Tables_number   1
_chemical_formula_structural   DyCo3GeB
_chemical_formula_sum   'Dy2 Co6 Ge2 B2'
_cell_volume   152.70291102
_cell_formula_units_Z   2
loop_
 _symmetry_equiv_pos_site_id
 _symmetry_equiv_pos_as_xyz
  1  'x, y, z'
loop_
 _atom_site_type_symbol
 _atom_site_label
 _atom_site_symmetry_multiplicity
 _atom_site_fract_x
 _atom_site_fract_y
 _atom_site_fract_z
 _atom_site_occupancy
  Dy  Dy0  1  0.999957  0.000000  0.000000  1
  Dy  Dy1  1  0.000055  0.000000  0.500000  1
  Co  Co2  1  0.500007  0.000000  0.290992  1
  Co  Co3  1  0.499981  0.500007  0.290992  1
  Co  Co4  1  0.999974  0.499993  0.290992  1
  Co  Co5  1  0.500007  0.000000  0.709008  1
  Co  Co6  1  0.499981  0.500007  0.709008  1
  Co  Co7  1  0.999974  0.499993  0.709008  1
  Ge  Ge8  1  0.333259  0.666587  0.000000  1
  Ge  Ge9  1  0.666671  0.333413  0.000000  1
  B  B10  1  0.333253  0.666573  0.500000  1
  B  B11  1  0.666680  0.333427  0.500000  1
