# generated using pymatgen
data_Sc4CuIr2Ru
_symmetry_space_group_name_H-M   'P 1'
_cell_length_a   6.43685800
_cell_length_b   4.58889600
_cell_length_c   9.13808700
_cell_angle_alpha   90.00000000
_cell_angle_beta   90.00000000
_cell_angle_gamma   90.00000000
_symmetry_Int_Tables_number   1
_chemical_formula_structural   Sc4CuIr2Ru
_chemical_formula_sum   'Sc8 Cu2 Ir4 Ru2'
_cell_volume   269.92147110
_cell_formula_units_Z   2
loop_
 _symmetry_equiv_pos_site_id
 _symmetry_equiv_pos_as_xyz
  1  'x, y, z'
loop_
 _atom_site_type_symbol
 _atom_site_label
 _atom_site_symmetry_multiplicity
 _atom_site_fract_x
 _atom_site_fract_y
 _atom_site_fract_z
 _atom_site_occupancy
  Sc  Sc0  1  0.997664  0.750000  0.123258  1
  Sc  Sc1  1  0.502366  0.750000  0.123146  1
  Sc  Sc2  1  0.002365  0.250000  0.376854  1
  Sc  Sc3  1  0.497665  0.250000  0.376741  1
  Sc  Sc4  1  0.498218  0.750000  0.627284  1
  Sc  Sc5  1  0.002057  0.750000  0.627173  1
  Sc  Sc6  1  0.502056  0.250000  0.872827  1
  Sc  Sc7  1  0.998217  0.250000  0.872716  1
  Cu  Cu8  1  0.249156  0.250000  0.124948  1
  Cu  Cu9  1  0.749155  0.750000  0.375051  1
  Ir  Ir10  1  0.750208  0.250000  0.127176  1
  Ir  Ir11  1  0.250207  0.750000  0.372824  1
  Ir  Ir12  1  0.750144  0.250000  0.622857  1
  Ir  Ir13  1  0.250143  0.750000  0.877142  1
  Ru  Ru14  1  0.250190  0.250000  0.623813  1
  Ru  Ru15  1  0.750189  0.750000  0.876186  1
