# generated using pymatgen
data_La2RuRhF14
_symmetry_space_group_name_H-M   'P 1'
_cell_length_a   5.76078500
_cell_length_b   9.30842471
_cell_length_c   12.40195627
_cell_angle_alpha   62.56488675
_cell_angle_beta   90.00000000
_cell_angle_gamma   90.00000000
_symmetry_Int_Tables_number   1
_chemical_formula_structural   La2RuRhF14
_chemical_formula_sum   'La4 Ru2 Rh2 F28'
_cell_volume   590.24545995
_cell_formula_units_Z   2
loop_
 _symmetry_equiv_pos_site_id
 _symmetry_equiv_pos_as_xyz
  1  'x, y, z'
loop_
 _atom_site_type_symbol
 _atom_site_label
 _atom_site_symmetry_multiplicity
 _atom_site_fract_x
 _atom_site_fract_y
 _atom_site_fract_z
 _atom_site_occupancy
  La  La0  1  0.756134  0.816000  0.768000  1
  La  La1  1  0.256134  0.184000  0.732000  1
  La  La2  1  0.237592  0.197008  0.237069  1
  La  La3  1  0.737592  0.802992  0.262931  1
  Ru  Ru4  1  0.754403  0.277301  0.953699  1
  Ru  Ru5  1  0.254403  0.722699  0.546301  1
  Rh  Rh6  1  0.242630  0.728828  0.039826  1
  Rh  Rh7  1  0.742630  0.271172  0.460174  1
  F  F8  1  0.436895  0.711435  0.915198  1
  F  F9  1  0.936895  0.288565  0.584802  1
  F  F10  1  0.565620  0.294613  0.075361  1
  F  F11  1  0.065620  0.705387  0.424639  1
  F  F12  1  0.456544  0.283125  0.544251  1
  F  F13  1  0.956544  0.716875  0.955749  1
  F  F14  1  0.535209  0.714895  0.462700  1
  F  F15  1  0.035209  0.285105  0.037300  1
  F  F16  1  0.764026  0.507779  0.861434  1
  F  F17  1  0.264026  0.492221  0.638566  1
  F  F18  1  0.237735  0.491395  0.134771  1
  F  F19  1  0.737735  0.508605  0.365229  1
  F  F20  1  0.753115  0.047733  0.041073  1
  F  F21  1  0.253115  0.952267  0.458927  1
  F  F22  1  0.235988  0.965959  0.946076  1
  F  F23  1  0.735988  0.034041  0.553924  1
  F  F24  1  0.976828  0.725288  0.633305  1
  F  F25  1  0.476828  0.274712  0.866695  1
  F  F26  1  0.024176  0.262189  0.372158  1
  F  F27  1  0.524176  0.737811  0.127842  1
  F  F28  1  0.053047  0.748379  0.165642  1
  F  F29  1  0.553047  0.251621  0.334358  1
  F  F30  1  0.943706  0.263056  0.829757  1
  F  F31  1  0.443706  0.736944  0.670243  1
  F  F32  1  0.423740  0.975844  0.235153  1
  F  F33  1  0.923740  0.024156  0.264847  1
  F  F34  1  0.602612  0.038419  0.773927  1
  F  F35  1  0.102612  0.961581  0.726073  1
