# generated using pymatgen
data_Y3Er7Si5As
_symmetry_space_group_name_H-M   'P 1'
_cell_length_a   8.39429500
_cell_length_b   8.42120052
_cell_length_c   6.26350400
_cell_angle_alpha   90.00000000
_cell_angle_beta   90.00000000
_cell_angle_gamma   119.95012048
_symmetry_Int_Tables_number   1
_chemical_formula_structural   Y3Er7Si5As
_chemical_formula_sum   'Y3 Er7 Si5 As1'
_cell_volume   383.64036204
_cell_formula_units_Z   1
loop_
 _symmetry_equiv_pos_site_id
 _symmetry_equiv_pos_as_xyz
  1  'x, y, z'
loop_
 _atom_site_type_symbol
 _atom_site_label
 _atom_site_symmetry_multiplicity
 _atom_site_fract_x
 _atom_site_fract_y
 _atom_site_fract_z
 _atom_site_occupancy
  Y  Y0  1  0.757834  0.999834  0.750000  1
  Y  Y1  1  0.243183  0.246772  0.750000  1
  Y  Y2  1  0.243249  0.999740  0.250000  1
  Er  Er3  1  0.996106  0.752653  0.750000  1
  Er  Er4  1  0.000185  0.244700  0.250000  1
  Er  Er5  1  0.755970  0.755556  0.250000  1
  Er  Er6  1  0.332909  0.663820  0.498740  1
  Er  Er7  1  0.669454  0.336437  0.001247  1
  Er  Er8  1  0.669454  0.336437  0.498753  1
  Er  Er9  1  0.332909  0.663820  0.001260  1
  Si  Si10  1  0.394059  0.393377  0.250000  1
  Si  Si11  1  0.000720  0.606571  0.250000  1
  Si  Si12  1  0.999742  0.394860  0.750000  1
  Si  Si13  1  0.606317  0.606052  0.750000  1
  Si  Si14  1  0.607956  0.000017  0.250000  1
  As  As15  1  0.389954  0.999354  0.750000  1
