# generated using pymatgen
data_Rb2HfZr(Te3Pd)2
_symmetry_space_group_name_H-M   'P 1'
_cell_length_a   9.65097631
_cell_length_b   4.10965200
_cell_length_c   10.90275714
_cell_angle_alpha   90.00000000
_cell_angle_beta   115.75939892
_cell_angle_gamma   90.00000000
_symmetry_Int_Tables_number   1
_chemical_formula_structural   Rb2HfZr(Te3Pd)2
_chemical_formula_sum   'Rb2 Hf1 Zr1 Te6 Pd2'
_cell_volume   389.45526468
_cell_formula_units_Z   1
loop_
 _symmetry_equiv_pos_site_id
 _symmetry_equiv_pos_as_xyz
  1  'x, y, z'
loop_
 _atom_site_type_symbol
 _atom_site_label
 _atom_site_symmetry_multiplicity
 _atom_site_fract_x
 _atom_site_fract_y
 _atom_site_fract_z
 _atom_site_occupancy
  Rb  Rb0  1  0.245554  0.249999  0.263155  1
  Rb  Rb1  1  0.754626  0.750000  0.737341  1
  Hf  Hf2  1  0.293347  0.750000  0.828778  1
  Zr  Zr3  1  0.707432  0.249999  0.171829  1
  Te  Te4  1  0.897681  0.750000  0.134470  1
  Te  Te5  1  0.466119  0.750000  0.133193  1
  Te  Te6  1  0.775993  0.249999  0.456218  1
  Te  Te7  1  0.225195  0.750000  0.545682  1
  Te  Te8  1  0.528564  0.249999  0.863276  1
  Te  Te9  1  0.105234  0.249999  0.865993  1
  Pd  Pd10  1  0.911840  0.750000  0.389356  1
  Pd  Pd11  1  0.088414  0.249999  0.610707  1
