# generated using pymatgen
data_YEr3OsWC4
_symmetry_space_group_name_H-M   'P 1'
_cell_length_a   5.06796600
_cell_length_b   6.57587747
_cell_length_c   9.85335480
_cell_angle_alpha   89.08532749
_cell_angle_beta   90.00000000
_cell_angle_gamma   90.00000000
_symmetry_Int_Tables_number   1
_chemical_formula_structural   YEr3OsWC4
_chemical_formula_sum   'Y2 Er6 Os2 W2 C8'
_cell_volume   328.33424634
_cell_formula_units_Z   2
loop_
 _symmetry_equiv_pos_site_id
 _symmetry_equiv_pos_as_xyz
  1  'x, y, z'
loop_
 _atom_site_type_symbol
 _atom_site_label
 _atom_site_symmetry_multiplicity
 _atom_site_fract_x
 _atom_site_fract_y
 _atom_site_fract_z
 _atom_site_occupancy
  Y  Y0  1  0.750000  0.968698  0.716834  1
  Y  Y1  1  0.250000  0.031302  0.283166  1
  Er  Er2  1  0.250000  0.677512  0.557489  1
  Er  Er3  1  0.750000  0.322488  0.442511  1
  Er  Er4  1  0.750000  0.823774  0.058078  1
  Er  Er5  1  0.250000  0.176226  0.941922  1
  Er  Er6  1  0.250000  0.538536  0.218307  1
  Er  Er7  1  0.750000  0.461464  0.781693  1
  Os  Os8  1  0.750000  0.778260  0.366535  1
  Os  Os9  1  0.250000  0.221740  0.633465  1
  W  W10  1  0.250000  0.716350  0.867782  1
  W  W11  1  0.750000  0.283650  0.132218  1
  C  C12  1  0.250000  0.450590  0.758537  1
  C  C13  1  0.750000  0.549410  0.241463  1
  C  C14  1  0.750000  0.045893  0.259960  1
  C  C15  1  0.250000  0.954107  0.740040  1
  C  C16  1  0.250000  0.824370  0.053713  1
  C  C17  1  0.750000  0.175630  0.946287  1
  C  C18  1  0.750000  0.674129  0.549094  1
  C  C19  1  0.250000  0.325871  0.450906  1
