# generated using pymatgen
data_Eu2Al20CoOs3
_symmetry_space_group_name_H-M   'P 1'
_cell_length_a   6.90972037
_cell_length_b   6.89665786
_cell_length_c   9.17614154
_cell_angle_alpha   90.43366399
_cell_angle_beta   89.96140947
_cell_angle_gamma   96.77230478
_symmetry_Int_Tables_number   1
_chemical_formula_structural   Eu2Al20CoOs3
_chemical_formula_sum   'Eu2 Al20 Co1 Os3'
_cell_volume   434.21612846
_cell_formula_units_Z   1
loop_
 _symmetry_equiv_pos_site_id
 _symmetry_equiv_pos_as_xyz
  1  'x, y, z'
loop_
 _atom_site_type_symbol
 _atom_site_label
 _atom_site_symmetry_multiplicity
 _atom_site_fract_x
 _atom_site_fract_y
 _atom_site_fract_z
 _atom_site_occupancy
  Eu  Eu0  1  0.623920  0.378382  0.751467  1
  Eu  Eu1  1  0.376080  0.621618  0.248533  1
  Al  Al2  1  0.281352  0.020035  0.751149  1
  Al  Al3  1  0.020271  0.280712  0.247864  1
  Al  Al4  1  0.718648  0.979965  0.248851  1
  Al  Al5  1  0.979729  0.719288  0.752136  1
  Al  Al6  1  0.874766  0.122144  0.952893  1
  Al  Al7  1  0.125234  0.877856  0.047107  1
  Al  Al8  1  0.875847  0.123211  0.546010  1
  Al  Al9  1  0.124153  0.876789  0.453990  1
  Al  Al10  1  0.640113  0.916151  0.753751  1
  Al  Al11  1  0.912812  0.642055  0.250074  1
  Al  Al12  1  0.359887  0.083849  0.246249  1
  Al  Al13  1  0.087188  0.357945  0.749926  1
  Al  Al14  1  0.343259  0.662667  0.899642  1
  Al  Al15  1  0.656741  0.337333  0.100358  1
  Al  Al16  1  0.342592  0.658469  0.599959  1
  Al  Al17  1  0.657408  0.341531  0.400041  1
  Al  Al18  1  0.722519  0.728147  0.001248  1
  Al  Al19  1  0.723761  0.724131  0.502292  1
  Al  Al20  1  0.277481  0.271853  0.998752  1
  Al  Al21  1  0.276239  0.275869  0.497708  1
  Co  Co22  1  0.500000  0.000000  0.000000  1
  Os  Os23  1  0.000000  0.500000  0.000000  1
  Os  Os24  1  0.500000  0.000000  0.500000  1
  Os  Os25  1  0.000000  0.500000  0.500000  1
