# generated using pymatgen
data_Nd2Dy3Ta3(Co4P3)4
_symmetry_space_group_name_H-M   'P 1'
_cell_length_a   12.21705200
_cell_length_b   12.21705153
_cell_length_c   3.71167700
_cell_angle_alpha   90.00000000
_cell_angle_beta   90.00000000
_cell_angle_gamma   119.99999045
_symmetry_Int_Tables_number   1
_chemical_formula_structural   Nd2Dy3Ta3(Co4P3)4
_chemical_formula_sum   'Nd2 Dy3 Ta3 Co16 P12'
_cell_volume   479.77065081
_cell_formula_units_Z   1
loop_
 _symmetry_equiv_pos_site_id
 _symmetry_equiv_pos_as_xyz
  1  'x, y, z'
loop_
 _atom_site_type_symbol
 _atom_site_label
 _atom_site_symmetry_multiplicity
 _atom_site_fract_x
 _atom_site_fract_y
 _atom_site_fract_z
 _atom_site_occupancy
  Nd  Nd0  1  0.666667  0.333333  0.000000  1
  Nd  Nd1  1  0.333333  0.666667  0.000000  1
  Dy  Dy2  1  0.183706  0.183706  0.500000  1
  Dy  Dy3  1  0.816294  0.000000  0.500000  1
  Dy  Dy4  1  0.000000  0.816294  0.500000  1
  Ta  Ta5  1  0.557062  0.557062  0.000000  1
  Ta  Ta6  1  0.442938  0.000000  0.000000  1
  Ta  Ta7  1  0.000000  0.442938  0.000000  1
  Co  Co8  1  0.824304  0.196647  0.000000  1
  Co  Co9  1  0.803353  0.627656  0.000000  1
  Co  Co10  1  0.372344  0.175696  0.000000  1
  Co  Co11  1  0.196647  0.824304  0.000000  1
  Co  Co12  1  0.627656  0.803353  0.000000  1
  Co  Co13  1  0.175696  0.372344  0.000000  1
  Co  Co14  1  0.645047  0.124045  0.500000  1
  Co  Co15  1  0.875955  0.521001  0.500000  1
  Co  Co16  1  0.478999  0.354953  0.500000  1
  Co  Co17  1  0.124045  0.645047  0.500000  1
  Co  Co18  1  0.521001  0.875955  0.500000  1
  Co  Co19  1  0.354953  0.478999  0.500000  1
  Co  Co20  1  0.721278  0.721278  0.500000  1
  Co  Co21  1  0.278722  0.000000  0.500000  1
  Co  Co22  1  0.000000  0.278722  0.500000  1
  Co  Co23  1  0.000000  0.000000  0.000000  1
  P  P24  1  0.356082  0.356082  0.000000  1
  P  P25  1  0.643918  0.000000  0.000000  1
  P  P26  1  0.000000  0.643918  0.000000  1
  P  P27  1  0.834297  0.310111  0.500000  1
  P  P28  1  0.689889  0.524185  0.500000  1
  P  P29  1  0.475815  0.165703  0.500000  1
  P  P30  1  0.310111  0.834297  0.500000  1
  P  P31  1  0.524185  0.689889  0.500000  1
  P  P32  1  0.165703  0.475815  0.500000  1
  P  P33  1  0.823094  0.823094  0.000000  1
  P  P34  1  0.176906  0.000000  0.000000  1
  P  P35  1  0.000000  0.176906  0.000000  1
