# generated using pymatgen
data_Er3ScTc3B8Ru7
_symmetry_space_group_name_H-M   'P 1'
_cell_length_a   3.07059000
_cell_length_b   8.68625593
_cell_length_c   10.13521467
_cell_angle_alpha   90.36895507
_cell_angle_beta   90.00000000
_cell_angle_gamma   90.00000000
_symmetry_Int_Tables_number   1
_chemical_formula_structural   Er3ScTc3B8Ru7
_chemical_formula_sum   'Er3 Sc1 Tc3 B8 Ru7'
_cell_volume   270.32013766
_cell_formula_units_Z   1
loop_
 _symmetry_equiv_pos_site_id
 _symmetry_equiv_pos_as_xyz
  1  'x, y, z'
loop_
 _atom_site_type_symbol
 _atom_site_label
 _atom_site_symmetry_multiplicity
 _atom_site_fract_x
 _atom_site_fract_y
 _atom_site_fract_z
 _atom_site_occupancy
  Er  Er0  1  0.500000  0.839956  0.182873  1
  Er  Er1  1  0.500000  0.159739  0.819333  1
  Er  Er2  1  0.500000  0.658868  0.680792  1
  Sc  Sc3  1  0.500000  0.341629  0.315162  1
  Tc  Tc4  1  0.000000  0.659033  0.954337  1
  Tc  Tc5  1  0.000000  0.341311  0.047717  1
  Tc  Tc6  1  0.000000  0.842872  0.453868  1
  B  B7  1  0.500000  0.964281  0.586913  1
  B  B8  1  0.500000  0.032527  0.410923  1
  B  B9  1  0.500000  0.849208  0.903007  1
  B  B10  1  0.500000  0.154161  0.100526  1
  B  B11  1  0.500000  0.648175  0.399864  1
  B  B12  1  0.500000  0.350789  0.597912  1
  B  B13  1  0.500000  0.466043  0.913973  1
  B  B14  1  0.500000  0.534026  0.086812  1
  Ru  Ru15  1  0.000000  0.160594  0.545945  1
  Ru  Ru16  1  0.000000  0.000700  0.001823  1
  Ru  Ru17  1  0.000000  0.405979  0.759159  1
  Ru  Ru18  1  0.000000  0.588428  0.240703  1
  Ru  Ru19  1  0.000000  0.493980  0.496221  1
  Ru  Ru20  1  0.000000  0.907127  0.739290  1
  Ru  Ru21  1  0.000000  0.100574  0.262850  1
