# generated using pymatgen
data_Y4HfZr2SnIr4
_symmetry_space_group_name_H-M   'P 1'
_cell_length_a   4.46607000
_cell_length_b   7.19629094
_cell_length_c   8.33767001
_cell_angle_alpha   93.09457865
_cell_angle_beta   90.00000000
_cell_angle_gamma   90.00000000
_symmetry_Int_Tables_number   1
_chemical_formula_structural   Y4HfZr2SnIr4
_chemical_formula_sum   'Y4 Hf1 Zr2 Sn1 Ir4'
_cell_volume   267.57478422
_cell_formula_units_Z   1
loop_
 _symmetry_equiv_pos_site_id
 _symmetry_equiv_pos_as_xyz
  1  'x, y, z'
loop_
 _atom_site_type_symbol
 _atom_site_label
 _atom_site_symmetry_multiplicity
 _atom_site_fract_x
 _atom_site_fract_y
 _atom_site_fract_z
 _atom_site_occupancy
  Y  Y0  1  0.250000  0.033225  0.334585  1
  Y  Y1  1  0.250000  0.517860  0.178343  1
  Y  Y2  1  0.750000  0.993638  0.668388  1
  Y  Y3  1  0.750000  0.462741  0.817141  1
  Hf  Hf4  1  0.250000  0.133299  0.927294  1
  Zr  Zr5  1  0.250000  0.642580  0.564246  1
  Zr  Zr6  1  0.750000  0.857869  0.071728  1
  Sn  Sn7  1  0.750000  0.355691  0.426249  1
  Ir  Ir8  1  0.250000  0.269307  0.629745  1
  Ir  Ir9  1  0.250000  0.763594  0.894508  1
  Ir  Ir10  1  0.750000  0.742168  0.390112  1
  Ir  Ir11  1  0.750000  0.228030  0.097662  1
