# generated using pymatgen
data_K6YTmF12
_symmetry_space_group_name_H-M   'P 1'
_cell_length_a   6.64634665
_cell_length_b   6.38997107
_cell_length_c   11.08210860
_cell_angle_alpha   55.57290853
_cell_angle_beta   90.09720830
_cell_angle_gamma   89.93538160
_symmetry_Int_Tables_number   1
_chemical_formula_structural   K6YTmF12
_chemical_formula_sum   'K6 Y1 Tm1 F12'
_cell_volume   388.21765472
_cell_formula_units_Z   1
loop_
 _symmetry_equiv_pos_site_id
 _symmetry_equiv_pos_as_xyz
  1  'x, y, z'
loop_
 _atom_site_type_symbol
 _atom_site_label
 _atom_site_symmetry_multiplicity
 _atom_site_fract_x
 _atom_site_fract_y
 _atom_site_fract_z
 _atom_site_occupancy
  K  K0  1  0.947217  0.732228  0.751244  1
  K  K1  1  0.449536  0.277859  0.738261  1
  K  K2  1  0.052783  0.267772  0.248756  1
  K  K3  1  0.550464  0.722141  0.261739  1
  K  K4  1  0.000000  0.500000  0.500000  1
  K  K5  1  0.500000  0.500000  0.000000  1
  Y  Y6  1  0.000000  0.000000  0.000000  1
  Tm  Tm7  1  0.500000  0.000000  0.500000  1
  F  F8  1  0.938730  0.891070  0.224262  1
  F  F9  1  0.440523  0.105171  0.281105  1
  F  F10  1  0.061270  0.108930  0.775738  1
  F  F11  1  0.559477  0.894829  0.718895  1
  F  F12  1  0.730051  0.245133  0.923818  1
  F  F13  1  0.236141  0.760847  0.571862  1
  F  F14  1  0.269949  0.754867  0.076182  1
  F  F15  1  0.763859  0.239153  0.428138  1
  F  F16  1  0.322623  0.320074  0.453401  1
  F  F17  1  0.823748  0.669796  0.049872  1
  F  F18  1  0.677377  0.679926  0.546599  1
  F  F19  1  0.176252  0.330204  0.950128  1
