# generated using pymatgen
data_Be3TlCdF9
_symmetry_space_group_name_H-M   'P 1'
_cell_length_a   6.97174400
_cell_length_b   6.97174364
_cell_length_c   10.05569000
_cell_angle_alpha   90.00000000
_cell_angle_beta   90.00000000
_cell_angle_gamma   120.00000170
_symmetry_Int_Tables_number   1
_chemical_formula_structural   Be3TlCdF9
_chemical_formula_sum   'Be6 Tl2 Cd2 F18'
_cell_volume   423.27765404
_cell_formula_units_Z   2
loop_
 _symmetry_equiv_pos_site_id
 _symmetry_equiv_pos_as_xyz
  1  'x, y, z'
loop_
 _atom_site_type_symbol
 _atom_site_label
 _atom_site_symmetry_multiplicity
 _atom_site_fract_x
 _atom_site_fract_y
 _atom_site_fract_z
 _atom_site_occupancy
  Be  Be0  1  0.881406  0.287431  0.250000  1
  Be  Be1  1  0.881406  0.593975  0.750000  1
  Be  Be2  1  0.406025  0.287431  0.750000  1
  Be  Be3  1  0.712569  0.118594  0.750000  1
  Be  Be4  1  0.712569  0.593975  0.250000  1
  Be  Be5  1  0.406025  0.118594  0.250000  1
  Tl  Tl6  1  0.333333  0.666667  0.500000  1
  Tl  Tl7  1  0.333333  0.666667  0.000000  1
  Cd  Cd8  1  0.000000  0.000000  0.500000  1
  Cd  Cd9  1  0.000000  0.000000  0.000000  1
  F  F10  1  0.730297  0.003381  0.623038  1
  F  F11  1  0.273083  0.269703  0.623038  1
  F  F12  1  0.996619  0.726917  0.623038  1
  F  F13  1  0.996619  0.269703  0.376962  1
  F  F14  1  0.895059  0.522098  0.250000  1
  F  F15  1  0.627039  0.104941  0.250000  1
  F  F16  1  0.477902  0.372961  0.250000  1
  F  F17  1  0.477902  0.104941  0.750000  1
  F  F18  1  0.627039  0.522098  0.750000  1
  F  F19  1  0.895059  0.372961  0.750000  1
  F  F20  1  0.996619  0.269703  0.123038  1
  F  F21  1  0.273083  0.003381  0.376962  1
  F  F22  1  0.730297  0.726917  0.376962  1
  F  F23  1  0.730297  0.726917  0.123038  1
  F  F24  1  0.273083  0.003381  0.123038  1
  F  F25  1  0.730297  0.003381  0.876962  1
  F  F26  1  0.273083  0.269703  0.876962  1
  F  F27  1  0.996619  0.726917  0.876962  1
