# generated using pymatgen
data_Hf17ScV2(Re3P)2
_symmetry_space_group_name_H-M   'P 1'
_cell_length_a   8.59007945
_cell_length_b   8.59007915
_cell_length_c   8.49193600
_cell_angle_alpha   90.00000000
_cell_angle_beta   90.00000000
_cell_angle_gamma   120.04613308
_symmetry_Int_Tables_number   1
_chemical_formula_structural   Hf17ScV2(Re3P)2
_chemical_formula_sum   'Hf17 Sc1 V2 Re6 P2'
_cell_volume   542.41240449
_cell_formula_units_Z   1
loop_
 _symmetry_equiv_pos_site_id
 _symmetry_equiv_pos_as_xyz
  1  'x, y, z'
loop_
 _atom_site_type_symbol
 _atom_site_label
 _atom_site_symmetry_multiplicity
 _atom_site_fract_x
 _atom_site_fract_y
 _atom_site_fract_z
 _atom_site_occupancy
  Hf  Hf0  1  0.195022  0.804978  0.452065  1
  Hf  Hf1  1  0.195799  0.389783  0.450399  1
  Hf  Hf2  1  0.610217  0.804201  0.450399  1
  Hf  Hf3  1  0.803987  0.196013  0.548080  1
  Hf  Hf4  1  0.805170  0.610645  0.549698  1
  Hf  Hf5  1  0.389355  0.194830  0.549698  1
  Hf  Hf6  1  0.803987  0.196013  0.951920  1
  Hf  Hf7  1  0.805170  0.610645  0.950302  1
  Hf  Hf8  1  0.389355  0.194830  0.950302  1
  Hf  Hf9  1  0.195022  0.804978  0.047935  1
  Hf  Hf10  1  0.195799  0.389783  0.049601  1
  Hf  Hf11  1  0.610217  0.804201  0.049601  1
  Hf  Hf12  1  0.538878  0.076939  0.250000  1
  Hf  Hf13  1  0.923061  0.461122  0.250000  1
  Hf  Hf14  1  0.459470  0.540530  0.750000  1
  Hf  Hf15  1  0.460505  0.920429  0.750000  1
  Hf  Hf16  1  0.079571  0.539495  0.750000  1
  Sc  Sc17  1  0.542810  0.457190  0.250000  1
  V  V18  1  0.999885  0.000115  0.498504  1
  V  V19  1  0.999885  0.000115  0.001496  1
  Re  Re20  1  0.891627  0.108373  0.250000  1
  Re  Re21  1  0.891764  0.782260  0.250000  1
  Re  Re22  1  0.217740  0.108236  0.250000  1
  Re  Re23  1  0.107814  0.892186  0.750000  1
  Re  Re24  1  0.107642  0.217430  0.750000  1
  Re  Re25  1  0.782570  0.892358  0.750000  1
  P  P26  1  0.331531  0.668469  0.250000  1
  P  P27  1  0.666151  0.333849  0.750000  1
