# generated using pymatgen
data_DyY(Ni2P)4
_symmetry_space_group_name_H-M   'P 1'
_cell_length_a   7.09492944
_cell_length_b   7.09492944
_cell_length_c   3.60251100
_cell_angle_alpha   90.00000000
_cell_angle_beta   90.00000000
_cell_angle_gamma   89.95983199
_symmetry_Int_Tables_number   1
_chemical_formula_structural   DyY(Ni2P)4
_chemical_formula_sum   'Dy1 Y1 Ni8 P4'
_cell_volume   181.34323953
_cell_formula_units_Z   1
loop_
 _symmetry_equiv_pos_site_id
 _symmetry_equiv_pos_as_xyz
  1  'x, y, z'
loop_
 _atom_site_type_symbol
 _atom_site_label
 _atom_site_symmetry_multiplicity
 _atom_site_fract_x
 _atom_site_fract_y
 _atom_site_fract_z
 _atom_site_occupancy
  Dy  Dy0  1  0.500000  0.500000  0.500000  1
  Y  Y1  1  0.000000  0.000000  0.000000  1
  Ni  Ni2  1  0.585063  0.836829  0.000000  1
  Ni  Ni3  1  0.836829  0.585063  0.000000  1
  Ni  Ni4  1  0.163171  0.414937  0.000000  1
  Ni  Ni5  1  0.414937  0.163171  0.000000  1
  Ni  Ni6  1  0.662773  0.085305  0.500000  1
  Ni  Ni7  1  0.914695  0.337227  0.500000  1
  Ni  Ni8  1  0.085305  0.662773  0.500000  1
  Ni  Ni9  1  0.337227  0.914695  0.500000  1
  P  P10  1  0.720053  0.279947  0.000000  1
  P  P11  1  0.279947  0.720053  0.000000  1
  P  P12  1  0.779416  0.779416  0.500000  1
  P  P13  1  0.220584  0.220584  0.500000  1
