# generated using pymatgen
data_Er4Ga4Pd3Ru
_symmetry_space_group_name_H-M   'P 1'
_cell_length_a   4.40486100
_cell_length_b   6.85638759
_cell_length_c   7.68291908
_cell_angle_alpha   89.57554829
_cell_angle_beta   90.00000000
_cell_angle_gamma   90.00000000
_symmetry_Int_Tables_number   1
_chemical_formula_structural   Er4Ga4Pd3Ru
_chemical_formula_sum   'Er4 Ga4 Pd3 Ru1'
_cell_volume   232.02880899
_cell_formula_units_Z   1
loop_
 _symmetry_equiv_pos_site_id
 _symmetry_equiv_pos_as_xyz
  1  'x, y, z'
loop_
 _atom_site_type_symbol
 _atom_site_label
 _atom_site_symmetry_multiplicity
 _atom_site_fract_x
 _atom_site_fract_y
 _atom_site_fract_z
 _atom_site_occupancy
  Er  Er0  1  0.250000  0.487106  0.193207  1
  Er  Er1  1  0.750000  0.525199  0.812224  1
  Er  Er2  1  0.250000  0.977778  0.301233  1
  Er  Er3  1  0.750000  0.021996  0.691528  1
  Ga  Ga4  1  0.250000  0.829192  0.929883  1
  Ga  Ga5  1  0.750000  0.159536  0.072189  1
  Ga  Ga6  1  0.250000  0.332622  0.571351  1
  Ga  Ga7  1  0.750000  0.671255  0.426512  1
  Pd  Pd8  1  0.250000  0.223033  0.897134  1
  Pd  Pd9  1  0.750000  0.279073  0.395233  1
  Pd  Pd10  1  0.250000  0.723787  0.605279  1
  Ru  Ru11  1  0.750000  0.769424  0.104227  1
