# generated using pymatgen
data_Er5Si9P3Ir18Ru
_symmetry_space_group_name_H-M   'P 1'
_cell_length_a   12.81065201
_cell_length_b   12.81065186
_cell_length_c   3.94427300
_cell_angle_alpha   90.00000000
_cell_angle_beta   90.00000000
_cell_angle_gamma   120.19738983
_symmetry_Int_Tables_number   1
_chemical_formula_structural   Er5Si9P3Ir18Ru
_chemical_formula_sum   'Er5 Si9 P3 Ir18 Ru1'
_cell_volume   559.46483658
_cell_formula_units_Z   1
loop_
 _symmetry_equiv_pos_site_id
 _symmetry_equiv_pos_as_xyz
  1  'x, y, z'
loop_
 _atom_site_type_symbol
 _atom_site_label
 _atom_site_symmetry_multiplicity
 _atom_site_fract_x
 _atom_site_fract_y
 _atom_site_fract_z
 _atom_site_occupancy
  Er  Er0  1  0.665664  0.333096  0.000000  1
  Er  Er1  1  0.333096  0.665664  0.000000  1
  Er  Er2  1  0.813509  0.813509  0.500000  1
  Er  Er3  1  0.187409  0.002301  0.500000  1
  Er  Er4  1  0.002301  0.187409  0.500000  1
  Si  Si5  1  0.686401  0.167666  0.500000  1
  Si  Si6  1  0.831974  0.518423  0.500000  1
  Si  Si7  1  0.478277  0.312983  0.500000  1
  Si  Si8  1  0.167666  0.686401  0.500000  1
  Si  Si9  1  0.518423  0.831974  0.500000  1
  Si  Si10  1  0.312983  0.478277  0.500000  1
  Si  Si11  1  0.632470  0.632470  0.000000  1
  Si  Si12  1  0.367279  0.000338  0.000000  1
  Si  Si13  1  0.000338  0.367279  0.000000  1
  P  P14  1  0.180512  0.180512  0.000000  1
  P  P15  1  0.822401  0.000917  0.000000  1
  P  P16  1  0.000917  0.822401  0.000000  1
  Ir  Ir17  1  0.807375  0.180050  0.000000  1
  Ir  Ir18  1  0.820332  0.627839  0.000000  1
  Ir  Ir19  1  0.372956  0.192439  0.000000  1
  Ir  Ir20  1  0.180050  0.807375  0.000000  1
  Ir  Ir21  1  0.627839  0.820332  0.000000  1
  Ir  Ir22  1  0.192439  0.372956  0.000000  1
  Ir  Ir23  1  0.445964  0.445964  0.000000  1
  Ir  Ir24  1  0.553069  0.999391  0.000000  1
  Ir  Ir25  1  0.999391  0.553069  0.000000  1
  Ir  Ir26  1  0.722411  0.000250  0.500000  1
  Ir  Ir27  1  0.000250  0.722411  0.500000  1
  Ir  Ir28  1  0.872205  0.359748  0.500000  1
  Ir  Ir29  1  0.640169  0.512513  0.500000  1
  Ir  Ir30  1  0.487577  0.127262  0.500000  1
  Ir  Ir31  1  0.359748  0.872205  0.500000  1
  Ir  Ir32  1  0.512513  0.640169  0.500000  1
  Ir  Ir33  1  0.127262  0.487577  0.500000  1
  Ir  Ir34  1  0.999924  0.999924  0.000000  1
  Ru  Ru35  1  0.276908  0.276908  0.500000  1
