# generated using pymatgen
data_KCuPt3O8
_symmetry_space_group_name_H-M   'P 1'
_cell_length_a   6.33354721
_cell_length_b   7.32279607
_cell_length_c   7.44155500
_cell_angle_alpha   87.39005216
_cell_angle_beta   77.56365460
_cell_angle_gamma   77.01336035
_symmetry_Int_Tables_number   1
_chemical_formula_structural   KCuPt3O8
_chemical_formula_sum   'K2 Cu2 Pt6 O16'
_cell_volume   328.41363988
_cell_formula_units_Z   2
loop_
 _symmetry_equiv_pos_site_id
 _symmetry_equiv_pos_as_xyz
  1  'x, y, z'
loop_
 _atom_site_type_symbol
 _atom_site_label
 _atom_site_symmetry_multiplicity
 _atom_site_fract_x
 _atom_site_fract_y
 _atom_site_fract_z
 _atom_site_occupancy
  K  K0  1  0.748118  0.978565  0.029121  1
  K  K1  1  0.262943  0.990967  0.956759  1
  Cu  Cu2  1  0.428512  0.806076  0.520302  1
  Cu  Cu3  1  0.829680  0.519987  0.194533  1
  Pt  Pt4  1  0.922026  0.814362  0.518803  1
  Pt  Pt5  1  0.179280  0.483685  0.821593  1
  Pt  Pt6  1  0.680931  0.481878  0.820511  1
  Pt  Pt7  1  0.329707  0.518380  0.185839  1
  Pt  Pt8  1  0.092654  0.183003  0.479044  1
  Pt  Pt9  1  0.588528  0.184557  0.480155  1
  O  O10  1  0.097868  0.954723  0.647107  1
  O  O11  1  0.614295  0.958621  0.651090  1
  O  O12  1  0.913373  0.634789  0.730874  1
  O  O13  1  0.416110  0.632127  0.724916  1
  O  O14  1  0.931698  0.351624  0.948074  1
  O  O15  1  0.433042  0.348098  0.949080  1
  O  O16  1  0.235201  0.715956  0.376507  1
  O  O17  1  0.731818  0.710070  0.382861  1
  O  O18  1  0.277781  0.279057  0.627566  1
  O  O19  1  0.778924  0.320771  0.589938  1
  O  O20  1  0.085413  0.649274  0.049286  1
  O  O21  1  0.578109  0.646057  0.049886  1
  O  O22  1  0.095148  0.372689  0.277425  1
  O  O23  1  0.592946  0.372309  0.277188  1
  O  O24  1  0.907464  0.047979  0.349906  1
  O  O25  1  0.408031  0.044397  0.361638  1
