# generated using pymatgen
data_LiErLu(Co3P2)3
_symmetry_space_group_name_H-M   'P 1'
_cell_length_a   3.64973700
_cell_length_b   10.21139500
_cell_length_c   11.77958100
_cell_angle_alpha   90.00000000
_cell_angle_beta   90.00000000
_cell_angle_gamma   90.00000000
_symmetry_Int_Tables_number   1
_chemical_formula_structural   LiErLu(Co3P2)3
_chemical_formula_sum   'Li2 Er2 Lu2 Co18 P12'
_cell_volume   439.01209881
_cell_formula_units_Z   2
loop_
 _symmetry_equiv_pos_site_id
 _symmetry_equiv_pos_as_xyz
  1  'x, y, z'
loop_
 _atom_site_type_symbol
 _atom_site_label
 _atom_site_symmetry_multiplicity
 _atom_site_fract_x
 _atom_site_fract_y
 _atom_site_fract_z
 _atom_site_occupancy
  Li  Li0  1  0.250000  0.702625  0.990840  1
  Li  Li1  1  0.250000  0.797375  0.490840  1
  Er  Er2  1  0.750000  0.420712  0.297509  1
  Er  Er3  1  0.750000  0.079288  0.797509  1
  Lu  Lu4  1  0.250000  0.578969  0.702397  1
  Lu  Lu5  1  0.250000  0.921031  0.202397  1
  Co  Co6  1  0.750000  0.288161  0.008497  1
  Co  Co7  1  0.750000  0.211839  0.508497  1
  Co  Co8  1  0.250000  0.404584  0.487220  1
  Co  Co9  1  0.250000  0.095416  0.987220  1
  Co  Co10  1  0.750000  0.591361  0.516227  1
  Co  Co11  1  0.750000  0.908639  0.016227  1
  Co  Co12  1  0.250000  0.224257  0.174843  1
  Co  Co13  1  0.250000  0.275743  0.674843  1
  Co  Co14  1  0.750000  0.779472  0.826148  1
  Co  Co15  1  0.750000  0.720528  0.326148  1
  Co  Co16  1  0.250000  0.880176  0.699017  1
  Co  Co17  1  0.250000  0.619824  0.199017  1
  Co  Co18  1  0.750000  0.120334  0.299009  1
  Co  Co19  1  0.750000  0.379666  0.799009  1
  Co  Co20  1  0.250000  0.463554  0.930728  1
  Co  Co21  1  0.250000  0.036446  0.430728  1
  Co  Co22  1  0.750000  0.534205  0.066286  1
  Co  Co23  1  0.750000  0.965795  0.566286  1
  P  P24  1  0.250000  0.422648  0.112257  1
  P  P25  1  0.250000  0.077352  0.612257  1
  P  P26  1  0.750000  0.577261  0.882797  1
  P  P27  1  0.750000  0.922739  0.382797  1
  P  P28  1  0.250000  0.267060  0.867089  1
  P  P29  1  0.250000  0.232940  0.367089  1
  P  P30  1  0.750000  0.732036  0.138232  1
  P  P31  1  0.750000  0.767964  0.638232  1
  P  P32  1  0.250000  0.601212  0.393215  1
  P  P33  1  0.250000  0.898788  0.893215  1
  P  P34  1  0.750000  0.396824  0.607689  1
  P  P35  1  0.750000  0.103176  0.107689  1
