# generated using pymatgen
data_RbAcSiSe4
_symmetry_space_group_name_H-M   'P 1'
_cell_length_a   7.13774800
_cell_length_b   7.08166998
_cell_length_c   19.01977900
_cell_angle_alpha   72.77142869
_cell_angle_beta   90.00000000
_cell_angle_gamma   90.00000000
_symmetry_Int_Tables_number   1
_chemical_formula_structural   RbAcSiSe4
_chemical_formula_sum   'Rb4 Ac4 Si4 Se16'
_cell_volume   918.25902178
_cell_formula_units_Z   4
loop_
 _symmetry_equiv_pos_site_id
 _symmetry_equiv_pos_as_xyz
  1  'x, y, z'
loop_
 _atom_site_type_symbol
 _atom_site_label
 _atom_site_symmetry_multiplicity
 _atom_site_fract_x
 _atom_site_fract_y
 _atom_site_fract_z
 _atom_site_occupancy
  Rb  Rb0  1  0.748887  0.271294  0.467083  1
  Rb  Rb1  1  0.248887  0.728706  0.032917  1
  Rb  Rb2  1  0.251113  0.728706  0.532917  1
  Rb  Rb3  1  0.751113  0.271294  0.967083  1
  Ac  Ac4  1  0.766048  0.233743  0.223516  1
  Ac  Ac5  1  0.733952  0.233743  0.723516  1
  Ac  Ac6  1  0.266048  0.766257  0.276484  1
  Ac  Ac7  1  0.233952  0.766257  0.776484  1
  Si  Si8  1  0.237966  0.210679  0.341551  1
  Si  Si9  1  0.737966  0.789321  0.158449  1
  Si  Si10  1  0.762034  0.789321  0.658449  1
  Si  Si11  1  0.262034  0.210679  0.841551  1
  Se  Se12  1  0.501109  0.983773  0.865711  1
  Se  Se13  1  0.738938  0.595744  0.082178  1
  Se  Se14  1  0.996015  0.020369  0.858454  1
  Se  Se15  1  0.503985  0.020369  0.358454  1
  Se  Se16  1  0.003985  0.979631  0.141546  1
  Se  Se17  1  0.294876  0.390786  0.719577  1
  Se  Se18  1  0.261062  0.404256  0.917822  1
  Se  Se19  1  0.998891  0.983773  0.365711  1
  Se  Se20  1  0.238938  0.404256  0.417822  1
  Se  Se21  1  0.001109  0.016227  0.634289  1
  Se  Se22  1  0.761062  0.595744  0.582178  1
  Se  Se23  1  0.705124  0.609214  0.280423  1
  Se  Se24  1  0.496015  0.979631  0.641546  1
  Se  Se25  1  0.794876  0.609214  0.780423  1
  Se  Se26  1  0.205124  0.390786  0.219577  1
  Se  Se27  1  0.498891  0.016227  0.134289  1
