# generated using pymatgen
data_Lu2Zr2Al18Ir5Pt
_symmetry_space_group_name_H-M   'P 1'
_cell_length_a   7.52354160
_cell_length_b   7.51279455
_cell_length_c   9.32742925
_cell_angle_alpha   90.00079198
_cell_angle_beta   90.04919648
_cell_angle_gamma   119.78668786
_symmetry_Int_Tables_number   1
_chemical_formula_structural   Lu2Zr2Al18Ir5Pt
_chemical_formula_sum   'Lu2 Zr2 Al18 Ir5 Pt1'
_cell_volume   457.55753954
_cell_formula_units_Z   1
loop_
 _symmetry_equiv_pos_site_id
 _symmetry_equiv_pos_as_xyz
  1  'x, y, z'
loop_
 _atom_site_type_symbol
 _atom_site_label
 _atom_site_symmetry_multiplicity
 _atom_site_fract_x
 _atom_site_fract_y
 _atom_site_fract_z
 _atom_site_occupancy
  Lu  Lu0  1  0.670390  0.994282  0.250896  1
  Lu  Lu1  1  0.329610  0.005718  0.749104  1
  Zr  Zr2  1  0.994739  0.670684  0.250197  1
  Zr  Zr3  1  0.005261  0.329316  0.749803  1
  Al  Al4  1  0.128295  0.126902  0.251949  1
  Al  Al5  1  0.871705  0.873098  0.748051  1
  Al  Al6  1  0.999403  0.339692  0.075933  1
  Al  Al7  1  0.000597  0.660308  0.924067  1
  Al  Al8  1  0.001057  0.663848  0.573865  1
  Al  Al9  1  0.332815  0.998342  0.423388  1
  Al  Al10  1  0.998943  0.336152  0.426135  1
  Al  Al11  1  0.667185  0.001658  0.576612  1
  Al  Al12  1  0.664029  0.001412  0.921469  1
  Al  Al13  1  0.335971  0.998588  0.078531  1
  Al  Al14  1  0.331502  0.333253  0.556612  1
  Al  Al15  1  0.668498  0.666747  0.443388  1
  Al  Al16  1  0.665712  0.663885  0.058229  1
  Al  Al17  1  0.334288  0.336115  0.941771  1
  Al  Al18  1  0.334224  0.548053  0.250289  1
  Al  Al19  1  0.665776  0.451947  0.749711  1
  Al  Al20  1  0.553186  0.342542  0.250410  1
  Al  Al21  1  0.446814  0.657458  0.749590  1
  Ir  Ir22  1  0.671148  0.326488  0.999737  1
  Ir  Ir23  1  0.328852  0.673512  0.000263  1
  Ir  Ir24  1  0.328522  0.673309  0.499537  1
  Ir  Ir25  1  0.671478  0.326691  0.500463  1
  Ir  Ir26  1  0.000000  0.000000  0.500000  1
  Pt  Pt27  1  0.000000  0.000000  0.000000  1
