# generated using pymatgen
data_Tm8Zr12Si15Pt
_symmetry_space_group_name_H-M   'P 1'
_cell_length_a   7.12808222
_cell_length_b   7.27088929
_cell_length_c   13.91017209
_cell_angle_alpha   89.85742471
_cell_angle_beta   89.82926850
_cell_angle_gamma   90.06079158
_symmetry_Int_Tables_number   1
_chemical_formula_structural   Tm8Zr12Si15Pt
_chemical_formula_sum   'Tm8 Zr12 Si15 Pt1'
_cell_volume   720.92355391
_cell_formula_units_Z   1
loop_
 _symmetry_equiv_pos_site_id
 _symmetry_equiv_pos_as_xyz
  1  'x, y, z'
loop_
 _atom_site_type_symbol
 _atom_site_label
 _atom_site_symmetry_multiplicity
 _atom_site_fract_x
 _atom_site_fract_y
 _atom_site_fract_z
 _atom_site_occupancy
  Tm  Tm0  1  0.016500  0.176103  0.096726  1
  Tm  Tm1  1  0.985004  0.824307  0.903891  1
  Tm  Tm2  1  0.486552  0.677247  0.903638  1
  Tm  Tm3  1  0.984627  0.825156  0.597513  1
  Tm  Tm4  1  0.514647  0.323070  0.096115  1
  Tm  Tm5  1  0.012008  0.177667  0.400807  1
  Tm  Tm6  1  0.513614  0.323823  0.400836  1
  Tm  Tm7  1  0.484915  0.674942  0.597576  1
  Zr  Zr8  1  0.159236  0.502961  0.751022  1
  Zr  Zr9  1  0.843502  0.500285  0.248882  1
  Zr  Zr10  1  0.344614  0.000233  0.249335  1
  Zr  Zr11  1  0.654919  0.001499  0.749009  1
  Zr  Zr12  1  0.335264  0.178483  0.624357  1
  Zr  Zr13  1  0.670235  0.823761  0.374099  1
  Zr  Zr14  1  0.171426  0.670323  0.377949  1
  Zr  Zr15  1  0.672469  0.822166  0.124593  1
  Zr  Zr16  1  0.827238  0.322776  0.624406  1
  Zr  Zr17  1  0.327628  0.174811  0.875548  1
  Zr  Zr18  1  0.829815  0.321472  0.876231  1
  Zr  Zr19  1  0.170773  0.677789  0.124099  1
  Si  Si20  1  0.033133  0.117110  0.750811  1
  Si  Si21  1  0.969037  0.884187  0.249768  1
  Si  Si22  1  0.466399  0.615181  0.249632  1
  Si  Si23  1  0.534310  0.384955  0.753103  1
  Si  Si24  1  0.281909  0.872362  0.751836  1
  Si  Si25  1  0.717499  0.129163  0.248221  1
  Si  Si26  1  0.217499  0.369587  0.247834  1
  Si  Si27  1  0.783127  0.629481  0.753193  1
  Si  Si28  1  0.835429  0.532646  0.457940  1
  Si  Si29  1  0.344720  0.970352  0.457298  1
  Si  Si30  1  0.843220  0.530024  0.040477  1
  Si  Si31  1  0.656767  0.032318  0.538289  1
  Si  Si32  1  0.156651  0.467384  0.960366  1
  Si  Si33  1  0.655365  0.030296  0.959815  1
  Si  Si34  1  0.347034  0.968710  0.041227  1
  Pt  Pt35  1  0.152913  0.467370  0.543555  1
