# generated using pymatgen
data_LiEu2Zn17Cu4
_symmetry_space_group_name_H-M   'P 1'
_cell_length_a   8.29381590
_cell_length_b   8.29381608
_cell_length_c   8.29381500
_cell_angle_alpha   99.54585690
_cell_angle_beta   99.54585710
_cell_angle_gamma   131.93799148
_symmetry_Int_Tables_number   1
_chemical_formula_structural   LiEu2Zn17Cu4
_chemical_formula_sum   'Li1 Eu2 Zn17 Cu4'
_cell_volume   387.60095796
_cell_formula_units_Z   1
loop_
 _symmetry_equiv_pos_site_id
 _symmetry_equiv_pos_as_xyz
  1  'x, y, z'
loop_
 _atom_site_type_symbol
 _atom_site_label
 _atom_site_symmetry_multiplicity
 _atom_site_fract_x
 _atom_site_fract_y
 _atom_site_fract_z
 _atom_site_occupancy
  Li  Li0  1  0.750000  0.250000  0.500000  1
  Eu  Eu1  1  0.000000  0.000000  0.000000  1
  Eu  Eu2  1  0.250000  0.750000  0.500000  1
  Zn  Zn3  1  0.500000  0.500000  0.000000  1
  Zn  Zn4  1  0.189351  0.515734  0.082868  1
  Zn  Zn5  1  0.189351  0.106483  0.673618  1
  Zn  Zn6  1  0.766636  0.939872  0.582328  1
  Zn  Zn7  1  0.766636  0.184307  0.826763  1
  Zn  Zn8  1  0.432867  0.515734  0.326382  1
  Zn  Zn9  1  0.432867  0.106483  0.917132  1
  Zn  Zn10  1  0.357543  0.939872  0.173237  1
  Zn  Zn11  1  0.357543  0.184307  0.417672  1
  Zn  Zn12  1  0.060128  0.233364  0.417672  1
  Zn  Zn13  1  0.060128  0.642457  0.826763  1
  Zn  Zn14  1  0.484266  0.810649  0.917132  1
  Zn  Zn15  1  0.484266  0.567133  0.673618  1
  Zn  Zn16  1  0.815693  0.233364  0.173237  1
  Zn  Zn17  1  0.815693  0.642457  0.582328  1
  Zn  Zn18  1  0.893517  0.810649  0.326382  1
  Zn  Zn19  1  0.893517  0.567133  0.082868  1
  Cu  Cu20  1  0.125069  0.373500  0.751569  1
  Cu  Cu21  1  0.626500  0.874931  0.248431  1
  Cu  Cu22  1  0.626500  0.378070  0.751569  1
  Cu  Cu23  1  0.621930  0.373500  0.248431  1
