# generated using pymatgen
data_YbCeIn13Pd6
_symmetry_space_group_name_H-M   'P 1'
_cell_length_a   8.78669055
_cell_length_b   8.78668990
_cell_length_c   13.60347164
_cell_angle_alpha   62.58204317
_cell_angle_beta   62.58204586
_cell_angle_gamma   29.53274699
_symmetry_Int_Tables_number   1
_chemical_formula_structural   YbCeIn13Pd6
_chemical_formula_sum   'Yb1 Ce1 In13 Pd6'
_cell_volume   455.23065753
_cell_formula_units_Z   1
loop_
 _symmetry_equiv_pos_site_id
 _symmetry_equiv_pos_as_xyz
  1  'x, y, z'
loop_
 _atom_site_type_symbol
 _atom_site_label
 _atom_site_symmetry_multiplicity
 _atom_site_fract_x
 _atom_site_fract_y
 _atom_site_fract_z
 _atom_site_occupancy
  Yb  Yb0  1  0.178445  0.178445  0.725613  1
  Ce  Ce1  1  0.825177  0.825177  0.269309  1
  In  In2  1  0.800163  0.800163  0.538645  1
  In  In3  1  0.001133  0.001133  0.328711  1
  In  In4  1  0.699520  0.699520  0.124605  1
  In  In5  1  0.510488  0.510488  0.827412  1
  In  In6  1  0.347605  0.347605  0.074680  1
  In  In7  1  0.200331  0.200331  0.463232  1
  In  In8  1  0.407017  0.407017  0.600625  1
  In  In9  1  0.999762  0.999762  0.672652  1
  In  In10  1  0.000602  0.000602  0.998506  1
  In  In11  1  0.652339  0.652339  0.922503  1
  In  In12  1  0.297592  0.297592  0.875604  1
  In  In13  1  0.591095  0.591095  0.401810  1
  In  In14  1  0.490987  0.490987  0.170918  1
  Pd  Pd15  1  0.819082  0.819082  0.734721  1
  Pd  Pd16  1  0.181429  0.181429  0.265799  1
  Pd  Pd17  1  0.114508  0.114508  0.083787  1
  Pd  Pd18  1  0.386839  0.386839  0.404344  1
  Pd  Pd19  1  0.614463  0.614463  0.595767  1
  Pd  Pd20  1  0.881423  0.881423  0.920756  1
