# generated using pymatgen
data_Li5Ti6GeRh12
_symmetry_space_group_name_H-M   'P 1'
_cell_length_a   4.29588800
_cell_length_b   6.01895300
_cell_length_c   12.82536200
_cell_angle_alpha   90.00030420
_cell_angle_beta   89.99938499
_cell_angle_gamma   89.99997714
_symmetry_Int_Tables_number   1
_chemical_formula_structural   Li5Ti6GeRh12
_chemical_formula_sum   'Li5 Ti6 Ge1 Rh12'
_cell_volume   331.62215279
_cell_formula_units_Z   1
loop_
 _symmetry_equiv_pos_site_id
 _symmetry_equiv_pos_as_xyz
  1  'x, y, z'
loop_
 _atom_site_type_symbol
 _atom_site_label
 _atom_site_symmetry_multiplicity
 _atom_site_fract_x
 _atom_site_fract_y
 _atom_site_fract_z
 _atom_site_occupancy
  Li  Li0  1  0.499789  0.500001  0.168475  1
  Li  Li1  1  0.999745  0.000000  0.333818  1
  Li  Li2  1  0.500000  0.500000  0.499999  1
  Li  Li3  1  0.000256  0.000000  0.666181  1
  Li  Li4  1  0.500212  0.499999  0.831525  1
  Ti  Ti5  1  0.000000  0.500000  0.000000  1
  Ti  Ti6  1  0.499690  0.000000  0.170716  1
  Ti  Ti7  1  0.999684  0.500000  0.337363  1
  Ti  Ti8  1  0.500000  0.000000  0.499999  1
  Ti  Ti9  1  0.000314  0.500000  0.662637  1
  Ti  Ti10  1  0.500311  0.000000  0.829284  1
  Ge  Ge11  1  0.000000  0.000000  0.000000  1
  Rh  Rh12  1  0.500000  0.251134  0.000000  1
  Rh  Rh13  1  0.500000  0.748866  0.000000  1
  Rh  Rh14  1  0.999696  0.251436  0.167732  1
  Rh  Rh15  1  0.999696  0.748564  0.167731  1
  Rh  Rh16  1  0.499704  0.251047  0.333925  1
  Rh  Rh17  1  0.499705  0.748953  0.333925  1
  Rh  Rh18  1  0.000001  0.247561  0.499999  1
  Rh  Rh19  1  0.999999  0.752439  0.499999  1
  Rh  Rh20  1  0.500295  0.251047  0.666075  1
  Rh  Rh21  1  0.500296  0.748953  0.666075  1
  Rh  Rh22  1  0.000304  0.251436  0.832269  1
  Rh  Rh23  1  0.000304  0.748564  0.832268  1
