# generated using pymatgen
data_Ca12V8SnGe11O48
_symmetry_space_group_name_H-M   'P 1'
_cell_length_a   10.87579008
_cell_length_b   10.86185330
_cell_length_c   10.87045586
_cell_angle_alpha   109.68426911
_cell_angle_beta   109.10121305
_cell_angle_gamma   109.59561761
_symmetry_Int_Tables_number   1
_chemical_formula_structural   Ca12V8SnGe11O48
_chemical_formula_sum   'Ca12 V8 Sn1 Ge11 O48'
_cell_volume   988.90651243
_cell_formula_units_Z   1
loop_
 _symmetry_equiv_pos_site_id
 _symmetry_equiv_pos_as_xyz
  1  'x, y, z'
loop_
 _atom_site_type_symbol
 _atom_site_label
 _atom_site_symmetry_multiplicity
 _atom_site_fract_x
 _atom_site_fract_y
 _atom_site_fract_z
 _atom_site_occupancy
  Ca  Ca0  1  0.247786  0.875263  0.621097  1
  Ca  Ca1  1  0.746713  0.624152  0.873165  1
  Ca  Ca2  1  0.624541  0.875808  0.749810  1
  Ca  Ca3  1  0.874935  0.625876  0.249053  1
  Ca  Ca4  1  0.624842  0.249858  0.873481  1
  Ca  Ca5  1  0.868929  0.749073  0.619564  1
  Ca  Ca6  1  0.751612  0.125513  0.377376  1
  Ca  Ca7  1  0.250892  0.374845  0.125505  1
  Ca  Ca8  1  0.376990  0.125381  0.252836  1
  Ca  Ca9  1  0.126397  0.372877  0.751177  1
  Ca  Ca10  1  0.379263  0.750174  0.130750  1
  Ca  Ca11  1  0.126931  0.250812  0.376297  1
  V  V12  1  0.499606  0.499178  0.499317  1
  V  V13  1  0.499616  0.999821  0.500455  1
  V  V14  1  0.998178  0.499220  0.495131  1
  V  V15  1  0.500680  0.500317  0.999825  1
  V  V16  1  0.000088  0.000819  0.500366  1
  V  V17  1  0.001071  0.496898  0.001862  1
  V  V18  1  0.504536  0.002902  0.003720  1
  V  V19  1  0.995920  0.000877  0.998999  1
  Sn  Sn20  1  0.124709  0.749490  0.875233  1
  Ge  Ge21  1  0.875445  0.250478  0.124881  1
  Ge  Ge22  1  0.624049  0.376017  0.248116  1
  Ge  Ge23  1  0.751925  0.875905  0.127736  1
  Ge  Ge24  1  0.872219  0.124400  0.748793  1
  Ge  Ge25  1  0.252024  0.624234  0.375993  1
  Ge  Ge26  1  0.748919  0.374794  0.624562  1
  Ge  Ge27  1  0.249447  0.125092  0.874019  1
  Ge  Ge28  1  0.125859  0.875297  0.250401  1
  Ge  Ge29  1  0.375397  0.624254  0.750244  1
  Ge  Ge30  1  0.625360  0.750752  0.375758  1
  Ge  Ge31  1  0.374646  0.249299  0.624262  1
  O  O32  1  0.414680  0.814037  0.800572  1
  O  O33  1  0.880331  0.398579  0.084366  1
  O  O34  1  0.101897  0.985600  0.684480  1
  O  O35  1  0.517256  0.620328  0.702447  1
  O  O36  1  0.685183  0.085687  0.704351  1
  O  O37  1  0.618108  0.704554  0.516790  1
  O  O38  1  0.617285  0.415913  0.099338  1
  O  O39  1  0.699737  0.514844  0.616179  1
  O  O40  1  0.811172  0.517632  0.393759  1
  O  O41  1  0.963419  0.795807  0.873020  1
  O  O42  1  0.795653  0.883115  0.984935  1
  O  O43  1  0.704290  0.685980  0.084321  1
  O  O44  1  0.415190  0.101033  0.618719  1
  O  O45  1  0.397875  0.814057  0.518444  1
  O  O46  1  0.077336  0.704454  0.667953  1
  O  O47  1  0.101402  0.616120  0.412287  1
  O  O48  1  0.517473  0.397347  0.811410  1
  O  O49  1  0.083622  0.878899  0.396841  1
  O  O50  1  0.985815  0.686272  0.099736  1
  O  O51  1  0.187008  0.483975  0.604306  1
  O  O52  1  0.688522  0.103523  0.982177  1
  O  O53  1  0.797301  0.417364  0.813043  1
  O  O54  1  0.395273  0.081263  0.879826  1
  O  O55  1  0.877065  0.982153  0.793616  1
  O  O56  1  0.587683  0.188816  0.203758  1
  O  O57  1  0.125988  0.589060  0.922151  1
  O  O58  1  0.899948  0.017480  0.316890  1
  O  O59  1  0.481548  0.379401  0.295349  1
  O  O60  1  0.313298  0.914759  0.297519  1
  O  O61  1  0.380224  0.294050  0.481861  1
  O  O62  1  0.383756  0.583549  0.898605  1
  O  O63  1  0.298743  0.482144  0.382784  1
  O  O64  1  0.119279  0.016238  0.202933  1
  O  O65  1  0.606349  0.918654  0.123377  1
  O  O66  1  0.206270  0.582521  0.188780  1
  O  O67  1  0.186863  0.204112  0.585187  1
  O  O68  1  0.330540  0.908874  0.036986  1
  O  O69  1  0.016050  0.310607  0.899902  1
  O  O70  1  0.914351  0.121457  0.602241  1
  O  O71  1  0.483970  0.602356  0.188534  1
  O  O72  1  0.898948  0.385973  0.584981  1
  O  O73  1  0.916477  0.295565  0.313378  1
  O  O74  1  0.603085  0.185009  0.482804  1
  O  O75  1  0.585083  0.899317  0.382920  1
  O  O76  1  0.297958  0.315019  0.917562  1
  O  O77  1  0.199503  0.114688  0.013182  1
  O  O78  1  0.018448  0.204738  0.120991  1
  O  O79  1  0.813217  0.797399  0.414626  1
