# generated using pymatgen
data_La2Nd6Bi3O8
_symmetry_space_group_name_H-M   'P 1'
_cell_length_a   7.29114679
_cell_length_b   7.29114654
_cell_length_c   15.78306622
_cell_angle_alpha   73.47625279
_cell_angle_beta   73.47625354
_cell_angle_gamma   31.75577849
_symmetry_Int_Tables_number   1
_chemical_formula_structural   La2Nd6Bi3O8
_chemical_formula_sum   'La2 Nd6 Bi3 O8'
_cell_volume   421.84025731
_cell_formula_units_Z   1
loop_
 _symmetry_equiv_pos_site_id
 _symmetry_equiv_pos_as_xyz
  1  'x, y, z'
loop_
 _atom_site_type_symbol
 _atom_site_label
 _atom_site_symmetry_multiplicity
 _atom_site_fract_x
 _atom_site_fract_y
 _atom_site_fract_z
 _atom_site_occupancy
  La  La0  1  0.450870  0.457640  0.829943  1
  La  La1  1  0.542360  0.549130  0.170057  1
  Nd  Nd2  1  0.715488  0.724580  0.912103  1
  Nd  Nd3  1  0.275420  0.284512  0.087897  1
  Nd  Nd4  1  0.642546  0.643240  0.567089  1
  Nd  Nd5  1  0.356760  0.357454  0.432911  1
  Nd  Nd6  1  0.878463  0.880892  0.651063  1
  Nd  Nd7  1  0.119108  0.121537  0.348937  1
  Bi  Bi8  1  0.172573  0.174423  0.732365  1
  Bi  Bi9  1  0.825577  0.827427  0.267635  1
  Bi  Bi10  1  0.991740  0.008260  0.000000  1
  O  O11  1  0.468684  0.470997  0.631949  1
  O  O12  1  0.529003  0.531316  0.368051  1
  O  O13  1  0.877464  0.884355  0.798968  1
  O  O14  1  0.115645  0.122536  0.201032  1
  O  O15  1  0.164450  0.165121  0.486807  1
  O  O16  1  0.834879  0.835550  0.513193  1
  O  O17  1  0.290321  0.299351  0.934155  1
  O  O18  1  0.700649  0.709679  0.065845  1
