# generated using pymatgen
data_TaGa(MoS3)2
_symmetry_space_group_name_H-M   'P 1'
_cell_length_a   5.64465600
_cell_length_b   5.64465607
_cell_length_c   15.07439400
_cell_angle_alpha   90.00000000
_cell_angle_beta   90.00000000
_cell_angle_gamma   120.00001129
_symmetry_Int_Tables_number   1
_chemical_formula_structural   TaGa(MoS3)2
_chemical_formula_sum   'Ta2 Ga2 Mo4 S12'
_cell_volume   415.95410087
_cell_formula_units_Z   2
loop_
 _symmetry_equiv_pos_site_id
 _symmetry_equiv_pos_as_xyz
  1  'x, y, z'
loop_
 _atom_site_type_symbol
 _atom_site_label
 _atom_site_symmetry_multiplicity
 _atom_site_fract_x
 _atom_site_fract_y
 _atom_site_fract_z
 _atom_site_occupancy
  Ta  Ta0  1  0.000000  0.000000  0.250000  1
  Ta  Ta1  1  0.000000  0.000000  0.750000  1
  Ga  Ga2  1  0.000000  0.000000  0.500000  1
  Ga  Ga3  1  0.000000  0.000000  0.000000  1
  Mo  Mo4  1  0.333333  0.666667  0.250000  1
  Mo  Mo5  1  0.666667  0.333333  0.750000  1
  Mo  Mo6  1  0.666667  0.333333  0.250000  1
  Mo  Mo7  1  0.333333  0.666667  0.750000  1
  S  S8  1  0.339330  0.000000  0.146264  1
  S  S9  1  0.000000  0.339330  0.146264  1
  S  S10  1  0.660670  0.660670  0.146264  1
  S  S11  1  0.339330  0.339330  0.646264  1
  S  S12  1  0.660670  0.660670  0.353736  1
  S  S13  1  0.660670  0.000000  0.646264  1
  S  S14  1  0.000000  0.660670  0.646264  1
  S  S15  1  0.000000  0.660670  0.853736  1
  S  S16  1  0.339330  0.339330  0.853736  1
  S  S17  1  0.000000  0.339330  0.353736  1
  S  S18  1  0.339330  0.000000  0.353736  1
  S  S19  1  0.660670  0.000000  0.853736  1
