# generated using pymatgen
data_Tb7Lu13Pt16
_symmetry_space_group_name_H-M   'P 1'
_cell_length_a   7.40226701
_cell_length_b   7.48127973
_cell_length_c   14.66139500
_cell_angle_alpha   90.08406031
_cell_angle_beta   89.99695032
_cell_angle_gamma   89.97556603
_symmetry_Int_Tables_number   1
_chemical_formula_structural   Tb7Lu13Pt16
_chemical_formula_sum   'Tb7 Lu13 Pt16'
_cell_volume   811.92409019
_cell_formula_units_Z   1
loop_
 _symmetry_equiv_pos_site_id
 _symmetry_equiv_pos_as_xyz
  1  'x, y, z'
loop_
 _atom_site_type_symbol
 _atom_site_label
 _atom_site_symmetry_multiplicity
 _atom_site_fract_x
 _atom_site_fract_y
 _atom_site_fract_z
 _atom_site_occupancy
  Tb  Tb0  1  0.990160  0.823570  0.905471  1
  Tb  Tb1  1  0.509887  0.323508  0.094098  1
  Tb  Tb2  1  0.010794  0.175625  0.405886  1
  Tb  Tb3  1  0.509977  0.326041  0.407470  1
  Tb  Tb4  1  0.009863  0.175841  0.093812  1
  Tb  Tb5  1  0.489806  0.675926  0.906296  1
  Tb  Tb6  1  0.989444  0.823475  0.593549  1
  Lu  Lu7  1  0.854407  0.668036  0.122043  1
  Lu  Lu8  1  0.645396  0.167794  0.877270  1
  Lu  Lu9  1  0.147235  0.332855  0.621353  1
  Lu  Lu10  1  0.490809  0.678106  0.593988  1
  Lu  Lu11  1  0.807889  0.508766  0.749101  1
  Lu  Lu12  1  0.307852  0.990728  0.749169  1
  Lu  Lu13  1  0.191927  0.491228  0.250552  1
  Lu  Lu14  1  0.691774  0.009118  0.250406  1
  Lu  Lu15  1  0.645664  0.167545  0.622367  1
  Lu  Lu16  1  0.146165  0.332175  0.877103  1
  Lu  Lu17  1  0.354074  0.832293  0.122737  1
  Lu  Lu18  1  0.854233  0.667309  0.377756  1
  Lu  Lu19  1  0.355961  0.831721  0.378242  1
  Pt  Pt20  1  0.688179  0.965218  0.459063  1
  Pt  Pt21  1  0.187611  0.533696  0.041474  1
  Pt  Pt22  1  0.312692  0.033258  0.958177  1
  Pt  Pt23  1  0.807232  0.469477  0.542578  1
  Pt  Pt24  1  0.313961  0.029317  0.543462  1
  Pt  Pt25  1  0.813048  0.465810  0.957925  1
  Pt  Pt26  1  0.687040  0.966249  0.041578  1
  Pt  Pt27  1  0.188124  0.536756  0.460349  1
  Pt  Pt28  1  0.443274  0.381895  0.749014  1
  Pt  Pt29  1  0.941977  0.119245  0.749329  1
  Pt  Pt30  1  0.557627  0.619569  0.250108  1
  Pt  Pt31  1  0.057325  0.879872  0.250443  1
  Pt  Pt32  1  0.668498  0.856926  0.747809  1
  Pt  Pt33  1  0.172129  0.641026  0.748452  1
  Pt  Pt34  1  0.328775  0.141323  0.251128  1
  Pt  Pt35  1  0.829193  0.358701  0.250446  1
