# generated using pymatgen
data_Tb5Dy3Hf11Si16Mo
_symmetry_space_group_name_H-M   'P 1'
_cell_length_a   7.25901093
_cell_length_b   7.25839459
_cell_length_c   13.32028307
_cell_angle_alpha   89.94754863
_cell_angle_beta   90.04562284
_cell_angle_gamma   90.04944030
_symmetry_Int_Tables_number   1
_chemical_formula_structural   Tb5Dy3Hf11Si16Mo
_chemical_formula_sum   'Tb5 Dy3 Hf11 Si16 Mo1'
_cell_volume   701.82849625
_cell_formula_units_Z   1
loop_
 _symmetry_equiv_pos_site_id
 _symmetry_equiv_pos_as_xyz
  1  'x, y, z'
loop_
 _atom_site_type_symbol
 _atom_site_label
 _atom_site_symmetry_multiplicity
 _atom_site_fract_x
 _atom_site_fract_y
 _atom_site_fract_z
 _atom_site_occupancy
  Tb  Tb0  1  0.501320  0.845529  0.034272  1
  Tb  Tb1  1  0.845580  0.501321  0.965753  1
  Tb  Tb2  1  0.495329  0.156764  0.534483  1
  Tb  Tb3  1  0.342953  0.998448  0.787432  1
  Tb  Tb4  1  0.656742  0.004247  0.283493  1
  Dy  Dy5  1  0.998703  0.343121  0.212524  1
  Dy  Dy6  1  0.004103  0.656568  0.716423  1
  Dy  Dy7  1  0.156541  0.495539  0.465428  1
  Hf  Hf8  1  0.825712  0.825451  0.500035  1
  Hf  Hf9  1  0.324300  0.674361  0.249020  1
  Hf  Hf10  1  0.674561  0.324506  0.750995  1
  Hf  Hf11  1  0.148496  0.997023  0.373676  1
  Hf  Hf12  1  0.853278  0.004957  0.877390  1
  Hf  Hf13  1  0.503982  0.648602  0.624668  1
  Hf  Hf14  1  0.349104  0.493120  0.877218  1
  Hf  Hf15  1  0.493020  0.349210  0.122757  1
  Hf  Hf16  1  0.648664  0.503991  0.375333  1
  Hf  Hf17  1  0.997092  0.148512  0.626317  1
  Hf  Hf18  1  0.004963  0.853277  0.122592  1
  Si  Si19  1  0.362404  0.295380  0.316326  1
  Si  Si20  1  0.636553  0.704902  0.817468  1
  Si  Si21  1  0.204757  0.862608  0.567226  1
  Si  Si22  1  0.137353  0.796330  0.933079  1
  Si  Si23  1  0.796579  0.137575  0.067008  1
  Si  Si24  1  0.863118  0.205138  0.432801  1
  Si  Si25  1  0.294959  0.362948  0.683690  1
  Si  Si26  1  0.705049  0.636179  0.182464  1
  Si  Si27  1  0.293879  0.051377  0.182905  1
  Si  Si28  1  0.704422  0.951760  0.685954  1
  Si  Si29  1  0.450630  0.795469  0.435095  1
  Si  Si30  1  0.204091  0.547109  0.064278  1
  Si  Si31  1  0.547300  0.204262  0.935830  1
  Si  Si32  1  0.795962  0.450942  0.564908  1
  Si  Si33  1  0.051213  0.294219  0.817029  1
  Si  Si34  1  0.952090  0.703968  0.314075  1
  Mo  Mo35  1  0.175197  0.175288  0.000054  1
