# generated using pymatgen
data_Ce3Al12Os3Ru
_symmetry_space_group_name_H-M   'P 1'
_cell_length_a   8.90964100
_cell_length_b   8.90964036
_cell_length_c   9.55120700
_cell_angle_alpha   90.00000000
_cell_angle_beta   90.00000000
_cell_angle_gamma   119.99999864
_symmetry_Int_Tables_number   1
_chemical_formula_structural   Ce3Al12Os3Ru
_chemical_formula_sum   'Ce6 Al24 Os6 Ru2'
_cell_volume   656.61269401
_cell_formula_units_Z   2
loop_
 _symmetry_equiv_pos_site_id
 _symmetry_equiv_pos_as_xyz
  1  'x, y, z'
loop_
 _atom_site_type_symbol
 _atom_site_label
 _atom_site_symmetry_multiplicity
 _atom_site_fract_x
 _atom_site_fract_y
 _atom_site_fract_z
 _atom_site_occupancy
  Ce  Ce0  1  0.806110  0.612221  0.750000  1
  Ce  Ce1  1  0.193890  0.806110  0.250000  1
  Ce  Ce2  1  0.612221  0.806110  0.250000  1
  Ce  Ce3  1  0.387779  0.193890  0.750000  1
  Ce  Ce4  1  0.806110  0.193890  0.750000  1
  Ce  Ce5  1  0.193890  0.387779  0.250000  1
  Al  Al6  1  0.333333  0.666667  0.490980  1
  Al  Al7  1  0.666667  0.333333  0.990980  1
  Al  Al8  1  0.666667  0.333333  0.509020  1
  Al  Al9  1  0.333333  0.666667  0.009020  1
  Al  Al10  1  0.162096  0.324191  0.578019  1
  Al  Al11  1  0.675809  0.837904  0.578019  1
  Al  Al12  1  0.162096  0.837904  0.578019  1
  Al  Al13  1  0.837904  0.162096  0.078019  1
  Al  Al14  1  0.837904  0.162096  0.421981  1
  Al  Al15  1  0.837904  0.675809  0.078019  1
  Al  Al16  1  0.324191  0.162096  0.078019  1
  Al  Al17  1  0.675809  0.837904  0.921981  1
  Al  Al18  1  0.162096  0.324191  0.921981  1
  Al  Al19  1  0.837904  0.675809  0.421981  1
  Al  Al20  1  0.000000  0.000000  0.250000  1
  Al  Al21  1  0.000000  0.000000  0.750000  1
  Al  Al22  1  0.562150  0.124300  0.250000  1
  Al  Al23  1  0.437850  0.562150  0.750000  1
  Al  Al24  1  0.124300  0.562150  0.750000  1
  Al  Al25  1  0.875700  0.437850  0.250000  1
  Al  Al26  1  0.562150  0.437850  0.250000  1
  Al  Al27  1  0.437850  0.875700  0.750000  1
  Al  Al28  1  0.162096  0.837904  0.921981  1
  Al  Al29  1  0.324191  0.162096  0.421981  1
  Os  Os30  1  0.500000  0.000000  0.500000  1
  Os  Os31  1  0.500000  0.500000  0.000000  1
  Os  Os32  1  0.000000  0.500000  0.000000  1
  Os  Os33  1  0.000000  0.500000  0.500000  1
  Os  Os34  1  0.500000  0.500000  0.500000  1
  Os  Os35  1  0.500000  0.000000  0.000000  1
  Ru  Ru36  1  0.000000  0.000000  0.500000  1
  Ru  Ru37  1  0.000000  0.000000  0.000000  1
