# generated using pymatgen
data_Er4Al4PdPt2Rh
_symmetry_space_group_name_H-M   'P 1'
_cell_length_a   4.39291200
_cell_length_b   6.79311451
_cell_length_c   7.78480336
_cell_angle_alpha   90.01873419
_cell_angle_beta   90.00000000
_cell_angle_gamma   90.00000000
_symmetry_Int_Tables_number   1
_chemical_formula_structural   Er4Al4PdPt2Rh
_chemical_formula_sum   'Er4 Al4 Pd1 Pt2 Rh1'
_cell_volume   232.31061942
_cell_formula_units_Z   1
loop_
 _symmetry_equiv_pos_site_id
 _symmetry_equiv_pos_as_xyz
  1  'x, y, z'
loop_
 _atom_site_type_symbol
 _atom_site_label
 _atom_site_symmetry_multiplicity
 _atom_site_fract_x
 _atom_site_fract_y
 _atom_site_fract_z
 _atom_site_occupancy
  Er  Er0  1  0.250000  0.469246  0.179020  1
  Er  Er1  1  0.750000  0.532278  0.818805  1
  Er  Er2  1  0.750000  0.028497  0.679932  1
  Er  Er3  1  0.250000  0.963416  0.322554  1
  Al  Al4  1  0.250000  0.855338  0.937935  1
  Al  Al5  1  0.750000  0.142383  0.060125  1
  Al  Al6  1  0.750000  0.643986  0.440226  1
  Al  Al7  1  0.250000  0.362802  0.562395  1
  Pd  Pd8  1  0.750000  0.268355  0.379849  1
  Pt  Pt9  1  0.750000  0.768367  0.121276  1
  Pt  Pt10  1  0.250000  0.229397  0.879529  1
  Rh  Rh11  1  0.250000  0.735933  0.618355  1
