# generated using pymatgen
data_Ti2Nb2SiSb2
_symmetry_space_group_name_H-M   'P 1'
_cell_length_a   7.74264068
_cell_length_b   7.74266374
_cell_length_c   7.77756465
_cell_angle_alpha   95.79878464
_cell_angle_beta   95.75372714
_cell_angle_gamma   142.91951779
_symmetry_Int_Tables_number   1
_chemical_formula_structural   Ti2Nb2SiSb2
_chemical_formula_sum   'Ti4 Nb4 Si2 Sb4'
_cell_volume   266.66815888
_cell_formula_units_Z   2
loop_
 _symmetry_equiv_pos_site_id
 _symmetry_equiv_pos_as_xyz
  1  'x, y, z'
loop_
 _atom_site_type_symbol
 _atom_site_label
 _atom_site_symmetry_multiplicity
 _atom_site_fract_x
 _atom_site_fract_y
 _atom_site_fract_z
 _atom_site_occupancy
  Ti  Ti0  1  0.915289  0.796235  0.711487  1
  Ti  Ti1  1  0.795919  0.081890  0.877818  1
  Ti  Ti2  1  0.415134  0.704630  0.119755  1
  Ti  Ti3  1  0.584576  0.297665  0.882249  1
  Nb  Nb4  1  0.703926  0.584329  0.288309  1
  Nb  Nb5  1  0.297894  0.417344  0.715181  1
  Nb  Nb6  1  0.203358  0.914871  0.118229  1
  Nb  Nb7  1  0.084503  0.203809  0.288326  1
  Si  Si8  1  0.247359  0.248616  0.997773  1
  Si  Si9  1  0.749174  0.750422  0.997781  1
  Sb  Sb10  1  0.643089  0.857386  0.500459  1
  Sb  Sb11  1  0.141197  0.643482  0.784711  1
  Sb  Sb12  1  0.858022  0.356080  0.214101  1
  Sb  Sb13  1  0.360560  0.143240  0.503818  1
