# generated using pymatgen
data_ZrSc2AlPt2
_symmetry_space_group_name_H-M   'P 1'
_cell_length_a   4.40121400
_cell_length_b   6.74303200
_cell_length_c   7.87116800
_cell_angle_alpha   90.00000000
_cell_angle_beta   90.00000000
_cell_angle_gamma   90.00000000
_symmetry_Int_Tables_number   1
_chemical_formula_structural   ZrSc2AlPt2
_chemical_formula_sum   'Zr2 Sc4 Al2 Pt4'
_cell_volume   233.59679959
_cell_formula_units_Z   2
loop_
 _symmetry_equiv_pos_site_id
 _symmetry_equiv_pos_as_xyz
  1  'x, y, z'
loop_
 _atom_site_type_symbol
 _atom_site_label
 _atom_site_symmetry_multiplicity
 _atom_site_fract_x
 _atom_site_fract_y
 _atom_site_fract_z
 _atom_site_occupancy
  Zr  Zr0  1  0.750000  0.862420  0.932873  1
  Zr  Zr1  1  0.250000  0.637580  0.432873  1
  Sc  Sc2  1  0.750000  0.454378  0.179466  1
  Sc  Sc3  1  0.250000  0.045622  0.679466  1
  Sc  Sc4  1  0.750000  0.990619  0.330433  1
  Sc  Sc5  1  0.250000  0.509381  0.830433  1
  Al  Al6  1  0.750000  0.353217  0.564987  1
  Al  Al7  1  0.250000  0.146783  0.064987  1
  Pt  Pt8  1  0.750000  0.738311  0.610768  1
  Pt  Pt9  1  0.750000  0.253590  0.881473  1
  Pt  Pt10  1  0.250000  0.246410  0.381473  1
  Pt  Pt11  1  0.250000  0.761689  0.110768  1
