# generated using pymatgen
data_U2PaCu2Se7
_symmetry_space_group_name_H-M   'P 1'
_cell_length_a   10.26712754
_cell_length_b   10.33178658
_cell_length_c   6.03729100
_cell_angle_alpha   89.55979839
_cell_angle_beta   90.42581336
_cell_angle_gamma   120.54407117
_symmetry_Int_Tables_number   1
_chemical_formula_structural   U2PaCu2Se7
_chemical_formula_sum   'U4 Pa2 Cu4 Se14'
_cell_volume   551.53550492
_cell_formula_units_Z   2
loop_
 _symmetry_equiv_pos_site_id
 _symmetry_equiv_pos_as_xyz
  1  'x, y, z'
loop_
 _atom_site_type_symbol
 _atom_site_label
 _atom_site_symmetry_multiplicity
 _atom_site_fract_x
 _atom_site_fract_y
 _atom_site_fract_z
 _atom_site_occupancy
  U  U0  1  0.847579  0.620616  0.525055  1
  U  U1  1  0.623088  0.773281  0.030197  1
  U  U2  1  0.773019  0.151673  0.526698  1
  U  U3  1  0.381003  0.227290  0.528544  1
  Pa  Pa4  1  0.229346  0.851128  0.025875  1
  Pa  Pa5  1  0.152306  0.379464  0.029935  1
  Cu  Cu6  1  0.666139  0.334437  0.156915  1
  Cu  Cu7  1  0.332594  0.665602  0.660980  1
  Cu  Cu8  1  0.000400  0.999943  0.501159  1
  Cu  Cu9  1  0.998892  0.000004  0.001067  1
  Se  Se10  1  0.667743  0.332648  0.752235  1
  Se  Se11  1  0.564949  0.486546  0.281282  1
  Se  Se12  1  0.154532  0.891164  0.513657  1
  Se  Se13  1  0.510972  0.078045  0.278551  1
  Se  Se14  1  0.430661  0.510977  0.784742  1
  Se  Se15  1  0.485659  0.920505  0.781420  1
  Se  Se16  1  0.849652  0.112176  0.012338  1
  Se  Se17  1  0.078570  0.565072  0.787082  1
  Se  Se18  1  0.736013  0.845407  0.515066  1
  Se  Se19  1  0.328783  0.665531  0.255448  1
  Se  Se20  1  0.921557  0.433770  0.282954  1
  Se  Se21  1  0.262002  0.153406  0.013364  1
  Se  Se22  1  0.110042  0.263209  0.509834  1
  Se  Se23  1  0.894495  0.738105  0.012005  1
