# generated using pymatgen
data_CsCr2GaO8
_symmetry_space_group_name_H-M   'P 1'
_cell_length_a   5.50100000
_cell_length_b   9.77979319
_cell_length_c   9.03324480
_cell_angle_alpha   66.75979445
_cell_angle_beta   89.99731700
_cell_angle_gamma   106.32748739
_symmetry_Int_Tables_number   1
_chemical_formula_structural   CsCr2GaO8
_chemical_formula_sum   'Cs2 Cr4 Ga2 O16'
_cell_volume   425.12745302
_cell_formula_units_Z   2
loop_
 _symmetry_equiv_pos_site_id
 _symmetry_equiv_pos_as_xyz
  1  'x, y, z'
loop_
 _atom_site_type_symbol
 _atom_site_label
 _atom_site_symmetry_multiplicity
 _atom_site_fract_x
 _atom_site_fract_y
 _atom_site_fract_z
 _atom_site_occupancy
  Cs  Cs0  1  0.499987  0.999948  0.500061  1
  Cs  Cs1  1  0.000011  0.000032  0.999983  1
  Cr  Cr2  1  0.655431  0.310774  0.977362  1
  Cr  Cr3  1  0.155383  0.310708  0.477302  1
  Cr  Cr4  1  0.844575  0.689229  0.522619  1
  Cr  Cr5  1  0.344601  0.689283  0.022702  1
  Ga  Ga6  1  0.749988  0.499995  0.250004  1
  Ga  Ga7  1  0.250011  0.500017  0.749986  1
  O  O8  1  0.564881  0.129719  0.110535  1
  O  O9  1  0.064825  0.129592  0.610349  1
  O  O10  1  0.935122  0.870279  0.389484  1
  O  O11  1  0.435175  0.870398  0.889689  1
  O  O12  1  0.716690  0.433503  0.066762  1
  O  O13  1  0.216612  0.433326  0.566857  1
  O  O14  1  0.783316  0.566515  0.433196  1
  O  O15  1  0.283405  0.566690  0.933152  1
  O  O16  1  0.921268  0.338511  0.861719  1
  O  O17  1  0.421253  0.338500  0.361616  1
  O  O18  1  0.578751  0.661512  0.638273  1
  O  O19  1  0.078767  0.661469  0.138386  1
  O  O20  1  0.417436  0.338534  0.861613  1
  O  O21  1  0.917437  0.338514  0.361541  1
  O  O22  1  0.082589  0.661491  0.638354  1
  O  O23  1  0.582491  0.661461  0.138453  1
