# generated using pymatgen
data_YbDy5YFeI12
_symmetry_space_group_name_H-M   'P 1'
_cell_length_a   9.81403739
_cell_length_b   9.73677404
_cell_length_c   9.74891354
_cell_angle_alpha   106.74256914
_cell_angle_beta   106.97776365
_cell_angle_gamma   106.92736201
_symmetry_Int_Tables_number   1
_chemical_formula_structural   YbDy5YFeI12
_chemical_formula_sum   'Yb1 Dy5 Y1 Fe1 I12'
_cell_volume   778.29587508
_cell_formula_units_Z   1
loop_
 _symmetry_equiv_pos_site_id
 _symmetry_equiv_pos_as_xyz
  1  'x, y, z'
loop_
 _atom_site_type_symbol
 _atom_site_label
 _atom_site_symmetry_multiplicity
 _atom_site_fract_x
 _atom_site_fract_y
 _atom_site_fract_z
 _atom_site_occupancy
  Yb  Yb0  1  0.499998  0.499987  0.499961  1
  Dy  Dy1  1  0.699573  0.976122  0.902394  1
  Dy  Dy2  1  0.975966  0.907830  0.716057  1
  Dy  Dy3  1  0.091907  0.286196  0.023845  1
  Dy  Dy4  1  0.300442  0.023867  0.097387  1
  Dy  Dy5  1  0.908095  0.713757  0.976189  1
  Y  Y6  1  0.024205  0.092456  0.285540  1
  Fe  Fe7  1  0.999902  0.999921  0.999996  1
  I  I8  1  0.072944  0.223525  0.684033  1
  I  I9  1  0.377284  0.150173  0.456738  1
  I  I10  1  0.623703  0.849953  0.543423  1
  I  I11  1  0.223356  0.679990  0.072410  1
  I  I12  1  0.776691  0.319993  0.927413  1
  I  I13  1  0.682589  0.073535  0.225268  1
  I  I14  1  0.546553  0.622719  0.851044  1
  I  I15  1  0.849026  0.545331  0.621782  1
  I  I16  1  0.926728  0.775681  0.315522  1
  I  I17  1  0.316361  0.926263  0.774057  1
  I  I18  1  0.453406  0.377362  0.148822  1
  I  I19  1  0.151272  0.455338  0.378118  1
