# generated using pymatgen
data_Sr7Cu7F34
_symmetry_space_group_name_H-M   'P 1'
_cell_length_a   9.87915987
_cell_length_b   9.87915984
_cell_length_c   7.53294400
_cell_angle_alpha   79.71572456
_cell_angle_beta   79.71572458
_cell_angle_gamma   67.51103682
_symmetry_Int_Tables_number   1
_chemical_formula_structural   Sr7Cu7F34
_chemical_formula_sum   'Sr7 Cu7 F34'
_cell_volume   663.44339613
_cell_formula_units_Z   1
loop_
 _symmetry_equiv_pos_site_id
 _symmetry_equiv_pos_as_xyz
  1  'x, y, z'
loop_
 _atom_site_type_symbol
 _atom_site_label
 _atom_site_symmetry_multiplicity
 _atom_site_fract_x
 _atom_site_fract_y
 _atom_site_fract_z
 _atom_site_occupancy
  Sr  Sr0  1  0.446637  0.842882  0.204301  1
  Sr  Sr1  1  0.553363  0.157118  0.795699  1
  Sr  Sr2  1  0.157118  0.553363  0.795699  1
  Sr  Sr3  1  0.842882  0.446637  0.204301  1
  Sr  Sr4  1  0.000000  0.000000  0.500000  1
  Sr  Sr5  1  0.736524  0.736524  0.615313  1
  Sr  Sr6  1  0.263476  0.263476  0.384687  1
  Cu  Cu7  1  0.647172  0.137138  0.302609  1
  Cu  Cu8  1  0.352828  0.862862  0.697391  1
  Cu  Cu9  1  0.862862  0.352828  0.697391  1
  Cu  Cu10  1  0.137138  0.647172  0.302609  1
  Cu  Cu11  1  0.830582  0.830582  0.041763  1
  Cu  Cu12  1  0.169418  0.169418  0.958237  1
  Cu  Cu13  1  0.500000  0.500000  0.000000  1
  F  F14  1  0.219890  0.792215  0.300888  1
  F  F15  1  0.780110  0.207785  0.699112  1
  F  F16  1  0.207785  0.780110  0.699112  1
  F  F17  1  0.792215  0.219890  0.300888  1
  F  F18  1  0.740580  0.994460  0.501645  1
  F  F19  1  0.259420  0.005540  0.498355  1
  F  F20  1  0.005540  0.259420  0.498355  1
  F  F21  1  0.994460  0.740580  0.501645  1
  F  F22  1  0.896898  0.896898  0.802698  1
  F  F23  1  0.103102  0.103102  0.197302  1
  F  F24  1  0.357551  0.113264  0.044102  1
  F  F25  1  0.642449  0.886736  0.955898  1
  F  F26  1  0.886736  0.642449  0.955898  1
  F  F27  1  0.113264  0.357551  0.044102  1
  F  F28  1  0.774202  0.021968  0.115574  1
  F  F29  1  0.225798  0.978032  0.884426  1
  F  F30  1  0.978032  0.225798  0.884426  1
  F  F31  1  0.021968  0.774202  0.115574  1
  F  F32  1  0.744863  0.744863  0.266705  1
  F  F33  1  0.255137  0.255137  0.733295  1
  F  F34  1  0.506155  0.252537  0.478193  1
  F  F35  1  0.493845  0.747463  0.521807  1
  F  F36  1  0.747463  0.493845  0.521807  1
  F  F37  1  0.252537  0.506155  0.478193  1
  F  F38  1  0.547287  0.283029  0.110561  1
  F  F39  1  0.452713  0.716971  0.889439  1
  F  F40  1  0.716971  0.452713  0.889439  1
  F  F41  1  0.283029  0.547287  0.110561  1
  F  F42  1  0.562530  0.562530  0.182694  1
  F  F43  1  0.437470  0.437470  0.817306  1
  F  F44  1  0.508237  0.045299  0.307308  1
  F  F45  1  0.491763  0.954701  0.692692  1
  F  F46  1  0.954701  0.491763  0.692692  1
  F  F47  1  0.045299  0.508237  0.307308  1
