# generated using pymatgen
data_Ho2UMn3
_symmetry_space_group_name_H-M   'P 1'
_cell_length_a   5.57604111
_cell_length_b   5.09308529
_cell_length_c   5.57603900
_cell_angle_alpha   56.81028694
_cell_angle_beta   59.99999474
_cell_angle_gamma   56.81029281
_symmetry_Int_Tables_number   1
_chemical_formula_structural   Ho2UMn3
_chemical_formula_sum   'Ho2 U1 Mn3'
_cell_volume   106.26800289
_cell_formula_units_Z   1
loop_
 _symmetry_equiv_pos_site_id
 _symmetry_equiv_pos_as_xyz
  1  'x, y, z'
loop_
 _atom_site_type_symbol
 _atom_site_label
 _atom_site_symmetry_multiplicity
 _atom_site_fract_x
 _atom_site_fract_y
 _atom_site_fract_z
 _atom_site_occupancy
  Ho  Ho0  1  0.750482  0.748555  0.750482  1
  Ho  Ho1  1  0.499518  0.501445  0.499518  1
  U  U2  1  0.125000  0.625000  0.125000  1
  Mn  Mn3  1  0.125000  0.125000  0.125000  1
  Mn  Mn4  1  0.625000  0.125000  0.125000  1
  Mn  Mn5  1  0.125000  0.125000  0.625000  1
