# generated using pymatgen
data_Er3MgIr8
_symmetry_space_group_name_H-M   'P 1'
_cell_length_a   5.31055900
_cell_length_b   5.31055875
_cell_length_c   8.64125500
_cell_angle_alpha   90.00000000
_cell_angle_beta   90.00000000
_cell_angle_gamma   119.99999534
_symmetry_Int_Tables_number   1
_chemical_formula_structural   Er3MgIr8
_chemical_formula_sum   'Er3 Mg1 Ir8'
_cell_volume   211.05125016
_cell_formula_units_Z   1
loop_
 _symmetry_equiv_pos_site_id
 _symmetry_equiv_pos_as_xyz
  1  'x, y, z'
loop_
 _atom_site_type_symbol
 _atom_site_label
 _atom_site_symmetry_multiplicity
 _atom_site_fract_x
 _atom_site_fract_y
 _atom_site_fract_z
 _atom_site_occupancy
  Er  Er0  1  0.333333  0.666667  0.079056  1
  Er  Er1  1  0.666667  0.333333  0.558695  1
  Er  Er2  1  0.666667  0.333333  0.930051  1
  Mg  Mg3  1  0.333333  0.666667  0.440487  1
  Ir  Ir4  1  0.000000  0.000000  0.997469  1
  Ir  Ir5  1  0.000000  0.000000  0.497678  1
  Ir  Ir6  1  0.830074  0.660149  0.250385  1
  Ir  Ir7  1  0.170706  0.829294  0.748470  1
  Ir  Ir8  1  0.658588  0.829294  0.748470  1
  Ir  Ir9  1  0.339851  0.169926  0.250385  1
  Ir  Ir10  1  0.830074  0.169926  0.250385  1
  Ir  Ir11  1  0.170706  0.341412  0.748470  1
