# generated using pymatgen
data_NaErPa2Ge6Ir7
_symmetry_space_group_name_H-M   'P 1'
_cell_length_a   7.26465853
_cell_length_b   7.26465742
_cell_length_c   7.24691824
_cell_angle_alpha   109.25650179
_cell_angle_beta   109.25649038
_cell_angle_gamma   109.71465599
_symmetry_Int_Tables_number   1
_chemical_formula_structural   NaErPa2Ge6Ir7
_chemical_formula_sum   'Na1 Er1 Pa2 Ge6 Ir7'
_cell_volume   295.08549364
_cell_formula_units_Z   1
loop_
 _symmetry_equiv_pos_site_id
 _symmetry_equiv_pos_as_xyz
  1  'x, y, z'
loop_
 _atom_site_type_symbol
 _atom_site_label
 _atom_site_symmetry_multiplicity
 _atom_site_fract_x
 _atom_site_fract_y
 _atom_site_fract_z
 _atom_site_occupancy
  Na  Na0  1  0.500000  0.500000  0.500000  1
  Er  Er1  1  0.000000  0.000000  0.500000  1
  Pa  Pa2  1  0.000000  0.500000  0.000000  1
  Pa  Pa3  1  0.500000  0.000000  0.000000  1
  Ge  Ge4  1  0.680221  0.680221  0.990088  1
  Ge  Ge5  1  0.320706  0.016430  0.326705  1
  Ge  Ge6  1  0.016430  0.320706  0.326705  1
  Ge  Ge7  1  0.319779  0.319779  0.009912  1
  Ge  Ge8  1  0.679294  0.983570  0.673295  1
  Ge  Ge9  1  0.983570  0.679294  0.673295  1
  Ir  Ir10  1  0.751416  0.248584  0.500000  1
  Ir  Ir11  1  0.751542  0.495452  0.243393  1
  Ir  Ir12  1  0.504548  0.248458  0.756607  1
  Ir  Ir13  1  0.248458  0.504548  0.756607  1
  Ir  Ir14  1  0.248584  0.751416  0.500000  1
  Ir  Ir15  1  0.495452  0.751542  0.243393  1
  Ir  Ir16  1  0.000000  0.000000  0.000000  1
