# generated using pymatgen
data_Ho13Tm7Pb16
_symmetry_space_group_name_H-M   'P 1'
_cell_length_a   8.15822056
_cell_length_b   15.54030313
_cell_length_c   8.22482700
_cell_angle_alpha   90.00740701
_cell_angle_beta   90.02124480
_cell_angle_gamma   89.99870315
_symmetry_Int_Tables_number   1
_chemical_formula_structural   Ho13Tm7Pb16
_chemical_formula_sum   'Ho13 Tm7 Pb16'
_cell_volume   1042.75352519
_cell_formula_units_Z   1
loop_
 _symmetry_equiv_pos_site_id
 _symmetry_equiv_pos_as_xyz
  1  'x, y, z'
loop_
 _atom_site_type_symbol
 _atom_site_label
 _atom_site_symmetry_multiplicity
 _atom_site_fract_x
 _atom_site_fract_y
 _atom_site_fract_z
 _atom_site_occupancy
  Ho  Ho0  1  0.877133  0.379011  0.658172  1
  Ho  Ho1  1  0.377327  0.378813  0.841661  1
  Ho  Ho2  1  0.877342  0.121072  0.658240  1
  Ho  Ho3  1  0.622703  0.878539  0.157927  1
  Ho  Ho4  1  0.122607  0.621423  0.342105  1
  Ho  Ho5  1  0.463168  0.599778  0.675824  1
  Ho  Ho6  1  0.963011  0.900190  0.824078  1
  Ho  Ho7  1  0.536781  0.099689  0.323991  1
  Ho  Ho8  1  0.036826  0.400232  0.175845  1
  Ho  Ho9  1  0.536658  0.400442  0.324097  1
  Ho  Ho10  1  0.036807  0.099543  0.175763  1
  Ho  Ho11  1  0.463080  0.900339  0.675754  1
  Ho  Ho12  1  0.963154  0.599905  0.824381  1
  Tm  Tm13  1  0.622933  0.621636  0.157757  1
  Tm  Tm14  1  0.123023  0.878516  0.342201  1
  Tm  Tm15  1  0.377103  0.121028  0.841955  1
  Tm  Tm16  1  0.208968  0.249822  0.504577  1
  Tm  Tm17  1  0.708670  0.249931  0.995546  1
  Tm  Tm18  1  0.791234  0.750008  0.495082  1
  Tm  Tm19  1  0.291256  0.750078  0.004833  1
  Pb  Pb20  1  0.718662  0.457343  0.967281  1
  Pb  Pb21  1  0.219007  0.042737  0.533492  1
  Pb  Pb22  1  0.280795  0.956998  0.033531  1
  Pb  Pb23  1  0.780673  0.543443  0.466029  1
  Pb  Pb24  1  0.281845  0.543449  0.033463  1
  Pb  Pb25  1  0.781887  0.956598  0.466564  1
  Pb  Pb26  1  0.718134  0.043147  0.966592  1
  Pb  Pb27  1  0.218813  0.456963  0.533214  1
  Pb  Pb28  1  0.428561  0.749940  0.373932  1
  Pb  Pb29  1  0.928624  0.750216  0.126160  1
  Pb  Pb30  1  0.571314  0.249622  0.626440  1
  Pb  Pb31  1  0.072062  0.249721  0.873885  1
  Pb  Pb32  1  0.650922  0.749903  0.844544  1
  Pb  Pb33  1  0.150953  0.750204  0.655416  1
  Pb  Pb34  1  0.349047  0.249791  0.154830  1
  Pb  Pb35  1  0.848916  0.249931  0.344839  1
