# generated using pymatgen
data_Tb8Tm2(IrPt)3
_symmetry_space_group_name_H-M   'P 1'
_cell_length_a   11.04755066
_cell_length_b   11.04131900
_cell_length_c   6.34198796
_cell_angle_alpha   90.00000000
_cell_angle_beta   90.06292535
_cell_angle_gamma   90.00000000
_symmetry_Int_Tables_number   1
_chemical_formula_structural   Tb8Tm2(IrPt)3
_chemical_formula_sum   'Tb16 Tm4 Ir6 Pt6'
_cell_volume   773.59225040
_cell_formula_units_Z   2
loop_
 _symmetry_equiv_pos_site_id
 _symmetry_equiv_pos_as_xyz
  1  'x, y, z'
loop_
 _atom_site_type_symbol
 _atom_site_label
 _atom_site_symmetry_multiplicity
 _atom_site_fract_x
 _atom_site_fract_y
 _atom_site_fract_z
 _atom_site_occupancy
  Tb  Tb0  1  0.294227  0.089877  0.374222  1
  Tb  Tb1  1  0.294227  0.910123  0.874222  1
  Tb  Tb2  1  0.705931  0.086776  0.874140  1
  Tb  Tb3  1  0.705931  0.913224  0.374140  1
  Tb  Tb4  1  0.583758  0.791100  0.874358  1
  Tb  Tb5  1  0.583758  0.208900  0.374358  1
  Tb  Tb6  1  0.411531  0.791523  0.379287  1
  Tb  Tb7  1  0.411531  0.208477  0.879287  1
  Tb  Tb8  1  0.210515  0.414541  0.622102  1
  Tb  Tb9  1  0.210515  0.585459  0.122102  1
  Tb  Tb10  1  0.793430  0.412991  0.124169  1
  Tb  Tb11  1  0.793430  0.587009  0.624169  1
  Tb  Tb12  1  0.913831  0.706086  0.125784  1
  Tb  Tb13  1  0.913831  0.293914  0.625784  1
  Tb  Tb14  1  0.090358  0.705653  0.625944  1
  Tb  Tb15  1  0.090358  0.294347  0.125944  1
  Tm  Tm16  1  0.000015  0.999675  0.499922  1
  Tm  Tm17  1  0.000015  0.000325  0.999922  1
  Tm  Tm18  1  0.497168  0.499359  0.000099  1
  Tm  Tm19  1  0.497168  0.500641  0.500099  1
  Ir  Ir20  1  0.348410  0.347909  0.249907  1
  Ir  Ir21  1  0.348410  0.652091  0.749907  1
  Ir  Ir22  1  0.500355  0.999919  0.121631  1
  Ir  Ir23  1  0.500355  0.000081  0.621631  1
  Ir  Ir24  1  0.999012  0.500104  0.878379  1
  Ir  Ir25  1  0.999012  0.499896  0.378379  1
  Pt  Pt26  1  0.848569  0.151245  0.250193  1
  Pt  Pt27  1  0.848569  0.848755  0.750193  1
  Pt  Pt28  1  0.150861  0.150996  0.749768  1
  Pt  Pt29  1  0.150861  0.849004  0.249768  1
  Pt  Pt30  1  0.652031  0.348325  0.750096  1
  Pt  Pt31  1  0.652031  0.651675  0.250096  1
