# generated using pymatgen
data_Ba3AgRhO6
_symmetry_space_group_name_H-M   'P 1'
_cell_length_a   7.15722879
_cell_length_b   7.15829818
_cell_length_c   7.17742650
_cell_angle_alpha   89.64918067
_cell_angle_beta   89.65255172
_cell_angle_gamma   90.39651701
_symmetry_Int_Tables_number   1
_chemical_formula_structural   Ba3AgRhO6
_chemical_formula_sum   'Ba6 Ag2 Rh2 O12'
_cell_volume   367.70268377
_cell_formula_units_Z   2
loop_
 _symmetry_equiv_pos_site_id
 _symmetry_equiv_pos_as_xyz
  1  'x, y, z'
loop_
 _atom_site_type_symbol
 _atom_site_label
 _atom_site_symmetry_multiplicity
 _atom_site_fract_x
 _atom_site_fract_y
 _atom_site_fract_z
 _atom_site_occupancy
  Ba  Ba0  1  0.249215  0.392922  0.391518  1
  Ba  Ba1  1  0.393035  0.249039  0.891409  1
  Ba  Ba2  1  0.105249  0.894851  0.250095  1
  Ba  Ba3  1  0.750785  0.607078  0.608482  1
  Ba  Ba4  1  0.894751  0.105149  0.749905  1
  Ba  Ba5  1  0.606965  0.750961  0.108591  1
  Ag  Ag6  1  0.259969  0.740002  0.750039  1
  Ag  Ag7  1  0.740031  0.259998  0.249961  1
  Rh  Rh8  1  0.000000  0.500000  0.000000  1
  Rh  Rh9  1  0.500000  0.000000  0.500000  1
  O  O10  1  0.055335  0.234006  0.080702  1
  O  O11  1  0.916524  0.552934  0.265795  1
  O  O12  1  0.234205  0.055223  0.580674  1
  O  O13  1  0.765795  0.944777  0.419326  1
  O  O14  1  0.582789  0.265749  0.553898  1
  O  O15  1  0.265942  0.582869  0.053942  1
  O  O16  1  0.552894  0.916577  0.765598  1
  O  O17  1  0.944665  0.765994  0.919298  1
  O  O18  1  0.083476  0.447066  0.734205  1
  O  O19  1  0.734058  0.417131  0.946058  1
  O  O20  1  0.417211  0.734251  0.446102  1
  O  O21  1  0.447106  0.083423  0.234402  1
