# generated using pymatgen
data_Gd3Nb2(TcN4)3
_symmetry_space_group_name_H-M   'P 1'
_cell_length_a   11.10360904
_cell_length_b   11.10360895
_cell_length_c   11.10360900
_cell_angle_alpha   109.47122073
_cell_angle_beta   109.47122056
_cell_angle_gamma   109.47121829
_symmetry_Int_Tables_number   1
_chemical_formula_structural   Gd3Nb2(TcN4)3
_chemical_formula_sum   'Gd12 Nb8 Tc12 N48'
_cell_volume   1053.83010731
_cell_formula_units_Z   4
loop_
 _symmetry_equiv_pos_site_id
 _symmetry_equiv_pos_as_xyz
  1  'x, y, z'
loop_
 _atom_site_type_symbol
 _atom_site_label
 _atom_site_symmetry_multiplicity
 _atom_site_fract_x
 _atom_site_fract_y
 _atom_site_fract_z
 _atom_site_occupancy
  Gd  Gd0  1  0.250000  0.375001  0.125000  1
  Gd  Gd1  1  0.375000  0.750000  0.125000  1
  Gd  Gd2  1  0.375001  0.125000  0.250000  1
  Gd  Gd3  1  0.875000  0.625000  0.250000  1
  Gd  Gd4  1  0.750000  0.125000  0.375000  1
  Gd  Gd5  1  0.125000  0.250000  0.375001  1
  Gd  Gd6  1  0.875000  0.750000  0.625000  1
  Gd  Gd7  1  0.250000  0.875000  0.625000  1
  Gd  Gd8  1  0.125000  0.375000  0.750000  1
  Gd  Gd9  1  0.625000  0.875000  0.750000  1
  Gd  Gd10  1  0.625000  0.250000  0.875000  1
  Gd  Gd11  1  0.750000  0.625000  0.875000  1
  Nb  Nb12  1  0.000000  0.000000  0.000000  1
  Nb  Nb13  1  0.500001  0.000000  0.000000  1
  Nb  Nb14  1  0.000000  0.500001  0.000000  1
  Nb  Nb15  1  0.500000  0.500000  0.000000  1
  Nb  Nb16  1  0.000000  0.000000  0.500001  1
  Nb  Nb17  1  0.500000  0.000000  0.500000  1
  Nb  Nb18  1  0.000000  0.500000  0.500000  1
  Nb  Nb19  1  0.500001  0.500001  0.500001  1
  Tc  Tc20  1  0.875000  0.250000  0.124999  1
  Tc  Tc21  1  0.750000  0.875000  0.125000  1
  Tc  Tc22  1  0.625000  0.375000  0.250000  1
  Tc  Tc23  1  0.124999  0.875000  0.250000  1
  Tc  Tc24  1  0.250000  0.625000  0.375000  1
  Tc  Tc25  1  0.625000  0.750000  0.375001  1
  Tc  Tc26  1  0.375000  0.250000  0.625000  1
  Tc  Tc27  1  0.750000  0.375001  0.625000  1
  Tc  Tc28  1  0.875000  0.125000  0.750000  1
  Tc  Tc29  1  0.375001  0.625000  0.750000  1
  Tc  Tc30  1  0.250000  0.124999  0.875000  1
  Tc  Tc31  1  0.125000  0.750000  0.875000  1
  N  N32  1  0.314450  0.900997  0.019639  1
  N  N33  1  0.205190  0.118643  0.019640  1
  N  N34  1  0.881357  0.400997  0.086547  1
  N  N35  1  0.705190  0.685550  0.086547  1
  N  N36  1  0.980360  0.685550  0.099003  1
  N  N37  1  0.618643  0.413453  0.099003  1
  N  N38  1  0.599003  0.913453  0.118642  1
  N  N39  1  0.019640  0.205190  0.118643  1
  N  N40  1  0.205190  0.586547  0.185550  1
  N  N41  1  0.480361  0.599004  0.185550  1
  N  N42  1  0.586547  0.185550  0.205190  1
  N  N43  1  0.118643  0.019640  0.205190  1
  N  N44  1  0.480361  0.381358  0.294810  1
  N  N45  1  0.314450  0.913453  0.294810  1
  N  N46  1  0.900997  0.019639  0.314450  1
  N  N47  1  0.913453  0.294810  0.314450  1
  N  N48  1  0.294810  0.480361  0.381358  1
  N  N49  1  0.586547  0.900998  0.381358  1
  N  N50  1  0.814450  0.519640  0.400998  1
  N  N51  1  0.086547  0.881357  0.400997  1
  N  N52  1  0.099003  0.618643  0.413453  1
  N  N53  1  0.814450  0.794810  0.413453  1
  N  N54  1  0.599004  0.185550  0.480361  1
  N  N55  1  0.381358  0.294810  0.480361  1
  N  N56  1  0.618642  0.705189  0.519639  1
  N  N57  1  0.400998  0.814450  0.519640  1
  N  N58  1  0.185550  0.205190  0.586547  1
  N  N59  1  0.900998  0.381358  0.586547  1
  N  N60  1  0.913453  0.118642  0.599003  1
  N  N61  1  0.185550  0.480361  0.599004  1
  N  N62  1  0.413453  0.099003  0.618643  1
  N  N63  1  0.705189  0.519639  0.618642  1
  N  N64  1  0.086547  0.705190  0.685550  1
  N  N65  1  0.099003  0.980360  0.685550  1
  N  N66  1  0.685550  0.086547  0.705190  1
  N  N67  1  0.519639  0.618642  0.705189  1
  N  N68  1  0.413453  0.814450  0.794810  1
  N  N69  1  0.881358  0.980361  0.794811  1
  N  N70  1  0.519640  0.400998  0.814450  1
  N  N71  1  0.794810  0.413453  0.814450  1
  N  N72  1  0.400997  0.086547  0.881357  1
  N  N73  1  0.980361  0.794811  0.881358  1
  N  N74  1  0.019639  0.314450  0.900997  1
  N  N75  1  0.381358  0.586547  0.900998  1
  N  N76  1  0.294810  0.314450  0.913453  1
  N  N77  1  0.118642  0.599003  0.913453  1
  N  N78  1  0.685550  0.099003  0.980360  1
  N  N79  1  0.794811  0.881358  0.980361  1
