# generated using pymatgen
data_NaTlCu2(AuO4)2
_symmetry_space_group_name_H-M   'P 1'
_cell_length_a   6.47412378
_cell_length_b   6.47412583
_cell_length_c   6.51240262
_cell_angle_alpha   124.77210933
_cell_angle_beta   126.42768172
_cell_angle_gamma   80.15378901
_symmetry_Int_Tables_number   1
_chemical_formula_structural   NaTlCu2(AuO4)2
_chemical_formula_sum   'Na1 Tl1 Cu2 Au2 O8'
_cell_volume   174.50746038
_cell_formula_units_Z   1
loop_
 _symmetry_equiv_pos_site_id
 _symmetry_equiv_pos_as_xyz
  1  'x, y, z'
loop_
 _atom_site_type_symbol
 _atom_site_label
 _atom_site_symmetry_multiplicity
 _atom_site_fract_x
 _atom_site_fract_y
 _atom_site_fract_z
 _atom_site_occupancy
  Na  Na0  1  0.750757  0.250757  0.500000  1
  Tl  Tl1  1  0.000908  0.000908  0.000000  1
  Cu  Cu2  1  0.382946  0.627750  0.261887  1
  Cu  Cu3  1  0.365863  0.121058  0.738113  1
  Au  Au4  1  0.374740  0.633403  0.758003  1
  Au  Au5  1  0.875400  0.616738  0.241997  1
  O  O6  1  0.721317  0.274527  0.099390  1
  O  O7  1  0.175137  0.621927  0.900610  1
  O  O8  1  0.022436  0.955710  0.371865  1
  O  O9  1  0.583845  0.650572  0.628135  1
  O  O10  1  0.070727  0.412593  0.067573  1
  O  O11  1  0.345021  0.003155  0.932427  1
  O  O12  1  0.385980  0.251972  0.557051  1
  O  O13  1  0.694923  0.828929  0.442949  1
