# generated using pymatgen
data_Yb11Pr(HoSn2)8
_symmetry_space_group_name_H-M   'P 1'
_cell_length_a   7.83643083
_cell_length_b   8.42179569
_cell_length_c   16.01069984
_cell_angle_alpha   90.02629599
_cell_angle_beta   90.15896157
_cell_angle_gamma   89.91221579
_symmetry_Int_Tables_number   1
_chemical_formula_structural   Yb11Pr(HoSn2)8
_chemical_formula_sum   'Yb11 Pr1 Ho8 Sn16'
_cell_volume   1056.64984947
_cell_formula_units_Z   1
loop_
 _symmetry_equiv_pos_site_id
 _symmetry_equiv_pos_as_xyz
  1  'x, y, z'
loop_
 _atom_site_type_symbol
 _atom_site_label
 _atom_site_symmetry_multiplicity
 _atom_site_fract_x
 _atom_site_fract_y
 _atom_site_fract_z
 _atom_site_occupancy
  Yb  Yb0  1  0.000740  0.813349  0.907563  1
  Yb  Yb1  1  0.499204  0.313720  0.093037  1
  Yb  Yb2  1  0.000189  0.186801  0.406775  1
  Yb  Yb3  1  0.499158  0.315254  0.406530  1
  Yb  Yb4  1  0.999030  0.187039  0.093101  1
  Yb  Yb5  1  0.500488  0.686275  0.906555  1
  Yb  Yb6  1  0.001225  0.814046  0.592435  1
  Yb  Yb7  1  0.830810  0.509469  0.751182  1
  Yb  Yb8  1  0.329502  0.990436  0.750697  1
  Yb  Yb9  1  0.169926  0.489085  0.249930  1
  Yb  Yb10  1  0.669834  0.010714  0.249778  1
  Pr  Pr11  1  0.502302  0.683747  0.593274  1
  Ho  Ho12  1  0.667435  0.168682  0.622509  1
  Ho  Ho13  1  0.168234  0.332454  0.878202  1
  Ho  Ho14  1  0.331131  0.833092  0.122268  1
  Ho  Ho15  1  0.831667  0.667266  0.377733  1
  Ho  Ho16  1  0.331303  0.832832  0.376876  1
  Ho  Ho17  1  0.831169  0.666904  0.122193  1
  Ho  Ho18  1  0.669370  0.167148  0.877756  1
  Ho  Ho19  1  0.166914  0.331688  0.621899  1
  Sn  Sn20  1  0.673885  0.963893  0.460743  1
  Sn  Sn21  1  0.174109  0.536646  0.039628  1
  Sn  Sn22  1  0.326959  0.035425  0.959703  1
  Sn  Sn23  1  0.825407  0.462878  0.539951  1
  Sn  Sn24  1  0.326389  0.034817  0.540275  1
  Sn  Sn25  1  0.826371  0.463973  0.959962  1
  Sn  Sn26  1  0.673378  0.964408  0.039997  1
  Sn  Sn27  1  0.176384  0.537616  0.460497  1
  Sn  Sn28  1  0.464519  0.375507  0.749739  1
  Sn  Sn29  1  0.964282  0.125749  0.749561  1
  Sn  Sn30  1  0.534448  0.624674  0.249715  1
  Sn  Sn31  1  0.034403  0.874996  0.249774  1
  Sn  Sn32  1  0.709364  0.871243  0.750212  1
  Sn  Sn33  1  0.210921  0.627802  0.749612  1
  Sn  Sn34  1  0.289884  0.127587  0.250034  1
  Sn  Sn35  1  0.789668  0.372786  0.250302  1
