# generated using pymatgen
data_IrOs3Pb4O13
_symmetry_space_group_name_H-M   'P 1'
_cell_length_a   7.41516300
_cell_length_b   7.41516347
_cell_length_c   7.36105580
_cell_angle_alpha   120.24345234
_cell_angle_beta   90.00000000
_cell_angle_gamma   120.00000236
_symmetry_Int_Tables_number   1
_chemical_formula_structural   IrOs3Pb4O13
_chemical_formula_sum   'Ir1 Os3 Pb4 O13'
_cell_volume   285.14028519
_cell_formula_units_Z   1
loop_
 _symmetry_equiv_pos_site_id
 _symmetry_equiv_pos_as_xyz
  1  'x, y, z'
loop_
 _atom_site_type_symbol
 _atom_site_label
 _atom_site_symmetry_multiplicity
 _atom_site_fract_x
 _atom_site_fract_y
 _atom_site_fract_z
 _atom_site_occupancy
  Ir  Ir0  1  0.625527  0.251053  0.876580  1
  Os  Os1  1  0.625034  0.250068  0.376337  1
  Os  Os2  1  0.126270  0.751302  0.376337  1
  Os  Os3  1  0.625034  0.751302  0.376337  1
  Pb  Pb4  1  0.121132  0.242263  0.363395  1
  Pb  Pb5  1  0.122917  0.245833  0.874999  1
  Pb  Pb6  1  0.122917  0.752082  0.874999  1
  Pb  Pb7  1  0.629166  0.752082  0.874999  1
  O  O8  1  0.548929  0.097858  0.053768  1
  O  O9  1  0.548929  0.504839  0.053768  1
  O  O10  1  0.955910  0.504839  0.053769  1
  O  O11  1  0.308578  0.005195  0.313773  1
  O  O12  1  0.696617  0.005195  0.313773  1
  O  O13  1  0.308578  0.617155  0.313773  1
  O  O14  1  0.944324  0.496756  0.441078  1
  O  O15  1  0.944324  0.888647  0.441078  1
  O  O16  1  0.552432  0.496756  0.441079  1
  O  O17  1  0.299252  0.997179  0.695107  1
  O  O18  1  0.697927  0.997179  0.695107  1
  O  O19  1  0.697927  0.395855  0.695107  1
  O  O20  1  0.248280  0.496561  0.744841  1
