# generated using pymatgen
data_Ac3Y(ZnSn)4
_symmetry_space_group_name_H-M   'P 1'
_cell_length_a   4.64871400
_cell_length_b   4.64871364
_cell_length_c   17.62463700
_cell_angle_alpha   90.00000000
_cell_angle_beta   90.00000000
_cell_angle_gamma   120.00000258
_symmetry_Int_Tables_number   1
_chemical_formula_structural   Ac3Y(ZnSn)4
_chemical_formula_sum   'Ac3 Y1 Zn4 Sn4'
_cell_volume   329.84995092
_cell_formula_units_Z   1
loop_
 _symmetry_equiv_pos_site_id
 _symmetry_equiv_pos_as_xyz
  1  'x, y, z'
loop_
 _atom_site_type_symbol
 _atom_site_label
 _atom_site_symmetry_multiplicity
 _atom_site_fract_x
 _atom_site_fract_y
 _atom_site_fract_z
 _atom_site_occupancy
  Ac  Ac0  1  0.000000  0.000000  0.250000  1
  Ac  Ac1  1  0.000000  0.000000  0.989936  1
  Ac  Ac2  1  0.000000  0.000000  0.510064  1
  Y  Y3  1  0.000000  0.000000  0.750000  1
  Zn  Zn4  1  0.333333  0.666667  0.148208  1
  Zn  Zn5  1  0.666667  0.333333  0.827702  1
  Zn  Zn6  1  0.666667  0.333333  0.672298  1
  Zn  Zn7  1  0.333333  0.666667  0.351792  1
  Sn  Sn8  1  0.333333  0.666667  0.629597  1
  Sn  Sn9  1  0.666667  0.333333  0.387129  1
  Sn  Sn10  1  0.666667  0.333333  0.112871  1
  Sn  Sn11  1  0.333333  0.666667  0.870403  1
