# generated using pymatgen
data_CsSc(SeO4)2
_symmetry_space_group_name_H-M   'P 1'
_cell_length_a   5.32344400
_cell_length_b   5.32341874
_cell_length_c   9.25961700
_cell_angle_alpha   90.00072597
_cell_angle_beta   89.99956900
_cell_angle_gamma   120.00175139
_symmetry_Int_Tables_number   1
_chemical_formula_structural   CsSc(SeO4)2
_chemical_formula_sum   'Cs1 Sc1 Se2 O8'
_cell_volume   227.24760217
_cell_formula_units_Z   1
loop_
 _symmetry_equiv_pos_site_id
 _symmetry_equiv_pos_as_xyz
  1  'x, y, z'
loop_
 _atom_site_type_symbol
 _atom_site_label
 _atom_site_symmetry_multiplicity
 _atom_site_fract_x
 _atom_site_fract_y
 _atom_site_fract_z
 _atom_site_occupancy
  Cs  Cs0  1  0.000007  0.999994  0.500003  1
  Sc  Sc1  1  0.999966  0.000010  0.000024  1
  Se  Se2  1  0.333356  0.666678  0.196637  1
  Se  Se3  1  0.666659  0.333325  0.803357  1
  O  O4  1  0.654117  0.721596  0.135997  1
  O  O5  1  0.278387  0.932475  0.136003  1
  O  O6  1  0.067500  0.345900  0.136009  1
  O  O7  1  0.333348  0.666678  0.374574  1
  O  O8  1  0.666652  0.333335  0.625412  1
  O  O9  1  0.932503  0.654103  0.864004  1
  O  O10  1  0.721614  0.067495  0.863994  1
  O  O11  1  0.345893  0.278411  0.863988  1
