# generated using pymatgen
data_Tb3Nb(Ni4P3)2
_symmetry_space_group_name_H-M   'P 1'
_cell_length_a   3.78389900
_cell_length_b   10.73249100
_cell_length_c   12.40365700
_cell_angle_alpha   90.00000000
_cell_angle_beta   90.00000000
_cell_angle_gamma   90.00000000
_symmetry_Int_Tables_number   1
_chemical_formula_structural   Tb3Nb(Ni4P3)2
_chemical_formula_sum   'Tb6 Nb2 Ni16 P12'
_cell_volume   503.72072152
_cell_formula_units_Z   2
loop_
 _symmetry_equiv_pos_site_id
 _symmetry_equiv_pos_as_xyz
  1  'x, y, z'
loop_
 _atom_site_type_symbol
 _atom_site_label
 _atom_site_symmetry_multiplicity
 _atom_site_fract_x
 _atom_site_fract_y
 _atom_site_fract_z
 _atom_site_occupancy
  Tb  Tb0  1  0.000000  0.500000  0.525199  1
  Tb  Tb1  1  0.500000  0.000000  0.474801  1
  Tb  Tb2  1  0.500000  0.819277  0.206367  1
  Tb  Tb3  1  0.500000  0.180723  0.206367  1
  Tb  Tb4  1  0.000000  0.680723  0.793633  1
  Tb  Tb5  1  0.000000  0.319277  0.793633  1
  Nb  Nb6  1  0.500000  0.500000  0.153722  1
  Nb  Nb7  1  0.000000  0.000000  0.846278  1
  Ni  Ni8  1  0.500000  0.500000  0.701219  1
  Ni  Ni9  1  0.000000  0.000000  0.298781  1
  Ni  Ni10  1  0.000000  0.500000  0.983831  1
  Ni  Ni11  1  0.500000  0.000000  0.016169  1
  Ni  Ni12  1  0.500000  0.333723  0.988081  1
  Ni  Ni13  1  0.500000  0.666277  0.988081  1
  Ni  Ni14  1  0.000000  0.166277  0.011919  1
  Ni  Ni15  1  0.000000  0.833723  0.011919  1
  Ni  Ni16  1  0.500000  0.300800  0.428957  1
  Ni  Ni17  1  0.500000  0.699200  0.428957  1
  Ni  Ni18  1  0.000000  0.199200  0.571043  1
  Ni  Ni19  1  0.000000  0.800800  0.571043  1
  Ni  Ni20  1  0.500000  0.878371  0.707823  1
  Ni  Ni21  1  0.500000  0.121629  0.707823  1
  Ni  Ni22  1  0.000000  0.621629  0.292177  1
  Ni  Ni23  1  0.000000  0.378371  0.292177  1
  P  P24  1  0.500000  0.500000  0.879183  1
  P  P25  1  0.000000  0.000000  0.120817  1
  P  P26  1  0.500000  0.500000  0.352617  1
  P  P27  1  0.000000  0.000000  0.647383  1
  P  P28  1  0.500000  0.313730  0.614313  1
  P  P29  1  0.500000  0.686270  0.614313  1
  P  P30  1  0.000000  0.186270  0.385687  1
  P  P31  1  0.000000  0.813730  0.385687  1
  P  P32  1  0.500000  0.842334  0.893844  1
  P  P33  1  0.500000  0.157666  0.893844  1
  P  P34  1  0.000000  0.657666  0.106156  1
  P  P35  1  0.000000  0.342334  0.106156  1
