# generated using pymatgen
data_YEr2Ga6(Ni2Pd)3
_symmetry_space_group_name_H-M   'P 1'
_cell_length_a   8.93292000
_cell_length_b   8.93292030
_cell_length_c   4.16325000
_cell_angle_alpha   90.00000000
_cell_angle_beta   90.00000000
_cell_angle_gamma   119.99999888
_symmetry_Int_Tables_number   1
_chemical_formula_structural   YEr2Ga6(Ni2Pd)3
_chemical_formula_sum   'Y1 Er2 Ga6 Ni6 Pd3'
_cell_volume   287.70673685
_cell_formula_units_Z   1
loop_
 _symmetry_equiv_pos_site_id
 _symmetry_equiv_pos_as_xyz
  1  'x, y, z'
loop_
 _atom_site_type_symbol
 _atom_site_label
 _atom_site_symmetry_multiplicity
 _atom_site_fract_x
 _atom_site_fract_y
 _atom_site_fract_z
 _atom_site_occupancy
  Y  Y0  1  0.000000  0.000000  0.000000  1
  Er  Er1  1  0.666667  0.333333  0.500000  1
  Er  Er2  1  0.333333  0.666667  0.500000  1
  Ga  Ga3  1  0.464544  0.464544  0.000000  1
  Ga  Ga4  1  0.535456  0.000000  0.000000  1
  Ga  Ga5  1  0.000000  0.535456  0.000000  1
  Ga  Ga6  1  0.714256  0.714256  0.500000  1
  Ga  Ga7  1  0.285744  0.000000  0.500000  1
  Ga  Ga8  1  0.000000  0.285744  0.500000  1
  Ni  Ni9  1  0.833399  0.223806  0.000000  1
  Ni  Ni10  1  0.776194  0.609593  0.000000  1
  Ni  Ni11  1  0.390407  0.166601  0.000000  1
  Ni  Ni12  1  0.223806  0.833399  0.000000  1
  Ni  Ni13  1  0.609593  0.776194  0.000000  1
  Ni  Ni14  1  0.166601  0.390407  0.000000  1
  Pd  Pd15  1  0.285108  0.285108  0.500000  1
  Pd  Pd16  1  0.714892  0.000000  0.500000  1
  Pd  Pd17  1  0.000000  0.714892  0.500000  1
