# generated using pymatgen
data_Li2Tb3MgAu3
_symmetry_space_group_name_H-M   'P 1'
_cell_length_a   7.58091877
_cell_length_b   7.58091978
_cell_length_c   4.04211000
_cell_angle_alpha   90.00000000
_cell_angle_beta   90.00000000
_cell_angle_gamma   120.22623544
_symmetry_Int_Tables_number   1
_chemical_formula_structural   Li2Tb3MgAu3
_chemical_formula_sum   'Li2 Tb3 Mg1 Au3'
_cell_volume   200.71874046
_cell_formula_units_Z   1
loop_
 _symmetry_equiv_pos_site_id
 _symmetry_equiv_pos_as_xyz
  1  'x, y, z'
loop_
 _atom_site_type_symbol
 _atom_site_label
 _atom_site_symmetry_multiplicity
 _atom_site_fract_x
 _atom_site_fract_y
 _atom_site_fract_z
 _atom_site_occupancy
  Li  Li0  1  0.245192  0.999811  0.500000  1
  Li  Li1  1  0.999811  0.245192  0.500000  1
  Tb  Tb2  1  0.590402  0.001711  0.000000  1
  Tb  Tb3  1  0.001711  0.590402  0.000000  1
  Tb  Tb4  1  0.403119  0.403119  0.000000  1
  Mg  Mg5  1  0.755853  0.755853  0.500000  1
  Au  Au6  1  0.334431  0.666664  0.500000  1
  Au  Au7  1  0.666664  0.334431  0.500000  1
  Au  Au8  1  0.002818  0.002818  0.000000  1
