# generated using pymatgen
data_Hf18FeRe8Se
_symmetry_space_group_name_H-M   'P 1'
_cell_length_a   8.57888900
_cell_length_b   8.57888755
_cell_length_c   8.59164300
_cell_angle_alpha   90.00000000
_cell_angle_beta   90.00000000
_cell_angle_gamma   119.99999403
_symmetry_Int_Tables_number   1
_chemical_formula_structural   Hf18FeRe8Se
_chemical_formula_sum   'Hf18 Fe1 Re8 Se1'
_cell_volume   547.60689093
_cell_formula_units_Z   1
loop_
 _symmetry_equiv_pos_site_id
 _symmetry_equiv_pos_as_xyz
  1  'x, y, z'
loop_
 _atom_site_type_symbol
 _atom_site_label
 _atom_site_symmetry_multiplicity
 _atom_site_fract_x
 _atom_site_fract_y
 _atom_site_fract_z
 _atom_site_occupancy
  Hf  Hf0  1  0.191166  0.808834  0.452507  1
  Hf  Hf1  1  0.191166  0.382333  0.452507  1
  Hf  Hf2  1  0.617667  0.808834  0.452507  1
  Hf  Hf3  1  0.799579  0.200421  0.558263  1
  Hf  Hf4  1  0.799579  0.599158  0.558263  1
  Hf  Hf5  1  0.400842  0.200421  0.558263  1
  Hf  Hf6  1  0.799579  0.200421  0.941737  1
  Hf  Hf7  1  0.799579  0.599158  0.941737  1
  Hf  Hf8  1  0.400842  0.200421  0.941737  1
  Hf  Hf9  1  0.191166  0.808834  0.047493  1
  Hf  Hf10  1  0.191166  0.382333  0.047493  1
  Hf  Hf11  1  0.617667  0.808834  0.047493  1
  Hf  Hf12  1  0.544369  0.455631  0.250000  1
  Hf  Hf13  1  0.544369  0.088737  0.250000  1
  Hf  Hf14  1  0.911263  0.455631  0.250000  1
  Hf  Hf15  1  0.459493  0.540507  0.750000  1
  Hf  Hf16  1  0.459493  0.918985  0.750000  1
  Hf  Hf17  1  0.081015  0.540507  0.750000  1
  Fe  Fe18  1  0.666667  0.333333  0.750000  1
  Re  Re19  1  0.889143  0.110857  0.250000  1
  Re  Re20  1  0.889143  0.778286  0.250000  1
  Re  Re21  1  0.221714  0.110857  0.250000  1
  Re  Re22  1  0.110263  0.889737  0.750000  1
  Re  Re23  1  0.110263  0.220526  0.750000  1
  Re  Re24  1  0.779474  0.889737  0.750000  1
  Re  Re25  1  0.000000  0.000000  0.500958  1
  Re  Re26  1  0.000000  0.000000  0.999042  1
  Se  Se27  1  0.333333  0.666667  0.250000  1
