# generated using pymatgen
data_NaGd6CI12
_symmetry_space_group_name_H-M   'P 1'
_cell_length_a   9.68238158
_cell_length_b   9.68238109
_cell_length_c   9.68238200
_cell_angle_alpha   107.18182585
_cell_angle_beta   107.18181258
_cell_angle_gamma   107.18181633
_symmetry_Int_Tables_number   1
_chemical_formula_structural   NaGd6CI12
_chemical_formula_sum   'Na1 Gd6 C1 I12'
_cell_volume   752.16778658
_cell_formula_units_Z   1
loop_
 _symmetry_equiv_pos_site_id
 _symmetry_equiv_pos_as_xyz
  1  'x, y, z'
loop_
 _atom_site_type_symbol
 _atom_site_label
 _atom_site_symmetry_multiplicity
 _atom_site_fract_x
 _atom_site_fract_y
 _atom_site_fract_z
 _atom_site_occupancy
  Na  Na0  1  0.500000  0.500000  0.500000  1
  Gd  Gd1  1  0.093372  0.286306  0.027467  1
  Gd  Gd2  1  0.286306  0.027468  0.093372  1
  Gd  Gd3  1  0.027468  0.093372  0.286306  1
  Gd  Gd4  1  0.972532  0.906629  0.713694  1
  Gd  Gd5  1  0.713694  0.972533  0.906628  1
  Gd  Gd6  1  0.906628  0.713694  0.972533  1
  C  C7  1  0.000000  0.000000  0.000000  1
  I  I8  1  0.226169  0.685350  0.073844  1
  I  I9  1  0.451521  0.374043  0.141831  1
  I  I10  1  0.685350  0.073844  0.226169  1
  I  I11  1  0.926156  0.773831  0.314651  1
  I  I12  1  0.141831  0.451521  0.374043  1
  I  I13  1  0.374043  0.141831  0.451522  1
  I  I14  1  0.625957  0.858169  0.548479  1
  I  I15  1  0.858169  0.548479  0.625957  1
  I  I16  1  0.073844  0.226169  0.685350  1
  I  I17  1  0.314650  0.926156  0.773831  1
  I  I18  1  0.548479  0.625957  0.858170  1
  I  I19  1  0.773831  0.314651  0.926156  1
