# generated using pymatgen
data_Y5Er3Tc3B24Rh
_symmetry_space_group_name_H-M   'P 1'
_cell_length_a   3.67344300
_cell_length_b   9.14732946
_cell_length_c   11.53758102
_cell_angle_alpha   90.11782743
_cell_angle_beta   90.00000000
_cell_angle_gamma   90.00000000
_symmetry_Int_Tables_number   1
_chemical_formula_structural   Y5Er3Tc3B24Rh
_chemical_formula_sum   'Y5 Er3 Tc3 B24 Rh1'
_cell_volume   387.68720879
_cell_formula_units_Z   1
loop_
 _symmetry_equiv_pos_site_id
 _symmetry_equiv_pos_as_xyz
  1  'x, y, z'
loop_
 _atom_site_type_symbol
 _atom_site_label
 _atom_site_symmetry_multiplicity
 _atom_site_fract_x
 _atom_site_fract_y
 _atom_site_fract_z
 _atom_site_occupancy
  Y  Y0  1  0.500000  0.318446  0.416085  1
  Y  Y1  1  0.500000  0.678163  0.590885  1
  Y  Y2  1  0.500000  0.176995  0.912625  1
  Y  Y3  1  0.500000  0.827157  0.081260  1
  Y  Y4  1  0.500000  0.440897  0.128768  1
  Er  Er5  1  0.500000  0.557146  0.870528  1
  Er  Er6  1  0.500000  0.056099  0.629672  1
  Er  Er7  1  0.500000  0.943966  0.369815  1
  Tc  Tc8  1  0.500000  0.138041  0.180661  1
  Tc  Tc9  1  0.500000  0.861273  0.820281  1
  Tc  Tc10  1  0.500000  0.362116  0.678114  1
  B  B11  1  0.000000  0.100554  0.471708  1
  B  B12  1  0.000000  0.896378  0.527942  1
  B  B13  1  0.000000  0.397439  0.971330  1
  B  B14  1  0.000000  0.604260  0.028647  1
  B  B15  1  0.000000  0.130179  0.315295  1
  B  B16  1  0.000000  0.868867  0.685302  1
  B  B17  1  0.000000  0.369565  0.814085  1
  B  B18  1  0.000000  0.632160  0.184225  1
  B  B19  1  0.000000  0.053468  0.066815  1
  B  B20  1  0.000000  0.946902  0.932139  1
  B  B21  1  0.000000  0.446195  0.566950  1
  B  B22  1  0.000000  0.554320  0.433792  1
  B  B23  1  0.000000  0.483515  0.288243  1
  B  B24  1  0.000000  0.517871  0.712550  1
  B  B25  1  0.000000  0.017391  0.786759  1
  B  B26  1  0.000000  0.982776  0.212292  1
  B  B27  1  0.000000  0.248574  0.081445  1
  B  B28  1  0.000000  0.751476  0.918420  1
  B  B29  1  0.000000  0.249943  0.581326  1
  B  B30  1  0.000000  0.749756  0.420062  1
  B  B31  1  0.000000  0.291102  0.235600  1
  B  B32  1  0.000000  0.708191  0.765753  1
  B  B33  1  0.000000  0.208304  0.734089  1
  B  B34  1  0.000000  0.791592  0.265227  1
  Rh  Rh35  1  0.500000  0.638926  0.321307  1
