# generated using pymatgen
data_La12CuOs2Pd
_symmetry_space_group_name_H-M   'P 1'
_cell_length_a   6.64307636
_cell_length_b   7.51154972
_cell_length_c   10.19396600
_cell_angle_alpha   90.00000000
_cell_angle_beta   90.00000000
_cell_angle_gamma   89.80756227
_symmetry_Int_Tables_number   1
_chemical_formula_structural   La12CuOs2Pd
_chemical_formula_sum   'La12 Cu1 Os2 Pd1'
_cell_volume   508.67397879
_cell_formula_units_Z   1
loop_
 _symmetry_equiv_pos_site_id
 _symmetry_equiv_pos_as_xyz
  1  'x, y, z'
loop_
 _atom_site_type_symbol
 _atom_site_label
 _atom_site_symmetry_multiplicity
 _atom_site_fract_x
 _atom_site_fract_y
 _atom_site_fract_z
 _atom_site_occupancy
  La  La0  1  0.336526  0.669416  0.066033  1
  La  La1  1  0.173716  0.180173  0.433487  1
  La  La2  1  0.664539  0.332040  0.565894  1
  La  La3  1  0.826847  0.818874  0.933191  1
  La  La4  1  0.664539  0.332040  0.934106  1
  La  La5  1  0.826847  0.818874  0.566809  1
  La  La6  1  0.336526  0.669416  0.433967  1
  La  La7  1  0.173716  0.180173  0.066513  1
  La  La8  1  0.848059  0.522425  0.250000  1
  La  La9  1  0.633971  0.047329  0.250000  1
  La  La10  1  0.155563  0.475092  0.750000  1
  La  La11  1  0.363084  0.952461  0.750000  1
  Cu  Cu12  1  0.062087  0.882136  0.250000  1
  Os  Os13  1  0.429473  0.378679  0.250000  1
  Os  Os14  1  0.569889  0.621695  0.750000  1
  Pd  Pd15  1  0.934618  0.119176  0.750000  1
