# generated using pymatgen
data_Sm4ReI4
_symmetry_space_group_name_H-M   'P 1'
_cell_length_a   11.06737666
_cell_length_b   11.06737760
_cell_length_c   6.34015229
_cell_angle_alpha   90.45172093
_cell_angle_beta   90.45172419
_cell_angle_gamma   89.62836635
_symmetry_Int_Tables_number   1
_chemical_formula_structural   Sm4ReI4
_chemical_formula_sum   'Sm8 Re2 I8'
_cell_volume   776.52090229
_cell_formula_units_Z   2
loop_
 _symmetry_equiv_pos_site_id
 _symmetry_equiv_pos_as_xyz
  1  'x, y, z'
loop_
 _atom_site_type_symbol
 _atom_site_label
 _atom_site_symmetry_multiplicity
 _atom_site_fract_x
 _atom_site_fract_y
 _atom_site_fract_z
 _atom_site_occupancy
  Sm  Sm0  1  0.790890  0.084867  0.997849  1
  Sm  Sm1  1  0.084867  0.790890  0.497849  1
  Sm  Sm2  1  0.083987  0.208969  0.005169  1
  Sm  Sm3  1  0.208969  0.083987  0.505169  1
  Sm  Sm4  1  0.916013  0.791031  0.994831  1
  Sm  Sm5  1  0.915133  0.209110  0.502151  1
  Sm  Sm6  1  0.209110  0.915133  0.002151  1
  Sm  Sm7  1  0.791031  0.916013  0.494831  1
  Re  Re8  1  0.999974  0.000026  0.250000  1
  Re  Re9  1  0.000026  0.999974  0.750000  1
  I  I10  1  0.631240  0.159628  0.500351  1
  I  I11  1  0.842616  0.632048  0.501487  1
  I  I12  1  0.367952  0.157384  0.998513  1
  I  I13  1  0.157384  0.367952  0.498513  1
  I  I14  1  0.632048  0.842616  0.001487  1
  I  I15  1  0.368760  0.840372  0.499649  1
  I  I16  1  0.159628  0.631240  0.000351  1
  I  I17  1  0.840372  0.368760  0.999649  1
