# generated using pymatgen
data_Tb2Er2SiBr6
_symmetry_space_group_name_H-M   'P 1'
_cell_length_a   4.05181800
_cell_length_b   13.20878000
_cell_length_c   13.97274600
_cell_angle_alpha   90.00000000
_cell_angle_beta   90.00000000
_cell_angle_gamma   90.00000000
_symmetry_Int_Tables_number   1
_chemical_formula_structural   Tb2Er2SiBr6
_chemical_formula_sum   'Tb4 Er4 Si2 Br12'
_cell_volume   747.81539344
_cell_formula_units_Z   2
loop_
 _symmetry_equiv_pos_site_id
 _symmetry_equiv_pos_as_xyz
  1  'x, y, z'
loop_
 _atom_site_type_symbol
 _atom_site_label
 _atom_site_symmetry_multiplicity
 _atom_site_fract_x
 _atom_site_fract_y
 _atom_site_fract_z
 _atom_site_occupancy
  Tb  Tb0  1  0.000000  0.118712  0.578965  1
  Tb  Tb1  1  0.000000  0.881288  0.421035  1
  Tb  Tb2  1  0.000000  0.618712  0.921035  1
  Tb  Tb3  1  0.000000  0.381288  0.078965  1
  Er  Er4  1  0.500000  0.117558  0.341733  1
  Er  Er5  1  0.500000  0.882442  0.658267  1
  Er  Er6  1  0.500000  0.617558  0.158267  1
  Er  Er7  1  0.500000  0.382442  0.841733  1
  Si  Si8  1  0.500000  0.000000  0.500000  1
  Si  Si9  1  0.500000  0.500000  0.000000  1
  Br  Br10  1  0.500000  0.241909  0.164339  1
  Br  Br11  1  0.500000  0.758091  0.835661  1
  Br  Br12  1  0.500000  0.741909  0.335661  1
  Br  Br13  1  0.500000  0.258091  0.664339  1
  Br  Br14  1  0.000000  0.255051  0.409400  1
  Br  Br15  1  0.000000  0.744949  0.590600  1
  Br  Br16  1  0.000000  0.755051  0.090600  1
  Br  Br17  1  0.000000  0.244949  0.909400  1
  Br  Br18  1  0.000000  0.003709  0.242605  1
  Br  Br19  1  0.000000  0.996291  0.757395  1
  Br  Br20  1  0.000000  0.503709  0.257395  1
  Br  Br21  1  0.000000  0.496291  0.742605  1
