# generated using pymatgen
data_LuSc2TaRu4
_symmetry_space_group_name_H-M   'P 1'
_cell_length_a   6.45746600
_cell_length_b   4.55614900
_cell_length_c   9.16852900
_cell_angle_alpha   90.00000000
_cell_angle_beta   89.99809086
_cell_angle_gamma   90.00000000
_symmetry_Int_Tables_number   1
_chemical_formula_structural   LuSc2TaRu4
_chemical_formula_sum   'Lu2 Sc4 Ta2 Ru8'
_cell_volume   269.74891683
_cell_formula_units_Z   2
loop_
 _symmetry_equiv_pos_site_id
 _symmetry_equiv_pos_as_xyz
  1  'x, y, z'
loop_
 _atom_site_type_symbol
 _atom_site_label
 _atom_site_symmetry_multiplicity
 _atom_site_fract_x
 _atom_site_fract_y
 _atom_site_fract_z
 _atom_site_occupancy
  Lu  Lu0  1  0.250039  0.250000  0.123957  1
  Lu  Lu1  1  0.750013  0.750000  0.376047  1
  Sc  Sc2  1  0.750043  0.250000  0.123166  1
  Sc  Sc3  1  0.250027  0.750000  0.376823  1
  Sc  Sc4  1  0.749949  0.250000  0.626031  1
  Sc  Sc5  1  0.249969  0.750000  0.873965  1
  Ta  Ta6  1  0.249968  0.250000  0.624037  1
  Ta  Ta7  1  0.749977  0.750000  0.875968  1
  Ru  Ru8  1  0.507752  0.750000  0.114246  1
  Ru  Ru9  1  0.992297  0.750000  0.114303  1
  Ru  Ru10  1  0.492330  0.250000  0.385718  1
  Ru  Ru11  1  0.007746  0.250000  0.385746  1
  Ru  Ru12  1  0.007139  0.750000  0.634298  1
  Ru  Ru13  1  0.492794  0.750000  0.634329  1
  Ru  Ru14  1  0.992798  0.250000  0.865685  1
  Ru  Ru15  1  0.507161  0.250000  0.865680  1
