# generated using pymatgen
data_Nd2TmRuBr3
_symmetry_space_group_name_H-M   'P 1'
_cell_length_a   4.19655500
_cell_length_b   8.57240973
_cell_length_c   12.09423703
_cell_angle_alpha   86.52693870
_cell_angle_beta   90.00000000
_cell_angle_gamma   90.00000000
_symmetry_Int_Tables_number   1
_chemical_formula_structural   Nd2TmRuBr3
_chemical_formula_sum   'Nd4 Tm2 Ru2 Br6'
_cell_volume   434.28612428
_cell_formula_units_Z   2
loop_
 _symmetry_equiv_pos_site_id
 _symmetry_equiv_pos_as_xyz
  1  'x, y, z'
loop_
 _atom_site_type_symbol
 _atom_site_label
 _atom_site_symmetry_multiplicity
 _atom_site_fract_x
 _atom_site_fract_y
 _atom_site_fract_z
 _atom_site_occupancy
  Nd  Nd0  1  0.750000  0.100464  0.670853  1
  Nd  Nd1  1  0.250000  0.899536  0.329147  1
  Nd  Nd2  1  0.250000  0.284125  0.897878  1
  Nd  Nd3  1  0.750000  0.715875  0.102122  1
  Tm  Tm4  1  0.750000  0.129078  0.127577  1
  Tm  Tm5  1  0.250000  0.870922  0.872423  1
  Ru  Ru6  1  0.750000  0.056905  0.904747  1
  Ru  Ru7  1  0.250000  0.943095  0.095253  1
  Br  Br8  1  0.250000  0.347013  0.640371  1
  Br  Br9  1  0.750000  0.652987  0.359629  1
  Br  Br10  1  0.750000  0.141290  0.388202  1
  Br  Br11  1  0.250000  0.858710  0.611798  1
  Br  Br12  1  0.250000  0.419893  0.134205  1
  Br  Br13  1  0.750000  0.580107  0.865795  1
