# generated using pymatgen
data_ErTm2U(ReB6)2
_symmetry_space_group_name_H-M   'P 1'
_cell_length_a   3.65945800
_cell_length_b   9.09932847
_cell_length_c   11.45694102
_cell_angle_alpha   90.35274215
_cell_angle_beta   90.00000000
_cell_angle_gamma   90.00000000
_symmetry_Int_Tables_number   1
_chemical_formula_structural   ErTm2U(ReB6)2
_chemical_formula_sum   'Er2 Tm4 U2 Re4 B24'
_cell_volume   381.49298492
_cell_formula_units_Z   2
loop_
 _symmetry_equiv_pos_site_id
 _symmetry_equiv_pos_as_xyz
  1  'x, y, z'
loop_
 _atom_site_type_symbol
 _atom_site_label
 _atom_site_symmetry_multiplicity
 _atom_site_fract_x
 _atom_site_fract_y
 _atom_site_fract_z
 _atom_site_occupancy
  Er  Er0  1  0.000000  0.822931  0.085776  1
  Er  Er1  1  0.000000  0.177069  0.914224  1
  Tm  Tm2  1  0.000000  0.944938  0.372895  1
  Tm  Tm3  1  0.000000  0.055062  0.627105  1
  Tm  Tm4  1  0.000000  0.443780  0.126610  1
  Tm  Tm5  1  0.000000  0.556220  0.873390  1
  U  U6  1  0.000000  0.322448  0.413664  1
  U  U7  1  0.000000  0.677552  0.586336  1
  Re  Re8  1  0.000000  0.635248  0.325210  1
  Re  Re9  1  0.000000  0.364752  0.674790  1
  Re  Re10  1  0.000000  0.141000  0.182254  1
  Re  Re11  1  0.000000  0.859000  0.817746  1
  B  B12  1  0.500000  0.552786  0.434016  1
  B  B13  1  0.500000  0.447214  0.565984  1
  B  B14  1  0.500000  0.053335  0.067140  1
  B  B15  1  0.500000  0.946665  0.932860  1
  B  B16  1  0.500000  0.748925  0.420463  1
  B  B17  1  0.500000  0.251075  0.579537  1
  B  B18  1  0.500000  0.248798  0.080179  1
  B  B19  1  0.500000  0.751202  0.919821  1
  B  B20  1  0.500000  0.792229  0.265619  1
  B  B21  1  0.500000  0.207771  0.734381  1
  B  B22  1  0.500000  0.293348  0.234852  1
  B  B23  1  0.500000  0.706652  0.765148  1
  B  B24  1  0.500000  0.631011  0.185162  1
  B  B25  1  0.500000  0.368989  0.814838  1
  B  B26  1  0.500000  0.132868  0.315424  1
  B  B27  1  0.500000  0.867132  0.684576  1
  B  B28  1  0.500000  0.981607  0.212585  1
  B  B29  1  0.500000  0.018393  0.787415  1
  B  B30  1  0.500000  0.481542  0.287080  1
  B  B31  1  0.500000  0.518458  0.712920  1
  B  B32  1  0.500000  0.603639  0.029088  1
  B  B33  1  0.500000  0.396361  0.970912  1
  B  B34  1  0.500000  0.109626  0.469843  1
  B  B35  1  0.500000  0.890374  0.530157  1
