# generated using pymatgen
data_Eu6Al43W4
_symmetry_space_group_name_H-M   'P 1'
_cell_length_a   11.09525600
_cell_length_b   11.09525688
_cell_length_c   17.75290100
_cell_angle_alpha   90.00000000
_cell_angle_beta   90.00000000
_cell_angle_gamma   120.00000333
_symmetry_Int_Tables_number   1
_chemical_formula_structural   Eu6Al43W4
_chemical_formula_sum   'Eu12 Al86 W8'
_cell_volume   1892.66886178
_cell_formula_units_Z   2
loop_
 _symmetry_equiv_pos_site_id
 _symmetry_equiv_pos_as_xyz
  1  'x, y, z'
loop_
 _atom_site_type_symbol
 _atom_site_label
 _atom_site_symmetry_multiplicity
 _atom_site_fract_x
 _atom_site_fract_y
 _atom_site_fract_z
 _atom_site_occupancy
  Eu  Eu0  1  0.468994  0.468994  0.905479  1
  Eu  Eu1  1  0.531006  0.000000  0.905479  1
  Eu  Eu2  1  0.000000  0.531006  0.905479  1
  Eu  Eu3  1  0.531006  0.531006  0.094521  1
  Eu  Eu4  1  0.468994  0.000000  0.094521  1
  Eu  Eu5  1  0.000000  0.468994  0.094521  1
  Eu  Eu6  1  0.531006  0.531006  0.405479  1
  Eu  Eu7  1  0.468994  0.000000  0.405479  1
  Eu  Eu8  1  0.000000  0.468994  0.405479  1
  Eu  Eu9  1  0.468994  0.468994  0.594521  1
  Eu  Eu10  1  0.531006  0.000000  0.594521  1
  Eu  Eu11  1  0.000000  0.531006  0.594521  1
  Al  Al12  1  0.842494  0.235253  0.835339  1
  Al  Al13  1  0.764747  0.607240  0.835339  1
  Al  Al14  1  0.392760  0.157506  0.835339  1
  Al  Al15  1  0.235253  0.842494  0.835339  1
  Al  Al16  1  0.607240  0.764747  0.835339  1
  Al  Al17  1  0.157506  0.392760  0.835339  1
  Al  Al18  1  0.157506  0.764747  0.164661  1
  Al  Al19  1  0.235253  0.392760  0.164661  1
  Al  Al20  1  0.607240  0.842494  0.164661  1
  Al  Al21  1  0.764747  0.157506  0.164661  1
  Al  Al22  1  0.392760  0.235253  0.164661  1
  Al  Al23  1  0.842494  0.607240  0.164661  1
  Al  Al24  1  0.157506  0.764747  0.335339  1
  Al  Al25  1  0.235253  0.392760  0.335339  1
  Al  Al26  1  0.607240  0.842494  0.335339  1
  Al  Al27  1  0.764747  0.157506  0.335339  1
  Al  Al28  1  0.392760  0.235253  0.335339  1
  Al  Al29  1  0.842494  0.607240  0.335339  1
  Al  Al30  1  0.842494  0.235253  0.664661  1
  Al  Al31  1  0.764747  0.607240  0.664661  1
  Al  Al32  1  0.392760  0.157506  0.664661  1
  Al  Al33  1  0.235253  0.842494  0.664661  1
  Al  Al34  1  0.607240  0.764747  0.664661  1
  Al  Al35  1  0.157506  0.392760  0.664661  1
  Al  Al36  1  0.841251  0.841251  0.384927  1
  Al  Al37  1  0.158749  0.000000  0.384927  1
  Al  Al38  1  0.000000  0.158749  0.384927  1
  Al  Al39  1  0.158749  0.158749  0.615073  1
  Al  Al40  1  0.841251  0.000000  0.615073  1
  Al  Al41  1  0.000000  0.841251  0.615073  1
  Al  Al42  1  0.158749  0.158749  0.884927  1
  Al  Al43  1  0.841251  0.000000  0.884927  1
  Al  Al44  1  0.000000  0.841251  0.884927  1
  Al  Al45  1  0.841251  0.841251  0.115073  1
  Al  Al46  1  0.158749  0.000000  0.115073  1
  Al  Al47  1  0.000000  0.158749  0.115073  1
  Al  Al48  1  0.747712  0.747712  0.969036  1
  Al  Al49  1  0.252288  0.000000  0.969036  1
  Al  Al50  1  0.000000  0.252288  0.969036  1
  Al  Al51  1  0.252288  0.252288  0.030964  1
  Al  Al52  1  0.747712  0.000000  0.030964  1
  Al  Al53  1  0.000000  0.747712  0.030964  1
  Al  Al54  1  0.252288  0.252288  0.469036  1
  Al  Al55  1  0.747712  0.000000  0.469036  1
  Al  Al56  1  0.000000  0.747712  0.469036  1
  Al  Al57  1  0.747712  0.747712  0.530964  1
  Al  Al58  1  0.252288  0.000000  0.530964  1
  Al  Al59  1  0.000000  0.252288  0.530964  1
  Al  Al60  1  0.851890  0.449346  0.750000  1
  Al  Al61  1  0.550654  0.402544  0.750000  1
  Al  Al62  1  0.597456  0.148110  0.750000  1
  Al  Al63  1  0.449346  0.851890  0.750000  1
  Al  Al64  1  0.402544  0.550654  0.750000  1
  Al  Al65  1  0.148110  0.597456  0.750000  1
  Al  Al66  1  0.148110  0.550654  0.250000  1
  Al  Al67  1  0.449346  0.597456  0.250000  1
  Al  Al68  1  0.402544  0.851890  0.250000  1
  Al  Al69  1  0.550654  0.148110  0.250000  1
  Al  Al70  1  0.597456  0.449346  0.250000  1
  Al  Al71  1  0.851890  0.402544  0.250000  1
  Al  Al72  1  0.753064  0.246936  0.000000  1
  Al  Al73  1  0.753064  0.506128  0.000000  1
  Al  Al74  1  0.493872  0.246936  0.000000  1
  Al  Al75  1  0.246936  0.753064  0.000000  1
  Al  Al76  1  0.506128  0.753064  0.000000  1
  Al  Al77  1  0.246936  0.493872  0.000000  1
  Al  Al78  1  0.246936  0.753064  0.500000  1
  Al  Al79  1  0.246936  0.493872  0.500000  1
  Al  Al80  1  0.506128  0.753064  0.500000  1
  Al  Al81  1  0.753064  0.246936  0.500000  1
  Al  Al82  1  0.493872  0.246936  0.500000  1
  Al  Al83  1  0.753064  0.506128  0.500000  1
  Al  Al84  1  0.666667  0.333333  0.873246  1
  Al  Al85  1  0.333333  0.666667  0.873246  1
  Al  Al86  1  0.333333  0.666667  0.126754  1
  Al  Al87  1  0.666667  0.333333  0.126754  1
  Al  Al88  1  0.333333  0.666667  0.373246  1
  Al  Al89  1  0.666667  0.333333  0.373246  1
  Al  Al90  1  0.666667  0.333333  0.626754  1
  Al  Al91  1  0.333333  0.666667  0.626754  1
  Al  Al92  1  0.852999  0.852999  0.750000  1
  Al  Al93  1  0.147001  0.000000  0.750000  1
  Al  Al94  1  0.000000  0.147001  0.750000  1
  Al  Al95  1  0.147001  0.147001  0.250000  1
  Al  Al96  1  0.852999  0.000000  0.250000  1
  Al  Al97  1  0.000000  0.852999  0.250000  1
  W  W98  1  0.269522  0.269522  0.750000  1
  W  W99  1  0.730478  0.000000  0.750000  1
  W  W100  1  0.000000  0.730478  0.750000  1
  W  W101  1  0.730478  0.730478  0.250000  1
  W  W102  1  0.269522  0.000000  0.250000  1
  W  W103  1  0.000000  0.269522  0.250000  1
  W  W104  1  0.000000  0.000000  0.000000  1
  W  W105  1  0.000000  0.000000  0.500000  1
