# generated using pymatgen
data_Tb2Nd17ErPb16
_symmetry_space_group_name_H-M   'P 1'
_cell_length_a   8.41290313
_cell_length_b   8.51949313
_cell_length_c   16.19622400
_cell_angle_alpha   90.00000000
_cell_angle_beta   90.00000000
_cell_angle_gamma   90.00013788
_symmetry_Int_Tables_number   1
_chemical_formula_structural   Tb2Nd17ErPb16
_chemical_formula_sum   'Tb2 Nd17 Er1 Pb16'
_cell_volume   1160.84282081
_cell_formula_units_Z   1
loop_
 _symmetry_equiv_pos_site_id
 _symmetry_equiv_pos_as_xyz
  1  'x, y, z'
loop_
 _atom_site_type_symbol
 _atom_site_label
 _atom_site_symmetry_multiplicity
 _atom_site_fract_x
 _atom_site_fract_y
 _atom_site_fract_z
 _atom_site_occupancy
  Tb  Tb0  1  0.209546  0.502915  0.750000  1
  Tb  Tb1  1  0.709312  0.996940  0.750000  1
  Nd  Nd2  1  0.377893  0.840873  0.880524  1
  Nd  Nd3  1  0.877836  0.658975  0.619750  1
  Nd  Nd4  1  0.621269  0.158321  0.380489  1
  Nd  Nd5  1  0.123134  0.340447  0.119331  1
  Nd  Nd6  1  0.621269  0.158321  0.119511  1
  Nd  Nd7  1  0.123134  0.340447  0.380669  1
  Nd  Nd8  1  0.377893  0.840873  0.619476  1
  Nd  Nd9  1  0.877836  0.658975  0.880250  1
  Nd  Nd10  1  0.533640  0.322616  0.899108  1
  Nd  Nd11  1  0.033474  0.177423  0.600591  1
  Nd  Nd12  1  0.465863  0.678316  0.399577  1
  Nd  Nd13  1  0.966943  0.823523  0.100656  1
  Nd  Nd14  1  0.465863  0.678316  0.100423  1
  Nd  Nd15  1  0.966943  0.823523  0.399344  1
  Nd  Nd16  1  0.533640  0.322616  0.600892  1
  Nd  Nd17  1  0.033474  0.177423  0.899409  1
  Nd  Nd18  1  0.791539  0.497223  0.250000  1
  Er  Er19  1  0.290325  0.003721  0.250000  1
  Pb  Pb20  1  0.281014  0.031488  0.044589  1
  Pb  Pb21  1  0.781272  0.467679  0.456729  1
  Pb  Pb22  1  0.718740  0.968151  0.544330  1
  Pb  Pb23  1  0.218709  0.531647  0.955724  1
  Pb  Pb24  1  0.718740  0.968151  0.955670  1
  Pb  Pb25  1  0.218709  0.531647  0.544276  1
  Pb  Pb26  1  0.281014  0.031488  0.455411  1
  Pb  Pb27  1  0.781272  0.467679  0.043271  1
  Pb  Pb28  1  0.572447  0.625522  0.750000  1
  Pb  Pb29  1  0.072668  0.874702  0.750000  1
  Pb  Pb30  1  0.424595  0.372957  0.250000  1
  Pb  Pb31  1  0.928654  0.122821  0.250000  1
  Pb  Pb32  1  0.344894  0.152112  0.750000  1
  Pb  Pb33  1  0.844568  0.347543  0.750000  1
  Pb  Pb34  1  0.654423  0.850666  0.250000  1
  Pb  Pb35  1  0.157455  0.653960  0.250000  1
