# generated using pymatgen
data_Cs12K5Rb(TlAs4)2
_symmetry_space_group_name_H-M   'P 1'
_cell_length_a   10.74931347
_cell_length_b   10.70549408
_cell_length_c   11.45274700
_cell_angle_alpha   90.00000000
_cell_angle_beta   90.00000000
_cell_angle_gamma   119.71959809
_symmetry_Int_Tables_number   1
_chemical_formula_structural   Cs12K5Rb(TlAs4)2
_chemical_formula_sum   'Cs12 K5 Rb1 Tl2 As8'
_cell_volume   1144.58467416
_cell_formula_units_Z   1
loop_
 _symmetry_equiv_pos_site_id
 _symmetry_equiv_pos_as_xyz
  1  'x, y, z'
loop_
 _atom_site_type_symbol
 _atom_site_label
 _atom_site_symmetry_multiplicity
 _atom_site_fract_x
 _atom_site_fract_y
 _atom_site_fract_z
 _atom_site_occupancy
  Cs  Cs0  1  0.207244  0.791816  0.953116  1
  Cs  Cs1  1  0.207059  0.415485  0.953316  1
  Cs  Cs2  1  0.584857  0.792637  0.952452  1
  Cs  Cs3  1  0.416483  0.208038  0.450581  1
  Cs  Cs4  1  0.792862  0.585326  0.047777  1
  Cs  Cs5  1  0.792673  0.207314  0.452043  1
  Cs  Cs6  1  0.792862  0.585326  0.452223  1
  Cs  Cs7  1  0.207244  0.791816  0.546884  1
  Cs  Cs8  1  0.584857  0.792637  0.547548  1
  Cs  Cs9  1  0.416483  0.208038  0.049419  1
  Cs  Cs10  1  0.792673  0.207314  0.047957  1
  Cs  Cs11  1  0.207059  0.415485  0.546684  1
  K  K12  1  0.877416  0.121633  0.750000  1
  K  K13  1  0.756050  0.877967  0.250000  1
  K  K14  1  0.120779  0.242313  0.250000  1
  K  K15  1  0.120682  0.878373  0.250000  1
  K  K16  1  0.877346  0.755797  0.750000  1
  Rb  Rb17  1  0.241177  0.120712  0.750000  1
  Tl  Tl18  1  0.333456  0.666904  0.250000  1
  Tl  Tl19  1  0.667455  0.333543  0.750000  1
  As  As20  1  0.997319  0.998640  0.002787  1
  As  As21  1  0.041269  0.520676  0.250000  1
  As  As22  1  0.479014  0.960083  0.250000  1
  As  As23  1  0.524623  0.040083  0.750000  1
  As  As24  1  0.524416  0.484691  0.750000  1
  As  As25  1  0.997319  0.998640  0.497213  1
  As  As26  1  0.479136  0.518666  0.250000  1
  As  As27  1  0.960191  0.480046  0.750000  1
