# generated using pymatgen
data_HfTa3(GaC)2
_symmetry_space_group_name_H-M   'P 1'
_cell_length_a   3.16194400
_cell_length_b   3.16194415
_cell_length_c   13.73766300
_cell_angle_alpha   90.00000000
_cell_angle_beta   90.00000000
_cell_angle_gamma   119.99999845
_symmetry_Int_Tables_number   1
_chemical_formula_structural   HfTa3(GaC)2
_chemical_formula_sum   'Hf1 Ta3 Ga2 C2'
_cell_volume   118.94655418
_cell_formula_units_Z   1
loop_
 _symmetry_equiv_pos_site_id
 _symmetry_equiv_pos_as_xyz
  1  'x, y, z'
loop_
 _atom_site_type_symbol
 _atom_site_label
 _atom_site_symmetry_multiplicity
 _atom_site_fract_x
 _atom_site_fract_y
 _atom_site_fract_z
 _atom_site_occupancy
  Hf  Hf0  1  0.333333  0.666667  0.590138  1
  Ta  Ta1  1  0.666667  0.333333  0.406593  1
  Ta  Ta2  1  0.666667  0.333333  0.089560  1
  Ta  Ta3  1  0.333333  0.666667  0.913550  1
  Ga  Ga4  1  0.333333  0.666667  0.247856  1
  Ga  Ga5  1  0.666667  0.333333  0.755524  1
  C  C6  1  0.000000  0.000000  0.001190  1
  C  C7  1  0.000000  0.000000  0.495589  1
