# generated using pymatgen
data_Dy12Co4HgRh
_symmetry_space_group_name_H-M   'P 1'
_cell_length_a   8.27631903
_cell_length_b   8.27631937
_cell_length_c   8.27631987
_cell_angle_alpha   110.87395378
_cell_angle_beta   109.79371066
_cell_angle_gamma   107.76129545
_symmetry_Int_Tables_number   1
_chemical_formula_structural   Dy12Co4HgRh
_chemical_formula_sum   'Dy12 Co4 Hg1 Rh1'
_cell_volume   436.07467456
_cell_formula_units_Z   1
loop_
 _symmetry_equiv_pos_site_id
 _symmetry_equiv_pos_as_xyz
  1  'x, y, z'
loop_
 _atom_site_type_symbol
 _atom_site_label
 _atom_site_symmetry_multiplicity
 _atom_site_fract_x
 _atom_site_fract_y
 _atom_site_fract_z
 _atom_site_occupancy
  Dy  Dy0  1  0.408164  0.212059  0.196106  1
  Dy  Dy1  1  0.591836  0.787941  0.803894  1
  Dy  Dy2  1  0.015954  0.212059  0.803894  1
  Dy  Dy3  1  0.984046  0.787941  0.196106  1
  Dy  Dy4  1  0.184876  0.291900  0.476776  1
  Dy  Dy5  1  0.815124  0.708100  0.523224  1
  Dy  Dy6  1  0.184876  0.708100  0.892975  1
  Dy  Dy7  1  0.815124  0.291900  0.107025  1
  Dy  Dy8  1  0.316346  0.618935  0.302589  1
  Dy  Dy9  1  0.683654  0.381065  0.697411  1
  Dy  Dy10  1  0.316346  0.013756  0.697411  1
  Dy  Dy11  1  0.683654  0.986244  0.302589  1
  Co  Co12  1  0.379197  0.000000  0.379197  1
  Co  Co13  1  0.620803  0.000000  0.620803  1
  Co  Co14  1  0.113262  0.613262  0.500000  1
  Co  Co15  1  0.886738  0.386738  0.500000  1
  Hg  Hg16  1  0.500000  0.500000  0.000000  1
  Rh  Rh17  1  0.000000  0.000000  0.000000  1
