# generated using pymatgen
data_Yb10Pd2RuPt
_symmetry_space_group_name_H-M   'P 1'
_cell_length_a   8.63786307
_cell_length_b   8.63591867
_cell_length_c   7.52147907
_cell_angle_alpha   82.86224695
_cell_angle_beta   83.03279450
_cell_angle_gamma   43.81525478
_symmetry_Int_Tables_number   1
_chemical_formula_structural   Yb10Pd2RuPt
_chemical_formula_sum   'Yb10 Pd2 Ru1 Pt1'
_cell_volume   385.03008098
_cell_formula_units_Z   1
loop_
 _symmetry_equiv_pos_site_id
 _symmetry_equiv_pos_as_xyz
  1  'x, y, z'
loop_
 _atom_site_type_symbol
 _atom_site_label
 _atom_site_symmetry_multiplicity
 _atom_site_fract_x
 _atom_site_fract_y
 _atom_site_fract_z
 _atom_site_occupancy
  Yb  Yb0  1  0.025617  0.791250  0.914541  1
  Yb  Yb1  1  0.204432  0.966000  0.577720  1
  Yb  Yb2  1  0.969951  0.204365  0.079258  1
  Yb  Yb3  1  0.800558  0.015786  0.422895  1
  Yb  Yb4  1  0.361090  0.210388  0.814975  1
  Yb  Yb5  1  0.806243  0.635553  0.679644  1
  Yb  Yb6  1  0.635428  0.804415  0.178903  1
  Yb  Yb7  1  0.206162  0.366501  0.326536  1
  Yb  Yb8  1  0.570780  0.422416  0.746317  1
  Yb  Yb9  1  0.418912  0.573755  0.258054  1
  Pd  Pd10  1  0.401841  0.820407  0.922383  1
  Pd  Pd11  1  0.818729  0.405281  0.418417  1
  Ru  Ru12  1  0.176746  0.605598  0.580392  1
  Pt  Pt13  1  0.603511  0.178288  0.079966  1
