# generated using pymatgen
data_Lu(P2Ru3)2
_symmetry_space_group_name_H-M   'P 1'
_cell_length_a   6.93990700
_cell_length_b   6.93990696
_cell_length_c   3.71729900
_cell_angle_alpha   90.00000000
_cell_angle_beta   90.00000000
_cell_angle_gamma   119.99999544
_symmetry_Int_Tables_number   1
_chemical_formula_structural   Lu(P2Ru3)2
_chemical_formula_sum   'Lu1 P4 Ru6'
_cell_volume   155.04774169
_cell_formula_units_Z   1
loop_
 _symmetry_equiv_pos_site_id
 _symmetry_equiv_pos_as_xyz
  1  'x, y, z'
loop_
 _atom_site_type_symbol
 _atom_site_label
 _atom_site_symmetry_multiplicity
 _atom_site_fract_x
 _atom_site_fract_y
 _atom_site_fract_z
 _atom_site_occupancy
  Lu  Lu0  1  0.000000  0.000000  0.000000  1
  P  P1  1  0.189050  0.378099  0.500000  1
  P  P2  1  0.621901  0.810950  0.500000  1
  P  P3  1  0.189050  0.810950  0.500000  1
  P  P4  1  0.666667  0.333333  0.000000  1
  Ru  Ru5  1  0.802258  0.604516  0.500000  1
  Ru  Ru6  1  0.395484  0.197742  0.500000  1
  Ru  Ru7  1  0.802258  0.197742  0.500000  1
  Ru  Ru8  1  0.464907  0.929812  0.000000  1
  Ru  Ru9  1  0.070188  0.535093  0.000000  1
  Ru  Ru10  1  0.464907  0.535093  0.000000  1
