# generated using pymatgen
data_Sc8Be3Si13W12
_symmetry_space_group_name_H-M   'P 1'
_cell_length_a   6.52147343
_cell_length_b   6.68844971
_cell_length_c   12.66234200
_cell_angle_alpha   90.00000000
_cell_angle_beta   90.00000000
_cell_angle_gamma   89.83838234
_symmetry_Int_Tables_number   1
_chemical_formula_structural   Sc8Be3Si13W12
_chemical_formula_sum   'Sc8 Be3 Si13 W12'
_cell_volume   552.31076328
_cell_formula_units_Z   1
loop_
 _symmetry_equiv_pos_site_id
 _symmetry_equiv_pos_as_xyz
  1  'x, y, z'
loop_
 _atom_site_type_symbol
 _atom_site_label
 _atom_site_symmetry_multiplicity
 _atom_site_fract_x
 _atom_site_fract_y
 _atom_site_fract_z
 _atom_site_occupancy
  Sc  Sc0  1  0.498522  0.669529  0.595364  1
  Sc  Sc1  1  0.997935  0.830633  0.904550  1
  Sc  Sc2  1  0.505604  0.333081  0.092416  1
  Sc  Sc3  1  0.003746  0.171682  0.406560  1
  Sc  Sc4  1  0.505604  0.333081  0.407584  1
  Sc  Sc5  1  0.003746  0.171682  0.093440  1
  Sc  Sc6  1  0.498522  0.669529  0.904636  1
  Sc  Sc7  1  0.997935  0.830633  0.595450  1
  Be  Be8  1  0.457728  0.380808  0.750000  1
  Be  Be9  1  0.957358  0.119260  0.750000  1
  Be  Be10  1  0.541334  0.619521  0.250000  1
  Si  Si11  1  0.669592  0.962954  0.459391  1
  Si  Si12  1  0.168632  0.536858  0.040329  1
  Si  Si13  1  0.331217  0.038450  0.958818  1
  Si  Si14  1  0.831180  0.459921  0.542373  1
  Si  Si15  1  0.331217  0.038450  0.541182  1
  Si  Si16  1  0.831180  0.459921  0.957627  1
  Si  Si17  1  0.669592  0.962954  0.040609  1
  Si  Si18  1  0.168632  0.536858  0.459671  1
  Si  Si19  1  0.036123  0.883419  0.250000  1
  Si  Si20  1  0.709660  0.865806  0.750000  1
  Si  Si21  1  0.209093  0.633741  0.750000  1
  Si  Si22  1  0.300715  0.144742  0.250000  1
  Si  Si23  1  0.789959  0.365497  0.250000  1
  W  W24  1  0.661435  0.170019  0.628382  1
  W  W25  1  0.162487  0.329160  0.871756  1
  W  W26  1  0.339084  0.828860  0.126484  1
  W  W27  1  0.831108  0.663365  0.375120  1
  W  W28  1  0.339084  0.828860  0.373516  1
  W  W29  1  0.831108  0.663365  0.124880  1
  W  W30  1  0.661435  0.170019  0.871618  1
  W  W31  1  0.162487  0.329160  0.628244  1
  W  W32  1  0.835753  0.488815  0.750000  1
  W  W33  1  0.334624  0.010630  0.750000  1
  W  W34  1  0.164056  0.504689  0.250000  1
  W  W35  1  0.662511  0.994050  0.250000  1
