# generated using pymatgen
data_Ho3ErReBr4
_symmetry_space_group_name_H-M   'P 1'
_cell_length_a   8.96275593
_cell_length_b   8.94179449
_cell_length_c   6.56008691
_cell_angle_alpha   89.44343521
_cell_angle_beta   89.56828461
_cell_angle_gamma   89.39606272
_symmetry_Int_Tables_number   1
_chemical_formula_structural   Ho3ErReBr4
_chemical_formula_sum   'Ho6 Er2 Re2 Br8'
_cell_volume   525.67731057
_cell_formula_units_Z   2
loop_
 _symmetry_equiv_pos_site_id
 _symmetry_equiv_pos_as_xyz
  1  'x, y, z'
loop_
 _atom_site_type_symbol
 _atom_site_label
 _atom_site_symmetry_multiplicity
 _atom_site_fract_x
 _atom_site_fract_y
 _atom_site_fract_z
 _atom_site_occupancy
  Ho  Ho0  1  0.248075  0.901396  0.011151  1
  Ho  Ho1  1  0.751925  0.098604  0.988849  1
  Ho  Ho2  1  0.098288  0.751398  0.489149  1
  Ho  Ho3  1  0.901712  0.248602  0.510851  1
  Ho  Ho4  1  0.752654  0.902726  0.507789  1
  Ho  Ho5  1  0.247346  0.097274  0.492211  1
  Er  Er6  1  0.096470  0.246526  0.991852  1
  Er  Er7  1  0.903530  0.753474  0.008148  1
  Re  Re8  1  0.994995  0.005145  0.249818  1
  Re  Re9  1  0.005005  0.994855  0.750182  1
  Br  Br10  1  0.418565  0.817124  0.408888  1
  Br  Br11  1  0.581435  0.182876  0.591112  1
  Br  Br12  1  0.181311  0.580364  0.091594  1
  Br  Br13  1  0.818689  0.419636  0.908406  1
  Br  Br14  1  0.413335  0.191112  0.092951  1
  Br  Br15  1  0.586665  0.808888  0.907049  1
  Br  Br16  1  0.809557  0.585554  0.404705  1
  Br  Br17  1  0.190443  0.414446  0.595295  1
