# generated using pymatgen
data_Pr3NdSm4(Te3N2)2
_symmetry_space_group_name_H-M   'P 1'
_cell_length_a   7.39755955
_cell_length_b   11.35749775
_cell_length_c   11.78880426
_cell_angle_alpha   89.98698346
_cell_angle_beta   90.02010299
_cell_angle_gamma   89.96058544
_symmetry_Int_Tables_number   1
_chemical_formula_structural   Pr3NdSm4(Te3N2)2
_chemical_formula_sum   'Pr6 Nd2 Sm8 Te12 N8'
_cell_volume   990.46867572
_cell_formula_units_Z   2
loop_
 _symmetry_equiv_pos_site_id
 _symmetry_equiv_pos_as_xyz
  1  'x, y, z'
loop_
 _atom_site_type_symbol
 _atom_site_label
 _atom_site_symmetry_multiplicity
 _atom_site_fract_x
 _atom_site_fract_y
 _atom_site_fract_z
 _atom_site_occupancy
  Pr  Pr0  1  0.148429  0.389199  0.950705  1
  Pr  Pr1  1  0.351734  0.889245  0.450718  1
  Pr  Pr2  1  0.648340  0.110711  0.950711  1
  Pr  Pr3  1  0.351660  0.889289  0.049289  1
  Pr  Pr4  1  0.851571  0.610801  0.049295  1
  Pr  Pr5  1  0.648266  0.110755  0.549282  1
  Nd  Nd6  1  0.852817  0.609611  0.451245  1
  Nd  Nd7  1  0.147183  0.390389  0.548755  1
  Sm  Sm8  1  0.088181  0.657732  0.749689  1
  Sm  Sm9  1  0.236417  0.031468  0.749909  1
  Sm  Sm10  1  0.263454  0.531404  0.250463  1
  Sm  Sm11  1  0.411948  0.158006  0.250023  1
  Sm  Sm12  1  0.763583  0.968532  0.250091  1
  Sm  Sm13  1  0.736546  0.468596  0.749537  1
  Sm  Sm14  1  0.588052  0.841994  0.749977  1
  Sm  Sm15  1  0.911819  0.342268  0.250311  1
  Te  Te16  1  0.923316  0.225323  0.749789  1
  Te  Te17  1  0.076684  0.774677  0.250211  1
  Te  Te18  1  0.565914  0.365633  0.417533  1
  Te  Te19  1  0.066207  0.134711  0.082733  1
  Te  Te20  1  0.422438  0.275370  0.749350  1
  Te  Te21  1  0.577562  0.724630  0.250650  1
  Te  Te22  1  0.566379  0.365311  0.082714  1
  Te  Te23  1  0.434086  0.634367  0.582467  1
  Te  Te24  1  0.933793  0.865289  0.917267  1
  Te  Te25  1  0.933467  0.864650  0.582296  1
  Te  Te26  1  0.066533  0.135350  0.417704  1
  Te  Te27  1  0.433621  0.634689  0.917286  1
  N  N28  1  0.052624  0.467278  0.377256  1
  N  N29  1  0.553087  0.033023  0.123587  1
  N  N30  1  0.446896  0.966943  0.623593  1
  N  N31  1  0.947376  0.532722  0.622744  1
  N  N32  1  0.946828  0.533084  0.876096  1
  N  N33  1  0.446913  0.966977  0.876413  1
  N  N34  1  0.553104  0.033057  0.376407  1
  N  N35  1  0.053172  0.466916  0.123904  1
