# generated using pymatgen
data_LiAs2H7
_symmetry_space_group_name_H-M   'P 1'
_cell_length_a   3.57059787
_cell_length_b   4.93433744
_cell_length_c   12.06307587
_cell_angle_alpha   106.53211566
_cell_angle_beta   96.79156372
_cell_angle_gamma   111.42827565
_symmetry_Int_Tables_number   1
_chemical_formula_structural   LiAs2H7
_chemical_formula_sum   'Li1 As2 H7'
_cell_volume   183.68948353
_cell_formula_units_Z   1
loop_
 _symmetry_equiv_pos_site_id
 _symmetry_equiv_pos_as_xyz
  1  'x, y, z'
loop_
 _atom_site_type_symbol
 _atom_site_label
 _atom_site_symmetry_multiplicity
 _atom_site_fract_x
 _atom_site_fract_y
 _atom_site_fract_z
 _atom_site_occupancy
  Li  Li0  1  0.961308  0.970853  0.866315  1
  As  As1  1  0.321512  0.559691  0.030986  1
  As  As2  1  0.689316  0.420411  0.875934  1
  H  H3  1  0.968264  0.818290  0.404797  1
  H  H4  1  0.166582  0.239412  0.051729  1
  H  H5  1  0.360054  0.600488  0.554329  1
  H  H6  1  0.564858  0.246973  0.322008  1
  H  H7  1  0.610950  0.220573  0.261767  1
  H  H8  1  0.416909  0.534157  0.599142  1
  H  H9  1  0.070428  0.971073  0.455611  1
