# generated using pymatgen
data_LiNd2Dy3(P2Ru3)6
_symmetry_space_group_name_H-M   'P 1'
_cell_length_a   12.66146685
_cell_length_b   12.46940737
_cell_length_c   3.98938800
_cell_angle_alpha   90.00000000
_cell_angle_beta   90.00000000
_cell_angle_gamma   119.49947333
_symmetry_Int_Tables_number   1
_chemical_formula_structural   LiNd2Dy3(P2Ru3)6
_chemical_formula_sum   'Li1 Nd2 Dy3 P12 Ru18'
_cell_volume   548.19509753
_cell_formula_units_Z   1
loop_
 _symmetry_equiv_pos_site_id
 _symmetry_equiv_pos_as_xyz
  1  'x, y, z'
loop_
 _atom_site_type_symbol
 _atom_site_label
 _atom_site_symmetry_multiplicity
 _atom_site_fract_x
 _atom_site_fract_y
 _atom_site_fract_z
 _atom_site_occupancy
  Li  Li0  1  0.000000  0.560857  0.000000  1
  Nd  Nd1  1  0.817160  0.814790  0.500000  1
  Nd  Nd2  1  0.182840  0.997630  0.500000  1
  Dy  Dy3  1  0.000000  0.182584  0.500000  1
  Dy  Dy4  1  0.657926  0.327717  0.000000  1
  Dy  Dy5  1  0.342074  0.669792  0.000000  1
  P  P6  1  0.000000  0.803815  0.000000  1
  P  P7  1  0.182187  0.186242  0.000000  1
  P  P8  1  0.817813  0.004055  0.000000  1
  P  P9  1  0.692787  0.174515  0.500000  1
  P  P10  1  0.816886  0.516933  0.500000  1
  P  P11  1  0.472309  0.305210  0.500000  1
  P  P12  1  0.183114  0.700047  0.500000  1
  P  P13  1  0.527691  0.832901  0.500000  1
  P  P14  1  0.307213  0.481727  0.500000  1
  P  P15  1  0.000000  0.368088  0.000000  1
  P  P16  1  0.623921  0.623895  0.000000  1
  P  P17  1  0.376079  0.999974  0.000000  1
  Ru  Ru18  1  0.442460  0.445244  0.000000  1
  Ru  Ru19  1  0.557540  0.002784  0.000000  1
  Ru  Ru20  1  0.000000  0.706472  0.500000  1
  Ru  Ru21  1  0.280384  0.285159  0.500000  1
  Ru  Ru22  1  0.719616  0.004774  0.500000  1
  Ru  Ru23  1  0.806362  0.188317  0.000000  1
  Ru  Ru24  1  0.811859  0.614764  0.000000  1
  Ru  Ru25  1  0.374338  0.191919  0.000000  1
  Ru  Ru26  1  0.188141  0.802904  0.000000  1
  Ru  Ru27  1  0.625662  0.817581  0.000000  1
  Ru  Ru28  1  0.193638  0.381955  0.000000  1
  Ru  Ru29  1  0.876476  0.368527  0.500000  1
  Ru  Ru30  1  0.628376  0.506833  0.500000  1
  Ru  Ru31  1  0.492211  0.128077  0.500000  1
  Ru  Ru32  1  0.371624  0.878457  0.500000  1
  Ru  Ru33  1  0.507789  0.635866  0.500000  1
  Ru  Ru34  1  0.123524  0.492051  0.500000  1
  Ru  Ru35  1  0.000000  0.997547  0.000000  1
