# generated using pymatgen
data_Zr3ZnGa3Ru2
_symmetry_space_group_name_H-M   'P 1'
_cell_length_a   7.36878700
_cell_length_b   7.36878661
_cell_length_c   6.63712300
_cell_angle_alpha   90.00000000
_cell_angle_beta   90.00000000
_cell_angle_gamma   120.00000623
_symmetry_Int_Tables_number   1
_chemical_formula_structural   Zr3ZnGa3Ru2
_chemical_formula_sum   'Zr6 Zn2 Ga6 Ru4'
_cell_volume   312.10624158
_cell_formula_units_Z   2
loop_
 _symmetry_equiv_pos_site_id
 _symmetry_equiv_pos_as_xyz
  1  'x, y, z'
loop_
 _atom_site_type_symbol
 _atom_site_label
 _atom_site_symmetry_multiplicity
 _atom_site_fract_x
 _atom_site_fract_y
 _atom_site_fract_z
 _atom_site_occupancy
  Zr  Zr0  1  0.391601  0.376631  0.750000  1
  Zr  Zr1  1  0.985029  0.608399  0.750000  1
  Zr  Zr2  1  0.623369  0.014971  0.750000  1
  Zr  Zr3  1  0.624785  0.016830  0.250000  1
  Zr  Zr4  1  0.983170  0.607954  0.250000  1
  Zr  Zr5  1  0.392046  0.375215  0.250000  1
  Zn  Zn6  1  0.333333  0.666667  0.496817  1
  Zn  Zn7  1  0.333333  0.666667  0.003183  1
  Ga  Ga8  1  0.275184  0.994034  0.999793  1
  Ga  Ga9  1  0.718849  0.724816  0.999793  1
  Ga  Ga10  1  0.005966  0.281151  0.999793  1
  Ga  Ga11  1  0.718849  0.724816  0.500207  1
  Ga  Ga12  1  0.275184  0.994034  0.500207  1
  Ga  Ga13  1  0.005966  0.281151  0.500207  1
  Ru  Ru14  1  0.666667  0.333333  0.999410  1
  Ru  Ru15  1  0.000000  0.000000  0.750000  1
  Ru  Ru16  1  0.666667  0.333333  0.500590  1
  Ru  Ru17  1  0.000000  0.000000  0.250000  1
