# generated using pymatgen
data_Nd5Dy2ErAu4
_symmetry_space_group_name_H-M   'P 1'
_cell_length_a   5.03817700
_cell_length_b   7.31908173
_cell_length_c   9.15824354
_cell_angle_alpha   90.18001747
_cell_angle_beta   90.00000000
_cell_angle_gamma   90.00000000
_symmetry_Int_Tables_number   1
_chemical_formula_structural   Nd5Dy2ErAu4
_chemical_formula_sum   'Nd5 Dy2 Er1 Au4'
_cell_volume   337.70699972
_cell_formula_units_Z   1
loop_
 _symmetry_equiv_pos_site_id
 _symmetry_equiv_pos_as_xyz
  1  'x, y, z'
loop_
 _atom_site_type_symbol
 _atom_site_label
 _atom_site_symmetry_multiplicity
 _atom_site_fract_x
 _atom_site_fract_y
 _atom_site_fract_z
 _atom_site_occupancy
  Nd  Nd0  1  0.750000  0.652848  0.413927  1
  Nd  Nd1  1  0.250000  0.490453  0.176946  1
  Nd  Nd2  1  0.250000  0.993828  0.323497  1
  Nd  Nd3  1  0.750000  0.509726  0.822437  1
  Nd  Nd4  1  0.750000  0.009634  0.679065  1
  Dy  Dy5  1  0.250000  0.348340  0.584523  1
  Dy  Dy6  1  0.750000  0.151460  0.080485  1
  Er  Er7  1  0.250000  0.850581  0.920071  1
  Au  Au8  1  0.250000  0.244360  0.902750  1
  Au  Au9  1  0.250000  0.747924  0.606588  1
  Au  Au10  1  0.750000  0.755865  0.087496  1
  Au  Au11  1  0.750000  0.244983  0.402213  1
