# generated using pymatgen
data_Hf12Zr8Si15Ge
_symmetry_space_group_name_H-M   'P 1'
_cell_length_a   7.11238301
_cell_length_b   7.11807087
_cell_length_c   12.97231511
_cell_angle_alpha   89.93401149
_cell_angle_beta   90.00489177
_cell_angle_gamma   89.98161586
_symmetry_Int_Tables_number   1
_chemical_formula_structural   Hf12Zr8Si15Ge
_chemical_formula_sum   'Hf12 Zr8 Si15 Ge1'
_cell_volume   656.74174300
_cell_formula_units_Z   1
loop_
 _symmetry_equiv_pos_site_id
 _symmetry_equiv_pos_as_xyz
  1  'x, y, z'
loop_
 _atom_site_type_symbol
 _atom_site_label
 _atom_site_symmetry_multiplicity
 _atom_site_fract_x
 _atom_site_fract_y
 _atom_site_fract_z
 _atom_site_occupancy
  Hf  Hf0  1  0.174615  0.175074  0.999846  1
  Hf  Hf1  1  0.825298  0.825366  0.500188  1
  Hf  Hf2  1  0.325518  0.676718  0.249569  1
  Hf  Hf3  1  0.674697  0.325139  0.750090  1
  Hf  Hf4  1  0.146025  0.997323  0.375681  1
  Hf  Hf5  1  0.852787  0.001035  0.876039  1
  Hf  Hf6  1  0.500876  0.647612  0.626271  1
  Hf  Hf7  1  0.352564  0.499084  0.873890  1
  Hf  Hf8  1  0.498905  0.352539  0.125190  1
  Hf  Hf9  1  0.650199  0.503504  0.374437  1
  Hf  Hf10  1  0.998971  0.147538  0.624021  1
  Hf  Hf11  1  0.000498  0.852337  0.123374  1
  Zr  Zr12  1  0.994688  0.348366  0.214848  1
  Zr  Zr13  1  0.002481  0.652270  0.715750  1
  Zr  Zr14  1  0.149632  0.500339  0.467212  1
  Zr  Zr15  1  0.503257  0.847079  0.033909  1
  Zr  Zr16  1  0.848067  0.502542  0.965415  1
  Zr  Zr17  1  0.498450  0.151025  0.535781  1
  Zr  Zr18  1  0.348026  0.997512  0.784339  1
  Zr  Zr19  1  0.654070  0.000556  0.283733  1
  Si  Si20  1  0.643947  0.705047  0.822017  1
  Si  Si21  1  0.204748  0.856534  0.571955  1
  Si  Si22  1  0.144018  0.795123  0.927826  1
  Si  Si23  1  0.794762  0.143716  0.071628  1
  Si  Si24  1  0.855805  0.204792  0.428159  1
  Si  Si25  1  0.295030  0.356164  0.678168  1
  Si  Si26  1  0.704665  0.643310  0.177937  1
  Si  Si27  1  0.300848  0.045828  0.184136  1
  Si  Si28  1  0.700040  0.950828  0.686315  1
  Si  Si29  1  0.451234  0.800890  0.435938  1
  Si  Si30  1  0.199397  0.548353  0.064099  1
  Si  Si31  1  0.548511  0.199278  0.935700  1
  Si  Si32  1  0.799916  0.451062  0.564424  1
  Si  Si33  1  0.048805  0.300497  0.813885  1
  Si  Si34  1  0.951942  0.699303  0.313605  1
  Ge  Ge35  1  0.356710  0.296316  0.324622  1
