# generated using pymatgen
data_Ho2Mg2PdRu
_symmetry_space_group_name_H-M   'P 1'
_cell_length_a   4.09120400
_cell_length_b   7.18840613
_cell_length_c   8.60960054
_cell_angle_alpha   91.78441365
_cell_angle_beta   90.00000000
_cell_angle_gamma   90.00000000
_symmetry_Int_Tables_number   1
_chemical_formula_structural   Ho2Mg2PdRu
_chemical_formula_sum   'Ho4 Mg4 Pd2 Ru2'
_cell_volume   253.07898776
_cell_formula_units_Z   2
loop_
 _symmetry_equiv_pos_site_id
 _symmetry_equiv_pos_as_xyz
  1  'x, y, z'
loop_
 _atom_site_type_symbol
 _atom_site_label
 _atom_site_symmetry_multiplicity
 _atom_site_fract_x
 _atom_site_fract_y
 _atom_site_fract_z
 _atom_site_occupancy
  Ho  Ho0  1  0.250000  0.545123  0.185328  1
  Ho  Ho1  1  0.750000  0.454877  0.814672  1
  Ho  Ho2  1  0.250000  0.023641  0.332684  1
  Ho  Ho3  1  0.750000  0.976359  0.667316  1
  Mg  Mg4  1  0.250000  0.637427  0.557863  1
  Mg  Mg5  1  0.750000  0.362573  0.442137  1
  Mg  Mg6  1  0.250000  0.139126  0.937742  1
  Mg  Mg7  1  0.750000  0.860874  0.062258  1
  Pd  Pd8  1  0.750000  0.242876  0.128925  1
  Pd  Pd9  1  0.250000  0.757124  0.871075  1
  Ru  Ru10  1  0.750000  0.745197  0.364972  1
  Ru  Ru11  1  0.250000  0.254803  0.635028  1
