# generated using pymatgen
data_CsK2PS3
_symmetry_space_group_name_H-M   'P 1'
_cell_length_a   9.38011900
_cell_length_b   9.38011900
_cell_length_c   9.38011900
_cell_angle_alpha   90.00000000
_cell_angle_beta   90.00000000
_cell_angle_gamma   90.00000000
_symmetry_Int_Tables_number   1
_chemical_formula_structural   CsK2PS3
_chemical_formula_sum   'Cs4 K8 P4 S12'
_cell_volume   825.32508283
_cell_formula_units_Z   4
loop_
 _symmetry_equiv_pos_site_id
 _symmetry_equiv_pos_as_xyz
  1  'x, y, z'
loop_
 _atom_site_type_symbol
 _atom_site_label
 _atom_site_symmetry_multiplicity
 _atom_site_fract_x
 _atom_site_fract_y
 _atom_site_fract_z
 _atom_site_occupancy
  Cs  Cs0  1  0.931428  0.431428  0.068572  1
  Cs  Cs1  1  0.431428  0.068572  0.931428  1
  Cs  Cs2  1  0.068572  0.931428  0.431428  1
  Cs  Cs3  1  0.568572  0.568572  0.568572  1
  K  K4  1  0.192816  0.692816  0.807184  1
  K  K5  1  0.692816  0.807184  0.192816  1
  K  K6  1  0.807184  0.192816  0.692816  1
  K  K7  1  0.307184  0.307184  0.307184  1
  K  K8  1  0.694134  0.194134  0.305866  1
  K  K9  1  0.194134  0.305866  0.694134  1
  K  K10  1  0.305866  0.694134  0.194134  1
  K  K11  1  0.805866  0.805866  0.805866  1
  P  P12  1  0.483694  0.983694  0.516306  1
  P  P13  1  0.983694  0.516306  0.483694  1
  P  P14  1  0.516306  0.483694  0.983694  1
  P  P15  1  0.016306  0.016306  0.016306  1
  S  S16  1  0.008235  0.797921  0.080398  1
  S  S17  1  0.919602  0.508235  0.702079  1
  S  S18  1  0.297921  0.419602  0.991765  1
  S  S19  1  0.508235  0.702079  0.919602  1
  S  S20  1  0.419602  0.991765  0.297921  1
  S  S21  1  0.797921  0.080398  0.008235  1
  S  S22  1  0.991765  0.297921  0.419602  1
  S  S23  1  0.080398  0.008235  0.797921  1
  S  S24  1  0.702079  0.919602  0.508235  1
  S  S25  1  0.491765  0.202079  0.580398  1
  S  S26  1  0.580398  0.491765  0.202079  1
  S  S27  1  0.202079  0.580398  0.491765  1
