# generated using pymatgen
data_Nd2ErTm3(AuO7)2
_symmetry_space_group_name_H-M   'P 1'
_cell_length_a   6.45072400
_cell_length_b   6.45322791
_cell_length_c   7.55776400
_cell_angle_alpha   90.00000000
_cell_angle_beta   90.00000000
_cell_angle_gamma   109.22773299
_symmetry_Int_Tables_number   1
_chemical_formula_structural   Nd2ErTm3(AuO7)2
_chemical_formula_sum   'Nd2 Er1 Tm3 Au2 O14'
_cell_volume   297.06442210
_cell_formula_units_Z   1
loop_
 _symmetry_equiv_pos_site_id
 _symmetry_equiv_pos_as_xyz
  1  'x, y, z'
loop_
 _atom_site_type_symbol
 _atom_site_label
 _atom_site_symmetry_multiplicity
 _atom_site_fract_x
 _atom_site_fract_y
 _atom_site_fract_z
 _atom_site_occupancy
  Nd  Nd0  1  0.500074  0.500039  0.500290  1
  Nd  Nd1  1  0.500074  0.500039  0.999710  1
  Er  Er2  1  0.998776  0.527934  0.250000  1
  Tm  Tm3  1  0.001272  0.471978  0.750000  1
  Tm  Tm4  1  0.527787  0.998680  0.750000  1
  Tm  Tm5  1  0.471904  0.001211  0.250000  1
  Au  Au6  1  0.999946  0.000058  0.500372  1
  Au  Au7  1  0.999946  0.000058  0.999628  1
  O  O8  1  0.921302  0.077416  0.750000  1
  O  O9  1  0.078627  0.923141  0.250000  1
  O  O10  1  0.356441  0.645373  0.250000  1
  O  O11  1  0.645215  0.354460  0.750000  1
  O  O12  1  0.360566  0.639559  0.750000  1
  O  O13  1  0.637682  0.359838  0.250000  1
  O  O14  1  0.331639  0.073778  0.976333  1
  O  O15  1  0.668489  0.926152  0.476670  1
  O  O16  1  0.331639  0.073778  0.523667  1
  O  O17  1  0.668489  0.926152  0.023330  1
  O  O18  1  0.075251  0.331551  0.477739  1
  O  O19  1  0.924817  0.668628  0.975610  1
  O  O20  1  0.924817  0.668628  0.524390  1
  O  O21  1  0.075251  0.331551  0.022261  1
