# generated using pymatgen
data_Er5Lu7Rh4
_symmetry_space_group_name_H-M   'P 1'
_cell_length_a   6.24949448
_cell_length_b   7.09207027
_cell_length_c   9.18793292
_cell_angle_alpha   89.99738227
_cell_angle_beta   90.11769780
_cell_angle_gamma   89.96855508
_symmetry_Int_Tables_number   1
_chemical_formula_structural   Er5Lu7Rh4
_chemical_formula_sum   'Er5 Lu7 Rh4'
_cell_volume   407.22530068
_cell_formula_units_Z   1
loop_
 _symmetry_equiv_pos_site_id
 _symmetry_equiv_pos_as_xyz
  1  'x, y, z'
loop_
 _atom_site_type_symbol
 _atom_site_label
 _atom_site_symmetry_multiplicity
 _atom_site_fract_x
 _atom_site_fract_y
 _atom_site_fract_z
 _atom_site_occupancy
  Er  Er0  1  0.673329  0.178885  0.437935  1
  Er  Er1  1  0.870718  0.966383  0.750601  1
  Er  Er2  1  0.369631  0.533678  0.249657  1
  Er  Er3  1  0.629202  0.466877  0.750411  1
  Er  Er4  1  0.130353  0.033041  0.249388  1
  Lu  Lu5  1  0.672903  0.178379  0.062311  1
  Lu  Lu6  1  0.172728  0.321682  0.937032  1
  Lu  Lu7  1  0.827298  0.678452  0.437051  1
  Lu  Lu8  1  0.326787  0.821024  0.563197  1
  Lu  Lu9  1  0.326991  0.821516  0.937156  1
  Lu  Lu10  1  0.826972  0.678499  0.062781  1
  Lu  Lu11  1  0.172734  0.321832  0.563326  1
  Rh  Rh12  1  0.052524  0.614923  0.749885  1
  Rh  Rh13  1  0.552804  0.884391  0.249324  1
  Rh  Rh14  1  0.447060  0.114731  0.750592  1
  Rh  Rh15  1  0.947967  0.385707  0.249355  1
