# generated using pymatgen
data_Tm16Tl3CdRh4
_symmetry_space_group_name_H-M   'P 1'
_cell_length_a   9.53889658
_cell_length_b   9.53889662
_cell_length_c   9.53695565
_cell_angle_alpha   60.03707721
_cell_angle_beta   60.03707483
_cell_angle_gamma   60.05001173
_symmetry_Int_Tables_number   1
_chemical_formula_structural   Tm16Tl3CdRh4
_chemical_formula_sum   'Tm16 Tl3 Cd1 Rh4'
_cell_volume   614.18366713
_cell_formula_units_Z   1
loop_
 _symmetry_equiv_pos_site_id
 _symmetry_equiv_pos_as_xyz
  1  'x, y, z'
loop_
 _atom_site_type_symbol
 _atom_site_label
 _atom_site_symmetry_multiplicity
 _atom_site_fract_x
 _atom_site_fract_y
 _atom_site_fract_z
 _atom_site_occupancy
  Tm  Tm0  1  0.060762  0.060762  0.439087  1
  Tm  Tm1  1  0.436718  0.065150  0.436818  1
  Tm  Tm2  1  0.061375  0.438739  0.060720  1
  Tm  Tm3  1  0.050750  0.648576  0.648723  1
  Tm  Tm4  1  0.436571  0.436571  0.064948  1
  Tm  Tm5  1  0.648576  0.050750  0.648723  1
  Tm  Tm6  1  0.187221  0.812607  0.187346  1
  Tm  Tm7  1  0.187308  0.187308  0.812885  1
  Tm  Tm8  1  0.811448  0.811448  0.189008  1
  Tm  Tm9  1  0.438739  0.061375  0.060720  1
  Tm  Tm10  1  0.812607  0.187221  0.187346  1
  Tm  Tm11  1  0.065150  0.436718  0.436818  1
  Tm  Tm12  1  0.811362  0.188788  0.811841  1
  Tm  Tm13  1  0.188788  0.811362  0.811841  1
  Tm  Tm14  1  0.648551  0.648551  0.050904  1
  Tm  Tm15  1  0.651545  0.651545  0.651684  1
  Tl  Tl16  1  0.756514  0.414010  0.414187  1
  Tl  Tl17  1  0.414010  0.756514  0.414187  1
  Tl  Tl18  1  0.414921  0.414921  0.754322  1
  Cd  Cd19  1  0.416749  0.416749  0.416935  1
  Rh  Rh20  1  0.858012  0.858012  0.428242  1
  Rh  Rh21  1  0.856327  0.856327  0.856453  1
  Rh  Rh22  1  0.427939  0.858059  0.858131  1
  Rh  Rh23  1  0.858059  0.427939  0.858131  1
