# generated using pymatgen
data_DySc(Re2Si)4
_symmetry_space_group_name_H-M   'P 1'
_cell_length_a   7.36732258
_cell_length_b   7.36732242
_cell_length_c   4.13801000
_cell_angle_alpha   90.00000000
_cell_angle_beta   90.00000000
_cell_angle_gamma   88.86815209
_symmetry_Int_Tables_number   1
_chemical_formula_structural   DySc(Re2Si)4
_chemical_formula_sum   'Dy1 Sc1 Re8 Si4'
_cell_volume   224.55677031
_cell_formula_units_Z   1
loop_
 _symmetry_equiv_pos_site_id
 _symmetry_equiv_pos_as_xyz
  1  'x, y, z'
loop_
 _atom_site_type_symbol
 _atom_site_label
 _atom_site_symmetry_multiplicity
 _atom_site_fract_x
 _atom_site_fract_y
 _atom_site_fract_z
 _atom_site_occupancy
  Dy  Dy0  1  0.500000  0.500000  0.000000  1
  Sc  Sc1  1  0.000000  0.000000  0.500000  1
  Re  Re2  1  0.599145  0.155322  0.500000  1
  Re  Re3  1  0.400855  0.844678  0.500000  1
  Re  Re4  1  0.090308  0.339628  0.000000  1
  Re  Re5  1  0.909692  0.660372  0.000000  1
  Re  Re6  1  0.155322  0.599145  0.500000  1
  Re  Re7  1  0.844678  0.400855  0.500000  1
  Re  Re8  1  0.339628  0.090308  0.000000  1
  Re  Re9  1  0.660372  0.909692  0.000000  1
  Si  Si10  1  0.712398  0.712398  0.500000  1
  Si  Si11  1  0.287602  0.287602  0.500000  1
  Si  Si12  1  0.202846  0.797154  0.000000  1
  Si  Si13  1  0.797154  0.202846  0.000000  1
