# generated using pymatgen
data_Pr20GaSi10Rh
_symmetry_space_group_name_H-M   'P 1'
_cell_length_a   7.79223200
_cell_length_b   7.79223200
_cell_length_c   14.51737000
_cell_angle_alpha   90.00000000
_cell_angle_beta   90.00000000
_cell_angle_gamma   90.00000000
_symmetry_Int_Tables_number   1
_chemical_formula_structural   Pr20GaSi10Rh
_chemical_formula_sum   'Pr20 Ga1 Si10 Rh1'
_cell_volume   881.47844029
_cell_formula_units_Z   1
loop_
 _symmetry_equiv_pos_site_id
 _symmetry_equiv_pos_as_xyz
  1  'x, y, z'
loop_
 _atom_site_type_symbol
 _atom_site_label
 _atom_site_symmetry_multiplicity
 _atom_site_fract_x
 _atom_site_fract_y
 _atom_site_fract_z
 _atom_site_occupancy
  Pr  Pr0  1  0.817635  0.824665  0.605306  1
  Pr  Pr1  1  0.192466  0.842555  0.106644  1
  Pr  Pr2  1  0.169038  0.811544  0.393968  1
  Pr  Pr3  1  0.000000  0.500000  0.742157  1
  Pr  Pr4  1  0.830962  0.188456  0.393968  1
  Pr  Pr5  1  0.688456  0.669038  0.393968  1
  Pr  Pr6  1  0.675335  0.317635  0.605306  1
  Pr  Pr7  1  0.324665  0.682365  0.605306  1
  Pr  Pr8  1  0.000000  0.500000  0.215270  1
  Pr  Pr9  1  0.657445  0.692466  0.106644  1
  Pr  Pr10  1  0.676363  0.328724  0.892631  1
  Pr  Pr11  1  0.828724  0.823637  0.892631  1
  Pr  Pr12  1  0.311544  0.330962  0.393968  1
  Pr  Pr13  1  0.182365  0.175335  0.605306  1
  Pr  Pr14  1  0.807534  0.157445  0.106644  1
  Pr  Pr15  1  0.323637  0.671276  0.892631  1
  Pr  Pr16  1  0.342555  0.307534  0.106644  1
  Pr  Pr17  1  0.500000  0.000000  0.272213  1
  Pr  Pr18  1  0.171276  0.176363  0.892631  1
  Pr  Pr19  1  0.500000  0.000000  0.771418  1
  Ga  Ga20  1  0.000000  0.500000  0.996318  1
  Si  Si21  1  0.615414  0.385954  0.252917  1
  Si  Si22  1  0.115437  0.886918  0.746245  1
  Si  Si23  1  0.386918  0.384563  0.746245  1
  Si  Si24  1  0.384586  0.614046  0.252917  1
  Si  Si25  1  0.885954  0.884586  0.252917  1
  Si  Si26  1  0.613082  0.615437  0.746245  1
  Si  Si27  1  0.000000  0.500000  0.513149  1
  Si  Si28  1  0.884563  0.113082  0.746245  1
  Si  Si29  1  0.500000  0.000000  0.492294  1
  Si  Si30  1  0.114046  0.115414  0.252917  1
  Rh  Rh31  1  0.500000  0.000000  0.006337  1
