# generated using pymatgen
data_Er4Cr2BiO12
_symmetry_space_group_name_H-M   'P 1'
_cell_length_a   6.74962842
_cell_length_b   6.74962966
_cell_length_c   7.18779600
_cell_angle_alpha   74.50442404
_cell_angle_beta   74.50443389
_cell_angle_gamma   51.23511940
_symmetry_Int_Tables_number   1
_chemical_formula_structural   Er4Cr2BiO12
_chemical_formula_sum   'Er4 Cr2 Bi1 O12'
_cell_volume   243.86156516
_cell_formula_units_Z   1
loop_
 _symmetry_equiv_pos_site_id
 _symmetry_equiv_pos_as_xyz
  1  'x, y, z'
loop_
 _atom_site_type_symbol
 _atom_site_label
 _atom_site_symmetry_multiplicity
 _atom_site_fract_x
 _atom_site_fract_y
 _atom_site_fract_z
 _atom_site_occupancy
  Er  Er0  1  0.307244  0.307244  0.350749  1
  Er  Er1  1  0.692756  0.692756  0.649251  1
  Er  Er2  1  0.307027  0.307027  0.840737  1
  Er  Er3  1  0.692973  0.692973  0.159263  1
  Cr  Cr4  1  0.754164  0.245836  0.000000  1
  Cr  Cr5  1  0.245836  0.754164  0.000000  1
  Bi  Bi6  1  0.000000  0.000000  0.500000  1
  O  O7  1  0.901872  0.425156  0.916695  1
  O  O8  1  0.425156  0.901872  0.916695  1
  O  O9  1  0.098128  0.574844  0.083305  1
  O  O10  1  0.574844  0.098128  0.083305  1
  O  O11  1  0.097076  0.595311  0.574251  1
  O  O12  1  0.595311  0.097076  0.574251  1
  O  O13  1  0.902924  0.404689  0.425749  1
  O  O14  1  0.404689  0.902924  0.425749  1
  O  O15  1  0.999906  0.999906  0.819532  1
  O  O16  1  0.000094  0.000094  0.180468  1
  O  O17  1  0.499540  0.499540  0.814732  1
  O  O18  1  0.500460  0.500460  0.185268  1
