# generated using pymatgen
data_YTa5NbBr18
_symmetry_space_group_name_H-M   'P 1'
_cell_length_a   10.72896734
_cell_length_b   10.72929603
_cell_length_c   10.72567520
_cell_angle_alpha   56.07817196
_cell_angle_beta   56.08159370
_cell_angle_gamma   56.05027270
_symmetry_Int_Tables_number   1
_chemical_formula_structural   YTa5NbBr18
_chemical_formula_sum   'Y1 Ta5 Nb1 Br18'
_cell_volume   793.58652071
_cell_formula_units_Z   1
loop_
 _symmetry_equiv_pos_site_id
 _symmetry_equiv_pos_as_xyz
  1  'x, y, z'
loop_
 _atom_site_type_symbol
 _atom_site_label
 _atom_site_symmetry_multiplicity
 _atom_site_fract_x
 _atom_site_fract_y
 _atom_site_fract_z
 _atom_site_occupancy
  Y  Y0  1  0.999735  0.999733  0.000164  1
  Ta  Ta1  1  0.413122  0.310870  0.641733  1
  Ta  Ta2  1  0.357754  0.587435  0.689798  1
  Ta  Ta3  1  0.689925  0.357695  0.587291  1
  Ta  Ta4  1  0.310227  0.642466  0.412538  1
  Ta  Ta5  1  0.642402  0.412742  0.310070  1
  Nb  Nb6  1  0.587782  0.691239  0.356735  1
  Br  Br7  1  0.568373  0.162540  0.441498  1
  Br  Br8  1  0.223755  0.372025  0.906408  1
  Br  Br9  1  0.906371  0.223514  0.372028  1
  Br  Br10  1  0.369576  0.907109  0.223674  1
  Br  Br11  1  0.777040  0.626566  0.092419  1
  Br  Br12  1  0.093579  0.776241  0.628135  1
  Br  Br13  1  0.701726  0.959714  0.160345  1
  Br  Br14  1  0.957170  0.161418  0.700956  1
  Br  Br15  1  0.161863  0.700119  0.957631  1
  Br  Br16  1  0.298960  0.043838  0.837553  1
  Br  Br17  1  0.042794  0.837231  0.299467  1
  Br  Br18  1  0.838194  0.298798  0.043126  1
  Br  Br19  1  0.558399  0.431665  0.837473  1
  Br  Br20  1  0.162619  0.441806  0.568040  1
  Br  Br21  1  0.441640  0.568142  0.162592  1
  Br  Br22  1  0.430072  0.837457  0.560679  1
  Br  Br23  1  0.838699  0.556144  0.433213  1
  Br  Br24  1  0.628219  0.093495  0.776432  1
