# generated using pymatgen
data_Tb2DyEr(MoO6)2
_symmetry_space_group_name_H-M   'P 1'
_cell_length_a   9.95728636
_cell_length_b   9.95728553
_cell_length_c   5.39133018
_cell_angle_alpha   75.04042318
_cell_angle_beta   75.04043201
_cell_angle_gamma   68.18468023
_symmetry_Int_Tables_number   1
_chemical_formula_structural   Tb2DyEr(MoO6)2
_chemical_formula_sum   'Tb4 Dy2 Er2 Mo4 O24'
_cell_volume   471.53231392
_cell_formula_units_Z   2
loop_
 _symmetry_equiv_pos_site_id
 _symmetry_equiv_pos_as_xyz
  1  'x, y, z'
loop_
 _atom_site_type_symbol
 _atom_site_label
 _atom_site_symmetry_multiplicity
 _atom_site_fract_x
 _atom_site_fract_y
 _atom_site_fract_z
 _atom_site_occupancy
  Tb  Tb0  1  0.784400  0.551726  0.121804  1
  Tb  Tb1  1  0.551726  0.784400  0.621804  1
  Tb  Tb2  1  0.863136  0.136886  0.249997  1
  Tb  Tb3  1  0.136886  0.863136  0.749997  1
  Dy  Dy4  1  0.216541  0.448041  0.877049  1
  Dy  Dy5  1  0.448041  0.216541  0.377049  1
  Er  Er6  1  0.395817  0.603789  0.249844  1
  Er  Er7  1  0.603789  0.395817  0.749844  1
  Mo  Mo8  1  0.989734  0.702933  0.436461  1
  Mo  Mo9  1  0.296900  0.010933  0.063419  1
  Mo  Mo10  1  0.010933  0.296900  0.563419  1
  Mo  Mo11  1  0.702933  0.989734  0.936461  1
  O  O12  1  0.427738  0.390779  0.577199  1
  O  O13  1  0.608123  0.571385  0.923161  1
  O  O14  1  0.571385  0.608123  0.423161  1
  O  O15  1  0.390779  0.427738  0.077199  1
  O  O16  1  0.194617  0.661093  0.574257  1
  O  O17  1  0.338057  0.805748  0.927236  1
  O  O18  1  0.805748  0.338057  0.427236  1
  O  O19  1  0.661093  0.194617  0.074257  1
  O  O20  1  0.114410  0.672829  0.121707  1
  O  O21  1  0.326983  0.885785  0.378106  1
  O  O22  1  0.885785  0.326983  0.878106  1
  O  O23  1  0.672829  0.114410  0.621707  1
  O  O24  1  0.710607  0.816571  0.864462  1
  O  O25  1  0.183680  0.289710  0.636182  1
  O  O26  1  0.289710  0.183680  0.136182  1
  O  O27  1  0.816571  0.710607  0.364462  1
  O  O28  1  0.888240  0.953090  0.983871  1
  O  O29  1  0.047223  0.111666  0.516128  1
  O  O30  1  0.976425  0.568129  0.743661  1
  O  O31  1  0.953090  0.888240  0.483871  1
  O  O32  1  0.568129  0.976425  0.243661  1
  O  O33  1  0.025086  0.431189  0.255455  1
  O  O34  1  0.431189  0.025086  0.755455  1
  O  O35  1  0.111666  0.047223  0.016128  1
