# generated using pymatgen
data_Ho20CoBi8Ru2Rh
_symmetry_space_group_name_H-M   'P 1'
_cell_length_a   7.99619580
_cell_length_b   8.97415200
_cell_length_c   12.42601270
_cell_angle_alpha   90.00000000
_cell_angle_beta   89.70136132
_cell_angle_gamma   90.00000000
_symmetry_Int_Tables_number   1
_chemical_formula_structural   Ho20CoBi8Ru2Rh
_chemical_formula_sum   'Ho20 Co1 Bi8 Ru2 Rh1'
_cell_volume   891.66708459
_cell_formula_units_Z   1
loop_
 _symmetry_equiv_pos_site_id
 _symmetry_equiv_pos_as_xyz
  1  'x, y, z'
loop_
 _atom_site_type_symbol
 _atom_site_label
 _atom_site_symmetry_multiplicity
 _atom_site_fract_x
 _atom_site_fract_y
 _atom_site_fract_z
 _atom_site_occupancy
  Ho  Ho0  1  0.345455  0.750000  0.699682  1
  Ho  Ho1  1  0.656925  0.250000  0.294146  1
  Ho  Ho2  1  0.842841  0.250000  0.793241  1
  Ho  Ho3  1  0.157713  0.750000  0.207066  1
  Ho  Ho4  1  0.878527  0.750000  0.805259  1
  Ho  Ho5  1  0.119392  0.250000  0.192665  1
  Ho  Ho6  1  0.380794  0.250000  0.691998  1
  Ho  Ho7  1  0.616011  0.750000  0.311566  1
  Ho  Ho8  1  0.675939  0.545024  0.564059  1
  Ho  Ho9  1  0.326266  0.464093  0.437350  1
  Ho  Ho10  1  0.175560  0.455902  0.934663  1
  Ho  Ho11  1  0.326266  0.035907  0.437350  1
  Ho  Ho12  1  0.822910  0.541288  0.065598  1
  Ho  Ho13  1  0.675939  0.954976  0.564059  1
  Ho  Ho14  1  0.822910  0.958712  0.065598  1
  Ho  Ho15  1  0.175560  0.044098  0.934663  1
  Ho  Ho16  1  0.053189  0.750000  0.498163  1
  Ho  Ho17  1  0.946046  0.250000  0.502501  1
  Ho  Ho18  1  0.552568  0.250000  0.002195  1
  Ho  Ho19  1  0.448165  0.750000  0.997009  1
  Co  Co20  1  0.429742  0.750000  0.490382  1
  Bi  Bi21  1  0.569796  0.509102  0.826904  1
  Bi  Bi22  1  0.429386  0.491397  0.173157  1
  Bi  Bi23  1  0.071703  0.490840  0.672511  1
  Bi  Bi24  1  0.429386  0.008603  0.173157  1
  Bi  Bi25  1  0.929377  0.509195  0.327935  1
  Bi  Bi26  1  0.569796  0.990898  0.826904  1
  Bi  Bi27  1  0.929377  0.990805  0.327935  1
  Bi  Bi28  1  0.071703  0.009160  0.672511  1
  Ru  Ru29  1  0.926130  0.250000  0.010543  1
  Ru  Ru30  1  0.571689  0.250000  0.509726  1
  Rh  Rh31  1  0.072937  0.750000  0.989504  1
