# generated using pymatgen
data_Hf2Ta4VH16
_symmetry_space_group_name_H-M   'P 1'
_cell_length_a   6.33343200
_cell_length_b   6.36827530
_cell_length_c   6.36827480
_cell_angle_alpha   59.63835002
_cell_angle_beta   60.18082709
_cell_angle_gamma   60.18083265
_symmetry_Int_Tables_number   1
_chemical_formula_structural   Hf2Ta4VH16
_chemical_formula_sum   'Hf2 Ta4 V1 H16'
_cell_volume   181.61089961
_cell_formula_units_Z   1
loop_
 _symmetry_equiv_pos_site_id
 _symmetry_equiv_pos_as_xyz
  1  'x, y, z'
loop_
 _atom_site_type_symbol
 _atom_site_label
 _atom_site_symmetry_multiplicity
 _atom_site_fract_x
 _atom_site_fract_y
 _atom_site_fract_z
 _atom_site_occupancy
  Hf  Hf0  1  0.000000  0.500000  0.500000  1
  Hf  Hf1  1  0.500000  0.000000  0.000000  1
  Ta  Ta2  1  0.000000  0.000000  0.500000  1
  Ta  Ta3  1  0.500000  0.000000  0.500000  1
  Ta  Ta4  1  0.500000  0.500000  0.000000  1
  Ta  Ta5  1  0.000000  0.500000  0.000000  1
  V  V6  1  0.000000  0.000000  0.000000  1
  H  H7  1  0.876577  0.888772  0.358072  1
  H  H8  1  0.876577  0.358072  0.888772  1
  H  H9  1  0.358072  0.876577  0.876577  1
  H  H10  1  0.888772  0.876577  0.876577  1
  H  H11  1  0.123423  0.111228  0.641928  1
  H  H12  1  0.123423  0.641928  0.111228  1
  H  H13  1  0.641928  0.123423  0.123423  1
  H  H14  1  0.111228  0.123423  0.123423  1
  H  H15  1  0.625052  0.607800  0.142097  1
  H  H16  1  0.625052  0.142097  0.607800  1
  H  H17  1  0.142097  0.625052  0.625052  1
  H  H18  1  0.607800  0.625052  0.625052  1
  H  H19  1  0.374948  0.392200  0.857903  1
  H  H20  1  0.374948  0.857903  0.392200  1
  H  H21  1  0.857903  0.374948  0.374948  1
  H  H22  1  0.392200  0.374948  0.374948  1
