# generated using pymatgen
data_TaMn3Cr3FeP4
_symmetry_space_group_name_H-M   'P 1'
_cell_length_a   3.60525800
_cell_length_b   5.85470798
_cell_length_c   6.72453660
_cell_angle_alpha   90.04237527
_cell_angle_beta   90.00000000
_cell_angle_gamma   90.00000000
_symmetry_Int_Tables_number   1
_chemical_formula_structural   TaMn3Cr3FeP4
_chemical_formula_sum   'Ta1 Mn3 Cr3 Fe1 P4'
_cell_volume   141.93968281
_cell_formula_units_Z   1
loop_
 _symmetry_equiv_pos_site_id
 _symmetry_equiv_pos_as_xyz
  1  'x, y, z'
loop_
 _atom_site_type_symbol
 _atom_site_label
 _atom_site_symmetry_multiplicity
 _atom_site_fract_x
 _atom_site_fract_y
 _atom_site_fract_z
 _atom_site_occupancy
  Ta  Ta0  1  0.750000  0.474610  0.675510  1
  Mn  Mn1  1  0.250000  0.649006  0.943696  1
  Mn  Mn2  1  0.750000  0.852945  0.440398  1
  Mn  Mn3  1  0.250000  0.152458  0.553259  1
  Cr  Cr4  1  0.750000  0.975449  0.829448  1
  Cr  Cr5  1  0.250000  0.537920  0.322754  1
  Cr  Cr6  1  0.250000  0.012128  0.170140  1
  Fe  Fe7  1  0.750000  0.350032  0.062055  1
  P  P8  1  0.250000  0.785112  0.629165  1
  P  P9  1  0.750000  0.223813  0.362098  1
  P  P10  1  0.250000  0.257805  0.886540  1
  P  P11  1  0.750000  0.728719  0.124938  1
