# generated using pymatgen
data_TaV(SeO3)4
_symmetry_space_group_name_H-M   'P 1'
_cell_length_a   8.32351300
_cell_length_b   8.31218617
_cell_length_c   8.40829536
_cell_angle_alpha   88.96588998
_cell_angle_beta   89.99909537
_cell_angle_gamma   89.99975976
_symmetry_Int_Tables_number   1
_chemical_formula_structural   TaV(SeO3)4
_chemical_formula_sum   'Ta2 V2 Se8 O24'
_cell_volume   581.64653138
_cell_formula_units_Z   2
loop_
 _symmetry_equiv_pos_site_id
 _symmetry_equiv_pos_as_xyz
  1  'x, y, z'
loop_
 _atom_site_type_symbol
 _atom_site_label
 _atom_site_symmetry_multiplicity
 _atom_site_fract_x
 _atom_site_fract_y
 _atom_site_fract_z
 _atom_site_occupancy
  Ta  Ta0  1  0.000000  0.000000  0.500000  1
  Ta  Ta1  1  0.500000  0.000000  0.000000  1
  V  V2  1  0.000000  0.500000  0.000000  1
  V  V3  1  0.500000  0.500000  0.500000  1
  Se  Se4  1  0.316164  0.654564  0.181330  1
  Se  Se5  1  0.816161  0.345433  0.318676  1
  Se  Se6  1  0.669385  0.805781  0.669341  1
  Se  Se7  1  0.169385  0.194223  0.830660  1
  Se  Se8  1  0.683836  0.345436  0.818670  1
  Se  Se9  1  0.183839  0.654567  0.681324  1
  Se  Se10  1  0.330615  0.194219  0.330659  1
  Se  Se11  1  0.830615  0.805777  0.169340  1
  O  O12  1  0.238169  0.531936  0.039355  1
  O  O13  1  0.738168  0.468049  0.460668  1
  O  O14  1  0.771170  0.955556  0.558767  1
  O  O15  1  0.271171  0.044455  0.941239  1
  O  O16  1  0.544295  0.934451  0.775846  1
  O  O17  1  0.459169  0.529447  0.261826  1
  O  O18  1  0.959154  0.470558  0.238167  1
  O  O19  1  0.044305  0.065552  0.724147  1
  O  O20  1  0.942663  0.223785  0.442793  1
  O  O21  1  0.538333  0.743022  0.529245  1
  O  O22  1  0.442652  0.776220  0.057206  1
  O  O23  1  0.038330  0.256979  0.970758  1
  O  O24  1  0.761831  0.468064  0.960645  1
  O  O25  1  0.261832  0.531951  0.539332  1
  O  O26  1  0.228830  0.044444  0.441233  1
  O  O27  1  0.728829  0.955545  0.058761  1
  O  O28  1  0.455705  0.065549  0.224154  1
  O  O29  1  0.540831  0.470553  0.738174  1
  O  O30  1  0.040846  0.529442  0.761833  1
  O  O31  1  0.955695  0.934448  0.275853  1
  O  O32  1  0.057337  0.776215  0.557207  1
  O  O33  1  0.461667  0.256978  0.470755  1
  O  O34  1  0.557348  0.223780  0.942794  1
  O  O35  1  0.961670  0.743021  0.029242  1
