# generated using pymatgen
data_Dy2YSc3FeBi2
_symmetry_space_group_name_H-M   'P 1'
_cell_length_a   7.97517411
_cell_length_b   7.96249764
_cell_length_c   4.18080600
_cell_angle_alpha   90.00000000
_cell_angle_beta   90.00000000
_cell_angle_gamma   120.05008150
_symmetry_Int_Tables_number   1
_chemical_formula_structural   Dy2YSc3FeBi2
_chemical_formula_sum   'Dy2 Y1 Sc3 Fe1 Bi2'
_cell_volume   229.80567394
_cell_formula_units_Z   1
loop_
 _symmetry_equiv_pos_site_id
 _symmetry_equiv_pos_as_xyz
  1  'x, y, z'
loop_
 _atom_site_type_symbol
 _atom_site_label
 _atom_site_symmetry_multiplicity
 _atom_site_fract_x
 _atom_site_fract_y
 _atom_site_fract_z
 _atom_site_occupancy
  Dy  Dy0  1  0.000118  0.613984  0.000000  1
  Dy  Dy1  1  0.386070  0.385950  0.000000  1
  Y  Y2  1  0.612995  0.999998  0.000000  1
  Sc  Sc3  1  0.220791  0.999995  0.500000  1
  Sc  Sc4  1  0.000364  0.221162  0.500000  1
  Sc  Sc5  1  0.779254  0.778883  0.500000  1
  Fe  Fe6  1  0.000548  0.000001  0.000000  1
  Bi  Bi7  1  0.333254  0.666617  0.500000  1
  Bi  Bi8  1  0.666607  0.333409  0.500000  1
