# generated using pymatgen
data_NbB4Ru4W3
_symmetry_space_group_name_H-M   'P 1'
_cell_length_a   3.01923200
_cell_length_b   9.00031976
_cell_length_c   15.81305440
_cell_angle_alpha   89.92729901
_cell_angle_beta   90.00000000
_cell_angle_gamma   90.00000000
_symmetry_Int_Tables_number   1
_chemical_formula_structural   NbB4Ru4W3
_chemical_formula_sum   'Nb3 B12 Ru12 W9'
_cell_volume   429.70443946
_cell_formula_units_Z   3
loop_
 _symmetry_equiv_pos_site_id
 _symmetry_equiv_pos_as_xyz
  1  'x, y, z'
loop_
 _atom_site_type_symbol
 _atom_site_label
 _atom_site_symmetry_multiplicity
 _atom_site_fract_x
 _atom_site_fract_y
 _atom_site_fract_z
 _atom_site_occupancy
  Nb  Nb0  1  0.000000  0.299455  0.801971  1
  Nb  Nb1  1  0.000000  0.203700  0.302791  1
  Nb  Nb2  1  0.000000  0.799346  0.698140  1
  B  B3  1  0.500000  0.603434  0.495220  1
  B  B4  1  0.500000  0.397215  0.504577  1
  B  B5  1  0.500000  0.101434  0.005280  1
  B  B6  1  0.500000  0.894446  0.996539  1
  B  B7  1  0.000000  0.600785  0.831924  1
  B  B8  1  0.000000  0.398060  0.168382  1
  B  B9  1  0.000000  0.099787  0.668179  1
  B  B10  1  0.000000  0.900777  0.332869  1
  B  B11  1  0.500000  0.712906  0.592909  1
  B  B12  1  0.500000  0.288825  0.406903  1
  B  B13  1  0.500000  0.210555  0.906790  1
  B  B14  1  0.500000  0.784374  0.095671  1
  Ru  Ru15  1  0.500000  0.724877  0.346950  1
  Ru  Ru16  1  0.500000  0.275242  0.648802  1
  Ru  Ru17  1  0.500000  0.223817  0.149171  1
  Ru  Ru18  1  0.500000  0.774991  0.851628  1
  Ru  Ru19  1  0.500000  0.515717  0.087908  1
  Ru  Ru20  1  0.500000  0.481530  0.912055  1
  Ru  Ru21  1  0.500000  0.017601  0.412646  1
  Ru  Ru22  1  0.500000  0.982673  0.587897  1
  Ru  Ru23  1  0.500000  0.543770  0.736277  1
  Ru  Ru24  1  0.500000  0.464585  0.260905  1
  Ru  Ru25  1  0.500000  0.043721  0.764392  1
  Ru  Ru26  1  0.500000  0.958137  0.237064  1
  W  W27  1  0.000000  0.790516  0.491258  1
  W  W28  1  0.000000  0.209186  0.507646  1
  W  W29  1  0.000000  0.289533  0.007501  1
  W  W30  1  0.000000  0.707492  0.992949  1
  W  W31  1  0.000000  0.513458  0.591461  1
  W  W32  1  0.000000  0.487383  0.408742  1
  W  W33  1  0.000000  0.011927  0.909418  1
  W  W34  1  0.000000  0.983635  0.092633  1
  W  W35  1  0.000000  0.705107  0.194551  1
