# generated using pymatgen
data_Tb6Al6GeAu5
_symmetry_space_group_name_H-M   'P 1'
_cell_length_a   7.20813100
_cell_length_b   7.20813113
_cell_length_c   8.44215000
_cell_angle_alpha   90.00000000
_cell_angle_beta   90.00000000
_cell_angle_gamma   119.99999481
_symmetry_Int_Tables_number   1
_chemical_formula_structural   Tb6Al6GeAu5
_chemical_formula_sum   'Tb6 Al6 Ge1 Au5'
_cell_volume   379.86481468
_cell_formula_units_Z   1
loop_
 _symmetry_equiv_pos_site_id
 _symmetry_equiv_pos_as_xyz
  1  'x, y, z'
loop_
 _atom_site_type_symbol
 _atom_site_label
 _atom_site_symmetry_multiplicity
 _atom_site_fract_x
 _atom_site_fract_y
 _atom_site_fract_z
 _atom_site_occupancy
  Tb  Tb0  1  0.584117  0.001371  0.746589  1
  Tb  Tb1  1  0.998629  0.582746  0.746589  1
  Tb  Tb2  1  0.417254  0.415883  0.746589  1
  Tb  Tb3  1  0.997528  0.582506  0.253399  1
  Tb  Tb4  1  0.584979  0.002472  0.253399  1
  Tb  Tb5  1  0.417494  0.415021  0.253399  1
  Al  Al6  1  0.754430  0.763852  0.000027  1
  Al  Al7  1  0.236148  0.990578  0.000027  1
  Al  Al8  1  0.009422  0.245570  0.000027  1
  Al  Al9  1  0.760001  0.760103  0.500026  1
  Al  Al10  1  0.239897  0.999897  0.500026  1
  Al  Al11  1  0.000103  0.239999  0.500026  1
  Ge  Ge12  1  0.666667  0.333333  0.999511  1
  Au  Au13  1  0.000000  0.000000  0.752989  1
  Au  Au14  1  0.000000  0.000000  0.247075  1
  Au  Au15  1  0.666667  0.333333  0.500638  1
  Au  Au16  1  0.333333  0.666667  0.498982  1
  Au  Au17  1  0.333333  0.666667  0.000684  1
