# generated using pymatgen
data_SmLu(Tc2P)4
_symmetry_space_group_name_H-M   'P 1'
_cell_length_a   7.42300712
_cell_length_b   7.42300712
_cell_length_c   3.95240000
_cell_angle_alpha   90.00000000
_cell_angle_beta   90.00000000
_cell_angle_gamma   89.40482573
_symmetry_Int_Tables_number   1
_chemical_formula_structural   SmLu(Tc2P)4
_chemical_formula_sum   'Sm1 Lu1 Tc8 P4'
_cell_volume   217.76957993
_cell_formula_units_Z   1
loop_
 _symmetry_equiv_pos_site_id
 _symmetry_equiv_pos_as_xyz
  1  'x, y, z'
loop_
 _atom_site_type_symbol
 _atom_site_label
 _atom_site_symmetry_multiplicity
 _atom_site_fract_x
 _atom_site_fract_y
 _atom_site_fract_z
 _atom_site_occupancy
  Sm  Sm0  1  0.500000  0.500000  0.000000  1
  Lu  Lu1  1  0.000000  0.000000  0.500000  1
  Tc  Tc2  1  0.158202  0.584204  0.500000  1
  Tc  Tc3  1  0.841798  0.415796  0.500000  1
  Tc  Tc4  1  0.336943  0.081093  0.000000  1
  Tc  Tc5  1  0.663057  0.918907  0.000000  1
  Tc  Tc6  1  0.584204  0.158202  0.500000  1
  Tc  Tc7  1  0.415796  0.841798  0.500000  1
  Tc  Tc8  1  0.081093  0.336943  0.000000  1
  Tc  Tc9  1  0.918907  0.663057  0.000000  1
  P  P10  1  0.714558  0.714558  0.500000  1
  P  P11  1  0.285442  0.285442  0.500000  1
  P  P12  1  0.790793  0.209207  0.000000  1
  P  P13  1  0.209207  0.790793  0.000000  1
