# generated using pymatgen
data_Ta8Cr3TcB8
_symmetry_space_group_name_H-M   'P 1'
_cell_length_a   5.96882300
_cell_length_b   5.96882300
_cell_length_c   6.53249900
_cell_angle_alpha   90.00000000
_cell_angle_beta   90.00000000
_cell_angle_gamma   90.00000000
_symmetry_Int_Tables_number   1
_chemical_formula_structural   Ta8Cr3TcB8
_chemical_formula_sum   'Ta8 Cr3 Tc1 B8'
_cell_volume   232.73234897
_cell_formula_units_Z   1
loop_
 _symmetry_equiv_pos_site_id
 _symmetry_equiv_pos_as_xyz
  1  'x, y, z'
loop_
 _atom_site_type_symbol
 _atom_site_label
 _atom_site_symmetry_multiplicity
 _atom_site_fract_x
 _atom_site_fract_y
 _atom_site_fract_z
 _atom_site_occupancy
  Ta  Ta0  1  0.677671  0.818237  0.502334  1
  Ta  Ta1  1  0.322329  0.181763  0.502334  1
  Ta  Ta2  1  0.818199  0.322363  0.997660  1
  Ta  Ta3  1  0.181801  0.677637  0.997660  1
  Ta  Ta4  1  0.818237  0.322329  0.502334  1
  Ta  Ta5  1  0.181763  0.677671  0.502334  1
  Ta  Ta6  1  0.322363  0.181801  0.997660  1
  Ta  Ta7  1  0.677637  0.818199  0.997660  1
  Cr  Cr8  1  0.500000  0.500000  0.250159  1
  Cr  Cr9  1  0.000000  0.000000  0.750131  1
  Cr  Cr10  1  0.500000  0.500000  0.749924  1
  Tc  Tc11  1  0.000000  0.000000  0.249932  1
  B  B12  1  0.390543  0.887482  0.249981  1
  B  B13  1  0.609457  0.112518  0.249981  1
  B  B14  1  0.111104  0.387693  0.749988  1
  B  B15  1  0.888896  0.612307  0.749988  1
  B  B16  1  0.887482  0.609457  0.249981  1
  B  B17  1  0.112518  0.390543  0.249981  1
  B  B18  1  0.387693  0.888896  0.749988  1
  B  B19  1  0.612307  0.111104  0.749988  1
