# generated using pymatgen
data_LaPrBiTe
_symmetry_space_group_name_H-M   'P 1'
_cell_length_a   8.00440004
_cell_length_b   8.00439983
_cell_length_c   8.00440069
_cell_angle_alpha   33.46417838
_cell_angle_beta   33.46418073
_cell_angle_gamma   33.46417807
_symmetry_Int_Tables_number   1
_chemical_formula_structural   LaPrBiTe
_chemical_formula_sum   'La1 Pr1 Bi1 Te1'
_cell_volume   138.87397976
_cell_formula_units_Z   1
loop_
 _symmetry_equiv_pos_site_id
 _symmetry_equiv_pos_as_xyz
  1  'x, y, z'
loop_
 _atom_site_type_symbol
 _atom_site_label
 _atom_site_symmetry_multiplicity
 _atom_site_fract_x
 _atom_site_fract_y
 _atom_site_fract_z
 _atom_site_occupancy
  La  La0  1  0.000236  0.000236  0.000236  1
  Pr  Pr1  1  0.499956  0.499956  0.499956  1
  Bi  Bi2  1  0.750638  0.750638  0.750638  1
  Te  Te3  1  0.249169  0.249169  0.249169  1
