# generated using pymatgen
data_AcTh(NiP)2
_symmetry_space_group_name_H-M   'P 1'
_cell_length_a   4.02944800
_cell_length_b   6.96800711
_cell_length_c   8.33579904
_cell_angle_alpha   89.94979037
_cell_angle_beta   90.00000000
_cell_angle_gamma   90.00000000
_symmetry_Int_Tables_number   1
_chemical_formula_structural   AcTh(NiP)2
_chemical_formula_sum   'Ac2 Th2 Ni4 P4'
_cell_volume   234.04599297
_cell_formula_units_Z   2
loop_
 _symmetry_equiv_pos_site_id
 _symmetry_equiv_pos_as_xyz
  1  'x, y, z'
loop_
 _atom_site_type_symbol
 _atom_site_label
 _atom_site_symmetry_multiplicity
 _atom_site_fract_x
 _atom_site_fract_y
 _atom_site_fract_z
 _atom_site_occupancy
  Ac  Ac0  1  0.250000  0.749670  0.999853  1
  Ac  Ac1  1  0.750000  0.250330  0.000147  1
  Th  Th2  1  0.750000  0.249803  0.500145  1
  Th  Th3  1  0.250000  0.750197  0.499855  1
  Ni  Ni4  1  0.250000  0.083941  0.269455  1
  Ni  Ni5  1  0.750000  0.916059  0.730545  1
  Ni  Ni6  1  0.750000  0.583981  0.269831  1
  Ni  Ni7  1  0.250000  0.416019  0.730169  1
  P  P8  1  0.250000  0.416853  0.265043  1
  P  P9  1  0.750000  0.583147  0.734957  1
  P  P10  1  0.750000  0.916912  0.264001  1
  P  P11  1  0.250000  0.083088  0.735999  1
