# generated using pymatgen
data_Ho10InBi5
_symmetry_space_group_name_H-M   'P 1'
_cell_length_a   9.10545926
_cell_length_b   9.10926124
_cell_length_c   6.43035100
_cell_angle_alpha   90.00000000
_cell_angle_beta   90.00000000
_cell_angle_gamma   120.01381375
_symmetry_Int_Tables_number   1
_chemical_formula_structural   Ho10InBi5
_chemical_formula_sum   'Ho10 In1 Bi5'
_cell_volume   461.83820333
_cell_formula_units_Z   1
loop_
 _symmetry_equiv_pos_site_id
 _symmetry_equiv_pos_as_xyz
  1  'x, y, z'
loop_
 _atom_site_type_symbol
 _atom_site_label
 _atom_site_symmetry_multiplicity
 _atom_site_fract_x
 _atom_site_fract_y
 _atom_site_fract_z
 _atom_site_occupancy
  Ho  Ho0  1  0.671880  0.334398  0.000536  1
  Ho  Ho1  1  0.328120  0.662519  0.000536  1
  Ho  Ho2  1  0.328120  0.662519  0.499464  1
  Ho  Ho3  1  0.671880  0.334398  0.499464  1
  Ho  Ho4  1  0.759991  0.758731  0.750000  1
  Ho  Ho5  1  0.240009  0.998740  0.750000  1
  Ho  Ho6  1  0.000000  0.239828  0.750000  1
  Ho  Ho7  1  0.234035  0.242144  0.250000  1
  Ho  Ho8  1  0.765965  0.008109  0.250000  1
  Ho  Ho9  1  0.000000  0.755360  0.250000  1
  In  In10  1  0.000000  0.394244  0.250000  1
  Bi  Bi11  1  0.391918  0.389672  0.750000  1
  Bi  Bi12  1  0.608082  0.997754  0.750000  1
  Bi  Bi13  1  0.000000  0.608943  0.750000  1
  Bi  Bi14  1  0.610119  0.611379  0.250000  1
  Bi  Bi15  1  0.389881  0.001260  0.250000  1
