# generated using pymatgen
data_Cs8Tl10Ge
_symmetry_space_group_name_H-M   'P 1'
_cell_length_a   11.13034800
_cell_length_b   11.13034800
_cell_length_c   15.12129300
_cell_angle_alpha   90.00000000
_cell_angle_beta   90.00000000
_cell_angle_gamma   90.00000000
_symmetry_Int_Tables_number   1
_chemical_formula_structural   Cs8Tl10Ge
_chemical_formula_sum   'Cs16 Tl20 Ge2'
_cell_volume   1873.29603946
_cell_formula_units_Z   2
loop_
 _symmetry_equiv_pos_site_id
 _symmetry_equiv_pos_as_xyz
  1  'x, y, z'
loop_
 _atom_site_type_symbol
 _atom_site_label
 _atom_site_symmetry_multiplicity
 _atom_site_fract_x
 _atom_site_fract_y
 _atom_site_fract_z
 _atom_site_occupancy
  Cs  Cs0  1  0.956979  0.179935  0.107862  1
  Cs  Cs1  1  0.543020  0.320065  0.107862  1
  Cs  Cs2  1  0.179935  0.543020  0.107862  1
  Cs  Cs3  1  0.320065  0.956979  0.107862  1
  Cs  Cs4  1  0.543020  0.179935  0.392139  1
  Cs  Cs5  1  0.956979  0.320065  0.392139  1
  Cs  Cs6  1  0.320065  0.543020  0.392139  1
  Cs  Cs7  1  0.179935  0.956979  0.392139  1
  Cs  Cs8  1  0.820065  0.043020  0.607861  1
  Cs  Cs9  1  0.679935  0.456979  0.607861  1
  Cs  Cs10  1  0.043020  0.679935  0.607861  1
  Cs  Cs11  1  0.456979  0.820065  0.607861  1
  Cs  Cs12  1  0.679935  0.043020  0.892139  1
  Cs  Cs13  1  0.820065  0.456979  0.892139  1
  Cs  Cs14  1  0.456979  0.679935  0.892139  1
  Cs  Cs15  1  0.043020  0.820065  0.892139  1
  Tl  Tl16  1  0.750000  0.750000  0.035168  1
  Tl  Tl17  1  0.838610  0.526306  0.161094  1
  Tl  Tl18  1  0.526306  0.661391  0.161094  1
  Tl  Tl19  1  0.973694  0.838610  0.161094  1
  Tl  Tl20  1  0.661391  0.973694  0.161094  1
  Tl  Tl21  1  0.661391  0.526306  0.338905  1
  Tl  Tl22  1  0.973694  0.661391  0.338905  1
  Tl  Tl23  1  0.526306  0.838610  0.338905  1
  Tl  Tl24  1  0.838610  0.973694  0.338905  1
  Tl  Tl25  1  0.750000  0.750000  0.464832  1
  Tl  Tl26  1  0.250000  0.250000  0.535168  1
  Tl  Tl27  1  0.161391  0.026306  0.661094  1
  Tl  Tl28  1  0.473694  0.161391  0.661094  1
  Tl  Tl29  1  0.026306  0.338609  0.661094  1
  Tl  Tl30  1  0.338609  0.473694  0.661094  1
  Tl  Tl31  1  0.338609  0.026306  0.838905  1
  Tl  Tl32  1  0.026306  0.161391  0.838905  1
  Tl  Tl33  1  0.473694  0.338609  0.838905  1
  Tl  Tl34  1  0.161391  0.473694  0.838905  1
  Tl  Tl35  1  0.250000  0.250000  0.964832  1
  Ge  Ge36  1  0.750000  0.750000  0.250000  1
  Ge  Ge37  1  0.250000  0.250000  0.750000  1
