# generated using pymatgen
data_Th3Ga3CuTc2
_symmetry_space_group_name_H-M   'P 1'
_cell_length_a   7.19944500
_cell_length_b   7.19944416
_cell_length_c   4.09778700
_cell_angle_alpha   90.00000000
_cell_angle_beta   90.00000000
_cell_angle_gamma   120.00000847
_symmetry_Int_Tables_number   1
_chemical_formula_structural   Th3Ga3CuTc2
_chemical_formula_sum   'Th3 Ga3 Cu1 Tc2'
_cell_volume   183.94075324
_cell_formula_units_Z   1
loop_
 _symmetry_equiv_pos_site_id
 _symmetry_equiv_pos_as_xyz
  1  'x, y, z'
loop_
 _atom_site_type_symbol
 _atom_site_label
 _atom_site_symmetry_multiplicity
 _atom_site_fract_x
 _atom_site_fract_y
 _atom_site_fract_z
 _atom_site_occupancy
  Th  Th0  1  0.422578  0.422578  0.500000  1
  Th  Th1  1  0.577422  0.000000  0.500000  1
  Th  Th2  1  0.000000  0.577422  0.500000  1
  Ga  Ga3  1  0.763412  0.763412  0.000000  1
  Ga  Ga4  1  0.236588  0.000000  0.000000  1
  Ga  Ga5  1  0.000000  0.236588  0.000000  1
  Cu  Cu6  1  0.000000  0.000000  0.500000  1
  Tc  Tc7  1  0.666667  0.333333  0.000000  1
  Tc  Tc8  1  0.333333  0.666667  0.000000  1
