# generated using pymatgen
data_Nb4VP4Rh3
_symmetry_space_group_name_H-M   'P 1'
_cell_length_a   3.67132700
_cell_length_b   6.40779635
_cell_length_c   7.35452900
_cell_angle_alpha   89.98275345
_cell_angle_beta   90.00000000
_cell_angle_gamma   90.00000000
_symmetry_Int_Tables_number   1
_chemical_formula_structural   Nb4VP4Rh3
_chemical_formula_sum   'Nb4 V1 P4 Rh3'
_cell_volume   173.01613824
_cell_formula_units_Z   1
loop_
 _symmetry_equiv_pos_site_id
 _symmetry_equiv_pos_as_xyz
  1  'x, y, z'
loop_
 _atom_site_type_symbol
 _atom_site_label
 _atom_site_symmetry_multiplicity
 _atom_site_fract_x
 _atom_site_fract_y
 _atom_site_fract_z
 _atom_site_occupancy
  Nb  Nb0  1  0.250000  0.036528  0.840694  1
  Nb  Nb1  1  0.250000  0.518738  0.671756  1
  Nb  Nb2  1  0.750000  0.971218  0.166513  1
  Nb  Nb3  1  0.750000  0.472997  0.325039  1
  V  V4  1  0.750000  0.358629  0.935314  1
  P  P5  1  0.250000  0.762908  0.371840  1
  P  P6  1  0.250000  0.263810  0.129918  1
  P  P7  1  0.750000  0.234630  0.630233  1
  P  P8  1  0.750000  0.734751  0.869136  1
  Rh  Rh9  1  0.250000  0.148208  0.438255  1
  Rh  Rh10  1  0.250000  0.643844  0.058240  1
  Rh  Rh11  1  0.750000  0.853739  0.563062  1
