# generated using pymatgen
data_Pr16Y4Si15S
_symmetry_space_group_name_H-M   'P 1'
_cell_length_a   7.86848159
_cell_length_b   7.82398922
_cell_length_c   15.38998200
_cell_angle_alpha   89.74717681
_cell_angle_beta   89.28271376
_cell_angle_gamma   89.96719345
_symmetry_Int_Tables_number   1
_chemical_formula_structural   Pr16Y4Si15S
_chemical_formula_sum   'Pr16 Y4 Si15 S1'
_cell_volume   947.36856130
_cell_formula_units_Z   1
loop_
 _symmetry_equiv_pos_site_id
 _symmetry_equiv_pos_as_xyz
  1  'x, y, z'
loop_
 _atom_site_type_symbol
 _atom_site_label
 _atom_site_symmetry_multiplicity
 _atom_site_fract_x
 _atom_site_fract_y
 _atom_site_fract_z
 _atom_site_occupancy
  Pr  Pr0  1  0.380741  0.007995  0.442084  1
  Pr  Pr1  1  0.489120  0.874070  0.696837  1
  Pr  Pr2  1  0.512333  0.118740  0.194179  1
  Pr  Pr3  1  0.878525  0.484877  0.304639  1
  Pr  Pr4  1  0.124139  0.509459  0.802834  1
  Pr  Pr5  1  0.631605  0.984239  0.948037  1
  Pr  Pr6  1  0.004929  0.379970  0.551796  1
  Pr  Pr7  1  0.990573  0.621995  0.054661  1
  Pr  Pr8  1  0.139731  0.987260  0.870616  1
  Pr  Pr9  1  0.523409  0.626873  0.127591  1
  Pr  Pr10  1  0.464056  0.364904  0.633343  1
  Pr  Pr11  1  0.630762  0.526123  0.873567  1
  Pr  Pr12  1  0.371125  0.473287  0.373193  1
  Pr  Pr13  1  0.873495  0.023749  0.378311  1
  Pr  Pr14  1  0.978924  0.125578  0.123056  1
  Pr  Pr15  1  0.024848  0.878846  0.621724  1
  Y  Y16  1  0.312178  0.309093  0.999393  1
  Y  Y17  1  0.188821  0.807409  0.249643  1
  Y  Y18  1  0.801776  0.191949  0.750963  1
  Y  Y19  1  0.686831  0.689007  0.500022  1
  Si  Si20  1  0.328428  0.691713  0.955267  1
  Si  Si21  1  0.666183  0.311285  0.460554  1
  Si  Si22  1  0.695065  0.330939  0.043978  1
  Si  Si23  1  0.310505  0.670203  0.544285  1
  Si  Si24  1  0.812466  0.826827  0.208244  1
  Si  Si25  1  0.172500  0.186234  0.291727  1
  Si  Si26  1  0.837198  0.811077  0.791749  1
  Si  Si27  1  0.286721  0.922568  0.060880  1
  Si  Si28  1  0.579398  0.781803  0.312574  1
  Si  Si29  1  0.451638  0.212228  0.824840  1
  Si  Si30  1  0.785323  0.580935  0.685547  1
  Si  Si31  1  0.213573  0.421855  0.187236  1
  Si  Si32  1  0.704725  0.075788  0.563682  1
  Si  Si33  1  0.927739  0.288446  0.937221  1
  Si  Si34  1  0.077487  0.712728  0.437875  1
  S  S35  1  0.143128  0.189955  0.697853  1
