# generated using pymatgen
data_Dy11HoPb10
_symmetry_space_group_name_H-M   'P 1'
_cell_length_a   11.76689622
_cell_length_b   11.76689596
_cell_length_c   11.76731345
_cell_angle_alpha   146.90853610
_cell_angle_beta   132.80788091
_cell_angle_gamma   58.84224302
_symmetry_Int_Tables_number   1
_chemical_formula_structural   Dy11HoPb10
_chemical_formula_sum   'Dy11 Ho1 Pb10'
_cell_volume   647.10744493
_cell_formula_units_Z   1
loop_
 _symmetry_equiv_pos_site_id
 _symmetry_equiv_pos_as_xyz
  1  'x, y, z'
loop_
 _atom_site_type_symbol
 _atom_site_label
 _atom_site_symmetry_multiplicity
 _atom_site_fract_x
 _atom_site_fract_y
 _atom_site_fract_z
 _atom_site_occupancy
  Dy  Dy0  1  0.696279  0.946279  0.250000  1
  Dy  Dy1  1  0.250367  0.637705  0.612598  1
  Dy  Dy2  1  0.680663  0.941171  0.739500  1
  Dy  Dy3  1  0.025108  0.137768  0.887402  1
  Dy  Dy4  1  0.974816  0.862195  0.112552  1
  Dy  Dy5  1  0.798319  0.558829  0.239418  1
  Dy  Dy6  1  0.201671  0.441162  0.760500  1
  Dy  Dy7  1  0.303719  0.053719  0.750000  1
  Dy  Dy8  1  0.319410  0.058901  0.260582  1
  Dy  Dy9  1  0.303721  0.553721  0.250000  1
  Dy  Dy10  1  0.749642  0.362265  0.387448  1
  Ho  Ho11  1  0.696275  0.446275  0.750000  1
  Pb  Pb12  1  0.480296  0.574187  0.905798  1
  Pb  Pb13  1  0.598808  0.794173  0.804270  1
  Pb  Pb14  1  0.668389  0.074499  0.594202  1
  Pb  Pb15  1  0.000003  0.750003  0.750000  1
  Pb  Pb16  1  0.989903  0.294539  0.695730  1
  Pb  Pb17  1  0.519811  0.425698  0.094078  1
  Pb  Pb18  1  0.009843  0.705460  0.304117  1
  Pb  Pb19  1  0.401344  0.205726  0.195883  1
  Pb  Pb20  1  0.331619  0.925731  0.405922  1
  Pb  Pb21  1  0.999995  0.249995  0.250000  1
