# generated using pymatgen
data_LiYb6Th2(Si4Pd)3
_symmetry_space_group_name_H-M   'P 1'
_cell_length_a   8.29086600
_cell_length_b   8.29086587
_cell_length_c   8.27753400
_cell_angle_alpha   90.00000000
_cell_angle_beta   90.00000000
_cell_angle_gamma   119.99999255
_symmetry_Int_Tables_number   1
_chemical_formula_structural   LiYb6Th2(Si4Pd)3
_chemical_formula_sum   'Li1 Yb6 Th2 Si12 Pd3'
_cell_volume   492.75543439
_cell_formula_units_Z   1
loop_
 _symmetry_equiv_pos_site_id
 _symmetry_equiv_pos_as_xyz
  1  'x, y, z'
loop_
 _atom_site_type_symbol
 _atom_site_label
 _atom_site_symmetry_multiplicity
 _atom_site_fract_x
 _atom_site_fract_y
 _atom_site_fract_z
 _atom_site_occupancy
  Li  Li0  1  0.333333  0.666667  0.998710  1
  Yb  Yb1  1  0.503467  0.006933  0.253289  1
  Yb  Yb2  1  0.503770  0.007539  0.746685  1
  Yb  Yb3  1  0.993067  0.496533  0.253289  1
  Yb  Yb4  1  0.992461  0.496230  0.746685  1
  Yb  Yb5  1  0.503467  0.496533  0.253289  1
  Yb  Yb6  1  0.503770  0.496230  0.746685  1
  Th  Th7  1  0.000000  0.000000  0.250589  1
  Th  Th8  1  0.000000  0.000000  0.749549  1
  Si  Si9  1  0.162670  0.325339  0.000149  1
  Si  Si10  1  0.834144  0.668289  0.999993  1
  Si  Si11  1  0.674661  0.837330  0.000149  1
  Si  Si12  1  0.835379  0.670758  0.499859  1
  Si  Si13  1  0.331711  0.165856  0.999993  1
  Si  Si14  1  0.166125  0.332251  0.500249  1
  Si  Si15  1  0.162670  0.837330  0.000149  1
  Si  Si16  1  0.329242  0.164621  0.499859  1
  Si  Si17  1  0.834144  0.165856  0.999993  1
  Si  Si18  1  0.667749  0.833875  0.500249  1
  Si  Si19  1  0.835379  0.164621  0.499859  1
  Si  Si20  1  0.166125  0.833875  0.500249  1
  Pd  Pd21  1  0.666667  0.333333  0.000060  1
  Pd  Pd22  1  0.666667  0.333333  0.499852  1
  Pd  Pd23  1  0.333333  0.666667  0.500569  1
