# generated using pymatgen
data_K2Tl4Au3
_symmetry_space_group_name_H-M   'P 1'
_cell_length_a   15.91915200
_cell_length_b   15.91915297
_cell_length_c   4.94684600
_cell_angle_alpha   90.00000000
_cell_angle_beta   90.00000000
_cell_angle_gamma   120.00000630
_symmetry_Int_Tables_number   1
_chemical_formula_structural   K2Tl4Au3
_chemical_formula_sum   'K8 Tl16 Au12'
_cell_volume   1085.67260688
_cell_formula_units_Z   4
loop_
 _symmetry_equiv_pos_site_id
 _symmetry_equiv_pos_as_xyz
  1  'x, y, z'
loop_
 _atom_site_type_symbol
 _atom_site_label
 _atom_site_symmetry_multiplicity
 _atom_site_fract_x
 _atom_site_fract_y
 _atom_site_fract_z
 _atom_site_occupancy
  K  K0  1  0.450952  0.000000  0.000000  1
  K  K1  1  0.000000  0.450952  0.000000  1
  K  K2  1  0.549048  0.549048  0.000000  1
  K  K3  1  0.333333  0.666667  0.000000  1
  K  K4  1  0.666667  0.333333  0.000000  1
  K  K5  1  0.817655  0.000000  0.500000  1
  K  K6  1  0.000000  0.817655  0.500000  1
  K  K7  1  0.182345  0.182345  0.500000  1
  Tl  Tl8  1  0.180053  0.377852  0.000000  1
  Tl  Tl9  1  0.622148  0.802203  0.000000  1
  Tl  Tl10  1  0.377852  0.180053  0.000000  1
  Tl  Tl11  1  0.197797  0.819947  0.000000  1
  Tl  Tl12  1  0.802203  0.622148  0.000000  1
  Tl  Tl13  1  0.819947  0.197797  0.000000  1
  Tl  Tl14  1  0.278976  0.000000  0.500000  1
  Tl  Tl15  1  0.000000  0.278976  0.500000  1
  Tl  Tl16  1  0.721024  0.721024  0.500000  1
  Tl  Tl17  1  0.351921  0.477836  0.500000  1
  Tl  Tl18  1  0.522164  0.874085  0.500000  1
  Tl  Tl19  1  0.477836  0.351921  0.500000  1
  Tl  Tl20  1  0.125915  0.648079  0.500000  1
  Tl  Tl21  1  0.874085  0.522164  0.500000  1
  Tl  Tl22  1  0.648079  0.125915  0.500000  1
  Tl  Tl23  1  0.000000  0.000000  0.000000  1
  Au  Au24  1  0.172792  0.489537  0.500000  1
  Au  Au25  1  0.510463  0.683254  0.500000  1
  Au  Au26  1  0.489537  0.172792  0.500000  1
  Au  Au27  1  0.316746  0.827208  0.500000  1
  Au  Au28  1  0.683254  0.510463  0.500000  1
  Au  Au29  1  0.827208  0.316746  0.500000  1
  Au  Au30  1  0.178657  0.000000  0.000000  1
  Au  Au31  1  0.000000  0.178657  0.000000  1
  Au  Au32  1  0.821343  0.821343  0.000000  1
  Au  Au33  1  0.652997  0.000000  0.000000  1
  Au  Au34  1  0.000000  0.652997  0.000000  1
  Au  Au35  1  0.347003  0.347003  0.000000  1
