# generated using pymatgen
data_LiNp6TaP10
_symmetry_space_group_name_H-M   'P 1'
_cell_length_a   8.22532900
_cell_length_b   8.22532713
_cell_length_c   5.52515900
_cell_angle_alpha   90.00000000
_cell_angle_beta   90.00000000
_cell_angle_gamma   120.00000349
_symmetry_Int_Tables_number   1
_chemical_formula_structural   LiNp6TaP10
_chemical_formula_sum   'Li1 Np6 Ta1 P10'
_cell_volume   323.72918530
_cell_formula_units_Z   1
loop_
 _symmetry_equiv_pos_site_id
 _symmetry_equiv_pos_as_xyz
  1  'x, y, z'
loop_
 _atom_site_type_symbol
 _atom_site_label
 _atom_site_symmetry_multiplicity
 _atom_site_fract_x
 _atom_site_fract_y
 _atom_site_fract_z
 _atom_site_occupancy
  Li  Li0  1  0.000000  0.000000  0.500000  1
  Np  Np1  1  0.616874  0.000000  0.748948  1
  Np  Np2  1  0.383126  0.000000  0.251052  1
  Np  Np3  1  0.000000  0.616874  0.748948  1
  Np  Np4  1  0.000000  0.383126  0.251052  1
  Np  Np5  1  0.383126  0.383126  0.748948  1
  Np  Np6  1  0.616874  0.616874  0.251052  1
  Ta  Ta7  1  0.000000  0.000000  0.000000  1
  P  P8  1  0.259459  0.000000  0.748060  1
  P  P9  1  0.740541  0.000000  0.251940  1
  P  P10  1  0.000000  0.259459  0.748060  1
  P  P11  1  0.000000  0.740541  0.251940  1
  P  P12  1  0.740541  0.740541  0.748060  1
  P  P13  1  0.259459  0.259459  0.251940  1
  P  P14  1  0.333333  0.666667  0.500000  1
  P  P15  1  0.666667  0.333333  0.500000  1
  P  P16  1  0.666667  0.333333  0.000000  1
  P  P17  1  0.333333  0.666667  0.000000  1
