# generated using pymatgen
data_NaSr11(GeAu)12
_symmetry_space_group_name_H-M   'P 1'
_cell_length_a   4.66407400
_cell_length_b   7.99174124
_cell_length_c   23.15439903
_cell_angle_alpha   89.98861067
_cell_angle_beta   90.00000000
_cell_angle_gamma   90.00000000
_symmetry_Int_Tables_number   1
_chemical_formula_structural   NaSr11(GeAu)12
_chemical_formula_sum   'Na1 Sr11 Ge12 Au12'
_cell_volume   863.05873200
_cell_formula_units_Z   1
loop_
 _symmetry_equiv_pos_site_id
 _symmetry_equiv_pos_as_xyz
  1  'x, y, z'
loop_
 _atom_site_type_symbol
 _atom_site_label
 _atom_site_symmetry_multiplicity
 _atom_site_fract_x
 _atom_site_fract_y
 _atom_site_fract_z
 _atom_site_occupancy
  Na  Na0  1  0.750000  0.205774  0.833639  1
  Sr  Sr1  1  0.250000  0.795578  0.166071  1
  Sr  Sr2  1  0.250000  0.784516  0.502084  1
  Sr  Sr3  1  0.250000  0.704911  0.332456  1
  Sr  Sr4  1  0.750000  0.215126  0.499603  1
  Sr  Sr5  1  0.750000  0.293856  0.670070  1
  Sr  Sr6  1  0.750000  0.280790  0.995599  1
  Sr  Sr7  1  0.250000  0.799217  0.831469  1
  Sr  Sr8  1  0.250000  0.716089  0.999355  1
  Sr  Sr9  1  0.750000  0.205935  0.167472  1
  Sr  Sr10  1  0.750000  0.296363  0.333558  1
  Sr  Sr11  1  0.250000  0.703334  0.668130  1
  Ge  Ge12  1  0.250000  0.409801  0.891397  1
  Ge  Ge13  1  0.750000  0.919782  0.727556  1
  Ge  Ge14  1  0.750000  0.582502  0.224985  1
  Ge  Ge15  1  0.250000  0.091591  0.069159  1
  Ge  Ge16  1  0.750000  0.912198  0.930586  1
  Ge  Ge17  1  0.750000  0.916531  0.608225  1
  Ge  Ge18  1  0.250000  0.410017  0.567466  1
  Ge  Ge19  1  0.250000  0.083596  0.393596  1
  Ge  Ge20  1  0.250000  0.082026  0.274653  1
  Ge  Ge21  1  0.750000  0.590821  0.432672  1
  Ge  Ge22  1  0.250000  0.409573  0.776830  1
  Ge  Ge23  1  0.750000  0.583277  0.105585  1
  Au  Au24  1  0.750000  0.584519  0.902427  1
  Au  Au25  1  0.250000  0.417867  0.431629  1
  Au  Au26  1  0.750000  0.581773  0.570725  1
  Au  Au27  1  0.750000  0.915390  0.404409  1
  Au  Au28  1  0.250000  0.416145  0.094646  1
  Au  Au29  1  0.250000  0.414839  0.236948  1
  Au  Au30  1  0.750000  0.914545  0.262902  1
  Au  Au31  1  0.250000  0.090298  0.739707  1
  Au  Au32  1  0.250000  0.084831  0.925859  1
  Au  Au33  1  0.750000  0.918542  0.067675  1
  Au  Au34  1  0.250000  0.084491  0.596306  1
  Au  Au35  1  0.750000  0.583556  0.764547  1
