# generated using pymatgen
data_Th2Mn3Fe8NiP7
_symmetry_space_group_name_H-M   'P 1'
_cell_length_a   9.14144849
_cell_length_b   9.12552139
_cell_length_c   3.70850600
_cell_angle_alpha   90.00000000
_cell_angle_beta   90.00000000
_cell_angle_gamma   120.14261731
_symmetry_Int_Tables_number   1
_chemical_formula_structural   Th2Mn3Fe8NiP7
_chemical_formula_sum   'Th2 Mn3 Fe8 Ni1 P7'
_cell_volume   267.53240798
_cell_formula_units_Z   1
loop_
 _symmetry_equiv_pos_site_id
 _symmetry_equiv_pos_as_xyz
  1  'x, y, z'
loop_
 _atom_site_type_symbol
 _atom_site_label
 _atom_site_symmetry_multiplicity
 _atom_site_fract_x
 _atom_site_fract_y
 _atom_site_fract_z
 _atom_site_occupancy
  Th  Th0  1  0.332963  0.666193  0.000000  1
  Th  Th1  1  0.000029  0.999018  0.500000  1
  Mn  Mn2  1  0.776554  0.227348  0.500000  1
  Mn  Mn3  1  0.772821  0.550753  0.500000  1
  Mn  Mn4  1  0.450580  0.223015  0.500000  1
  Fe  Fe5  1  0.727801  0.758697  0.000000  1
  Fe  Fe6  1  0.239809  0.968950  0.000000  1
  Fe  Fe7  1  0.544603  0.060007  0.000000  1
  Fe  Fe8  1  0.940389  0.486778  0.000000  1
  Fe  Fe9  1  0.516298  0.456266  0.000000  1
  Fe  Fe10  1  0.614602  0.897907  0.500000  1
  Fe  Fe11  1  0.102556  0.718709  0.500000  1
  Fe  Fe12  1  0.282780  0.384149  0.500000  1
  Ni  Ni13  1  0.033488  0.269506  0.000000  1
  P  P14  1  0.762570  0.020668  0.000000  1
  P  P15  1  0.972004  0.740419  0.000000  1
  P  P16  1  0.264150  0.232253  0.000000  1
  P  P17  1  0.375882  0.935083  0.500000  1
  P  P18  1  0.064374  0.446927  0.500000  1
  P  P19  1  0.557885  0.623034  0.500000  1
  P  P20  1  0.667867  0.334317  0.000000  1
