# generated using pymatgen
data_Ho6Er6OsRu3
_symmetry_space_group_name_H-M   'P 1'
_cell_length_a   6.27205315
_cell_length_b   7.31227919
_cell_length_c   9.05139422
_cell_angle_alpha   89.99983179
_cell_angle_beta   90.02500498
_cell_angle_gamma   90.08336289
_symmetry_Int_Tables_number   1
_chemical_formula_structural   Ho6Er6OsRu3
_chemical_formula_sum   'Ho6 Er6 Os1 Ru3'
_cell_volume   415.12364776
_cell_formula_units_Z   1
loop_
 _symmetry_equiv_pos_site_id
 _symmetry_equiv_pos_as_xyz
  1  'x, y, z'
loop_
 _atom_site_type_symbol
 _atom_site_label
 _atom_site_symmetry_multiplicity
 _atom_site_fract_x
 _atom_site_fract_y
 _atom_site_fract_z
 _atom_site_occupancy
  Ho  Ho0  1  0.333763  0.675552  0.062349  1
  Ho  Ho1  1  0.167234  0.176032  0.436213  1
  Ho  Ho2  1  0.868165  0.540088  0.250017  1
  Ho  Ho3  1  0.632156  0.039886  0.249988  1
  Ho  Ho4  1  0.130279  0.460507  0.749993  1
  Ho  Ho5  1  0.367873  0.961557  0.750004  1
  Er  Er6  1  0.667998  0.324356  0.563727  1
  Er  Er7  1  0.831608  0.823658  0.935684  1
  Er  Er8  1  0.668044  0.324256  0.936298  1
  Er  Er9  1  0.831537  0.823576  0.564304  1
  Er  Er10  1  0.333774  0.675474  0.437678  1
  Er  Er11  1  0.167198  0.175915  0.063754  1
  Os  Os12  1  0.539943  0.616475  0.749924  1
  Ru  Ru13  1  0.038868  0.883421  0.250008  1
  Ru  Ru14  1  0.460939  0.382992  0.249997  1
  Ru  Ru15  1  0.960618  0.116256  0.750062  1
