# generated using pymatgen
data_Ta3Mo7
_symmetry_space_group_name_H-M   'P 1'
_cell_length_a   4.52669673
_cell_length_b   5.29718249
_cell_length_c   10.62847543
_cell_angle_alpha   51.03615815
_cell_angle_beta   64.55811128
_cell_angle_gamma   89.91830143
_symmetry_Int_Tables_number   1
_chemical_formula_structural   Ta3Mo7
_chemical_formula_sum   'Ta3 Mo7'
_cell_volume   165.32159407
_cell_formula_units_Z   1
loop_
 _symmetry_equiv_pos_site_id
 _symmetry_equiv_pos_as_xyz
  1  'x, y, z'
loop_
 _atom_site_type_symbol
 _atom_site_label
 _atom_site_symmetry_multiplicity
 _atom_site_fract_x
 _atom_site_fract_y
 _atom_site_fract_z
 _atom_site_occupancy
  Ta  Ta0  1  0.204750  0.607431  0.662127  1
  Ta  Ta1  1  0.796852  0.999653  0.070579  1
  Ta  Ta2  1  0.000801  0.803664  0.366404  1
  Mo  Mo3  1  0.000863  0.803479  0.866341  1
  Mo  Mo4  1  0.602295  0.212872  0.264357  1
  Mo  Mo5  1  0.596602  0.196607  0.770786  1
  Mo  Mo6  1  0.404899  0.410238  0.962047  1
  Mo  Mo7  1  0.799355  0.008597  0.567753  1
  Mo  Mo8  1  0.399390  0.394454  0.468345  1
  Mo  Mo9  1  0.202166  0.598545  0.165076  1
