# generated using pymatgen
data_Ba2Nd4ScV3O14
_symmetry_space_group_name_H-M   'P 1'
_cell_length_a   5.72869398
_cell_length_b   5.72869398
_cell_length_c   20.41465200
_cell_angle_alpha   90.00000000
_cell_angle_beta   90.00000000
_cell_angle_gamma   89.66156729
_symmetry_Int_Tables_number   1
_chemical_formula_structural   Ba2Nd4ScV3O14
_chemical_formula_sum   'Ba4 Nd8 Sc2 V6 O28'
_cell_volume   669.95503008
_cell_formula_units_Z   2
loop_
 _symmetry_equiv_pos_site_id
 _symmetry_equiv_pos_as_xyz
  1  'x, y, z'
loop_
 _atom_site_type_symbol
 _atom_site_label
 _atom_site_symmetry_multiplicity
 _atom_site_fract_x
 _atom_site_fract_y
 _atom_site_fract_z
 _atom_site_occupancy
  Ba  Ba0  1  0.257722  0.257722  0.002898  1
  Ba  Ba1  1  0.742277  0.742277  0.002898  1
  Ba  Ba2  1  0.751938  0.248062  0.500040  1
  Ba  Ba3  1  0.248062  0.751938  0.500040  1
  Nd  Nd4  1  0.271929  0.271929  0.185154  1
  Nd  Nd5  1  0.728072  0.728072  0.185154  1
  Nd  Nd6  1  0.770890  0.229110  0.318716  1
  Nd  Nd7  1  0.229110  0.770890  0.318716  1
  Nd  Nd8  1  0.770155  0.229845  0.681129  1
  Nd  Nd9  1  0.229845  0.770155  0.681129  1
  Nd  Nd10  1  0.273492  0.273492  0.814290  1
  Nd  Nd11  1  0.726509  0.726509  0.814290  1
  Sc  Sc12  1  0.757031  0.242970  0.901214  1
  Sc  Sc13  1  0.242970  0.757031  0.901214  1
  V  V14  1  0.753764  0.246237  0.104810  1
  V  V15  1  0.246237  0.753764  0.104810  1
  V  V16  1  0.252286  0.252286  0.398606  1
  V  V17  1  0.747714  0.747714  0.398606  1
  V  V18  1  0.251584  0.251584  0.600779  1
  V  V19  1  0.748416  0.748416  0.600779  1
  O  O20  1  0.777993  0.222006  0.003286  1
  O  O21  1  0.222006  0.777993  0.003286  1
  O  O22  1  0.499999  0.499999  0.097418  1
  O  O23  1  0.499999  0.000000  0.112221  1
  O  O24  1  0.000000  0.499999  0.112221  1
  O  O25  1  0.000000  0.000000  0.127628  1
  O  O26  1  0.698436  0.301563  0.208679  1
  O  O27  1  0.301563  0.698436  0.208679  1
  O  O28  1  0.199863  0.199863  0.293358  1
  O  O29  1  0.800138  0.800138  0.293358  1
  O  O30  1  0.499999  0.499999  0.376010  1
  O  O31  1  0.499999  0.000000  0.389233  1
  O  O32  1  0.000000  0.499999  0.389233  1
  O  O33  1  0.000000  0.000000  0.403154  1
  O  O34  1  0.271945  0.271945  0.498781  1
  O  O35  1  0.728055  0.728055  0.498781  1
  O  O36  1  0.000000  0.000000  0.594256  1
  O  O37  1  0.499999  0.000000  0.608761  1
  O  O38  1  0.000000  0.499999  0.608761  1
  O  O39  1  0.499999  0.499999  0.621762  1
  O  O40  1  0.198115  0.198115  0.704959  1
  O  O41  1  0.801886  0.801886  0.704959  1
  O  O42  1  0.692113  0.307886  0.788613  1
  O  O43  1  0.307886  0.692113  0.788613  1
  O  O44  1  0.000000  0.000000  0.871209  1
  O  O45  1  0.499999  0.000000  0.886821  1
  O  O46  1  0.000000  0.499999  0.886821  1
  O  O47  1  0.499999  0.499999  0.903863  1
