# generated using pymatgen
data_Eu2Cu2Ni5
_symmetry_space_group_name_H-M   'P 1'
_cell_length_a   5.06940535
_cell_length_b   5.06940518
_cell_length_c   12.44398728
_cell_angle_alpha   78.24723528
_cell_angle_beta   78.24723629
_cell_angle_gamma   60.00000119
_symmetry_Int_Tables_number   1
_chemical_formula_structural   Eu2Cu2Ni5
_chemical_formula_sum   'Eu4 Cu4 Ni10'
_cell_volume   269.18250033
_cell_formula_units_Z   2
loop_
 _symmetry_equiv_pos_site_id
 _symmetry_equiv_pos_as_xyz
  1  'x, y, z'
loop_
 _atom_site_type_symbol
 _atom_site_label
 _atom_site_symmetry_multiplicity
 _atom_site_fract_x
 _atom_site_fract_y
 _atom_site_fract_z
 _atom_site_occupancy
  Eu  Eu0  1  0.949271  0.949271  0.152188  1
  Eu  Eu1  1  0.050729  0.050729  0.847812  1
  Eu  Eu2  1  0.852163  0.852163  0.443512  1
  Eu  Eu3  1  0.147837  0.147837  0.556488  1
  Cu  Cu4  1  0.721801  0.721801  0.834600  1
  Cu  Cu5  1  0.278199  0.278199  0.165400  1
  Cu  Cu6  1  0.611913  0.611913  0.164260  1
  Cu  Cu7  1  0.388087  0.388087  0.835740  1
  Ni  Ni8  1  0.500000  0.500000  0.500000  1
  Ni  Ni9  1  0.000000  0.500000  0.000000  1
  Ni  Ni10  1  0.500000  0.000000  0.000000  1
  Ni  Ni11  1  0.500000  0.500000  0.000000  1
  Ni  Ni12  1  0.390835  0.390835  0.329194  1
  Ni  Ni13  1  0.889136  0.390835  0.329194  1
  Ni  Ni14  1  0.390835  0.889136  0.329194  1
  Ni  Ni15  1  0.609165  0.609165  0.670806  1
  Ni  Ni16  1  0.110864  0.609165  0.670806  1
  Ni  Ni17  1  0.609165  0.110864  0.670806  1
