# generated using pymatgen
data_Hf4Zr2Bi2Rh
_symmetry_space_group_name_H-M   'P 1'
_cell_length_a   7.97644900
_cell_length_b   7.95828749
_cell_length_c   3.67703200
_cell_angle_alpha   90.00000000
_cell_angle_beta   90.00000000
_cell_angle_gamma   119.92470357
_symmetry_Int_Tables_number   1
_chemical_formula_structural   Hf4Zr2Bi2Rh
_chemical_formula_sum   'Hf4 Zr2 Bi2 Rh1'
_cell_volume   202.29552376
_cell_formula_units_Z   1
loop_
 _symmetry_equiv_pos_site_id
 _symmetry_equiv_pos_as_xyz
  1  'x, y, z'
loop_
 _atom_site_type_symbol
 _atom_site_label
 _atom_site_symmetry_multiplicity
 _atom_site_fract_x
 _atom_site_fract_y
 _atom_site_fract_z
 _atom_site_occupancy
  Hf  Hf0  1  0.000000  0.609003  0.500000  1
  Hf  Hf1  1  0.242435  0.999401  0.000000  1
  Hf  Hf2  1  0.757565  0.756964  0.000000  1
  Hf  Hf3  1  0.000000  0.241619  0.000000  1
  Zr  Zr4  1  0.603537  0.999502  0.500000  1
  Zr  Zr5  1  0.396463  0.395966  0.500000  1
  Bi  Bi6  1  0.331870  0.665838  0.000000  1
  Bi  Bi7  1  0.668130  0.333967  0.000000  1
  Rh  Rh8  1  0.000000  0.997741  0.500000  1
