# generated using pymatgen
data_YHo15In4Ir3Ru
_symmetry_space_group_name_H-M   'P 1'
_cell_length_a   9.61150343
_cell_length_b   9.62337706
_cell_length_c   9.62725200
_cell_angle_alpha   59.98668611
_cell_angle_beta   59.94579052
_cell_angle_gamma   59.90518663
_symmetry_Int_Tables_number   1
_chemical_formula_structural   YHo15In4Ir3Ru
_chemical_formula_sum   'Y1 Ho15 In4 Ir3 Ru1'
_cell_volume   628.88668955
_cell_formula_units_Z   1
loop_
 _symmetry_equiv_pos_site_id
 _symmetry_equiv_pos_as_xyz
  1  'x, y, z'
loop_
 _atom_site_type_symbol
 _atom_site_label
 _atom_site_symmetry_multiplicity
 _atom_site_fract_x
 _atom_site_fract_y
 _atom_site_fract_z
 _atom_site_occupancy
  Y  Y0  1  0.438229  0.440320  0.060726  1
  Ho  Ho1  1  0.650396  0.651594  0.045160  1
  Ho  Ho2  1  0.192958  0.810363  0.189134  1
  Ho  Ho3  1  0.059398  0.439731  0.060239  1
  Ho  Ho4  1  0.192958  0.810363  0.807544  1
  Ho  Ho5  1  0.059398  0.439731  0.440632  1
  Ho  Ho6  1  0.810252  0.191688  0.191169  1
  Ho  Ho7  1  0.650396  0.651594  0.652849  1
  Ho  Ho8  1  0.810252  0.191688  0.806892  1
  Ho  Ho9  1  0.193017  0.189869  0.808557  1
  Ho  Ho10  1  0.047181  0.650086  0.651367  1
  Ho  Ho11  1  0.439217  0.059129  0.059480  1
  Ho  Ho12  1  0.059741  0.060136  0.440062  1
  Ho  Ho13  1  0.649617  0.046395  0.651994  1
  Ho  Ho14  1  0.809354  0.808811  0.190918  1
  Ho  Ho15  1  0.439217  0.059129  0.442175  1
  In  In16  1  0.416945  0.416779  0.416780  1
  In  In17  1  0.416945  0.416779  0.749499  1
  In  In18  1  0.416763  0.749623  0.416808  1
  In  In19  1  0.748060  0.417446  0.417248  1
  Ir  Ir20  1  0.859201  0.858454  0.859251  1
  Ir  Ir21  1  0.859540  0.422478  0.858991  1
  Ir  Ir22  1  0.859201  0.858454  0.423094  1
  Ru  Ru23  1  0.421763  0.859364  0.859436  1
