# generated using pymatgen
data_Er8V11Si16Tc
_symmetry_space_group_name_H-M   'P 1'
_cell_length_a   6.80093428
_cell_length_b   6.80093521
_cell_length_c   12.59622111
_cell_angle_alpha   89.96814920
_cell_angle_beta   90.03185235
_cell_angle_gamma   89.74149158
_symmetry_Int_Tables_number   1
_chemical_formula_structural   Er8V11Si16Tc
_chemical_formula_sum   'Er8 V11 Si16 Tc1'
_cell_volume   582.60329398
_cell_formula_units_Z   1
loop_
 _symmetry_equiv_pos_site_id
 _symmetry_equiv_pos_as_xyz
  1  'x, y, z'
loop_
 _atom_site_type_symbol
 _atom_site_label
 _atom_site_symmetry_multiplicity
 _atom_site_fract_x
 _atom_site_fract_y
 _atom_site_fract_z
 _atom_site_occupancy
  Er  Er0  1  0.999826  0.662156  0.029278  1
  Er  Er1  1  0.837656  0.498204  0.280109  1
  Er  Er2  1  0.162768  0.499937  0.780528  1
  Er  Er3  1  0.498204  0.837656  0.719891  1
  Er  Er4  1  0.499937  0.162768  0.219472  1
  Er  Er5  1  0.001768  0.337854  0.529730  1
  Er  Er6  1  0.662156  0.999826  0.970722  1
  Er  Er7  1  0.337854  0.001768  0.470270  1
  V  V8  1  0.171575  0.832402  0.248012  1
  V  V9  1  0.832402  0.171575  0.751988  1
  V  V10  1  0.670101  0.670101  0.500000  1
  V  V11  1  0.004070  0.154824  0.126851  1
  V  V12  1  0.339390  0.507257  0.374469  1
  V  V13  1  0.665821  0.492089  0.873486  1
  V  V14  1  0.507257  0.339390  0.625531  1
  V  V15  1  0.492089  0.665821  0.126514  1
  V  V16  1  0.991028  0.839421  0.624398  1
  V  V17  1  0.154824  0.004070  0.873149  1
  V  V18  1  0.839421  0.991028  0.375602  1
  Si  Si19  1  0.286678  0.961455  0.063334  1
  Si  Si20  1  0.540337  0.788955  0.315412  1
  Si  Si21  1  0.458641  0.211325  0.815407  1
  Si  Si22  1  0.788955  0.540337  0.684588  1
  Si  Si23  1  0.211325  0.458641  0.184593  1
  Si  Si24  1  0.711734  0.041401  0.565510  1
  Si  Si25  1  0.961455  0.286678  0.936666  1
  Si  Si26  1  0.041401  0.711734  0.434490  1
  Si  Si27  1  0.697967  0.378586  0.065708  1
  Si  Si28  1  0.124471  0.198406  0.315307  1
  Si  Si29  1  0.875391  0.799119  0.814888  1
  Si  Si30  1  0.198406  0.124471  0.684693  1
  Si  Si31  1  0.799119  0.875391  0.185112  1
  Si  Si32  1  0.300889  0.624681  0.564862  1
  Si  Si33  1  0.378586  0.697967  0.934292  1
  Si  Si34  1  0.624681  0.300889  0.435138  1
  Tc  Tc35  1  0.331819  0.331819  0.000000  1
