# generated using pymatgen
data_V11GaFeSi3
_symmetry_space_group_name_H-M   'P 1'
_cell_length_a   4.70003100
_cell_length_b   4.71168200
_cell_length_c   9.34615400
_cell_angle_alpha   90.00000000
_cell_angle_beta   90.00000000
_cell_angle_gamma   90.00000000
_symmetry_Int_Tables_number   1
_chemical_formula_structural   V11GaFeSi3
_chemical_formula_sum   'V11 Ga1 Fe1 Si3'
_cell_volume   206.97106130
_cell_formula_units_Z   1
loop_
 _symmetry_equiv_pos_site_id
 _symmetry_equiv_pos_as_xyz
  1  'x, y, z'
loop_
 _atom_site_type_symbol
 _atom_site_label
 _atom_site_symmetry_multiplicity
 _atom_site_fract_x
 _atom_site_fract_y
 _atom_site_fract_z
 _atom_site_occupancy
  V  V0  1  0.998721  0.500000  0.124952  1
  V  V1  1  0.000440  0.500000  0.631053  1
  V  V2  1  0.499359  0.247548  0.748206  1
  V  V3  1  0.499359  0.247548  0.251794  1
  V  V4  1  0.749549  0.000000  0.500000  1
  V  V5  1  0.998721  0.500000  0.875048  1
  V  V6  1  0.000440  0.500000  0.368947  1
  V  V7  1  0.499359  0.752452  0.748206  1
  V  V8  1  0.499359  0.752452  0.251794  1
  V  V9  1  0.245771  0.000000  0.000000  1
  V  V10  1  0.254235  0.000000  0.500000  1
  Ga  Ga11  1  0.500993  0.500000  0.000000  1
  Fe  Fe12  1  0.753128  0.000000  0.000000  1
  Si  Si13  1  0.497631  0.500000  0.500000  1
  Si  Si14  1  0.001468  0.000000  0.751885  1
  Si  Si15  1  0.001468  0.000000  0.248115  1
