# generated using pymatgen
data_Nd3Fe2Co(NiP)6
_symmetry_space_group_name_H-M   'P 1'
_cell_length_a   3.80672600
_cell_length_b   10.74254900
_cell_length_c   12.50416600
_cell_angle_alpha   90.00000000
_cell_angle_beta   90.00000000
_cell_angle_gamma   90.00000000
_symmetry_Int_Tables_number   1
_chemical_formula_structural   Nd3Fe2Co(NiP)6
_chemical_formula_sum   'Nd6 Fe4 Co2 Ni12 P12'
_cell_volume   511.34462146
_cell_formula_units_Z   2
loop_
 _symmetry_equiv_pos_site_id
 _symmetry_equiv_pos_as_xyz
  1  'x, y, z'
loop_
 _atom_site_type_symbol
 _atom_site_label
 _atom_site_symmetry_multiplicity
 _atom_site_fract_x
 _atom_site_fract_y
 _atom_site_fract_z
 _atom_site_occupancy
  Nd  Nd0  1  0.000000  0.500000  0.517631  1
  Nd  Nd1  1  0.500000  0.000000  0.481768  1
  Nd  Nd2  1  0.500000  0.815048  0.205335  1
  Nd  Nd3  1  0.500000  0.184952  0.205335  1
  Nd  Nd4  1  0.000000  0.684528  0.794742  1
  Nd  Nd5  1  0.000000  0.315472  0.794742  1
  Fe  Fe6  1  0.500000  0.500000  0.150444  1
  Fe  Fe7  1  0.000000  0.000000  0.847100  1
  Fe  Fe8  1  0.500000  0.332840  0.995379  1
  Fe  Fe9  1  0.500000  0.667160  0.995379  1
  Co  Co10  1  0.000000  0.500000  0.985165  1
  Co  Co11  1  0.500000  0.000000  0.013506  1
  Ni  Ni12  1  0.500000  0.500000  0.703378  1
  Ni  Ni13  1  0.000000  0.000000  0.299654  1
  Ni  Ni14  1  0.000000  0.165425  0.005722  1
  Ni  Ni15  1  0.000000  0.834575  0.005722  1
  Ni  Ni16  1  0.500000  0.302080  0.425002  1
  Ni  Ni17  1  0.500000  0.697920  0.425002  1
  Ni  Ni18  1  0.000000  0.198446  0.574389  1
  Ni  Ni19  1  0.000000  0.801554  0.574389  1
  Ni  Ni20  1  0.500000  0.883054  0.714589  1
  Ni  Ni21  1  0.500000  0.116946  0.714589  1
  Ni  Ni22  1  0.000000  0.617480  0.284506  1
  Ni  Ni23  1  0.000000  0.382520  0.284506  1
  P  P24  1  0.500000  0.500000  0.887414  1
  P  P25  1  0.000000  0.000000  0.119280  1
  P  P26  1  0.500000  0.500000  0.335567  1
  P  P27  1  0.000000  0.000000  0.663586  1
  P  P28  1  0.500000  0.309307  0.613143  1
  P  P29  1  0.500000  0.690693  0.613143  1
  P  P30  1  0.000000  0.190608  0.388208  1
  P  P31  1  0.000000  0.809392  0.388208  1
  P  P32  1  0.500000  0.847418  0.897866  1
  P  P33  1  0.500000  0.152582  0.897866  1
  P  P34  1  0.000000  0.651752  0.098876  1
  P  P35  1  0.000000  0.348248  0.098876  1
