# generated using pymatgen
data_LaTb2WO7
_symmetry_space_group_name_H-M   'P 1'
_cell_length_a   6.56021123
_cell_length_b   6.56021033
_cell_length_c   7.64114300
_cell_angle_alpha   90.00000000
_cell_angle_beta   90.00000000
_cell_angle_gamma   108.80970041
_symmetry_Int_Tables_number   1
_chemical_formula_structural   LaTb2WO7
_chemical_formula_sum   'La2 Tb4 W2 O14'
_cell_volume   311.28484416
_cell_formula_units_Z   2
loop_
 _symmetry_equiv_pos_site_id
 _symmetry_equiv_pos_as_xyz
  1  'x, y, z'
loop_
 _atom_site_type_symbol
 _atom_site_label
 _atom_site_symmetry_multiplicity
 _atom_site_fract_x
 _atom_site_fract_y
 _atom_site_fract_z
 _atom_site_occupancy
  La  La0  1  0.500000  0.500000  0.500000  1
  La  La1  1  0.500000  0.500000  0.000000  1
  Tb  Tb2  1  0.001077  0.533359  0.250000  1
  Tb  Tb3  1  0.998923  0.466641  0.750000  1
  Tb  Tb4  1  0.533359  0.001077  0.750000  1
  Tb  Tb5  1  0.466641  0.998923  0.250000  1
  W  W6  1  0.000000  0.000000  0.500000  1
  W  W7  1  0.000000  0.000000  0.000000  1
  O  O8  1  0.929444  0.070556  0.750000  1
  O  O9  1  0.070556  0.929444  0.250000  1
  O  O10  1  0.358067  0.641933  0.250000  1
  O  O11  1  0.641933  0.358067  0.750000  1
  O  O12  1  0.362229  0.637771  0.750000  1
  O  O13  1  0.637771  0.362229  0.250000  1
  O  O14  1  0.318793  0.068979  0.970983  1
  O  O15  1  0.681207  0.931021  0.470983  1
  O  O16  1  0.318793  0.068979  0.529017  1
  O  O17  1  0.681207  0.931021  0.029017  1
  O  O18  1  0.068979  0.318793  0.470983  1
  O  O19  1  0.931021  0.681207  0.970983  1
  O  O20  1  0.931021  0.681207  0.529017  1
  O  O21  1  0.068979  0.318793  0.029017  1
