# generated using pymatgen
data_Nb2NiF12
_symmetry_space_group_name_H-M   'P 1'
_cell_length_a   5.54120101
_cell_length_b   11.26466627
_cell_length_c   5.57695534
_cell_angle_alpha   57.63329870
_cell_angle_beta   57.16337628
_cell_angle_gamma   57.49816272
_symmetry_Int_Tables_number   1
_chemical_formula_structural   Nb2NiF12
_chemical_formula_sum   'Nb2 Ni1 F12'
_cell_volume   231.59792113
_cell_formula_units_Z   1
loop_
 _symmetry_equiv_pos_site_id
 _symmetry_equiv_pos_as_xyz
  1  'x, y, z'
loop_
 _atom_site_type_symbol
 _atom_site_label
 _atom_site_symmetry_multiplicity
 _atom_site_fract_x
 _atom_site_fract_y
 _atom_site_fract_z
 _atom_site_occupancy
  Nb  Nb0  1  0.495280  0.241394  0.516434  1
  Nb  Nb1  1  0.504720  0.758606  0.483566  1
  Ni  Ni2  1  0.000000  0.500000  0.000000  1
  F  F3  1  0.131062  0.200040  0.727712  1
  F  F4  1  0.171826  0.670077  0.747111  1
  F  F5  1  0.346690  0.375630  0.163135  1
  F  F6  1  0.389092  0.862722  0.142579  1
  F  F7  1  0.738983  0.079579  0.373940  1
  F  F8  1  0.741205  0.577679  0.349743  1
  F  F9  1  0.258795  0.422321  0.650257  1
  F  F10  1  0.261017  0.920421  0.626060  1
  F  F11  1  0.610908  0.137278  0.857421  1
  F  F12  1  0.653310  0.624370  0.836865  1
  F  F13  1  0.828174  0.329923  0.252889  1
  F  F14  1  0.868938  0.799960  0.272288  1
