# generated using pymatgen
data_Tb9Y7MgTl(InPt2)2
_symmetry_space_group_name_H-M   'P 1'
_cell_length_a   9.74904570
_cell_length_b   9.80842086
_cell_length_c   9.79760228
_cell_angle_alpha   59.90474577
_cell_angle_beta   59.98043184
_cell_angle_gamma   60.05452902
_symmetry_Int_Tables_number   1
_chemical_formula_structural   Tb9Y7MgTl(InPt2)2
_chemical_formula_sum   'Tb9 Y7 Mg1 Tl1 In2 Pt4'
_cell_volume   662.16551276
_cell_formula_units_Z   1
loop_
 _symmetry_equiv_pos_site_id
 _symmetry_equiv_pos_as_xyz
  1  'x, y, z'
loop_
 _atom_site_type_symbol
 _atom_site_label
 _atom_site_symmetry_multiplicity
 _atom_site_fract_x
 _atom_site_fract_y
 _atom_site_fract_z
 _atom_site_occupancy
  Tb  Tb0  1  0.598309  0.598299  0.598200  1
  Tb  Tb1  1  0.600062  0.600689  0.198356  1
  Tb  Tb2  1  0.600157  0.198651  0.600504  1
  Tb  Tb3  1  0.193460  0.601714  0.601470  1
  Tb  Tb4  1  0.058340  0.442096  0.441987  1
  Tb  Tb5  1  0.438865  0.060617  0.060809  1
  Tb  Tb6  1  0.439380  0.061391  0.439200  1
  Tb  Tb7  1  0.058031  0.442513  0.058686  1
  Tb  Tb8  1  0.439254  0.439443  0.061261  1
  Y  Y9  1  0.057569  0.057359  0.443820  1
  Y  Y10  1  0.187865  0.814493  0.814474  1
  Y  Y11  1  0.813076  0.186953  0.186935  1
  Y  Y12  1  0.814174  0.185922  0.813544  1
  Y  Y13  1  0.187916  0.812085  0.187697  1
  Y  Y14  1  0.814141  0.813284  0.186098  1
  Y  Y15  1  0.187811  0.187613  0.812310  1
  Mg  Mg16  1  0.520488  0.826232  0.826047  1
  Tl  Tl17  1  0.834646  0.837130  0.836502  1
  In  In18  1  0.831823  0.833737  0.499452  1
  In  In19  1  0.831760  0.499546  0.833380  1
  Pt  Pt20  1  0.391171  0.393923  0.394039  1
  Pt  Pt21  1  0.389512  0.392327  0.821955  1
  Pt  Pt22  1  0.390094  0.822062  0.392126  1
  Pt  Pt23  1  0.822097  0.391923  0.391151  1
