# generated using pymatgen
data_Cs7K3(Bi2Au)2
_symmetry_space_group_name_H-M   'P 1'
_cell_length_a   6.51481200
_cell_length_b   6.51481053
_cell_length_c   22.32193400
_cell_angle_alpha   90.00000000
_cell_angle_beta   90.00000000
_cell_angle_gamma   120.00000744
_symmetry_Int_Tables_number   1
_chemical_formula_structural   Cs7K3(Bi2Au)2
_chemical_formula_sum   'Cs7 K3 Bi4 Au2'
_cell_volume   820.47640526
_cell_formula_units_Z   1
loop_
 _symmetry_equiv_pos_site_id
 _symmetry_equiv_pos_as_xyz
  1  'x, y, z'
loop_
 _atom_site_type_symbol
 _atom_site_label
 _atom_site_symmetry_multiplicity
 _atom_site_fract_x
 _atom_site_fract_y
 _atom_site_fract_z
 _atom_site_occupancy
  Cs  Cs0  1  0.333333  0.666667  0.550068  1
  Cs  Cs1  1  0.666667  0.333333  0.048879  1
  Cs  Cs2  1  0.666667  0.333333  0.449801  1
  Cs  Cs3  1  0.333333  0.666667  0.949219  1
  Cs  Cs4  1  0.000000  0.000000  0.160633  1
  Cs  Cs5  1  0.333333  0.666667  0.750279  1
  Cs  Cs6  1  0.666667  0.333333  0.250681  1
  K  K7  1  0.000000  0.000000  0.647962  1
  K  K8  1  0.000000  0.000000  0.851786  1
  K  K9  1  0.000000  0.000000  0.354683  1
  Bi  Bi10  1  0.333333  0.666667  0.121669  1
  Bi  Bi11  1  0.666667  0.333333  0.624502  1
  Bi  Bi12  1  0.333333  0.666667  0.371543  1
  Bi  Bi13  1  0.666667  0.333333  0.872767  1
  Au  Au14  1  0.666667  0.333333  0.748957  1
  Au  Au15  1  0.333333  0.666667  0.246569  1
