# generated using pymatgen
data_TcOs(Br3O)2
_symmetry_space_group_name_H-M   'P 1'
_cell_length_a   3.71959134
_cell_length_b   11.90040600
_cell_length_c   11.94101583
_cell_angle_alpha   90.00000000
_cell_angle_beta   89.48090511
_cell_angle_gamma   90.00000000
_symmetry_Int_Tables_number   1
_chemical_formula_structural   TcOs(Br3O)2
_chemical_formula_sum   'Tc2 Os2 Br12 O4'
_cell_volume   528.54315844
_cell_formula_units_Z   2
loop_
 _symmetry_equiv_pos_site_id
 _symmetry_equiv_pos_as_xyz
  1  'x, y, z'
loop_
 _atom_site_type_symbol
 _atom_site_label
 _atom_site_symmetry_multiplicity
 _atom_site_fract_x
 _atom_site_fract_y
 _atom_site_fract_z
 _atom_site_occupancy
  Tc  Tc0  1  0.505663  0.617394  0.381570  1
  Tc  Tc1  1  0.005663  0.882606  0.881570  1
  Os  Os2  1  0.494830  0.385375  0.614423  1
  Os  Os3  1  0.994830  0.114625  0.114423  1
  Br  Br4  1  0.488583  0.388718  0.821359  1
  Br  Br5  1  0.510950  0.603487  0.177094  1
  Br  Br6  1  0.988583  0.111282  0.321359  1
  Br  Br7  1  0.010950  0.896513  0.677094  1
  Br  Br8  1  0.506454  0.823119  0.396372  1
  Br  Br9  1  0.493254  0.177110  0.610687  1
  Br  Br10  1  0.993254  0.322890  0.110687  1
  Br  Br11  1  0.006454  0.676881  0.896372  1
  Br  Br12  1  0.497057  0.602060  0.603053  1
  Br  Br13  1  0.503040  0.396459  0.399023  1
  Br  Br14  1  0.997057  0.897940  0.103053  1
  Br  Br15  1  0.003040  0.103541  0.899023  1
  O  O16  1  0.994749  0.387126  0.612399  1
  O  O17  1  0.005420  0.614968  0.384020  1
  O  O18  1  0.494749  0.112874  0.112399  1
  O  O19  1  0.505420  0.885032  0.884020  1
