# generated using pymatgen
data_Sc12ZnNi5Os6
_symmetry_space_group_name_H-M   'P 1'
_cell_length_a   4.50879400
_cell_length_b   6.49327500
_cell_length_c   13.51607100
_cell_angle_alpha   89.99996540
_cell_angle_beta   90.00103818
_cell_angle_gamma   89.99997847
_symmetry_Int_Tables_number   1
_chemical_formula_structural   Sc12ZnNi5Os6
_chemical_formula_sum   'Sc12 Zn1 Ni5 Os6'
_cell_volume   395.70783942
_cell_formula_units_Z   1
loop_
 _symmetry_equiv_pos_site_id
 _symmetry_equiv_pos_as_xyz
  1  'x, y, z'
loop_
 _atom_site_type_symbol
 _atom_site_label
 _atom_site_symmetry_multiplicity
 _atom_site_fract_x
 _atom_site_fract_y
 _atom_site_fract_z
 _atom_site_occupancy
  Sc  Sc0  1  0.499966  0.245872  0.003849  1
  Sc  Sc1  1  0.499966  0.754128  0.003849  1
  Sc  Sc2  1  0.999643  0.250823  0.167640  1
  Sc  Sc3  1  0.999643  0.749177  0.167640  1
  Sc  Sc4  1  0.499654  0.249509  0.333327  1
  Sc  Sc5  1  0.499655  0.750491  0.333327  1
  Sc  Sc6  1  0.000009  0.250808  0.498992  1
  Sc  Sc7  1  0.000010  0.749193  0.498993  1
  Sc  Sc8  1  0.500353  0.245866  0.662825  1
  Sc  Sc9  1  0.500352  0.754135  0.662824  1
  Sc  Sc10  1  0.000394  0.241450  0.833363  1
  Sc  Sc11  1  0.000393  0.758550  0.833363  1
  Zn  Zn12  1  0.500564  0.500000  0.833332  1
  Ni  Ni13  1  0.999985  0.999999  0.000754  1
  Ni  Ni14  1  0.499432  0.500000  0.167482  1
  Ni  Ni15  1  0.999472  0.000000  0.333256  1
  Ni  Ni16  1  0.500008  0.500000  0.499200  1
  Ni  Ni17  1  0.000547  0.000000  0.666003  1
  Os  Os18  1  0.999950  0.500000  0.998206  1
  Os  Os19  1  0.499615  0.000000  0.167843  1
  Os  Os20  1  0.999636  0.500000  0.333312  1
  Os  Os21  1  0.499999  0.000000  0.498816  1
  Os  Os22  1  0.000364  0.500000  0.668475  1
  Os  Os23  1  0.500391  0.000000  0.833327  1
