# generated using pymatgen
data_Hf4Zr12Ir5Rh3N4
_symmetry_space_group_name_H-M   'P 1'
_cell_length_a   8.79104865
_cell_length_b   8.80394344
_cell_length_c   8.80394300
_cell_angle_alpha   60.00000540
_cell_angle_beta   59.95147188
_cell_angle_gamma   59.95146937
_symmetry_Int_Tables_number   1
_chemical_formula_structural   Hf4Zr12Ir5Rh3N4
_chemical_formula_sum   'Hf4 Zr12 Ir5 Rh3 N4'
_cell_volume   481.46111252
_cell_formula_units_Z   1
loop_
 _symmetry_equiv_pos_site_id
 _symmetry_equiv_pos_as_xyz
  1  'x, y, z'
loop_
 _atom_site_type_symbol
 _atom_site_label
 _atom_site_symmetry_multiplicity
 _atom_site_fract_x
 _atom_site_fract_y
 _atom_site_fract_z
 _atom_site_occupancy
  Hf  Hf0  1  0.112831  0.629056  0.629056  1
  Hf  Hf1  1  0.628556  0.116539  0.627452  1
  Hf  Hf2  1  0.628556  0.627452  0.116539  1
  Hf  Hf3  1  0.628556  0.627452  0.627452  1
  Zr  Zr4  1  0.814678  0.813865  0.185729  1
  Zr  Zr5  1  0.187160  0.185390  0.813725  1
  Zr  Zr6  1  0.814678  0.185729  0.813865  1
  Zr  Zr7  1  0.187160  0.813725  0.185390  1
  Zr  Zr8  1  0.187160  0.813725  0.813725  1
  Zr  Zr9  1  0.814678  0.185729  0.185729  1
  Zr  Zr10  1  0.434414  0.433892  0.065847  1
  Zr  Zr11  1  0.068023  0.066247  0.432865  1
  Zr  Zr12  1  0.434414  0.065847  0.433892  1
  Zr  Zr13  1  0.068023  0.432865  0.066247  1
  Zr  Zr14  1  0.068023  0.432865  0.432865  1
  Zr  Zr15  1  0.434414  0.065847  0.065847  1
  Ir  Ir16  1  0.757110  0.414296  0.414296  1
  Ir  Ir17  1  0.413609  0.754960  0.415715  1
  Ir  Ir18  1  0.413609  0.415715  0.754960  1
  Ir  Ir19  1  0.413609  0.415715  0.415715  1
  Ir  Ir20  1  0.473548  0.842151  0.842151  1
  Rh  Rh21  1  0.839327  0.476328  0.842173  1
  Rh  Rh22  1  0.839327  0.842173  0.476328  1
  Rh  Rh23  1  0.839327  0.842173  0.842173  1
  N  N24  1  0.624301  0.125233  0.125233  1
  N  N25  1  0.124970  0.624460  0.125285  1
  N  N26  1  0.124970  0.125285  0.624460  1
  N  N27  1  0.124970  0.125285  0.125285  1
