# generated using pymatgen
data_NdHoErSe4
_symmetry_space_group_name_H-M   'P 1'
_cell_length_a   4.06999400
_cell_length_b   7.12940332
_cell_length_c   6.99558000
_cell_angle_alpha   71.79135903
_cell_angle_beta   90.00000000
_cell_angle_gamma   90.00000000
_symmetry_Int_Tables_number   1
_chemical_formula_structural   NdHoErSe4
_chemical_formula_sum   'Nd1 Ho1 Er1 Se4'
_cell_volume   192.82350338
_cell_formula_units_Z   1
loop_
 _symmetry_equiv_pos_site_id
 _symmetry_equiv_pos_as_xyz
  1  'x, y, z'
loop_
 _atom_site_type_symbol
 _atom_site_label
 _atom_site_symmetry_multiplicity
 _atom_site_fract_x
 _atom_site_fract_y
 _atom_site_fract_z
 _atom_site_occupancy
  Nd  Nd0  1  0.000000  0.000000  0.000000  1
  Ho  Ho1  1  0.000000  0.500000  0.500000  1
  Er  Er2  1  0.500000  0.500000  0.000000  1
  Se  Se3  1  0.500000  0.742479  0.261444  1
  Se  Se4  1  0.000000  0.263669  0.246269  1
  Se  Se5  1  0.500000  0.257521  0.738556  1
  Se  Se6  1  0.000000  0.736331  0.753731  1
