# generated using pymatgen
data_Y6Ho5Er5(CdPt)4
_symmetry_space_group_name_H-M   'P 1'
_cell_length_a   9.65533801
_cell_length_b   9.65803415
_cell_length_c   9.65803392
_cell_angle_alpha   60.07194147
_cell_angle_beta   60.00923705
_cell_angle_gamma   60.00923398
_symmetry_Int_Tables_number   1
_chemical_formula_structural   Y6Ho5Er5(CdPt)4
_chemical_formula_sum   'Y6 Ho5 Er5 Cd4 Pt4'
_cell_volume   637.27398878
_cell_formula_units_Z   1
loop_
 _symmetry_equiv_pos_site_id
 _symmetry_equiv_pos_as_xyz
  1  'x, y, z'
loop_
 _atom_site_type_symbol
 _atom_site_label
 _atom_site_symmetry_multiplicity
 _atom_site_fract_x
 _atom_site_fract_y
 _atom_site_fract_z
 _atom_site_occupancy
  Y  Y0  1  0.935381  0.564619  0.564619  1
  Y  Y1  1  0.562385  0.937615  0.937615  1
  Y  Y2  1  0.563471  0.936581  0.563527  1
  Y  Y3  1  0.936420  0.563527  0.936581  1
  Y  Y4  1  0.563471  0.563527  0.936581  1
  Y  Y5  1  0.936420  0.936581  0.563527  1
  Ho  Ho6  1  0.350240  0.352361  0.352361  1
  Ho  Ho7  1  0.352632  0.354853  0.939882  1
  Ho  Ho8  1  0.352632  0.939882  0.354853  1
  Ho  Ho9  1  0.945036  0.352361  0.352361  1
  Ho  Ho10  1  0.810363  0.189637  0.189637  1
  Er  Er11  1  0.188109  0.811891  0.811891  1
  Er  Er12  1  0.189329  0.811509  0.188513  1
  Er  Er13  1  0.810649  0.188513  0.811509  1
  Er  Er14  1  0.189329  0.188513  0.811509  1
  Er  Er15  1  0.810649  0.811509  0.188513  1
  Cd  Cd16  1  0.582630  0.580984  0.580984  1
  Cd  Cd17  1  0.582329  0.580966  0.254375  1
  Cd  Cd18  1  0.582329  0.254375  0.580966  1
  Cd  Cd19  1  0.255401  0.580984  0.580984  1
  Pt  Pt20  1  0.145443  0.142890  0.142890  1
  Pt  Pt21  1  0.143285  0.141825  0.571604  1
  Pt  Pt22  1  0.143285  0.571604  0.141825  1
  Pt  Pt23  1  0.568777  0.142890  0.142890  1
