# generated using pymatgen
data_Pr3Dy3FeBr10
_symmetry_space_group_name_H-M   'P 1'
_cell_length_a   7.53216809
_cell_length_b   9.18539031
_cell_length_c   9.40566457
_cell_angle_alpha   108.80491597
_cell_angle_beta   97.61369837
_cell_angle_gamma   104.62792577
_symmetry_Int_Tables_number   1
_chemical_formula_structural   Pr3Dy3FeBr10
_chemical_formula_sum   'Pr3 Dy3 Fe1 Br10'
_cell_volume   579.55625966
_cell_formula_units_Z   1
loop_
 _symmetry_equiv_pos_site_id
 _symmetry_equiv_pos_as_xyz
  1  'x, y, z'
loop_
 _atom_site_type_symbol
 _atom_site_label
 _atom_site_symmetry_multiplicity
 _atom_site_fract_x
 _atom_site_fract_y
 _atom_site_fract_z
 _atom_site_occupancy
  Pr  Pr0  1  0.030655  0.722561  0.913547  1
  Pr  Pr1  1  0.371230  0.143403  0.192086  1
  Pr  Pr2  1  0.964588  0.275082  0.083116  1
  Dy  Dy3  1  0.120431  0.044610  0.751971  1
  Dy  Dy4  1  0.639382  0.864862  0.816711  1
  Dy  Dy5  1  0.873222  0.950518  0.245210  1
  Fe  Fe6  1  0.999688  0.999381  0.000277  1
  Br  Br7  1  0.217298  0.750715  0.649482  1
  Br  Br8  1  0.637740  0.548496  0.721680  1
  Br  Br9  1  0.238891  0.077854  0.460877  1
  Br  Br10  1  0.804763  0.253630  0.360617  1
  Br  Br11  1  0.542402  0.172205  0.908916  1
  Br  Br12  1  0.749639  0.914503  0.544351  1
  Br  Br13  1  0.903738  0.635025  0.176373  1
  Br  Br14  1  0.352700  0.465632  0.275079  1
  Br  Br15  1  0.093062  0.361786  0.820646  1
  Br  Br16  1  0.460572  0.819739  0.079062  1
