# generated using pymatgen
data_Nb8CuTe8As
_symmetry_space_group_name_H-M   'P 1'
_cell_length_a   4.93496100
_cell_length_b   10.87645400
_cell_length_c   18.90224400
_cell_angle_alpha   90.00000000
_cell_angle_beta   90.00000000
_cell_angle_gamma   90.00000000
_symmetry_Int_Tables_number   1
_chemical_formula_structural   Nb8CuTe8As
_chemical_formula_sum   'Nb16 Cu2 Te16 As2'
_cell_volume   1014.57560865
_cell_formula_units_Z   2
loop_
 _symmetry_equiv_pos_site_id
 _symmetry_equiv_pos_as_xyz
  1  'x, y, z'
loop_
 _atom_site_type_symbol
 _atom_site_label
 _atom_site_symmetry_multiplicity
 _atom_site_fract_x
 _atom_site_fract_y
 _atom_site_fract_z
 _atom_site_occupancy
  Nb  Nb0  1  0.506666  0.565772  0.380396  1
  Nb  Nb1  1  0.506666  0.434228  0.619604  1
  Nb  Nb2  1  0.493334  0.065772  0.119604  1
  Nb  Nb3  1  0.493334  0.934228  0.880396  1
  Nb  Nb4  1  0.506808  0.709069  0.537217  1
  Nb  Nb5  1  0.506808  0.290931  0.462783  1
  Nb  Nb6  1  0.493192  0.209069  0.962783  1
  Nb  Nb7  1  0.493192  0.790931  0.037217  1
  Nb  Nb8  1  0.992813  0.694110  0.441498  1
  Nb  Nb9  1  0.992813  0.305890  0.558502  1
  Nb  Nb10  1  0.007187  0.194110  0.058502  1
  Nb  Nb11  1  0.007187  0.805890  0.941498  1
  Nb  Nb12  1  0.993657  0.398967  0.388905  1
  Nb  Nb13  1  0.993657  0.601033  0.611095  1
  Nb  Nb14  1  0.006343  0.898967  0.111095  1
  Nb  Nb15  1  0.006343  0.101033  0.888905  1
  Cu  Cu16  1  0.749761  0.500000  0.500000  1
  Cu  Cu17  1  0.250239  0.000000  0.000000  1
  Te  Te18  1  0.996854  0.849018  0.563173  1
  Te  Te19  1  0.996854  0.150982  0.436827  1
  Te  Te20  1  0.003146  0.349018  0.936827  1
  Te  Te21  1  0.003146  0.650982  0.063173  1
  Te  Te22  1  0.503182  0.331397  0.314318  1
  Te  Te23  1  0.503182  0.668603  0.685682  1
  Te  Te24  1  0.496818  0.831397  0.185682  1
  Te  Te25  1  0.496818  0.168603  0.814318  1
  Te  Te26  1  0.503274  0.825154  0.402209  1
  Te  Te27  1  0.503274  0.174846  0.597791  1
  Te  Te28  1  0.496726  0.325154  0.097791  1
  Te  Te29  1  0.496726  0.674846  0.902209  1
  Te  Te30  1  0.996631  0.608520  0.299268  1
  Te  Te31  1  0.996631  0.391480  0.700732  1
  Te  Te32  1  0.003369  0.108520  0.200732  1
  Te  Te33  1  0.003369  0.891480  0.799268  1
  As  As34  1  0.249896  0.500000  0.500000  1
  As  As35  1  0.750104  0.000000  0.000000  1
