# generated using pymatgen
data_Sc3In3HgRu2
_symmetry_space_group_name_H-M   'P 1'
_cell_length_a   7.89041300
_cell_length_b   7.89041316
_cell_length_c   3.38863500
_cell_angle_alpha   90.00000000
_cell_angle_beta   90.00000000
_cell_angle_gamma   120.00000352
_symmetry_Int_Tables_number   1
_chemical_formula_structural   Sc3In3HgRu2
_chemical_formula_sum   'Sc3 In3 Hg1 Ru2'
_cell_volume   182.70687458
_cell_formula_units_Z   1
loop_
 _symmetry_equiv_pos_site_id
 _symmetry_equiv_pos_as_xyz
  1  'x, y, z'
loop_
 _atom_site_type_symbol
 _atom_site_label
 _atom_site_symmetry_multiplicity
 _atom_site_fract_x
 _atom_site_fract_y
 _atom_site_fract_z
 _atom_site_occupancy
  Sc  Sc0  1  0.589901  0.956663  0.000000  1
  Sc  Sc1  1  0.366763  0.410099  0.000000  1
  Sc  Sc2  1  0.043337  0.633237  0.000000  1
  In  In3  1  0.726611  0.724830  0.500000  1
  In  In4  1  0.998220  0.273389  0.500000  1
  In  In5  1  0.275170  0.001780  0.500000  1
  Hg  Hg6  1  0.666667  0.333333  0.500000  1
  Ru  Ru7  1  0.000000  0.000000  0.000000  1
  Ru  Ru8  1  0.333333  0.666667  0.500000  1
