# generated using pymatgen
data_Ce2As7IrRh11
_symmetry_space_group_name_H-M   'P 1'
_cell_length_a   10.01525349
_cell_length_b   10.00972498
_cell_length_c   3.97302811
_cell_angle_alpha   90.02434280
_cell_angle_beta   89.99792202
_cell_angle_gamma   120.05398079
_symmetry_Int_Tables_number   1
_chemical_formula_structural   Ce2As7IrRh11
_chemical_formula_sum   'Ce2 As7 Ir1 Rh11'
_cell_volume   344.74646564
_cell_formula_units_Z   1
loop_
 _symmetry_equiv_pos_site_id
 _symmetry_equiv_pos_as_xyz
  1  'x, y, z'
loop_
 _atom_site_type_symbol
 _atom_site_label
 _atom_site_symmetry_multiplicity
 _atom_site_fract_x
 _atom_site_fract_y
 _atom_site_fract_z
 _atom_site_occupancy
  Ce  Ce0  1  0.333276  0.666830  0.251234  1
  Ce  Ce1  1  0.666283  0.333697  0.748657  1
  As  As2  1  0.999717  0.999672  0.500388  1
  As  As3  1  0.402702  0.114462  0.249438  1
  As  As4  1  0.713673  0.598038  0.249394  1
  As  As5  1  0.884659  0.287368  0.249424  1
  As  As6  1  0.597157  0.884650  0.750420  1
  As  As7  1  0.286771  0.403028  0.750174  1
  As  As8  1  0.115316  0.712679  0.750424  1
  Ir  Ir9  1  0.448520  0.380910  0.249974  1
  Rh  Rh10  1  0.933380  0.552252  0.250130  1
  Rh  Rh11  1  0.618928  0.066830  0.250130  1
  Rh  Rh12  1  0.551964  0.618747  0.750182  1
  Rh  Rh13  1  0.066549  0.447793  0.750052  1
  Rh  Rh14  1  0.381003  0.933029  0.750046  1
  Rh  Rh15  1  0.147501  0.884760  0.246108  1
  Rh  Rh16  1  0.736546  0.852190  0.245842  1
  Rh  Rh17  1  0.115629  0.262587  0.245671  1
  Rh  Rh18  1  0.852423  0.115334  0.754098  1
  Rh  Rh19  1  0.263342  0.148249  0.754162  1
  Rh  Rh20  1  0.884661  0.736894  0.754050  1
