# generated using pymatgen
data_Dy11Th3Au20
_symmetry_space_group_name_H-M   'P 1'
_cell_length_a   8.79870468
_cell_length_b   8.79870587
_cell_length_c   10.49847409
_cell_angle_alpha   90.11591153
_cell_angle_beta   90.11591480
_cell_angle_gamma   107.15393928
_symmetry_Int_Tables_number   1
_chemical_formula_structural   Dy11Th3Au20
_chemical_formula_sum   'Dy11 Th3 Au20'
_cell_volume   776.60299807
_cell_formula_units_Z   1
loop_
 _symmetry_equiv_pos_site_id
 _symmetry_equiv_pos_as_xyz
  1  'x, y, z'
loop_
 _atom_site_type_symbol
 _atom_site_label
 _atom_site_symmetry_multiplicity
 _atom_site_fract_x
 _atom_site_fract_y
 _atom_site_fract_z
 _atom_site_occupancy
  Dy  Dy0  1  0.191272  0.808728  0.500000  1
  Dy  Dy1  1  0.000369  0.999631  0.000000  1
  Dy  Dy2  1  0.500490  0.499510  0.500000  1
  Dy  Dy3  1  0.003855  0.503805  0.251971  1
  Dy  Dy4  1  0.999104  0.499687  0.748162  1
  Dy  Dy5  1  0.496195  0.996145  0.748029  1
  Dy  Dy6  1  0.500313  0.000896  0.251838  1
  Dy  Dy7  1  0.308811  0.308546  0.191462  1
  Dy  Dy8  1  0.691454  0.691189  0.808538  1
  Dy  Dy9  1  0.191048  0.189359  0.689171  1
  Dy  Dy10  1  0.810641  0.808952  0.310829  1
  Th  Th11  1  0.692599  0.307401  0.000000  1
  Th  Th12  1  0.307725  0.692275  0.000000  1
  Th  Th13  1  0.807644  0.192356  0.500000  1
  Au  Au14  1  0.860735  0.147500  0.208618  1
  Au  Au15  1  0.138453  0.852355  0.790668  1
  Au  Au16  1  0.638786  0.351341  0.708025  1
  Au  Au17  1  0.648659  0.361214  0.291975  1
  Au  Au18  1  0.359741  0.648799  0.292960  1
  Au  Au19  1  0.351201  0.640259  0.707040  1
  Au  Au20  1  0.852500  0.139265  0.791382  1
  Au  Au21  1  0.147645  0.861547  0.209332  1
  Au  Au22  1  0.937872  0.646756  0.000730  1
  Au  Au23  1  0.062015  0.352974  0.999309  1
  Au  Au24  1  0.560059  0.852363  0.500967  1
  Au  Au25  1  0.147637  0.439941  0.499033  1
  Au  Au26  1  0.435987  0.145752  0.498370  1
  Au  Au27  1  0.854248  0.564013  0.501630  1
  Au  Au28  1  0.353244  0.062128  0.999270  1
  Au  Au29  1  0.647026  0.937985  0.000691  1
  Au  Au30  1  0.106185  0.102704  0.398342  1
  Au  Au31  1  0.897296  0.893815  0.601658  1
  Au  Au32  1  0.394905  0.395713  0.897272  1
  Au  Au33  1  0.604287  0.605095  0.102728  1
