# generated using pymatgen
data_Zr5Fe5Co11(ReP4)3
_symmetry_space_group_name_H-M   'P 1'
_cell_length_a   11.87602628
_cell_length_b   11.85326364
_cell_length_c   3.66213600
_cell_angle_alpha   90.00000000
_cell_angle_beta   90.00000000
_cell_angle_gamma   120.04663070
_symmetry_Int_Tables_number   1
_chemical_formula_structural   Zr5Fe5Co11(ReP4)3
_chemical_formula_sum   'Zr5 Fe5 Co11 Re3 P12'
_cell_volume   446.24147799
_cell_formula_units_Z   1
loop_
 _symmetry_equiv_pos_site_id
 _symmetry_equiv_pos_as_xyz
  1  'x, y, z'
loop_
 _atom_site_type_symbol
 _atom_site_label
 _atom_site_symmetry_multiplicity
 _atom_site_fract_x
 _atom_site_fract_y
 _atom_site_fract_z
 _atom_site_occupancy
  Zr  Zr0  1  0.666526  0.333402  0.000000  1
  Zr  Zr1  1  0.331887  0.666219  0.000000  1
  Zr  Zr2  1  0.821268  0.819926  0.500000  1
  Zr  Zr3  1  0.180597  0.000279  0.500000  1
  Zr  Zr4  1  0.000587  0.181195  0.500000  1
  Fe  Fe5  1  0.197450  0.375505  0.000000  1
  Fe  Fe6  1  0.177854  0.802805  0.000000  1
  Fe  Fe7  1  0.822470  0.625045  0.000000  1
  Fe  Fe8  1  0.801718  0.176948  0.000000  1
  Fe  Fe9  1  0.375560  0.197515  0.000000  1
  Co  Co10  1  0.127941  0.485924  0.500000  1
  Co  Co11  1  0.357037  0.871977  0.500000  1
  Co  Co12  1  0.514783  0.643899  0.500000  1
  Co  Co13  1  0.641962  0.514883  0.500000  1
  Co  Co14  1  0.871717  0.357746  0.500000  1
  Co  Co15  1  0.486492  0.128206  0.500000  1
  Co  Co16  1  0.999722  0.999537  0.000000  1
  Co  Co17  1  0.716715  0.998467  0.500000  1
  Co  Co18  1  0.999983  0.717260  0.500000  1
  Co  Co19  1  0.626129  0.821324  0.000000  1
  Co  Co20  1  0.282547  0.282523  0.500000  1
  Re  Re21  1  0.448464  0.448888  0.000000  1
  Re  Re22  1  0.550000  0.998331  0.000000  1
  Re  Re23  1  0.999872  0.550598  0.000000  1
  P  P24  1  0.644290  0.642543  0.000000  1
  P  P25  1  0.355960  0.000187  0.000000  1
  P  P26  1  0.999877  0.355999  0.000000  1
  P  P27  1  0.479898  0.312351  0.500000  1
  P  P28  1  0.687930  0.167796  0.500000  1
  P  P29  1  0.831936  0.519923  0.500000  1
  P  P30  1  0.518577  0.832959  0.500000  1
  P  P31  1  0.167415  0.687671  0.500000  1
  P  P32  1  0.825417  0.001840  0.000000  1
  P  P33  1  0.000741  0.823894  0.000000  1
  P  P34  1  0.312296  0.480248  0.500000  1
  P  P35  1  0.176381  0.176185  0.000000  1
