# generated using pymatgen
data_Er2Tm8(InBi)3
_symmetry_space_group_name_H-M   'P 1'
_cell_length_a   6.49026200
_cell_length_b   8.94842470
_cell_length_c   8.95624100
_cell_angle_alpha   120.02280703
_cell_angle_beta   90.00071469
_cell_angle_gamma   89.99951504
_symmetry_Int_Tables_number   1
_chemical_formula_structural   Er2Tm8(InBi)3
_chemical_formula_sum   'Er2 Tm8 In3 Bi3'
_cell_volume   450.36575993
_cell_formula_units_Z   1
loop_
 _symmetry_equiv_pos_site_id
 _symmetry_equiv_pos_as_xyz
  1  'x, y, z'
loop_
 _atom_site_type_symbol
 _atom_site_label
 _atom_site_symmetry_multiplicity
 _atom_site_fract_x
 _atom_site_fract_y
 _atom_site_fract_z
 _atom_site_occupancy
  Er  Er0  1  0.749968  0.236044  0.000150  1
  Er  Er1  1  0.750009  0.763791  0.764017  1
  Tm  Tm2  1  0.492473  0.333343  0.666638  1
  Tm  Tm3  1  0.492477  0.666682  0.333332  1
  Tm  Tm4  1  0.007524  0.666686  0.333323  1
  Tm  Tm5  1  0.007532  0.333321  0.666620  1
  Tm  Tm6  1  0.750000  0.999931  0.236235  1
  Tm  Tm7  1  0.250008  0.762452  0.000051  1
  Tm  Tm8  1  0.250005  0.237751  0.237714  1
  Tm  Tm9  1  0.249989  0.000102  0.762185  1
  In  In10  1  0.249999  0.393556  0.999970  1
  In  In11  1  0.250008  0.606477  0.606420  1
  In  In12  1  0.250004  0.000021  0.393607  1
  Bi  Bi13  1  0.750008  0.603576  0.000151  1
  Bi  Bi14  1  0.749994  0.396285  0.396452  1
  Bi  Bi15  1  0.749997  0.999984  0.603132  1
