# generated using pymatgen
data_Dy4Si6PtRh
_symmetry_space_group_name_H-M   'P 1'
_cell_length_a   8.17168000
_cell_length_b   8.17167996
_cell_length_c   7.95937200
_cell_angle_alpha   90.00000000
_cell_angle_beta   90.00000000
_cell_angle_gamma   119.99999208
_symmetry_Int_Tables_number   1
_chemical_formula_structural   Dy4Si6PtRh
_chemical_formula_sum   'Dy8 Si12 Pt2 Rh2'
_cell_volume   460.29066800
_cell_formula_units_Z   2
loop_
 _symmetry_equiv_pos_site_id
 _symmetry_equiv_pos_as_xyz
  1  'x, y, z'
loop_
 _atom_site_type_symbol
 _atom_site_label
 _atom_site_symmetry_multiplicity
 _atom_site_fract_x
 _atom_site_fract_y
 _atom_site_fract_z
 _atom_site_occupancy
  Dy  Dy0  1  0.000000  0.000000  0.250000  1
  Dy  Dy1  1  0.000000  0.000000  0.750000  1
  Dy  Dy2  1  0.011525  0.505762  0.250000  1
  Dy  Dy3  1  0.494238  0.505762  0.250000  1
  Dy  Dy4  1  0.508627  0.017254  0.750000  1
  Dy  Dy5  1  0.494238  0.988475  0.250000  1
  Dy  Dy6  1  0.508627  0.491373  0.750000  1
  Dy  Dy7  1  0.982746  0.491373  0.750000  1
  Si  Si8  1  0.164280  0.328558  0.001182  1
  Si  Si9  1  0.671442  0.835720  0.001182  1
  Si  Si10  1  0.164280  0.328558  0.498818  1
  Si  Si11  1  0.335452  0.167727  0.998000  1
  Si  Si12  1  0.164280  0.835720  0.001182  1
  Si  Si13  1  0.671442  0.835720  0.498818  1
  Si  Si14  1  0.832273  0.664548  0.998000  1
  Si  Si15  1  0.335452  0.167727  0.502000  1
  Si  Si16  1  0.164280  0.835720  0.498818  1
  Si  Si17  1  0.832273  0.664548  0.502000  1
  Si  Si18  1  0.832273  0.167727  0.998000  1
  Si  Si19  1  0.832273  0.167727  0.502000  1
  Pt  Pt20  1  0.333333  0.666667  0.976450  1
  Pt  Pt21  1  0.333333  0.666667  0.523550  1
  Rh  Rh22  1  0.666667  0.333333  0.033564  1
  Rh  Rh23  1  0.666667  0.333333  0.466436  1
