# generated using pymatgen
data_Pr8Ho2(InPb)3
_symmetry_space_group_name_H-M   'P 1'
_cell_length_a   6.35239538
_cell_length_b   9.39548144
_cell_length_c   9.45666869
_cell_angle_alpha   83.70632547
_cell_angle_beta   70.75887429
_cell_angle_gamma   70.61931095
_symmetry_Int_Tables_number   1
_chemical_formula_structural   Pr8Ho2(InPb)3
_chemical_formula_sum   'Pr8 Ho2 In3 Pb3'
_cell_volume   502.68611445
_cell_formula_units_Z   1
loop_
 _symmetry_equiv_pos_site_id
 _symmetry_equiv_pos_as_xyz
  1  'x, y, z'
loop_
 _atom_site_type_symbol
 _atom_site_label
 _atom_site_symmetry_multiplicity
 _atom_site_fract_x
 _atom_site_fract_y
 _atom_site_fract_z
 _atom_site_occupancy
  Pr  Pr0  1  0.720692  0.868904  0.693300  1
  Pr  Pr1  1  0.278779  0.134200  0.306244  1
  Pr  Pr2  1  0.777996  0.305252  0.135575  1
  Pr  Pr3  1  0.222059  0.694489  0.865464  1
  Pr  Pr4  1  0.585053  0.694786  0.134553  1
  Pr  Pr5  1  0.414120  0.305116  0.864688  1
  Pr  Pr6  1  0.086111  0.134088  0.694121  1
  Pr  Pr7  1  0.912016  0.869135  0.306167  1
  Ho  Ho8  1  0.752627  0.497436  0.499524  1
  Ho  Ho9  1  0.250347  0.496616  0.500577  1
  In  In10  1  0.655706  0.188591  0.499852  1
  In  In11  1  0.250150  0.999780  0.000037  1
  In  In12  1  0.750105  0.999869  0.999885  1
  Pb  Pb13  1  0.155227  0.501129  0.187457  1
  Pb  Pb14  1  0.843434  0.500965  0.812599  1
  Pb  Pb15  1  0.345578  0.809645  0.499956  1
