# generated using pymatgen
data_Nd(PaRh2)5
_symmetry_space_group_name_H-M   'P 1'
_cell_length_a   5.85283925
_cell_length_b   5.85283905
_cell_length_c   9.30673056
_cell_angle_alpha   87.12358122
_cell_angle_beta   87.12357601
_cell_angle_gamma   104.75351061
_symmetry_Int_Tables_number   1
_chemical_formula_structural   Nd(PaRh2)5
_chemical_formula_sum   'Nd1 Pa5 Rh10'
_cell_volume   307.25440295
_cell_formula_units_Z   1
loop_
 _symmetry_equiv_pos_site_id
 _symmetry_equiv_pos_as_xyz
  1  'x, y, z'
loop_
 _atom_site_type_symbol
 _atom_site_label
 _atom_site_symmetry_multiplicity
 _atom_site_fract_x
 _atom_site_fract_y
 _atom_site_fract_z
 _atom_site_occupancy
  Nd  Nd0  1  0.802303  0.197697  0.500000  1
  Pa  Pa1  1  0.613366  0.610098  0.729938  1
  Pa  Pa2  1  0.389902  0.386634  0.270062  1
  Pa  Pa3  1  0.211400  0.788600  0.000000  1
  Pa  Pa4  1  0.188255  0.811745  0.500000  1
  Pa  Pa5  1  0.790095  0.209905  0.000000  1
  Rh  Rh6  1  0.698257  0.699495  0.019177  1
  Rh  Rh7  1  0.689972  0.682398  0.431239  1
  Rh  Rh8  1  0.300505  0.301743  0.980823  1
  Rh  Rh9  1  0.317602  0.310028  0.568761  1
  Rh  Rh10  1  0.492682  0.025816  0.773485  1
  Rh  Rh11  1  0.486300  0.953531  0.238614  1
  Rh  Rh12  1  0.997873  0.999164  0.228098  1
  Rh  Rh13  1  0.000836  0.002127  0.771902  1
  Rh  Rh14  1  0.046469  0.513700  0.761386  1
  Rh  Rh15  1  0.974184  0.507318  0.226515  1
