# generated using pymatgen
data_Tb2Ho2Al24Pt7Au2
_symmetry_space_group_name_H-M   'P 1'
_cell_length_a   7.56858674
_cell_length_b   7.58509000
_cell_length_c   13.16298304
_cell_angle_alpha   84.53140931
_cell_angle_beta   78.99288640
_cell_angle_gamma   59.93063325
_symmetry_Int_Tables_number   1
_chemical_formula_structural   Tb2Ho2Al24Pt7Au2
_chemical_formula_sum   'Tb2 Ho2 Al24 Pt7 Au2'
_cell_volume   641.93720410
_cell_formula_units_Z   1
loop_
 _symmetry_equiv_pos_site_id
 _symmetry_equiv_pos_as_xyz
  1  'x, y, z'
loop_
 _atom_site_type_symbol
 _atom_site_label
 _atom_site_symmetry_multiplicity
 _atom_site_fract_x
 _atom_site_fract_y
 _atom_site_fract_z
 _atom_site_occupancy
  Tb  Tb0  1  0.392721  0.169312  0.809145  1
  Tb  Tb1  1  0.607279  0.830688  0.190855  1
  Ho  Ho2  1  0.733435  0.499091  0.809637  1
  Ho  Ho3  1  0.266565  0.500909  0.190363  1
  Al  Al4  1  0.683249  0.834065  0.944803  1
  Al  Al5  1  0.316751  0.165935  0.055197  1
  Al  Al6  1  0.145744  0.839352  0.562303  1
  Al  Al7  1  0.854256  0.160648  0.437697  1
  Al  Al8  1  0.488215  0.159428  0.559419  1
  Al  Al9  1  0.511785  0.840572  0.440581  1
  Al  Al10  1  0.223053  0.160719  0.325520  1
  Al  Al11  1  0.776947  0.839281  0.674480  1
  Al  Al12  1  0.440100  0.506913  0.674544  1
  Al  Al13  1  0.559900  0.493087  0.325456  1
  Al  Al14  1  0.108754  0.155053  0.673119  1
  Al  Al15  1  0.891246  0.844947  0.326881  1
  Al  Al16  1  0.353214  0.499033  0.944735  1
  Al  Al17  1  0.646786  0.500967  0.055265  1
  Al  Al18  1  0.015289  0.167641  0.953467  1
  Al  Al19  1  0.984711  0.832359  0.046533  1
  Al  Al20  1  0.195590  0.499182  0.437557  1
  Al  Al21  1  0.804410  0.500818  0.562443  1
  Al  Al22  1  0.732663  0.164670  0.183100  1
  Al  Al23  1  0.267337  0.835330  0.816900  1
  Al  Al24  1  0.060110  0.633945  0.817885  1
  Al  Al25  1  0.939890  0.366055  0.182115  1
  Al  Al26  1  0.854213  0.042757  0.816391  1
  Al  Al27  1  0.145787  0.957243  0.183609  1
  Pt  Pt28  1  0.657097  0.171729  0.999808  1
  Pt  Pt29  1  0.342903  0.828271  0.000192  1
  Pt  Pt30  1  0.537326  0.166833  0.362052  1
  Pt  Pt31  1  0.462674  0.833167  0.637948  1
  Pt  Pt32  1  0.779731  0.175535  0.636657  1
  Pt  Pt33  1  0.220269  0.824465  0.363343  1
  Pt  Pt34  1  0.000000  0.500000  0.000000  1
  Au  Au35  1  0.119808  0.491075  0.638069  1
  Au  Au36  1  0.880192  0.508925  0.361931  1
