# generated using pymatgen
data_Dy3Th11(TcRu)3
_symmetry_space_group_name_H-M   'P 1'
_cell_length_a   9.81815783
_cell_length_b   9.89398275
_cell_length_c   6.39586566
_cell_angle_alpha   89.88015143
_cell_angle_beta   89.83234817
_cell_angle_gamma   120.07768299
_symmetry_Int_Tables_number   1
_chemical_formula_structural   Dy3Th11(TcRu)3
_chemical_formula_sum   'Dy3 Th11 Tc3 Ru3'
_cell_volume   537.63198804
_cell_formula_units_Z   1
loop_
 _symmetry_equiv_pos_site_id
 _symmetry_equiv_pos_as_xyz
  1  'x, y, z'
loop_
 _atom_site_type_symbol
 _atom_site_label
 _atom_site_symmetry_multiplicity
 _atom_site_fract_x
 _atom_site_fract_y
 _atom_site_fract_z
 _atom_site_occupancy
  Dy  Dy0  1  0.460618  0.536389  0.294557  1
  Dy  Dy1  1  0.071615  0.534188  0.298926  1
  Dy  Dy2  1  0.925281  0.462627  0.799673  1
  Th  Th3  1  0.250608  0.127433  0.509233  1
  Th  Th4  1  0.543425  0.080256  0.797376  1
  Th  Th5  1  0.750042  0.873528  0.013765  1
  Th  Th6  1  0.666931  0.334779  0.274098  1
  Th  Th7  1  0.124145  0.870007  0.008847  1
  Th  Th8  1  0.462415  0.920389  0.299547  1
  Th  Th9  1  0.539561  0.465502  0.797389  1
  Th  Th10  1  0.875813  0.127840  0.512429  1
  Th  Th11  1  0.123182  0.251348  0.012470  1
  Th  Th12  1  0.874207  0.750336  0.511334  1
  Th  Th13  1  0.332835  0.664936  0.770136  1
  Tc  Tc14  1  0.814076  0.633901  0.049141  1
  Tc  Tc15  1  0.814225  0.179671  0.049359  1
  Tc  Tc16  1  0.630159  0.816265  0.548895  1
  Ru  Ru17  1  0.368402  0.186406  0.040297  1
  Ru  Ru18  1  0.184832  0.363758  0.552429  1
  Ru  Ru19  1  0.187631  0.820442  0.544096  1
