# generated using pymatgen
data_Tb4HgPd2PtPb2
_symmetry_space_group_name_H-M   'P 1'
_cell_length_a   8.17389800
_cell_length_b   8.16329806
_cell_length_c   3.61977800
_cell_angle_alpha   90.00000000
_cell_angle_beta   90.00000000
_cell_angle_gamma   90.71690339
_symmetry_Int_Tables_number   1
_chemical_formula_structural   Tb4HgPd2PtPb2
_chemical_formula_sum   'Tb4 Hg1 Pd2 Pt1 Pb2'
_cell_volume   241.51427575
_cell_formula_units_Z   1
loop_
 _symmetry_equiv_pos_site_id
 _symmetry_equiv_pos_as_xyz
  1  'x, y, z'
loop_
 _atom_site_type_symbol
 _atom_site_label
 _atom_site_symmetry_multiplicity
 _atom_site_fract_x
 _atom_site_fract_y
 _atom_site_fract_z
 _atom_site_occupancy
  Tb  Tb0  1  0.689270  0.164259  0.500000  1
  Tb  Tb1  1  0.154027  0.351934  0.500000  1
  Tb  Tb2  1  0.835455  0.671093  0.500000  1
  Tb  Tb3  1  0.329993  0.807807  0.500000  1
  Hg  Hg4  1  0.374714  0.124534  0.000000  1
  Pd  Pd5  1  0.624000  0.875886  0.000000  1
  Pd  Pd6  1  0.867162  0.375973  0.000000  1
  Pt  Pt7  1  0.119490  0.627301  0.000000  1
  Pb  Pb8  1  0.996485  0.998165  0.000000  1
  Pb  Pb9  1  0.509404  0.503047  0.000000  1
