# generated using pymatgen
data_Er11TmGaCo4Ru
_symmetry_space_group_name_H-M   'P 1'
_cell_length_a   8.14950656
_cell_length_b   8.14950736
_cell_length_c   8.15570958
_cell_angle_alpha   106.70130769
_cell_angle_beta   110.69780267
_cell_angle_gamma   111.01981720
_symmetry_Int_Tables_number   1
_chemical_formula_structural   Er11TmGaCo4Ru
_chemical_formula_sum   'Er11 Tm1 Ga1 Co4 Ru1'
_cell_volume   416.39556802
_cell_formula_units_Z   1
loop_
 _symmetry_equiv_pos_site_id
 _symmetry_equiv_pos_as_xyz
  1  'x, y, z'
loop_
 _atom_site_type_symbol
 _atom_site_label
 _atom_site_symmetry_multiplicity
 _atom_site_fract_x
 _atom_site_fract_y
 _atom_site_fract_z
 _atom_site_occupancy
  Er  Er0  1  0.307351  0.725576  0.032927  1
  Er  Er1  1  0.692746  0.725470  0.418218  1
  Er  Er2  1  0.307624  0.274736  0.582358  1
  Er  Er3  1  0.803496  0.119881  0.315865  1
  Er  Er4  1  0.803680  0.487214  0.684079  1
  Er  Er5  1  0.196865  0.880399  0.684079  1
  Er  Er6  1  0.195984  0.512369  0.315865  1
  Er  Er7  1  0.597556  0.780995  0.816785  1
  Er  Er8  1  0.963484  0.780371  0.182854  1
  Er  Er9  1  0.035792  0.219229  0.816785  1
  Er  Er10  1  0.402483  0.219368  0.182854  1
  Tm  Tm11  1  0.692883  0.274810  0.967693  1
  Ga  Ga12  1  0.500150  0.000254  0.500405  1
  Co  Co13  1  0.873205  0.499886  0.373091  1
  Co  Co14  1  0.126563  0.500071  0.626634  1
  Co  Co15  1  0.999601  0.112721  0.112322  1
  Co  Co16  1  0.000013  0.886991  0.887004  1
  Ru  Ru17  1  0.500525  0.499658  0.000182  1
