# generated using pymatgen
data_Er5Tm7Co5Bi
_symmetry_space_group_name_H-M   'P 1'
_cell_length_a   8.20297791
_cell_length_b   8.20095943
_cell_length_c   8.20095936
_cell_angle_alpha   110.95243269
_cell_angle_beta   110.80671145
_cell_angle_gamma   106.68039077
_symmetry_Int_Tables_number   1
_chemical_formula_structural   Er5Tm7Co5Bi
_chemical_formula_sum   'Er5 Tm7 Co5 Bi1'
_cell_volume   423.99705957
_cell_formula_units_Z   1
loop_
 _symmetry_equiv_pos_site_id
 _symmetry_equiv_pos_as_xyz
  1  'x, y, z'
loop_
 _atom_site_type_symbol
 _atom_site_label
 _atom_site_symmetry_multiplicity
 _atom_site_fract_x
 _atom_site_fract_y
 _atom_site_fract_z
 _atom_site_occupancy
  Er  Er0  1  0.285443  0.183496  0.469392  1
  Er  Er1  1  0.714489  0.816764  0.530923  1
  Er  Er2  1  0.285443  0.816052  0.101946  1
  Er  Er3  1  0.714489  0.183567  0.897726  1
  Er  Er4  1  0.619758  0.311232  0.308526  1
  Tm  Tm5  1  0.379562  0.688515  0.691048  1
  Tm  Tm6  1  0.002734  0.311577  0.691157  1
  Tm  Tm7  1  0.997606  0.688596  0.309010  1
  Tm  Tm8  1  0.209805  0.405715  0.195648  1
  Tm  Tm9  1  0.790217  0.594602  0.804688  1
  Tm  Tm10  1  0.209805  0.014158  0.804090  1
  Tm  Tm11  1  0.790217  0.985529  0.195615  1
  Co  Co12  1  0.000328  0.374736  0.374731  1
  Co  Co13  1  0.000328  0.625597  0.625593  1
  Co  Co14  1  0.387681  0.887743  0.499938  1
  Co  Co15  1  0.612079  0.111993  0.500086  1
  Co  Co16  1  0.000064  0.000040  0.000024  1
  Bi  Bi17  1  0.499949  0.500088  0.999862  1
