# generated using pymatgen
data_Eu2Zn19Cu3
_symmetry_space_group_name_H-M   'P 1'
_cell_length_a   8.20913465
_cell_length_b   8.21972431
_cell_length_c   8.20913448
_cell_angle_alpha   99.66143138
_cell_angle_beta   99.67717521
_cell_angle_gamma   131.52951617
_symmetry_Int_Tables_number   1
_chemical_formula_structural   Eu2Zn19Cu3
_chemical_formula_sum   'Eu2 Zn19 Cu3'
_cell_volume   378.37395046
_cell_formula_units_Z   1
loop_
 _symmetry_equiv_pos_site_id
 _symmetry_equiv_pos_as_xyz
  1  'x, y, z'
loop_
 _atom_site_type_symbol
 _atom_site_label
 _atom_site_symmetry_multiplicity
 _atom_site_fract_x
 _atom_site_fract_y
 _atom_site_fract_z
 _atom_site_occupancy
  Eu  Eu0  1  0.998495  0.999527  0.001032  1
  Eu  Eu1  1  0.251505  0.750473  0.498968  1
  Zn  Zn2  1  0.062790  0.645758  0.826380  1
  Zn  Zn3  1  0.821060  0.241711  0.174537  1
  Zn  Zn4  1  0.753927  0.258618  0.504690  1
  Zn  Zn5  1  0.496073  0.491382  0.995310  1
  Zn  Zn6  1  0.625000  0.875000  0.250000  1
  Zn  Zn7  1  0.819379  0.645758  0.582968  1
  Zn  Zn8  1  0.902068  0.813233  0.329018  1
  Zn  Zn9  1  0.487938  0.568536  0.675408  1
  Zn  Zn10  1  0.067174  0.241711  0.420651  1
  Zn  Zn11  1  0.765785  0.936767  0.588835  1
  Zn  Zn12  1  0.356872  0.181464  0.419401  1
  Zn  Zn13  1  0.428940  0.508289  0.325463  1
  Zn  Zn14  1  0.187210  0.104242  0.673620  1
  Zn  Zn15  1  0.430621  0.104242  0.917032  1
  Zn  Zn16  1  0.347932  0.936767  0.170982  1
  Zn  Zn17  1  0.762062  0.181464  0.824592  1
  Zn  Zn18  1  0.182826  0.508289  0.079349  1
  Zn  Zn19  1  0.484215  0.813233  0.911165  1
  Zn  Zn20  1  0.893128  0.568536  0.080599  1
  Cu  Cu21  1  0.625000  0.375000  0.750000  1
  Cu  Cu22  1  0.625000  0.375000  0.250000  1
  Cu  Cu23  1  0.125000  0.375000  0.750000  1
