# generated using pymatgen
data_Yb3Sm4Tm(B6Ru)4
_symmetry_space_group_name_H-M   'P 1'
_cell_length_a   3.69413300
_cell_length_b   9.12111309
_cell_length_c   11.54003212
_cell_angle_alpha   89.98377296
_cell_angle_beta   90.00000000
_cell_angle_gamma   90.00000000
_symmetry_Int_Tables_number   1
_chemical_formula_structural   Yb3Sm4Tm(B6Ru)4
_chemical_formula_sum   'Yb3 Sm4 Tm1 B24 Ru4'
_cell_volume   388.83680671
_cell_formula_units_Z   1
loop_
 _symmetry_equiv_pos_site_id
 _symmetry_equiv_pos_as_xyz
  1  'x, y, z'
loop_
 _atom_site_type_symbol
 _atom_site_label
 _atom_site_symmetry_multiplicity
 _atom_site_fract_x
 _atom_site_fract_y
 _atom_site_fract_z
 _atom_site_occupancy
  Yb  Yb0  1  0.000000  0.942156  0.367876  1
  Yb  Yb1  1  0.000000  0.058071  0.631704  1
  Yb  Yb2  1  0.000000  0.442305  0.131702  1
  Sm  Sm3  1  0.000000  0.322602  0.412422  1
  Sm  Sm4  1  0.000000  0.678447  0.584278  1
  Sm  Sm5  1  0.000000  0.823005  0.087675  1
  Sm  Sm6  1  0.000000  0.176935  0.915350  1
  Tm  Tm7  1  0.000000  0.557263  0.869335  1
  B  B8  1  0.500000  0.555736  0.430854  1
  B  B9  1  0.500000  0.444752  0.568775  1
  B  B10  1  0.500000  0.055319  0.069170  1
  B  B11  1  0.500000  0.944176  0.931279  1
  B  B12  1  0.500000  0.750921  0.416611  1
  B  B13  1  0.500000  0.249479  0.583346  1
  B  B14  1  0.500000  0.250349  0.083324  1
  B  B15  1  0.500000  0.749263  0.917517  1
  B  B16  1  0.500000  0.790515  0.266058  1
  B  B17  1  0.500000  0.209150  0.734330  1
  B  B18  1  0.500000  0.290347  0.233873  1
  B  B19  1  0.500000  0.709185  0.765662  1
  B  B20  1  0.500000  0.629319  0.186028  1
  B  B21  1  0.500000  0.370194  0.814743  1
  B  B22  1  0.500000  0.129160  0.314082  1
  B  B23  1  0.500000  0.870811  0.685344  1
  B  B24  1  0.500000  0.984182  0.212904  1
  B  B25  1  0.500000  0.015457  0.787174  1
  B  B26  1  0.500000  0.484284  0.287123  1
  B  B27  1  0.500000  0.516191  0.712858  1
  B  B28  1  0.500000  0.597868  0.026589  1
  B  B29  1  0.500000  0.402408  0.972694  1
  B  B30  1  0.500000  0.095899  0.473493  1
  B  B31  1  0.500000  0.904457  0.526259  1
  Ru  Ru32  1  0.000000  0.638884  0.319979  1
  Ru  Ru33  1  0.000000  0.361884  0.680175  1
  Ru  Ru34  1  0.000000  0.139193  0.180136  1
  Ru  Ru35  1  0.000000  0.859834  0.819276  1
