# generated using pymatgen
data_Zr18CuRe8Ni
_symmetry_space_group_name_H-M   'P 1'
_cell_length_a   8.69047000
_cell_length_b   8.69047018
_cell_length_c   8.63620000
_cell_angle_alpha   90.00000000
_cell_angle_beta   90.00000000
_cell_angle_gamma   119.99999931
_symmetry_Int_Tables_number   1
_chemical_formula_structural   Zr18CuRe8Ni
_chemical_formula_sum   'Zr18 Cu1 Re8 Ni1'
_cell_volume   564.85875501
_cell_formula_units_Z   1
loop_
 _symmetry_equiv_pos_site_id
 _symmetry_equiv_pos_as_xyz
  1  'x, y, z'
loop_
 _atom_site_type_symbol
 _atom_site_label
 _atom_site_symmetry_multiplicity
 _atom_site_fract_x
 _atom_site_fract_y
 _atom_site_fract_z
 _atom_site_occupancy
  Zr  Zr0  1  0.194812  0.805188  0.446743  1
  Zr  Zr1  1  0.194812  0.389621  0.446743  1
  Zr  Zr2  1  0.610379  0.805188  0.446743  1
  Zr  Zr3  1  0.802536  0.197464  0.556777  1
  Zr  Zr4  1  0.802536  0.605075  0.556777  1
  Zr  Zr5  1  0.394925  0.197464  0.556777  1
  Zr  Zr6  1  0.802536  0.197464  0.943223  1
  Zr  Zr7  1  0.802536  0.605075  0.943223  1
  Zr  Zr8  1  0.394925  0.197464  0.943223  1
  Zr  Zr9  1  0.194812  0.805188  0.053257  1
  Zr  Zr10  1  0.194812  0.389621  0.053257  1
  Zr  Zr11  1  0.610379  0.805188  0.053257  1
  Zr  Zr12  1  0.542317  0.457683  0.250000  1
  Zr  Zr13  1  0.542317  0.084636  0.250000  1
  Zr  Zr14  1  0.915364  0.457683  0.250000  1
  Zr  Zr15  1  0.457845  0.542155  0.750000  1
  Zr  Zr16  1  0.457845  0.915687  0.750000  1
  Zr  Zr17  1  0.084313  0.542155  0.750000  1
  Cu  Cu18  1  0.333333  0.666667  0.250000  1
  Re  Re19  1  0.891346  0.108654  0.250000  1
  Re  Re20  1  0.891346  0.782691  0.250000  1
  Re  Re21  1  0.217309  0.108654  0.250000  1
  Re  Re22  1  0.108302  0.891698  0.750000  1
  Re  Re23  1  0.108302  0.216605  0.750000  1
  Re  Re24  1  0.783395  0.891698  0.750000  1
  Re  Re25  1  0.000000  0.000000  0.500419  1
  Re  Re26  1  0.000000  0.000000  0.999581  1
  Ni  Ni27  1  0.666667  0.333333  0.750000  1
