# generated using pymatgen
data_Sc6Zn21Ni2S
_symmetry_space_group_name_H-M   'P 1'
_cell_length_a   8.78655462
_cell_length_b   8.73508237
_cell_length_c   8.73508300
_cell_angle_alpha   59.92992475
_cell_angle_beta   59.80489074
_cell_angle_gamma   59.80488886
_symmetry_Int_Tables_number   1
_chemical_formula_structural   Sc6Zn21Ni2S
_chemical_formula_sum   'Sc6 Zn21 Ni2 S1'
_cell_volume   472.41252684
_cell_formula_units_Z   1
loop_
 _symmetry_equiv_pos_site_id
 _symmetry_equiv_pos_as_xyz
  1  'x, y, z'
loop_
 _atom_site_type_symbol
 _atom_site_label
 _atom_site_symmetry_multiplicity
 _atom_site_fract_x
 _atom_site_fract_y
 _atom_site_fract_z
 _atom_site_occupancy
  Sc  Sc0  1  0.709036  0.290964  0.290964  1
  Sc  Sc1  1  0.290964  0.709036  0.709036  1
  Sc  Sc2  1  0.292031  0.704772  0.295228  1
  Sc  Sc3  1  0.707969  0.295228  0.704772  1
  Sc  Sc4  1  0.292031  0.295228  0.704772  1
  Sc  Sc5  1  0.707969  0.704772  0.295228  1
  Zn  Zn6  1  0.116704  0.118059  0.118059  1
  Zn  Zn7  1  0.883296  0.881941  0.881941  1
  Zn  Zn8  1  0.112619  0.130123  0.644639  1
  Zn  Zn9  1  0.112619  0.644639  0.130123  1
  Zn  Zn10  1  0.887381  0.869877  0.355361  1
  Zn  Zn11  1  0.887381  0.355361  0.869877  1
  Zn  Zn12  1  0.647179  0.118059  0.118059  1
  Zn  Zn13  1  0.352821  0.881941  0.881941  1
  Zn  Zn14  1  0.500000  0.000000  0.000000  1
  Zn  Zn15  1  0.000000  0.500000  0.000000  1
  Zn  Zn16  1  0.500000  0.000000  0.500000  1
  Zn  Zn17  1  0.000000  0.000000  0.500000  1
  Zn  Zn18  1  0.500000  0.500000  0.000000  1
  Zn  Zn19  1  0.325222  0.336024  0.336024  1
  Zn  Zn20  1  0.674778  0.663976  0.663976  1
  Zn  Zn21  1  0.332158  0.332484  0.003200  1
  Zn  Zn22  1  0.332158  0.003200  0.332484  1
  Zn  Zn23  1  0.667842  0.667516  0.996800  1
  Zn  Zn24  1  0.667842  0.996800  0.667516  1
  Zn  Zn25  1  0.002732  0.336024  0.336024  1
  Zn  Zn26  1  0.997268  0.663976  0.663976  1
  Ni  Ni27  1  0.000000  0.500000  0.500000  1
  Ni  Ni28  1  0.000000  0.000000  0.000000  1
  S  S29  1  0.500000  0.500000  0.500000  1
