# generated using pymatgen
data_Cs3Zr2P5Se18
_symmetry_space_group_name_H-M   'P 1'
_cell_length_a   7.43717165
_cell_length_b   7.43717167
_cell_length_c   36.87406400
_cell_angle_alpha   93.14800998
_cell_angle_beta   93.14800998
_cell_angle_gamma   93.19546375
_symmetry_Int_Tables_number   1
_chemical_formula_structural   Cs3Zr2P5Se18
_chemical_formula_sum   'Cs6 Zr4 P10 Se36'
_cell_volume   2029.87534905
_cell_formula_units_Z   2
loop_
 _symmetry_equiv_pos_site_id
 _symmetry_equiv_pos_as_xyz
  1  'x, y, z'
loop_
 _atom_site_type_symbol
 _atom_site_label
 _atom_site_symmetry_multiplicity
 _atom_site_fract_x
 _atom_site_fract_y
 _atom_site_fract_z
 _atom_site_occupancy
  Cs  Cs0  1  0.278547  0.493802  0.068817  1
  Cs  Cs1  1  0.148997  0.429061  0.253261  1
  Cs  Cs2  1  0.781532  0.963970  0.365260  1
  Cs  Cs3  1  0.493801  0.278546  0.568817  1
  Cs  Cs4  1  0.429061  0.148997  0.753260  1
  Cs  Cs5  1  0.963970  0.781532  0.865260  1
  Zr  Zr6  1  0.845220  0.028258  0.154355  1
  Zr  Zr7  1  0.038984  0.628794  0.463941  1
  Zr  Zr8  1  0.028259  0.845221  0.654355  1
  Zr  Zr9  1  0.628793  0.038983  0.963941  1
  P  P10  1  0.757403  0.058620  0.058789  1
  P  P11  1  0.302202  0.941490  0.172944  1
  P  P12  1  0.656921  0.149579  0.237675  1
  P  P13  1  0.242977  0.692178  0.380224  1
  P  P14  1  0.573413  0.522773  0.445359  1
  P  P15  1  0.058619  0.757402  0.558789  1
  P  P16  1  0.941490  0.302202  0.672944  1
  P  P17  1  0.149579  0.656921  0.737675  1
  P  P18  1  0.692179  0.242977  0.880224  1
  P  P19  1  0.522774  0.573414  0.945359  1
  Se  Se20  1  0.924785  0.124499  0.012584  1
  Se  Se21  1  0.484421  0.992139  0.031353  1
  Se  Se22  1  0.862618  0.830357  0.089567  1
  Se  Se23  1  0.773757  0.281892  0.102213  1
  Se  Se24  1  0.520541  0.840565  0.139101  1
  Se  Se25  1  0.185831  0.190663  0.153252  1
  Se  Se26  1  0.074441  0.734225  0.169717  1
  Se  Se27  1  0.668387  0.303796  0.187593  1
  Se  Se28  1  0.863999  0.951233  0.225879  1
  Se  Se29  1  0.378888  0.984208  0.234585  1
  Se  Se30  1  0.663468  0.295966  0.289634  1
  Se  Se31  1  0.254199  0.807966  0.328139  1
  Se  Se32  1  0.500195  0.527580  0.383612  1
  Se  Se33  1  0.011285  0.504269  0.392668  1
  Se  Se34  1  0.246642  0.880765  0.429338  1
  Se  Se35  1  0.781346  0.321358  0.448851  1
  Se  Se36  1  0.713436  0.783530  0.465794  1
  Se  Se37  1  0.342411  0.442772  0.478673  1
  Se  Se38  1  0.124499  0.924785  0.512584  1
  Se  Se39  1  0.992139  0.484421  0.531353  1
  Se  Se40  1  0.830356  0.862617  0.589567  1
  Se  Se41  1  0.281892  0.773757  0.602214  1
  Se  Se42  1  0.840565  0.520541  0.639101  1
  Se  Se43  1  0.190663  0.185831  0.653252  1
  Se  Se44  1  0.734225  0.074441  0.669717  1
  Se  Se45  1  0.303796  0.668387  0.687593  1
  Se  Se46  1  0.951233  0.864000  0.725880  1
  Se  Se47  1  0.984207  0.378887  0.734585  1
  Se  Se48  1  0.295966  0.663469  0.789634  1
  Se  Se49  1  0.807967  0.254200  0.828139  1
  Se  Se50  1  0.527580  0.500195  0.883612  1
  Se  Se51  1  0.504270  0.011285  0.892668  1
  Se  Se52  1  0.880767  0.246643  0.929338  1
  Se  Se53  1  0.321358  0.781346  0.948851  1
  Se  Se54  1  0.783530  0.713436  0.965794  1
  Se  Se55  1  0.442772  0.342411  0.978673  1
