# generated using pymatgen
data_Dy5AuSe4
_symmetry_space_group_name_H-M   'P 1'
_cell_length_a   7.11341555
_cell_length_b   7.11341586
_cell_length_c   7.11341595
_cell_angle_alpha   99.65687959
_cell_angle_beta   99.65687995
_cell_angle_gamma   131.64436722
_symmetry_Int_Tables_number   1
_chemical_formula_structural   Dy5AuSe4
_chemical_formula_sum   'Dy5 Au1 Se4'
_cell_volume   245.38480553
_cell_formula_units_Z   1
loop_
 _symmetry_equiv_pos_site_id
 _symmetry_equiv_pos_as_xyz
  1  'x, y, z'
loop_
 _atom_site_type_symbol
 _atom_site_label
 _atom_site_symmetry_multiplicity
 _atom_site_fract_x
 _atom_site_fract_y
 _atom_site_fract_z
 _atom_site_occupancy
  Dy  Dy0  1  0.399191  0.798079  0.197270  1
  Dy  Dy1  1  0.000000  0.000000  0.000000  1
  Dy  Dy2  1  0.600809  0.201921  0.802730  1
  Dy  Dy3  1  0.201921  0.399191  0.601112  1
  Dy  Dy4  1  0.798079  0.600809  0.398888  1
  Au  Au5  1  0.500000  0.500000  0.000000  1
  Se  Se6  1  0.096415  0.696661  0.793075  1
  Se  Se7  1  0.696661  0.903585  0.600247  1
  Se  Se8  1  0.303339  0.096415  0.399753  1
  Se  Se9  1  0.903585  0.303339  0.206925  1
