# generated using pymatgen
data_Ce2CoNi(AsH2)2
_symmetry_space_group_name_H-M   'P 1'
_cell_length_a   4.11210700
_cell_length_b   4.11210801
_cell_length_c   8.28085000
_cell_angle_alpha   90.00000000
_cell_angle_beta   90.00000000
_cell_angle_gamma   119.99999994
_symmetry_Int_Tables_number   1
_chemical_formula_structural   Ce2CoNi(AsH2)2
_chemical_formula_sum   'Ce2 Co1 Ni1 As2 H4'
_cell_volume   121.26472043
_cell_formula_units_Z   1
loop_
 _symmetry_equiv_pos_site_id
 _symmetry_equiv_pos_as_xyz
  1  'x, y, z'
loop_
 _atom_site_type_symbol
 _atom_site_label
 _atom_site_symmetry_multiplicity
 _atom_site_fract_x
 _atom_site_fract_y
 _atom_site_fract_z
 _atom_site_occupancy
  Ce  Ce0  1  0.000000  0.000000  0.504438  1
  Ce  Ce1  1  0.000000  0.000000  0.995562  1
  Co  Co2  1  0.666667  0.333333  0.750000  1
  Ni  Ni3  1  0.333333  0.666667  0.250000  1
  As  As4  1  0.333333  0.666667  0.750000  1
  As  As5  1  0.666667  0.333333  0.250000  1
  H  H6  1  0.333333  0.666667  0.446223  1
  H  H7  1  0.666667  0.333333  0.557719  1
  H  H8  1  0.333333  0.666667  0.053777  1
  H  H9  1  0.666667  0.333333  0.942281  1
