# generated using pymatgen
data_Hf2Ta3BeSi3
_symmetry_space_group_name_H-M   'P 1'
_cell_length_a   6.60010700
_cell_length_b   6.75976200
_cell_length_c   12.94946800
_cell_angle_alpha   90.00000000
_cell_angle_beta   90.00000000
_cell_angle_gamma   90.00000000
_symmetry_Int_Tables_number   1
_chemical_formula_structural   Hf2Ta3BeSi3
_chemical_formula_sum   'Hf8 Ta12 Be4 Si12'
_cell_volume   577.74248954
_cell_formula_units_Z   4
loop_
 _symmetry_equiv_pos_site_id
 _symmetry_equiv_pos_as_xyz
  1  'x, y, z'
loop_
 _atom_site_type_symbol
 _atom_site_label
 _atom_site_symmetry_multiplicity
 _atom_site_fract_x
 _atom_site_fract_y
 _atom_site_fract_z
 _atom_site_occupancy
  Hf  Hf0  1  0.500508  0.672395  0.596170  1
  Hf  Hf1  1  0.000508  0.827605  0.903830  1
  Hf  Hf2  1  0.499492  0.327605  0.096170  1
  Hf  Hf3  1  0.999492  0.172395  0.403830  1
  Hf  Hf4  1  0.499492  0.327605  0.403830  1
  Hf  Hf5  1  0.999492  0.172395  0.096170  1
  Hf  Hf6  1  0.500508  0.672395  0.903830  1
  Hf  Hf7  1  0.000508  0.827605  0.596170  1
  Ta  Ta8  1  0.659909  0.178058  0.627389  1
  Ta  Ta9  1  0.159909  0.321942  0.872611  1
  Ta  Ta10  1  0.340091  0.821942  0.127389  1
  Ta  Ta11  1  0.840091  0.678058  0.372611  1
  Ta  Ta12  1  0.340091  0.821942  0.372611  1
  Ta  Ta13  1  0.840091  0.678058  0.127389  1
  Ta  Ta14  1  0.659909  0.178058  0.872611  1
  Ta  Ta15  1  0.159909  0.321942  0.627389  1
  Ta  Ta16  1  0.831596  0.493841  0.750000  1
  Ta  Ta17  1  0.331596  0.006159  0.750000  1
  Ta  Ta18  1  0.168404  0.506159  0.250000  1
  Ta  Ta19  1  0.668404  0.993841  0.250000  1
  Be  Be20  1  0.453855  0.385475  0.750000  1
  Be  Be21  1  0.953855  0.114525  0.750000  1
  Be  Be22  1  0.546145  0.614525  0.250000  1
  Be  Be23  1  0.046145  0.885475  0.250000  1
  Si  Si24  1  0.670920  0.964815  0.463398  1
  Si  Si25  1  0.170920  0.535185  0.036602  1
  Si  Si26  1  0.329080  0.035185  0.963398  1
  Si  Si27  1  0.829080  0.464815  0.536602  1
  Si  Si28  1  0.329080  0.035185  0.536602  1
  Si  Si29  1  0.829080  0.464815  0.963398  1
  Si  Si30  1  0.670920  0.964815  0.036602  1
  Si  Si31  1  0.170920  0.535185  0.463398  1
  Si  Si32  1  0.713726  0.871284  0.750000  1
  Si  Si33  1  0.213726  0.628716  0.750000  1
  Si  Si34  1  0.286274  0.128716  0.250000  1
  Si  Si35  1  0.786274  0.371284  0.250000  1
