# generated using pymatgen
data_ZnCu5(SnRh2)6
_symmetry_space_group_name_H-M   'P 1'
_cell_length_a   4.41252907
_cell_length_b   6.20911200
_cell_length_c   13.26937833
_cell_angle_alpha   90.00000000
_cell_angle_beta   90.11149587
_cell_angle_gamma   90.00000000
_symmetry_Int_Tables_number   1
_chemical_formula_structural   ZnCu5(SnRh2)6
_chemical_formula_sum   'Zn1 Cu5 Sn6 Rh12'
_cell_volume   363.55224254
_cell_formula_units_Z   1
loop_
 _symmetry_equiv_pos_site_id
 _symmetry_equiv_pos_as_xyz
  1  'x, y, z'
loop_
 _atom_site_type_symbol
 _atom_site_label
 _atom_site_symmetry_multiplicity
 _atom_site_fract_x
 _atom_site_fract_y
 _atom_site_fract_z
 _atom_site_occupancy
  Zn  Zn0  1  0.000000  0.499999  0.000000  1
  Cu  Cu1  1  0.499360  0.000000  0.166844  1
  Cu  Cu2  1  0.998276  0.499999  0.333376  1
  Cu  Cu3  1  0.499999  0.000000  0.500000  1
  Cu  Cu4  1  0.001723  0.499999  0.666623  1
  Cu  Cu5  1  0.500639  0.000000  0.833156  1
  Sn  Sn6  1  0.000000  0.000000  0.000000  1
  Sn  Sn7  1  0.499527  0.499999  0.169836  1
  Sn  Sn8  1  0.999334  0.000000  0.333393  1
  Sn  Sn9  1  0.499999  0.499999  0.500000  1
  Sn  Sn10  1  0.000665  0.000000  0.666607  1
  Sn  Sn11  1  0.500472  0.499999  0.830164  1
  Rh  Rh12  1  0.499999  0.252270  0.000000  1
  Rh  Rh13  1  0.499999  0.747729  0.000000  1
  Rh  Rh14  1  0.999524  0.250654  0.165598  1
  Rh  Rh15  1  0.999524  0.749346  0.165598  1
  Rh  Rh16  1  0.499157  0.248586  0.334050  1
  Rh  Rh17  1  0.499157  0.751413  0.334050  1
  Rh  Rh18  1  0.000000  0.250578  0.500000  1
  Rh  Rh19  1  0.000000  0.749422  0.500000  1
  Rh  Rh20  1  0.500842  0.248586  0.665950  1
  Rh  Rh21  1  0.500842  0.751413  0.665950  1
  Rh  Rh22  1  0.000474  0.250654  0.834402  1
  Rh  Rh23  1  0.000474  0.749346  0.834402  1
