# generated using pymatgen
data_TbLu3Al17GaRh6
_symmetry_space_group_name_H-M   'P 1'
_cell_length_a   7.51909667
_cell_length_b   7.52293731
_cell_length_c   9.43389100
_cell_angle_alpha   90.00000000
_cell_angle_beta   90.00000000
_cell_angle_gamma   119.25362326
_symmetry_Int_Tables_number   1
_chemical_formula_structural   TbLu3Al17GaRh6
_chemical_formula_sum   'Tb1 Lu3 Al17 Ga1 Rh6'
_cell_volume   465.57755099
_cell_formula_units_Z   1
loop_
 _symmetry_equiv_pos_site_id
 _symmetry_equiv_pos_as_xyz
  1  'x, y, z'
loop_
 _atom_site_type_symbol
 _atom_site_label
 _atom_site_symmetry_multiplicity
 _atom_site_fract_x
 _atom_site_fract_y
 _atom_site_fract_z
 _atom_site_occupancy
  Tb  Tb0  1  0.993848  0.674131  0.250000  1
  Lu  Lu1  1  0.004767  0.327081  0.750000  1
  Lu  Lu2  1  0.674541  0.994183  0.250000  1
  Lu  Lu3  1  0.327277  0.004801  0.750000  1
  Al  Al4  1  0.871595  0.872047  0.750000  1
  Al  Al5  1  0.001289  0.335407  0.074132  1
  Al  Al6  1  0.999504  0.663932  0.923141  1
  Al  Al7  1  0.999504  0.663932  0.576859  1
  Al  Al8  1  0.337312  0.001982  0.425764  1
  Al  Al9  1  0.001289  0.335407  0.425868  1
  Al  Al10  1  0.663964  0.999728  0.575672  1
  Al  Al11  1  0.663964  0.999728  0.924328  1
  Al  Al12  1  0.337312  0.001982  0.074236  1
  Al  Al13  1  0.332306  0.332326  0.555108  1
  Al  Al14  1  0.665528  0.666445  0.450673  1
  Al  Al15  1  0.665528  0.666445  0.049327  1
  Al  Al16  1  0.332306  0.332326  0.944892  1
  Al  Al17  1  0.339527  0.551404  0.250000  1
  Al  Al18  1  0.660676  0.448305  0.750000  1
  Al  Al19  1  0.550206  0.337313  0.250000  1
  Al  Al20  1  0.448936  0.661236  0.750000  1
  Ga  Ga21  1  0.130280  0.131218  0.250000  1
  Rh  Rh22  1  0.671632  0.327083  0.000083  1
  Rh  Rh23  1  0.328201  0.672309  0.999765  1
  Rh  Rh24  1  0.328201  0.672309  0.500235  1
  Rh  Rh25  1  0.671632  0.327083  0.499917  1
  Rh  Rh26  1  0.999435  0.999928  0.997321  1
  Rh  Rh27  1  0.999435  0.999928  0.502679  1
