# generated using pymatgen
data_LaDyNi12P5
_symmetry_space_group_name_H-M   'P 1'
_cell_length_a   3.66600400
_cell_length_b   10.75194820
_cell_length_c   13.16558329
_cell_angle_alpha   71.56762756
_cell_angle_beta   90.00000000
_cell_angle_gamma   90.00000000
_symmetry_Int_Tables_number   1
_chemical_formula_structural   LaDyNi12P5
_chemical_formula_sum   'La2 Dy2 Ni24 P10'
_cell_volume   492.32055297
_cell_formula_units_Z   2
loop_
 _symmetry_equiv_pos_site_id
 _symmetry_equiv_pos_as_xyz
  1  'x, y, z'
loop_
 _atom_site_type_symbol
 _atom_site_label
 _atom_site_symmetry_multiplicity
 _atom_site_fract_x
 _atom_site_fract_y
 _atom_site_fract_z
 _atom_site_occupancy
  La  La0  1  0.250000  0.244489  0.188012  1
  La  La1  1  0.750000  0.755511  0.811988  1
  Dy  Dy2  1  0.250000  0.282282  0.681407  1
  Dy  Dy3  1  0.750000  0.717718  0.318593  1
  Ni  Ni4  1  0.250000  0.835046  0.140467  1
  Ni  Ni5  1  0.750000  0.164954  0.859533  1
  Ni  Ni6  1  0.250000  0.287473  0.439693  1
  Ni  Ni7  1  0.750000  0.712527  0.560307  1
  Ni  Ni8  1  0.250000  0.068428  0.016562  1
  Ni  Ni9  1  0.750000  0.931572  0.983438  1
  Ni  Ni10  1  0.250000  0.062818  0.446646  1
  Ni  Ni11  1  0.750000  0.937182  0.553354  1
  Ni  Ni12  1  0.250000  0.595237  0.695154  1
  Ni  Ni13  1  0.750000  0.404763  0.304846  1
  Ni  Ni14  1  0.250000  0.582602  0.009328  1
  Ni  Ni15  1  0.750000  0.417398  0.990672  1
  Ni  Ni16  1  0.250000  0.579058  0.509021  1
  Ni  Ni17  1  0.750000  0.420942  0.490979  1
  Ni  Ni18  1  0.250000  0.297216  0.916129  1
  Ni  Ni19  1  0.750000  0.702784  0.083871  1
  Ni  Ni20  1  0.250000  0.998848  0.658476  1
  Ni  Ni21  1  0.750000  0.001152  0.341524  1
  Ni  Ni22  1  0.250000  0.835686  0.437208  1
  Ni  Ni23  1  0.750000  0.164314  0.562792  1
  Ni  Ni24  1  0.250000  0.995235  0.847395  1
  Ni  Ni25  1  0.750000  0.004765  0.152605  1
  Ni  Ni26  1  0.250000  0.566950  0.204815  1
  Ni  Ni27  1  0.750000  0.433050  0.795185  1
  P  P28  1  0.250000  0.508525  0.871306  1
  P  P29  1  0.750000  0.491475  0.128694  1
  P  P30  1  0.250000  0.802493  0.984478  1
  P  P31  1  0.750000  0.197507  0.015522  1
  P  P32  1  0.250000  0.497157  0.377660  1
  P  P33  1  0.750000  0.502843  0.622340  1
  P  P34  1  0.250000  0.814044  0.609498  1
  P  P35  1  0.750000  0.185956  0.390502  1
  P  P36  1  0.250000  0.942284  0.261339  1
  P  P37  1  0.750000  0.057716  0.738661  1
