# generated using pymatgen
data_Tb3In3Ga2Ag
_symmetry_space_group_name_H-M   'P 1'
_cell_length_a   7.36579000
_cell_length_b   7.36578841
_cell_length_c   4.48972700
_cell_angle_alpha   90.00000000
_cell_angle_beta   90.00000000
_cell_angle_gamma   119.99999816
_symmetry_Int_Tables_number   1
_chemical_formula_structural   Tb3In3Ga2Ag
_chemical_formula_sum   'Tb3 In3 Ga2 Ag1'
_cell_volume   210.95467101
_cell_formula_units_Z   1
loop_
 _symmetry_equiv_pos_site_id
 _symmetry_equiv_pos_as_xyz
  1  'x, y, z'
loop_
 _atom_site_type_symbol
 _atom_site_label
 _atom_site_symmetry_multiplicity
 _atom_site_fract_x
 _atom_site_fract_y
 _atom_site_fract_z
 _atom_site_occupancy
  Tb  Tb0  1  0.579234  0.000000  0.000000  1
  Tb  Tb1  1  0.000000  0.579234  0.000000  1
  Tb  Tb2  1  0.420766  0.420766  0.000000  1
  In  In3  1  0.252077  0.000000  0.500000  1
  In  In4  1  0.000000  0.252077  0.500000  1
  In  In5  1  0.747923  0.747923  0.500000  1
  Ga  Ga6  1  0.333333  0.666667  0.500000  1
  Ga  Ga7  1  0.666667  0.333333  0.500000  1
  Ag  Ag8  1  0.000000  0.000000  0.000000  1
