# generated using pymatgen
data_Ce(TmCo)5
_symmetry_space_group_name_H-M   'P 1'
_cell_length_a   5.60599980
_cell_length_b   5.60600045
_cell_length_c   20.92416700
_cell_angle_alpha   90.00000000
_cell_angle_beta   90.00000000
_cell_angle_gamma   138.69476533
_symmetry_Int_Tables_number   1
_chemical_formula_structural   Ce(TmCo)5
_chemical_formula_sum   'Ce2 Tm10 Co10'
_cell_volume   434.05481426
_cell_formula_units_Z   2
loop_
 _symmetry_equiv_pos_site_id
 _symmetry_equiv_pos_as_xyz
  1  'x, y, z'
loop_
 _atom_site_type_symbol
 _atom_site_label
 _atom_site_symmetry_multiplicity
 _atom_site_fract_x
 _atom_site_fract_y
 _atom_site_fract_z
 _atom_site_occupancy
  Ce  Ce0  1  0.000000  0.000000  0.500000  1
  Ce  Ce1  1  0.000000  0.000000  0.000000  1
  Tm  Tm2  1  0.286321  0.713679  0.250000  1
  Tm  Tm3  1  0.284621  0.715379  0.075400  1
  Tm  Tm4  1  0.995698  0.004302  0.835940  1
  Tm  Tm5  1  0.713679  0.286321  0.750000  1
  Tm  Tm6  1  0.715379  0.284621  0.575400  1
  Tm  Tm7  1  0.004302  0.995698  0.335940  1
  Tm  Tm8  1  0.995698  0.004302  0.664060  1
  Tm  Tm9  1  0.715379  0.284621  0.924600  1
  Tm  Tm10  1  0.004302  0.995698  0.164060  1
  Tm  Tm11  1  0.284621  0.715379  0.424600  1
  Co  Co12  1  0.294682  0.705318  0.655612  1
  Co  Co13  1  0.577091  0.422909  0.442990  1
  Co  Co14  1  0.413905  0.586095  0.750000  1
  Co  Co15  1  0.422909  0.577091  0.942990  1
  Co  Co16  1  0.586095  0.413905  0.250000  1
  Co  Co17  1  0.422909  0.577091  0.557010  1
  Co  Co18  1  0.705318  0.294682  0.344388  1
  Co  Co19  1  0.705318  0.294682  0.155612  1
  Co  Co20  1  0.577091  0.422909  0.057010  1
  Co  Co21  1  0.294682  0.705318  0.844388  1
