# generated using pymatgen
data_TmLu7(CuP)12
_symmetry_space_group_name_H-M   'P 1'
_cell_length_a   3.82037000
_cell_length_b   10.63848601
_cell_length_c   12.93765500
_cell_angle_alpha   89.99763029
_cell_angle_beta   89.99997001
_cell_angle_gamma   89.99997307
_symmetry_Int_Tables_number   1
_chemical_formula_structural   TmLu7(CuP)12
_chemical_formula_sum   'Tm1 Lu7 Cu12 P12'
_cell_volume   525.82450099
_cell_formula_units_Z   1
loop_
 _symmetry_equiv_pos_site_id
 _symmetry_equiv_pos_as_xyz
  1  'x, y, z'
loop_
 _atom_site_type_symbol
 _atom_site_label
 _atom_site_symmetry_multiplicity
 _atom_site_fract_x
 _atom_site_fract_y
 _atom_site_fract_z
 _atom_site_occupancy
  Tm  Tm0  1  0.750001  0.159671  0.496278  1
  Lu  Lu1  1  0.249999  0.930861  0.791590  1
  Lu  Lu2  1  0.750000  0.430758  0.708306  1
  Lu  Lu3  1  0.250000  0.569121  0.291729  1
  Lu  Lu4  1  0.750000  0.068989  0.208441  1
  Lu  Lu5  1  0.250000  0.840263  0.503862  1
  Lu  Lu6  1  0.750000  0.340456  0.996059  1
  Lu  Lu7  1  0.250000  0.659520  0.003905  1
  Cu  Cu8  1  0.250000  0.406212  0.513656  1
  Cu  Cu9  1  0.749999  0.905890  0.986331  1
  Cu  Cu10  1  0.250000  0.093844  0.013599  1
  Cu  Cu11  1  0.750001  0.593968  0.486323  1
  Cu  Cu12  1  0.249999  0.272137  0.331070  1
  Cu  Cu13  1  0.750001  0.772119  0.168554  1
  Cu  Cu14  1  0.250000  0.227923  0.831271  1
  Cu  Cu15  1  0.750001  0.728042  0.668486  1
  Cu  Cu16  1  0.250000  0.860211  0.282671  1
  Cu  Cu17  1  0.750000  0.360080  0.217592  1
  Cu  Cu18  1  0.250001  0.640165  0.782328  1
  Cu  Cu19  1  0.750000  0.140286  0.718211  1
  P  P20  1  0.250000  0.244706  0.641471  1
  P  P21  1  0.749999  0.744484  0.859026  1
  P  P22  1  0.250000  0.255396  0.140872  1
  P  P23  1  0.750001  0.755490  0.358990  1
  P  P24  1  0.249999  0.605611  0.602818  1
  P  P25  1  0.749999  0.105697  0.897203  1
  P  P26  1  0.250000  0.894217  0.102782  1
  P  P27  1  0.750000  0.394694  0.396948  1
  P  P28  1  0.249999  0.056027  0.369658  1
  P  P29  1  0.750000  0.556421  0.129789  1
  P  P30  1  0.250000  0.443572  0.870208  1
  P  P31  1  0.750000  0.943170  0.629974  1
