# generated using pymatgen
data_Dy5Mg(Rh2Pb)6
_symmetry_space_group_name_H-M   'P 1'
_cell_length_a   4.60028800
_cell_length_b   7.17416700
_cell_length_c   13.66537600
_cell_angle_alpha   90.00000000
_cell_angle_beta   90.00005414
_cell_angle_gamma   90.00000000
_symmetry_Int_Tables_number   1
_chemical_formula_structural   Dy5Mg(Rh2Pb)6
_chemical_formula_sum   'Dy5 Mg1 Rh12 Pb6'
_cell_volume   451.00160675
_cell_formula_units_Z   1
loop_
 _symmetry_equiv_pos_site_id
 _symmetry_equiv_pos_as_xyz
  1  'x, y, z'
loop_
 _atom_site_type_symbol
 _atom_site_label
 _atom_site_symmetry_multiplicity
 _atom_site_fract_x
 _atom_site_fract_y
 _atom_site_fract_z
 _atom_site_occupancy
  Dy  Dy0  1  0.999999  0.000000  0.996228  1
  Dy  Dy1  1  0.499990  0.500000  0.164503  1
  Dy  Dy2  1  0.999991  0.000000  0.333327  1
  Dy  Dy3  1  0.500000  0.500000  0.502175  1
  Dy  Dy4  1  0.000010  0.000000  0.670452  1
  Mg  Mg5  1  0.500005  0.500000  0.833310  1
  Rh  Rh6  1  0.499997  0.257909  0.994252  1
  Rh  Rh7  1  0.499997  0.742092  0.994252  1
  Rh  Rh8  1  0.999989  0.249208  0.165242  1
  Rh  Rh9  1  0.999989  0.750791  0.165242  1
  Rh  Rh10  1  0.499991  0.250338  0.333334  1
  Rh  Rh11  1  0.499991  0.749661  0.333334  1
  Rh  Rh12  1  0.999999  0.249226  0.501418  1
  Rh  Rh13  1  0.999999  0.750775  0.501418  1
  Rh  Rh14  1  0.500009  0.257797  0.672395  1
  Rh  Rh15  1  0.500009  0.742202  0.672395  1
  Rh  Rh16  1  0.000014  0.256980  0.833345  1
  Rh  Rh17  1  0.000014  0.743019  0.833345  1
  Pb  Pb18  1  0.999997  0.500000  0.995375  1
  Pb  Pb19  1  0.499988  0.000000  0.162611  1
  Pb  Pb20  1  0.999998  0.500000  0.333335  1
  Pb  Pb21  1  0.499999  0.000000  0.504034  1
  Pb  Pb22  1  0.000004  0.500000  0.671310  1
  Pb  Pb23  1  0.500015  0.000000  0.833367  1
