# generated using pymatgen
data_Cs3OsO5
_symmetry_space_group_name_H-M   'P 1'
_cell_length_a   8.98683000
_cell_length_b   9.15302100
_cell_length_c   9.90218600
_cell_angle_alpha   90.00000000
_cell_angle_beta   90.00000000
_cell_angle_gamma   90.00000000
_symmetry_Int_Tables_number   1
_chemical_formula_structural   Cs3OsO5
_chemical_formula_sum   'Cs12 Os4 O20'
_cell_volume   814.52058579
_cell_formula_units_Z   4
loop_
 _symmetry_equiv_pos_site_id
 _symmetry_equiv_pos_as_xyz
  1  'x, y, z'
loop_
 _atom_site_type_symbol
 _atom_site_label
 _atom_site_symmetry_multiplicity
 _atom_site_fract_x
 _atom_site_fract_y
 _atom_site_fract_z
 _atom_site_occupancy
  Cs  Cs0  1  0.250000  0.000000  0.481457  1
  Cs  Cs1  1  0.750000  0.000000  0.518543  1
  Cs  Cs2  1  0.250000  0.500000  0.018543  1
  Cs  Cs3  1  0.750000  0.500000  0.981457  1
  Cs  Cs4  1  0.250000  0.000000  0.024034  1
  Cs  Cs5  1  0.750000  0.000000  0.975966  1
  Cs  Cs6  1  0.250000  0.500000  0.475966  1
  Cs  Cs7  1  0.750000  0.500000  0.524034  1
  Cs  Cs8  1  0.548777  0.250000  0.250000  1
  Cs  Cs9  1  0.451223  0.750000  0.750000  1
  Cs  Cs10  1  0.951223  0.750000  0.250000  1
  Cs  Cs11  1  0.048777  0.250000  0.750000  1
  Os  Os12  1  0.004708  0.250000  0.250000  1
  Os  Os13  1  0.995292  0.750000  0.750000  1
  Os  Os14  1  0.495292  0.750000  0.250000  1
  Os  Os15  1  0.504708  0.250000  0.750000  1
  O  O16  1  0.208580  0.250000  0.250000  1
  O  O17  1  0.791420  0.750000  0.750000  1
  O  O18  1  0.291420  0.750000  0.250000  1
  O  O19  1  0.708580  0.250000  0.750000  1
  O  O20  1  0.591755  0.576346  0.253824  1
  O  O21  1  0.408245  0.423654  0.746176  1
  O  O22  1  0.908245  0.423654  0.253824  1
  O  O23  1  0.908245  0.076346  0.246176  1
  O  O24  1  0.091755  0.576346  0.746176  1
  O  O25  1  0.091755  0.923654  0.753824  1
  O  O26  1  0.591755  0.923654  0.246176  1
  O  O27  1  0.408245  0.076346  0.753824  1
  O  O28  1  0.505915  0.245399  0.557797  1
  O  O29  1  0.494085  0.754601  0.442203  1
  O  O30  1  0.994085  0.754601  0.557797  1
  O  O31  1  0.994085  0.745399  0.942203  1
  O  O32  1  0.005915  0.245399  0.442203  1
  O  O33  1  0.005915  0.254601  0.057797  1
  O  O34  1  0.505915  0.254601  0.942203  1
  O  O35  1  0.494085  0.745399  0.057797  1
