# generated using pymatgen
data_LaNd7(RuO6)4
_symmetry_space_group_name_H-M   'P 1'
_cell_length_a   10.18797109
_cell_length_b   10.18797114
_cell_length_c   5.63088029
_cell_angle_alpha   74.98645631
_cell_angle_beta   74.98646479
_cell_angle_gamma   69.33223989
_symmetry_Int_Tables_number   1
_chemical_formula_structural   LaNd7(RuO6)4
_chemical_formula_sum   'La1 Nd7 Ru4 O24'
_cell_volume   519.01060024
_cell_formula_units_Z   1
loop_
 _symmetry_equiv_pos_site_id
 _symmetry_equiv_pos_as_xyz
  1  'x, y, z'
loop_
 _atom_site_type_symbol
 _atom_site_label
 _atom_site_symmetry_multiplicity
 _atom_site_fract_x
 _atom_site_fract_y
 _atom_site_fract_z
 _atom_site_occupancy
  La  La0  1  0.366006  0.633994  0.250000  1
  Nd  Nd1  1  0.107452  0.892548  0.750000  1
  Nd  Nd2  1  0.891231  0.108769  0.250000  1
  Nd  Nd3  1  0.066908  0.287278  0.625570  1
  Nd  Nd4  1  0.712722  0.933092  0.874430  1
  Nd  Nd5  1  0.931709  0.712712  0.375012  1
  Nd  Nd6  1  0.287288  0.068291  0.124988  1
  Nd  Nd7  1  0.632848  0.367152  0.750000  1
  Ru  Ru8  1  0.501689  0.799236  0.548118  1
  Ru  Ru9  1  0.200764  0.498311  0.951882  1
  Ru  Ru10  1  0.499183  0.200509  0.452024  1
  Ru  Ru11  1  0.799491  0.500817  0.047976  1
  O  O12  1  0.615182  0.170876  0.150781  1
  O  O13  1  0.829124  0.384818  0.349219  1
  O  O14  1  0.384661  0.831485  0.846087  1
  O  O15  1  0.168515  0.615339  0.653913  1
  O  O16  1  0.473112  0.070092  0.737874  1
  O  O17  1  0.929908  0.526888  0.762126  1
  O  O18  1  0.527544  0.929326  0.261516  1
  O  O19  1  0.070674  0.472456  0.238484  1
  O  O20  1  0.325854  0.214596  0.371257  1
  O  O21  1  0.785404  0.674146  0.128743  1
  O  O22  1  0.674693  0.785673  0.629044  1
  O  O23  1  0.214327  0.325307  0.870956  1
  O  O24  1  0.889506  0.923713  0.071657  1
  O  O25  1  0.076287  0.110494  0.428343  1
  O  O26  1  0.110404  0.076402  0.928938  1
  O  O27  1  0.923598  0.889596  0.571062  1
  O  O28  1  0.161605  0.688847  0.087941  1
  O  O29  1  0.311153  0.838395  0.412059  1
  O  O30  1  0.837817  0.310583  0.910162  1
  O  O31  1  0.689417  0.162183  0.589838  1
  O  O32  1  0.384674  0.456656  0.981041  1
  O  O33  1  0.543344  0.615326  0.518959  1
  O  O34  1  0.617140  0.541233  0.014227  1
  O  O35  1  0.458767  0.382860  0.485773  1
