# generated using pymatgen
data_Sr3(GaPt)2
_symmetry_space_group_name_H-M   'P 1'
_cell_length_a   6.13557100
_cell_length_b   8.26666300
_cell_length_c   14.23956300
_cell_angle_alpha   90.00000000
_cell_angle_beta   90.00000000
_cell_angle_gamma   90.00000000
_symmetry_Int_Tables_number   1
_chemical_formula_structural   Sr3(GaPt)2
_chemical_formula_sum   'Sr12 Ga8 Pt8'
_cell_volume   722.24057129
_cell_formula_units_Z   4
loop_
 _symmetry_equiv_pos_site_id
 _symmetry_equiv_pos_as_xyz
  1  'x, y, z'
loop_
 _atom_site_type_symbol
 _atom_site_label
 _atom_site_symmetry_multiplicity
 _atom_site_fract_x
 _atom_site_fract_y
 _atom_site_fract_z
 _atom_site_occupancy
  Sr  Sr0  1  0.143654  0.605118  0.098148  1
  Sr  Sr1  1  0.143654  0.894882  0.901852  1
  Sr  Sr2  1  0.856346  0.105118  0.401852  1
  Sr  Sr3  1  0.856346  0.394882  0.598148  1
  Sr  Sr4  1  0.856346  0.394882  0.901852  1
  Sr  Sr5  1  0.856346  0.105118  0.098148  1
  Sr  Sr6  1  0.143654  0.894882  0.598148  1
  Sr  Sr7  1  0.143654  0.605118  0.401852  1
  Sr  Sr8  1  0.364551  0.260137  0.250000  1
  Sr  Sr9  1  0.364551  0.239863  0.750000  1
  Sr  Sr10  1  0.635449  0.760137  0.250000  1
  Sr  Sr11  1  0.635449  0.739863  0.750000  1
  Ga  Ga12  1  0.393344  0.250000  0.000000  1
  Ga  Ga13  1  0.606656  0.750000  0.500000  1
  Ga  Ga14  1  0.606656  0.750000  0.000000  1
  Ga  Ga15  1  0.393344  0.250000  0.500000  1
  Ga  Ga16  1  0.845541  0.409720  0.250000  1
  Ga  Ga17  1  0.845541  0.090280  0.750000  1
  Ga  Ga18  1  0.154459  0.909720  0.250000  1
  Ga  Ga19  1  0.154459  0.590280  0.750000  1
  Pt  Pt20  1  0.636582  0.469973  0.094282  1
  Pt  Pt21  1  0.636582  0.030027  0.905718  1
  Pt  Pt22  1  0.363418  0.969973  0.405718  1
  Pt  Pt23  1  0.363418  0.530027  0.594282  1
  Pt  Pt24  1  0.363418  0.530027  0.905718  1
  Pt  Pt25  1  0.363418  0.969973  0.094282  1
  Pt  Pt26  1  0.636582  0.030027  0.594282  1
  Pt  Pt27  1  0.636582  0.469973  0.405718  1
