# generated using pymatgen
data_YEr4MoRuO12
_symmetry_space_group_name_H-M   'P 1'
_cell_length_a   6.78702025
_cell_length_b   6.78839840
_cell_length_c   7.46884846
_cell_angle_alpha   73.84185327
_cell_angle_beta   73.83102332
_cell_angle_gamma   49.74191289
_symmetry_Int_Tables_number   1
_chemical_formula_structural   YEr4MoRuO12
_chemical_formula_sum   'Y1 Er4 Mo1 Ru1 O12'
_cell_volume   249.93864081
_cell_formula_units_Z   1
loop_
 _symmetry_equiv_pos_site_id
 _symmetry_equiv_pos_as_xyz
  1  'x, y, z'
loop_
 _atom_site_type_symbol
 _atom_site_label
 _atom_site_symmetry_multiplicity
 _atom_site_fract_x
 _atom_site_fract_y
 _atom_site_fract_z
 _atom_site_occupancy
  Y  Y0  1  0.184818  0.207784  0.640335  1
  Er  Er1  1  0.492935  0.507289  0.499683  1
  Er  Er2  1  0.180461  0.191638  0.175286  1
  Er  Er3  1  0.808313  0.819392  0.824648  1
  Er  Er4  1  0.792207  0.815186  0.359172  1
  Mo  Mo5  1  0.297380  0.702176  0.000290  1
  Ru  Ru6  1  0.736439  0.263153  0.000463  1
  O  O7  1  0.007107  0.991111  0.181902  1
  O  O8  1  0.007835  0.991835  0.819468  1
  O  O9  1  0.504093  0.494007  0.794986  1
  O  O10  1  0.506090  0.495514  0.205107  1
  O  O11  1  0.591900  0.098562  0.575821  1
  O  O12  1  0.899071  0.412447  0.421701  1
  O  O13  1  0.394424  0.908988  0.427033  1
  O  O14  1  0.408240  0.913363  0.917664  1
  O  O15  1  0.085730  0.592242  0.083778  1
  O  O16  1  0.586253  0.070887  0.085943  1
  O  O17  1  0.927812  0.414778  0.915912  1
  O  O18  1  0.088894  0.609648  0.570808  1
