# generated using pymatgen
data_TcOsO6
_symmetry_space_group_name_H-M   'P 1'
_cell_length_a   5.33618771
_cell_length_b   5.33618802
_cell_length_c   5.33618701
_cell_angle_alpha   59.81499733
_cell_angle_beta   59.81499242
_cell_angle_gamma   59.81501380
_symmetry_Int_Tables_number   1
_chemical_formula_structural   TcOsO6
_chemical_formula_sum   'Tc1 Os1 O6'
_cell_volume   106.99185533
_cell_formula_units_Z   1
loop_
 _symmetry_equiv_pos_site_id
 _symmetry_equiv_pos_as_xyz
  1  'x, y, z'
loop_
 _atom_site_type_symbol
 _atom_site_label
 _atom_site_symmetry_multiplicity
 _atom_site_fract_x
 _atom_site_fract_y
 _atom_site_fract_z
 _atom_site_occupancy
  Tc  Tc0  1  0.000000  0.000000  0.000000  1
  Os  Os1  1  0.500000  0.500000  0.500000  1
  O  O2  1  0.278165  0.748996  0.223817  1
  O  O3  1  0.251004  0.776183  0.721835  1
  O  O4  1  0.776183  0.721835  0.251004  1
  O  O5  1  0.223817  0.278165  0.748996  1
  O  O6  1  0.748996  0.223817  0.278165  1
  O  O7  1  0.721835  0.251004  0.776183  1
