# generated using pymatgen
data_Dy20Sn9Bi7
_symmetry_space_group_name_H-M   'P 1'
_cell_length_a   8.18485787
_cell_length_b   8.21278029
_cell_length_c   15.62764800
_cell_angle_alpha   90.06742011
_cell_angle_beta   89.60768378
_cell_angle_gamma   89.91753488
_symmetry_Int_Tables_number   1
_chemical_formula_structural   Dy20Sn9Bi7
_chemical_formula_sum   'Dy20 Sn9 Bi7'
_cell_volume   1050.47091159
_cell_formula_units_Z   1
loop_
 _symmetry_equiv_pos_site_id
 _symmetry_equiv_pos_as_xyz
  1  'x, y, z'
loop_
 _atom_site_type_symbol
 _atom_site_label
 _atom_site_symmetry_multiplicity
 _atom_site_fract_x
 _atom_site_fract_y
 _atom_site_fract_z
 _atom_site_occupancy
  Dy  Dy0  1  0.394440  0.837686  0.877576  1
  Dy  Dy1  1  0.897884  0.664197  0.621540  1
  Dy  Dy2  1  0.602249  0.162722  0.377910  1
  Dy  Dy3  1  0.101917  0.337886  0.121356  1
  Dy  Dy4  1  0.607372  0.167610  0.121420  1
  Dy  Dy5  1  0.102282  0.336202  0.377970  1
  Dy  Dy6  1  0.396616  0.837964  0.622696  1
  Dy  Dy7  1  0.891864  0.660833  0.880138  1
  Dy  Dy8  1  0.565117  0.333468  0.890099  1
  Dy  Dy9  1  0.065698  0.169502  0.613989  1
  Dy  Dy10  1  0.434960  0.668287  0.386433  1
  Dy  Dy11  1  0.937214  0.823399  0.111441  1
  Dy  Dy12  1  0.446263  0.665564  0.110174  1
  Dy  Dy13  1  0.934404  0.830450  0.385838  1
  Dy  Dy14  1  0.566017  0.331912  0.613626  1
  Dy  Dy15  1  0.056806  0.173891  0.889690  1
  Dy  Dy16  1  0.228425  0.500266  0.750759  1
  Dy  Dy17  1  0.728293  0.002078  0.750774  1
  Dy  Dy18  1  0.771857  0.499574  0.246215  1
  Dy  Dy19  1  0.271538  0.998105  0.248790  1
  Sn  Sn20  1  0.768765  0.480350  0.044327  1
  Sn  Sn21  1  0.594288  0.629476  0.749810  1
  Sn  Sn22  1  0.092564  0.872190  0.751066  1
  Sn  Sn23  1  0.404842  0.370664  0.250350  1
  Sn  Sn24  1  0.906026  0.126993  0.250038  1
  Sn  Sn25  1  0.366514  0.143480  0.751408  1
  Sn  Sn26  1  0.866933  0.359835  0.750197  1
  Sn  Sn27  1  0.633260  0.858578  0.249473  1
  Sn  Sn28  1  0.135241  0.640339  0.249683  1
  Bi  Bi29  1  0.265284  0.015811  0.044293  1
  Bi  Bi30  1  0.763633  0.486495  0.454286  1
  Bi  Bi31  1  0.736621  0.987415  0.544977  1
  Bi  Bi32  1  0.233273  0.518871  0.955741  1
  Bi  Bi33  1  0.731588  0.981853  0.955875  1
  Bi  Bi34  1  0.237243  0.513576  0.545057  1
  Bi  Bi35  1  0.262713  0.012475  0.454981  1
