# generated using pymatgen
data_Lu3In3HgPt
_symmetry_space_group_name_H-M   'P 1'
_cell_length_a   7.76362700
_cell_length_b   7.76362744
_cell_length_c   3.64554700
_cell_angle_alpha   90.00000000
_cell_angle_beta   90.00000000
_cell_angle_gamma   119.99999388
_symmetry_Int_Tables_number   1
_chemical_formula_structural   Lu3In3HgPt
_chemical_formula_sum   'Lu3 In3 Hg1 Pt1'
_cell_volume   190.29295407
_cell_formula_units_Z   1
loop_
 _symmetry_equiv_pos_site_id
 _symmetry_equiv_pos_as_xyz
  1  'x, y, z'
loop_
 _atom_site_type_symbol
 _atom_site_label
 _atom_site_symmetry_multiplicity
 _atom_site_fract_x
 _atom_site_fract_y
 _atom_site_fract_z
 _atom_site_occupancy
  Lu  Lu0  1  0.571530  0.976468  0.500000  1
  Lu  Lu1  1  0.404939  0.428470  0.500000  1
  Lu  Lu2  1  0.023532  0.595062  0.500000  1
  In  In3  1  0.229938  0.998379  0.000000  1
  In  In4  1  0.001621  0.231560  0.000000  1
  In  In5  1  0.768441  0.770062  0.000000  1
  Hg  Hg6  1  0.666666  0.333333  0.000000  1
  Pt  Pt7  1  0.333334  0.666667  0.000000  1
