# generated using pymatgen
data_NdLu19(AlBi5)2
_symmetry_space_group_name_H-M   'P 1'
_cell_length_a   8.07746581
_cell_length_b   9.34983400
_cell_length_c   11.76828500
_cell_angle_alpha   90.00000000
_cell_angle_beta   90.02571316
_cell_angle_gamma   90.00000000
_symmetry_Int_Tables_number   1
_chemical_formula_structural   NdLu19(AlBi5)2
_chemical_formula_sum   'Nd1 Lu19 Al2 Bi10'
_cell_volume   888.77568073
_cell_formula_units_Z   1
loop_
 _symmetry_equiv_pos_site_id
 _symmetry_equiv_pos_as_xyz
  1  'x, y, z'
loop_
 _atom_site_type_symbol
 _atom_site_label
 _atom_site_symmetry_multiplicity
 _atom_site_fract_x
 _atom_site_fract_y
 _atom_site_fract_z
 _atom_site_occupancy
  Nd  Nd0  1  0.811379  0.250000  0.281437  1
  Lu  Lu1  1  0.352320  0.750000  0.205784  1
  Lu  Lu2  1  0.851513  0.750000  0.293537  1
  Lu  Lu3  1  0.654118  0.250000  0.780377  1
  Lu  Lu4  1  0.153520  0.250000  0.720206  1
  Lu  Lu5  1  0.686427  0.572322  0.056017  1
  Lu  Lu6  1  0.183962  0.927605  0.443794  1
  Lu  Lu7  1  0.307349  0.052215  0.941090  1
  Lu  Lu8  1  0.807808  0.447665  0.558766  1
  Lu  Lu9  1  0.307349  0.447785  0.941090  1
  Lu  Lu10  1  0.807808  0.052335  0.558766  1
  Lu  Lu11  1  0.686427  0.927678  0.056017  1
  Lu  Lu12  1  0.183962  0.572395  0.443794  1
  Lu  Lu13  1  0.479522  0.250000  0.491650  1
  Lu  Lu14  1  0.980441  0.250000  0.009170  1
  Lu  Lu15  1  0.535251  0.750000  0.510034  1
  Lu  Lu16  1  0.036039  0.750000  0.990118  1
  Lu  Lu17  1  0.309292  0.250000  0.217331  1
  Lu  Lu18  1  0.684033  0.750000  0.784555  1
  Lu  Lu19  1  0.184110  0.750000  0.715450  1
  Al  Al20  1  0.408225  0.750000  0.956165  1
  Al  Al21  1  0.907479  0.750000  0.544107  1
  Bi  Bi22  1  0.592887  0.250000  0.038337  1
  Bi  Bi23  1  0.101435  0.250000  0.462614  1
  Bi  Bi24  1  0.552985  0.994391  0.324134  1
  Bi  Bi25  1  0.063438  0.505748  0.174908  1
  Bi  Bi26  1  0.439030  0.498625  0.677960  1
  Bi  Bi27  1  0.938217  0.001745  0.822894  1
  Bi  Bi28  1  0.439030  0.001375  0.677960  1
  Bi  Bi29  1  0.938217  0.498255  0.822894  1
  Bi  Bi30  1  0.552985  0.505609  0.324134  1
  Bi  Bi31  1  0.063438  0.994252  0.174908  1
