# generated using pymatgen
data_TbHo2SiPd5
_symmetry_space_group_name_H-M   'P 1'
_cell_length_a   8.22496275
_cell_length_b   8.22496262
_cell_length_c   8.22496158
_cell_angle_alpha   127.75830408
_cell_angle_beta   125.52135230
_cell_angle_gamma   78.85233048
_symmetry_Int_Tables_number   1
_chemical_formula_structural   TbHo2SiPd5
_chemical_formula_sum   'Tb2 Ho4 Si2 Pd10'
_cell_volume   346.44343316
_cell_formula_units_Z   2
loop_
 _symmetry_equiv_pos_site_id
 _symmetry_equiv_pos_as_xyz
  1  'x, y, z'
loop_
 _atom_site_type_symbol
 _atom_site_label
 _atom_site_symmetry_multiplicity
 _atom_site_fract_x
 _atom_site_fract_y
 _atom_site_fract_z
 _atom_site_occupancy
  Tb  Tb0  1  0.389160  0.250000  0.139160  1
  Tb  Tb1  1  0.610840  0.750000  0.860840  1
  Ho  Ho2  1  0.224737  0.449446  0.775292  1
  Ho  Ho3  1  0.775263  0.550554  0.224708  1
  Ho  Ho4  1  0.825846  0.050554  0.775292  1
  Ho  Ho5  1  0.174154  0.949446  0.224708  1
  Si  Si6  1  0.781329  0.250000  0.531329  1
  Si  Si7  1  0.218671  0.750000  0.468671  1
  Pd  Pd8  1  0.166426  0.398428  0.354985  1
  Pd  Pd9  1  0.833574  0.188558  0.232002  1
  Pd  Pd10  1  0.456557  0.101572  0.767998  1
  Pd  Pd11  1  0.543443  0.311442  0.645015  1
  Pd  Pd12  1  0.000000  0.500000  0.000000  1
  Pd  Pd13  1  0.000000  0.000000  0.500000  1
  Pd  Pd14  1  0.456557  0.688558  0.354985  1
  Pd  Pd15  1  0.543443  0.898428  0.232002  1
  Pd  Pd16  1  0.166426  0.811442  0.767998  1
  Pd  Pd17  1  0.833574  0.601572  0.645015  1
