# generated using pymatgen
data_Tm4MgCo2Sb
_symmetry_space_group_name_H-M   'P 1'
_cell_length_a   8.76930313
_cell_length_b   8.76930352
_cell_length_c   8.76930329
_cell_angle_alpha   131.33076876
_cell_angle_beta   131.33076469
_cell_angle_gamma   71.28808766
_symmetry_Int_Tables_number   1
_chemical_formula_structural   Tm4MgCo2Sb
_chemical_formula_sum   'Tm8 Mg2 Co4 Sb2'
_cell_volume   372.21317173
_cell_formula_units_Z   2
loop_
 _symmetry_equiv_pos_site_id
 _symmetry_equiv_pos_as_xyz
  1  'x, y, z'
loop_
 _atom_site_type_symbol
 _atom_site_label
 _atom_site_symmetry_multiplicity
 _atom_site_fract_x
 _atom_site_fract_y
 _atom_site_fract_z
 _atom_site_occupancy
  Tm  Tm0  1  0.803574  0.303574  0.858340  1
  Tm  Tm1  1  0.196426  0.696426  0.141660  1
  Tm  Tm2  1  0.445234  0.945234  0.141660  1
  Tm  Tm3  1  0.303574  0.445234  0.500000  1
  Tm  Tm4  1  0.054766  0.196426  0.500000  1
  Tm  Tm5  1  0.554766  0.054766  0.858340  1
  Tm  Tm6  1  0.696426  0.554766  0.500000  1
  Tm  Tm7  1  0.945234  0.803574  0.500000  1
  Mg  Mg8  1  0.000000  0.000000  0.000000  1
  Mg  Mg9  1  0.500000  0.500000  0.000000  1
  Co  Co10  1  0.111055  0.611055  0.722108  1
  Co  Co11  1  0.888945  0.388945  0.277892  1
  Co  Co12  1  0.611055  0.888945  0.500000  1
  Co  Co13  1  0.388945  0.111055  0.500000  1
  Sb  Sb14  1  0.250000  0.250000  0.000000  1
  Sb  Sb15  1  0.750000  0.750000  0.000000  1
