# generated using pymatgen
data_Pr3NdZn2P5
_symmetry_space_group_name_H-M   'P 1'
_cell_length_a   4.15674200
_cell_length_b   4.15674272
_cell_length_c   17.07084500
_cell_angle_alpha   90.00000000
_cell_angle_beta   90.00000000
_cell_angle_gamma   119.99999427
_symmetry_Int_Tables_number   1
_chemical_formula_structural   Pr3NdZn2P5
_chemical_formula_sum   'Pr3 Nd1 Zn2 P5'
_cell_volume   255.44175553
_cell_formula_units_Z   1
loop_
 _symmetry_equiv_pos_site_id
 _symmetry_equiv_pos_as_xyz
  1  'x, y, z'
loop_
 _atom_site_type_symbol
 _atom_site_label
 _atom_site_symmetry_multiplicity
 _atom_site_fract_x
 _atom_site_fract_y
 _atom_site_fract_z
 _atom_site_occupancy
  Pr  Pr0  1  0.333333  0.666667  0.099827  1
  Pr  Pr1  1  0.000000  0.000000  0.701925  1
  Pr  Pr2  1  0.000000  0.000000  0.298311  1
  Nd  Nd3  1  0.666667  0.333333  0.899959  1
  Zn  Zn4  1  0.666667  0.333333  0.444730  1
  Zn  Zn5  1  0.333333  0.666667  0.555274  1
  P  P6  1  0.666667  0.333333  0.590998  1
  P  P7  1  0.333333  0.666667  0.409020  1
  P  P8  1  0.666667  0.333333  0.202117  1
  P  P9  1  0.333333  0.666667  0.798532  1
  P  P10  1  0.000000  0.000000  0.999306  1
