# generated using pymatgen
data_Zr10SiBiPdPb5
_symmetry_space_group_name_H-M   'P 1'
_cell_length_a   8.84741391
_cell_length_b   8.84741453
_cell_length_c   5.94252337
_cell_angle_alpha   89.96716768
_cell_angle_beta   89.96717228
_cell_angle_gamma   119.98709569
_symmetry_Int_Tables_number   1
_chemical_formula_structural   Zr10SiBiPdPb5
_chemical_formula_sum   'Zr10 Si1 Bi1 Pd1 Pb5'
_cell_volume   402.89365136
_cell_formula_units_Z   1
loop_
 _symmetry_equiv_pos_site_id
 _symmetry_equiv_pos_as_xyz
  1  'x, y, z'
loop_
 _atom_site_type_symbol
 _atom_site_label
 _atom_site_symmetry_multiplicity
 _atom_site_fract_x
 _atom_site_fract_y
 _atom_site_fract_z
 _atom_site_occupancy
  Zr  Zr0  1  0.667106  0.333581  0.500632  1
  Zr  Zr1  1  0.333581  0.667106  0.500632  1
  Zr  Zr2  1  0.333430  0.666973  0.999317  1
  Zr  Zr3  1  0.666973  0.333430  0.999317  1
  Zr  Zr4  1  0.738860  0.738860  0.239041  1
  Zr  Zr5  1  0.260601  0.998553  0.238326  1
  Zr  Zr6  1  0.998553  0.260601  0.238326  1
  Zr  Zr7  1  0.262558  0.262558  0.761422  1
  Zr  Zr8  1  0.737807  0.000428  0.760968  1
  Zr  Zr9  1  0.000428  0.737807  0.760968  1
  Si  Si10  1  0.999773  0.999773  0.998409  1
  Bi  Bi11  1  0.388519  0.388519  0.256509  1
  Pd  Pd12  1  0.999193  0.999193  0.502435  1
  Pb  Pb13  1  0.611315  0.999915  0.256220  1
  Pb  Pb14  1  0.999915  0.611315  0.256220  1
  Pb  Pb15  1  0.613337  0.613337  0.744640  1
  Pb  Pb16  1  0.388104  0.999948  0.743309  1
  Pb  Pb17  1  0.999948  0.388104  0.743309  1
