# generated using pymatgen
data_CeCoSnH
_symmetry_space_group_name_H-M   'P 1'
_cell_length_a   4.36379900
_cell_length_b   7.11641800
_cell_length_c   8.30492600
_cell_angle_alpha   90.00000000
_cell_angle_beta   90.00000000
_cell_angle_gamma   90.00000000
_symmetry_Int_Tables_number   1
_chemical_formula_structural   CeCoSnH
_chemical_formula_sum   'Ce4 Co4 Sn4 H4'
_cell_volume   257.90630239
_cell_formula_units_Z   4
loop_
 _symmetry_equiv_pos_site_id
 _symmetry_equiv_pos_as_xyz
  1  'x, y, z'
loop_
 _atom_site_type_symbol
 _atom_site_label
 _atom_site_symmetry_multiplicity
 _atom_site_fract_x
 _atom_site_fract_y
 _atom_site_fract_z
 _atom_site_occupancy
  Ce  Ce0  1  0.750000  0.013106  0.693338  1
  Ce  Ce1  1  0.250000  0.986894  0.306662  1
  Ce  Ce2  1  0.250000  0.486894  0.193338  1
  Ce  Ce3  1  0.750000  0.513106  0.806662  1
  Co  Co4  1  0.750000  0.774427  0.104007  1
  Co  Co5  1  0.250000  0.225573  0.895993  1
  Co  Co6  1  0.250000  0.725573  0.604007  1
  Co  Co7  1  0.750000  0.274427  0.395993  1
  Sn  Sn8  1  0.750000  0.662152  0.429054  1
  Sn  Sn9  1  0.250000  0.337848  0.570946  1
  Sn  Sn10  1  0.250000  0.837848  0.929054  1
  Sn  Sn11  1  0.750000  0.162152  0.070946  1
  H  H12  1  0.250000  0.448136  0.917352  1
  H  H13  1  0.750000  0.551864  0.082648  1
  H  H14  1  0.750000  0.051864  0.417352  1
  H  H15  1  0.250000  0.948136  0.582648  1
