# generated using pymatgen
data_PrNd9Os3Ru
_symmetry_space_group_name_H-M   'P 1'
_cell_length_a   8.82428387
_cell_length_b   8.82953082
_cell_length_c   7.46386670
_cell_angle_alpha   83.53418047
_cell_angle_beta   83.61771726
_cell_angle_gamma   44.15681952
_symmetry_Int_Tables_number   1
_chemical_formula_structural   PrNd9Os3Ru
_chemical_formula_sum   'Pr1 Nd9 Os3 Ru1'
_cell_volume   402.15184832
_cell_formula_units_Z   1
loop_
 _symmetry_equiv_pos_site_id
 _symmetry_equiv_pos_as_xyz
  1  'x, y, z'
loop_
 _atom_site_type_symbol
 _atom_site_label
 _atom_site_symmetry_multiplicity
 _atom_site_fract_x
 _atom_site_fract_y
 _atom_site_fract_z
 _atom_site_occupancy
  Pr  Pr0  1  0.020970  0.795426  0.914834  1
  Nd  Nd1  1  0.205085  0.978937  0.584996  1
  Nd  Nd2  1  0.979890  0.205439  0.084822  1
  Nd  Nd3  1  0.795122  0.021421  0.414085  1
  Nd  Nd4  1  0.359969  0.206168  0.815157  1
  Nd  Nd5  1  0.792935  0.641437  0.684725  1
  Nd  Nd6  1  0.640800  0.791929  0.185851  1
  Nd  Nd7  1  0.205197  0.359886  0.315900  1
  Nd  Nd8  1  0.574721  0.425889  0.748801  1
  Nd  Nd9  1  0.425280  0.575190  0.250612  1
  Os  Os10  1  0.175873  0.603006  0.574598  1
  Os  Os11  1  0.397933  0.822838  0.925661  1
  Os  Os12  1  0.823470  0.397246  0.424796  1
  Ru  Ru13  1  0.602755  0.175189  0.075160  1
