# generated using pymatgen
data_TbTm5TcSb2
_symmetry_space_group_name_H-M   'P 1'
_cell_length_a   8.09681981
_cell_length_b   8.08001180
_cell_length_c   4.24380700
_cell_angle_alpha   90.00000000
_cell_angle_beta   90.00000000
_cell_angle_gamma   119.93133805
_symmetry_Int_Tables_number   1
_chemical_formula_structural   TbTm5TcSb2
_chemical_formula_sum   'Tb1 Tm5 Tc1 Sb2'
_cell_volume   240.60951159
_cell_formula_units_Z   1
loop_
 _symmetry_equiv_pos_site_id
 _symmetry_equiv_pos_as_xyz
  1  'x, y, z'
loop_
 _atom_site_type_symbol
 _atom_site_label
 _atom_site_symmetry_multiplicity
 _atom_site_fract_x
 _atom_site_fract_y
 _atom_site_fract_z
 _atom_site_occupancy
  Tb  Tb0  1  0.000000  0.600420  0.500000  1
  Tm  Tm1  1  0.233185  0.999177  0.000000  1
  Tm  Tm2  1  0.766815  0.765992  0.000000  1
  Tm  Tm3  1  0.000000  0.237893  0.000000  1
  Tm  Tm4  1  0.394506  0.393556  0.500000  1
  Tm  Tm5  1  0.605494  0.999050  0.500000  1
  Tc  Tc6  1  0.000000  0.005677  0.500000  1
  Sb  Sb7  1  0.337391  0.667813  0.000000  1
  Sb  Sb8  1  0.662609  0.330421  0.000000  1
