# generated using pymatgen
data_Tm3Lu(NiB4)4
_symmetry_space_group_name_H-M   'P 1'
_cell_length_a   6.77075344
_cell_length_b   6.77075349
_cell_length_c   6.77075302
_cell_angle_alpha   112.99889595
_cell_angle_beta   112.99890679
_cell_angle_gamma   102.62523598
_symmetry_Int_Tables_number   1
_chemical_formula_structural   Tm3Lu(NiB4)4
_chemical_formula_sum   'Tm3 Lu1 Ni4 B16'
_cell_volume   236.42409270
_cell_formula_units_Z   1
loop_
 _symmetry_equiv_pos_site_id
 _symmetry_equiv_pos_as_xyz
  1  'x, y, z'
loop_
 _atom_site_type_symbol
 _atom_site_label
 _atom_site_symmetry_multiplicity
 _atom_site_fract_x
 _atom_site_fract_y
 _atom_site_fract_z
 _atom_site_occupancy
  Tm  Tm0  1  0.796513  0.796513  0.000000  1
  Tm  Tm1  1  0.203487  0.203487  0.000000  1
  Tm  Tm2  1  0.750000  0.250000  0.500000  1
  Lu  Lu3  1  0.250000  0.750000  0.500000  1
  Ni  Ni4  1  0.271125  0.499880  0.771245  1
  Ni  Ni5  1  0.728636  0.499880  0.228755  1
  Ni  Ni6  1  0.500120  0.728875  0.228755  1
  Ni  Ni7  1  0.500120  0.271364  0.771245  1
  B  B8  1  0.275760  0.111551  0.386858  1
  B  B9  1  0.724693  0.888902  0.613142  1
  B  B10  1  0.275760  0.888902  0.164208  1
  B  B11  1  0.724693  0.111551  0.835792  1
  B  B12  1  0.111098  0.724240  0.835792  1
  B  B13  1  0.888449  0.275307  0.164208  1
  B  B14  1  0.111098  0.275307  0.386858  1
  B  B15  1  0.888449  0.724240  0.613142  1
  B  B16  1  0.114097  0.113291  0.533901  1
  B  B17  1  0.579390  0.580196  0.466099  1
  B  B18  1  0.114097  0.580196  0.000806  1
  B  B19  1  0.579390  0.113291  0.999194  1
  B  B20  1  0.886709  0.885903  0.466099  1
  B  B21  1  0.419804  0.420610  0.533901  1
  B  B22  1  0.886709  0.420610  0.000806  1
  B  B23  1  0.419804  0.885903  0.999194  1
