# generated using pymatgen
data_Rb2InGa(SiTe4)2
_symmetry_space_group_name_H-M   'P 1'
_cell_length_a   18.83435600
_cell_length_b   7.91238955
_cell_length_c   8.43085131
_cell_angle_alpha   69.15470374
_cell_angle_beta   90.00000000
_cell_angle_gamma   90.00000000
_symmetry_Int_Tables_number   1
_chemical_formula_structural   Rb2InGa(SiTe4)2
_chemical_formula_sum   'Rb4 In2 Ga2 Si4 Te16'
_cell_volume   1174.16713475
_cell_formula_units_Z   2
loop_
 _symmetry_equiv_pos_site_id
 _symmetry_equiv_pos_as_xyz
  1  'x, y, z'
loop_
 _atom_site_type_symbol
 _atom_site_label
 _atom_site_symmetry_multiplicity
 _atom_site_fract_x
 _atom_site_fract_y
 _atom_site_fract_z
 _atom_site_occupancy
  Rb  Rb0  1  0.394340  0.965857  0.186207  1
  Rb  Rb1  1  0.894340  0.034143  0.813793  1
  Rb  Rb2  1  0.601623  0.513243  0.824136  1
  Rb  Rb3  1  0.101623  0.486757  0.175864  1
  In  In4  1  0.585548  0.161867  0.477140  1
  In  In5  1  0.085548  0.838133  0.522860  1
  Ga  Ga6  1  0.275629  0.593118  0.705609  1
  Ga  Ga7  1  0.775629  0.406882  0.294391  1
  Si  Si8  1  0.419194  0.324191  0.541847  1
  Si  Si9  1  0.919194  0.675809  0.458153  1
  Si  Si10  1  0.726446  0.906764  0.271797  1
  Si  Si11  1  0.226446  0.093236  0.728203  1
  Te  Te12  1  0.598655  0.861341  0.372573  1
  Te  Te13  1  0.098655  0.138659  0.627427  1
  Te  Te14  1  0.413094  0.603270  0.624174  1
  Te  Te15  1  0.913094  0.396730  0.375826  1
  Te  Te16  1  0.801337  0.780646  0.541448  1
  Te  Te17  1  0.301337  0.219354  0.458552  1
  Te  Te18  1  0.208255  0.716563  0.416649  1
  Te  Te19  1  0.708255  0.283437  0.583351  1
  Te  Te20  1  0.761318  0.224341  0.083245  1
  Te  Te21  1  0.261318  0.775659  0.916755  1
  Te  Te22  1  0.240841  0.266613  0.926565  1
  Te  Te23  1  0.740841  0.733387  0.073435  1
  Te  Te24  1  0.989970  0.921057  0.238490  1
  Te  Te25  1  0.489970  0.078943  0.761510  1
  Te  Te26  1  0.983747  0.595348  0.740186  1
  Te  Te27  1  0.483747  0.404652  0.259814  1
