# generated using pymatgen
data_Pr10Si4OsRh
_symmetry_space_group_name_H-M   'P 1'
_cell_length_a   7.99107000
_cell_length_b   8.95586700
_cell_length_c   12.43823700
_cell_angle_alpha   90.00000000
_cell_angle_beta   90.00000000
_cell_angle_gamma   90.00000000
_symmetry_Int_Tables_number   1
_chemical_formula_structural   Pr10Si4OsRh
_chemical_formula_sum   'Pr20 Si8 Os2 Rh2'
_cell_volume   890.16681119
_cell_formula_units_Z   2
loop_
 _symmetry_equiv_pos_site_id
 _symmetry_equiv_pos_as_xyz
  1  'x, y, z'
loop_
 _atom_site_type_symbol
 _atom_site_label
 _atom_site_symmetry_multiplicity
 _atom_site_fract_x
 _atom_site_fract_y
 _atom_site_fract_z
 _atom_site_occupancy
  Pr  Pr0  1  0.679612  0.466284  0.075609  1
  Pr  Pr1  1  0.179612  0.533716  0.424391  1
  Pr  Pr2  1  0.319567  0.965327  0.924452  1
  Pr  Pr3  1  0.819567  0.034673  0.575548  1
  Pr  Pr4  1  0.319567  0.534673  0.924452  1
  Pr  Pr5  1  0.819567  0.465327  0.575548  1
  Pr  Pr6  1  0.679612  0.033716  0.075609  1
  Pr  Pr7  1  0.179612  0.966284  0.424391  1
  Pr  Pr8  1  0.960935  0.750000  0.999162  1
  Pr  Pr9  1  0.460935  0.250000  0.500838  1
  Pr  Pr10  1  0.038114  0.250000  0.998764  1
  Pr  Pr11  1  0.538114  0.750000  0.501236  1
  Pr  Pr12  1  0.350951  0.750000  0.202819  1
  Pr  Pr13  1  0.850951  0.250000  0.297181  1
  Pr  Pr14  1  0.652103  0.250000  0.795505  1
  Pr  Pr15  1  0.152103  0.750000  0.704495  1
  Pr  Pr16  1  0.826700  0.750000  0.280323  1
  Pr  Pr17  1  0.326700  0.250000  0.219677  1
  Pr  Pr18  1  0.169914  0.250000  0.716044  1
  Pr  Pr19  1  0.669914  0.750000  0.783956  1
  Si  Si20  1  0.557986  0.495487  0.329203  1
  Si  Si21  1  0.057986  0.504513  0.170797  1
  Si  Si22  1  0.442707  0.995538  0.671557  1
  Si  Si23  1  0.942707  0.004462  0.828443  1
  Si  Si24  1  0.442707  0.504462  0.671557  1
  Si  Si25  1  0.942707  0.495538  0.828443  1
  Si  Si26  1  0.557986  0.004513  0.329203  1
  Si  Si27  1  0.057986  0.995487  0.170797  1
  Os  Os28  1  0.575725  0.750000  0.015311  1
  Os  Os29  1  0.075725  0.250000  0.484689  1
  Rh  Rh30  1  0.425815  0.250000  0.984861  1
  Rh  Rh31  1  0.925815  0.750000  0.515139  1
