# generated using pymatgen
data_Ac8Ho12Si15P
_symmetry_space_group_name_H-M   'P 1'
_cell_length_a   7.74490531
_cell_length_b   7.93110048
_cell_length_c   15.09924800
_cell_angle_alpha   89.85727875
_cell_angle_beta   87.28161054
_cell_angle_gamma   90.03259477
_symmetry_Int_Tables_number   1
_chemical_formula_structural   Ac8Ho12Si15P
_chemical_formula_sum   'Ac8 Ho12 Si15 P1'
_cell_volume   926.43392012
_cell_formula_units_Z   1
loop_
 _symmetry_equiv_pos_site_id
 _symmetry_equiv_pos_as_xyz
  1  'x, y, z'
loop_
 _atom_site_type_symbol
 _atom_site_label
 _atom_site_symmetry_multiplicity
 _atom_site_fract_x
 _atom_site_fract_y
 _atom_site_fract_z
 _atom_site_occupancy
  Ac  Ac0  1  0.999229  0.821054  0.097343  1
  Ac  Ac1  1  0.481740  0.675323  0.400269  1
  Ac  Ac2  1  0.500930  0.321401  0.902988  1
  Ac  Ac3  1  0.018013  0.174205  0.600363  1
  Ac  Ac4  1  0.001031  0.180234  0.903103  1
  Ac  Ac5  1  0.517248  0.324294  0.599770  1
  Ac  Ac6  1  0.500454  0.682272  0.097720  1
  Ac  Ac7  1  0.981566  0.824172  0.400402  1
  Ho  Ho8  1  0.670196  0.003506  0.244476  1
  Ho  Ho9  1  0.167930  0.498098  0.244367  1
  Ho  Ho10  1  0.831999  0.501069  0.753720  1
  Ho  Ho11  1  0.330174  0.997113  0.755679  1
  Ho  Ho12  1  0.652295  0.832543  0.878709  1
  Ho  Ho13  1  0.171894  0.677135  0.624839  1
  Ho  Ho14  1  0.847841  0.339780  0.117366  1
  Ho  Ho15  1  0.327697  0.176787  0.375391  1
  Ho  Ho16  1  0.348852  0.164682  0.121626  1
  Ho  Ho17  1  0.828321  0.322649  0.376128  1
  Ho  Ho18  1  0.149030  0.662769  0.881451  1
  Ho  Ho19  1  0.671913  0.822963  0.625030  1
  Si  Si20  1  0.789847  0.613435  0.251173  1
  Si  Si21  1  0.290246  0.885148  0.251555  1
  Si  Si22  1  0.709456  0.113820  0.749096  1
  Si  Si23  1  0.209263  0.386070  0.749302  1
  Si  Si24  1  0.042784  0.128171  0.250101  1
  Si  Si25  1  0.545573  0.374206  0.250450  1
  Si  Si26  1  0.455335  0.625623  0.750167  1
  Si  Si27  1  0.956283  0.871925  0.750640  1
  Si  Si28  1  0.358590  0.966140  0.540553  1
  Si  Si29  1  0.687453  0.045251  0.044517  1
  Si  Si30  1  0.141886  0.465979  0.460450  1
  Si  Si31  1  0.193353  0.456556  0.046896  1
  Si  Si32  1  0.641328  0.033141  0.459895  1
  Si  Si33  1  0.314129  0.956037  0.953667  1
  Si  Si34  1  0.858556  0.532251  0.541260  1
  P  P35  1  0.807566  0.544197  0.949538  1
