# generated using pymatgen
data_LaPr4Sm(CI5)2
_symmetry_space_group_name_H-M   'P 1'
_cell_length_a   8.00192696
_cell_length_b   9.80023924
_cell_length_c   9.90106892
_cell_angle_alpha   107.15394674
_cell_angle_beta   97.10338700
_cell_angle_gamma   104.68362282
_symmetry_Int_Tables_number   1
_chemical_formula_structural   LaPr4Sm(CI5)2
_chemical_formula_sum   'La1 Pr4 Sm1 C2 I10'
_cell_volume   700.94772079
_cell_formula_units_Z   1
loop_
 _symmetry_equiv_pos_site_id
 _symmetry_equiv_pos_as_xyz
  1  'x, y, z'
loop_
 _atom_site_type_symbol
 _atom_site_label
 _atom_site_symmetry_multiplicity
 _atom_site_fract_x
 _atom_site_fract_y
 _atom_site_fract_z
 _atom_site_occupancy
  La  La0  1  0.377634  0.137425  0.184736  1
  Pr  Pr1  1  0.030029  0.734433  0.923055  1
  Pr  Pr2  1  0.105729  0.039535  0.776692  1
  Pr  Pr3  1  0.967333  0.264639  0.074911  1
  Pr  Pr4  1  0.891317  0.958508  0.221446  1
  Sm  Sm5  1  0.629718  0.865957  0.819899  1
  C  C6  1  0.086542  0.030080  0.041268  1
  C  C7  1  0.912294  0.969562  0.958487  1
  I  I8  1  0.193292  0.734435  0.647148  1
  I  I9  1  0.911803  0.629991  0.178634  1
  I  I10  1  0.087567  0.369504  0.820427  1
  I  I11  1  0.740792  0.912992  0.542385  1
  I  I12  1  0.251286  0.084180  0.463870  1
  I  I13  1  0.650667  0.546512  0.726206  1
  I  I14  1  0.459037  0.807876  0.085446  1
  I  I15  1  0.816512  0.268136  0.357129  1
  I  I16  1  0.343933  0.461655  0.274029  1
  I  I17  1  0.544515  0.184579  0.904235  1
