# generated using pymatgen
data_La4Sb2AsO4
_symmetry_space_group_name_H-M   'P 1'
_cell_length_a   7.55691657
_cell_length_b   7.55691740
_cell_length_c   8.43800400
_cell_angle_alpha   90.00000000
_cell_angle_beta   90.00000000
_cell_angle_gamma   148.38821426
_symmetry_Int_Tables_number   1
_chemical_formula_structural   La4Sb2AsO4
_chemical_formula_sum   'La4 Sb2 As1 O4'
_cell_volume   252.57700680
_cell_formula_units_Z   1
loop_
 _symmetry_equiv_pos_site_id
 _symmetry_equiv_pos_as_xyz
  1  'x, y, z'
loop_
 _atom_site_type_symbol
 _atom_site_label
 _atom_site_symmetry_multiplicity
 _atom_site_fract_x
 _atom_site_fract_y
 _atom_site_fract_z
 _atom_site_occupancy
  La  La0  1  0.324180  0.675820  0.764824  1
  La  La1  1  0.324180  0.675820  0.235176  1
  La  La2  1  0.975251  0.024749  0.500000  1
  La  La3  1  0.996942  0.003058  0.000000  1
  Sb  Sb4  1  0.631022  0.368978  0.290776  1
  Sb  Sb5  1  0.631022  0.368978  0.709224  1
  As  As6  1  0.702237  0.297763  0.000000  1
  O  O7  1  0.389448  0.610552  0.500000  1
  O  O8  1  0.416227  0.583773  0.000000  1
  O  O9  1  0.905351  0.094649  0.755420  1
  O  O10  1  0.905351  0.094649  0.244580  1
