# generated using pymatgen
data_HoPaReB6
_symmetry_space_group_name_H-M   'P 1'
_cell_length_a   3.71087300
_cell_length_b   9.16829600
_cell_length_c   11.51311000
_cell_angle_alpha   90.00000000
_cell_angle_beta   90.00000000
_cell_angle_gamma   90.00000000
_symmetry_Int_Tables_number   1
_chemical_formula_structural   HoPaReB6
_chemical_formula_sum   'Ho4 Pa4 Re4 B24'
_cell_volume   391.70342738
_cell_formula_units_Z   4
loop_
 _symmetry_equiv_pos_site_id
 _symmetry_equiv_pos_as_xyz
  1  'x, y, z'
loop_
 _atom_site_type_symbol
 _atom_site_label
 _atom_site_symmetry_multiplicity
 _atom_site_fract_x
 _atom_site_fract_y
 _atom_site_fract_z
 _atom_site_occupancy
  Ho  Ho0  1  0.000000  0.944823  0.374701  1
  Ho  Ho1  1  0.000000  0.055177  0.625299  1
  Ho  Ho2  1  0.000000  0.444823  0.125299  1
  Ho  Ho3  1  0.000000  0.555177  0.874701  1
  Pa  Pa4  1  0.000000  0.322954  0.413135  1
  Pa  Pa5  1  0.000000  0.677046  0.586865  1
  Pa  Pa6  1  0.000000  0.822954  0.086865  1
  Pa  Pa7  1  0.000000  0.177046  0.913135  1
  Re  Re8  1  0.000000  0.638581  0.321451  1
  Re  Re9  1  0.000000  0.361419  0.678549  1
  Re  Re10  1  0.000000  0.138581  0.178549  1
  Re  Re11  1  0.000000  0.861419  0.821451  1
  B  B12  1  0.500000  0.552513  0.433338  1
  B  B13  1  0.500000  0.447487  0.566662  1
  B  B14  1  0.500000  0.052513  0.066662  1
  B  B15  1  0.500000  0.947487  0.933338  1
  B  B16  1  0.500000  0.747894  0.420151  1
  B  B17  1  0.500000  0.252106  0.579849  1
  B  B18  1  0.500000  0.247894  0.079849  1
  B  B19  1  0.500000  0.752106  0.920151  1
  B  B20  1  0.500000  0.792961  0.265959  1
  B  B21  1  0.500000  0.207039  0.734041  1
  B  B22  1  0.500000  0.292961  0.234041  1
  B  B23  1  0.500000  0.707039  0.765959  1
  B  B24  1  0.500000  0.633056  0.185222  1
  B  B25  1  0.500000  0.366944  0.814778  1
  B  B26  1  0.500000  0.133056  0.314778  1
  B  B27  1  0.500000  0.866944  0.685222  1
  B  B28  1  0.500000  0.982306  0.213542  1
  B  B29  1  0.500000  0.017694  0.786458  1
  B  B30  1  0.500000  0.482306  0.286458  1
  B  B31  1  0.500000  0.517694  0.713542  1
  B  B32  1  0.500000  0.612502  0.031041  1
  B  B33  1  0.500000  0.387498  0.968959  1
  B  B34  1  0.500000  0.112502  0.468959  1
  B  B35  1  0.500000  0.887498  0.531041  1
