# generated using pymatgen
data_LiIrCl18
_symmetry_space_group_name_H-M   'P 1'
_cell_length_a   8.63629371
_cell_length_b   8.63629204
_cell_length_c   8.63629294
_cell_angle_alpha   90.70107023
_cell_angle_beta   90.70108091
_cell_angle_gamma   90.70107399
_symmetry_Int_Tables_number   1
_chemical_formula_structural   LiIrCl18
_chemical_formula_sum   'Li1 Ir1 Cl18'
_cell_volume   643.99684641
_cell_formula_units_Z   1
loop_
 _symmetry_equiv_pos_site_id
 _symmetry_equiv_pos_as_xyz
  1  'x, y, z'
loop_
 _atom_site_type_symbol
 _atom_site_label
 _atom_site_symmetry_multiplicity
 _atom_site_fract_x
 _atom_site_fract_y
 _atom_site_fract_z
 _atom_site_occupancy
  Li  Li0  1  0.500000  0.500000  0.500000  1
  Ir  Ir1  1  0.000000  0.000000  0.000000  1
  Cl  Cl2  1  0.267643  0.985826  0.018937  1
  Cl  Cl3  1  0.018937  0.267643  0.985826  1
  Cl  Cl4  1  0.985826  0.018937  0.267643  1
  Cl  Cl5  1  0.732357  0.014174  0.981063  1
  Cl  Cl6  1  0.981063  0.732357  0.014174  1
  Cl  Cl7  1  0.014174  0.981063  0.732357  1
  Cl  Cl8  1  0.632750  0.272295  0.119961  1
  Cl  Cl9  1  0.119961  0.632750  0.272295  1
  Cl  Cl10  1  0.272295  0.119961  0.632750  1
  Cl  Cl11  1  0.367250  0.727705  0.880039  1
  Cl  Cl12  1  0.880039  0.367250  0.727705  1
  Cl  Cl13  1  0.727705  0.880039  0.367250  1
  Cl  Cl14  1  0.482664  0.210745  0.561380  1
  Cl  Cl15  1  0.561380  0.482664  0.210745  1
  Cl  Cl16  1  0.210745  0.561380  0.482664  1
  Cl  Cl17  1  0.517336  0.789255  0.438620  1
  Cl  Cl18  1  0.438620  0.517336  0.789255  1
  Cl  Cl19  1  0.789255  0.438620  0.517336  1
