# generated using pymatgen
data_Ta16Be3BTe16
_symmetry_space_group_name_H-M   'P 1'
_cell_length_a   4.75751700
_cell_length_b   11.02086447
_cell_length_c   19.17506118
_cell_angle_alpha   90.03750272
_cell_angle_beta   90.00000000
_cell_angle_gamma   90.00000000
_symmetry_Int_Tables_number   1
_chemical_formula_structural   Ta16Be3BTe16
_chemical_formula_sum   'Ta16 Be3 B1 Te16'
_cell_volume   1005.38563509
_cell_formula_units_Z   1
loop_
 _symmetry_equiv_pos_site_id
 _symmetry_equiv_pos_as_xyz
  1  'x, y, z'
loop_
 _atom_site_type_symbol
 _atom_site_label
 _atom_site_symmetry_multiplicity
 _atom_site_fract_x
 _atom_site_fract_y
 _atom_site_fract_z
 _atom_site_occupancy
  Ta  Ta0  1  0.501258  0.560266  0.388125  1
  Ta  Ta1  1  0.501258  0.439734  0.611875  1
  Ta  Ta2  1  0.498250  0.059732  0.109738  1
  Ta  Ta3  1  0.498250  0.940268  0.890262  1
  Ta  Ta4  1  0.498789  0.694997  0.535075  1
  Ta  Ta5  1  0.498789  0.305003  0.464925  1
  Ta  Ta6  1  0.498913  0.191443  0.965727  1
  Ta  Ta7  1  0.498913  0.808557  0.034273  1
  Ta  Ta8  1  0.000298  0.680901  0.445251  1
  Ta  Ta9  1  0.000298  0.319099  0.554749  1
  Ta  Ta10  1  0.000817  0.178925  0.053823  1
  Ta  Ta11  1  0.000817  0.821075  0.946177  1
  Ta  Ta12  1  0.999742  0.405336  0.396136  1
  Ta  Ta13  1  0.999742  0.594664  0.603864  1
  Ta  Ta14  1  0.001701  0.906303  0.102387  1
  Ta  Ta15  1  0.001701  0.093697  0.897613  1
  Be  Be16  1  0.249988  0.500000  0.500000  1
  Be  Be17  1  0.751522  0.000000  0.000000  1
  Be  Be18  1  0.750088  0.500000  0.500000  1
  B  B19  1  0.248983  0.000000  0.000000  1
  Te  Te20  1  0.999496  0.843187  0.561320  1
  Te  Te21  1  0.999496  0.156813  0.438680  1
  Te  Te22  1  0.000911  0.342035  0.938841  1
  Te  Te23  1  0.000911  0.657965  0.061159  1
  Te  Te24  1  0.499937  0.333091  0.317055  1
  Te  Te25  1  0.499937  0.666909  0.682945  1
  Te  Te26  1  0.500049  0.834443  0.181949  1
  Te  Te27  1  0.500049  0.165557  0.818051  1
  Te  Te28  1  0.500188  0.817924  0.404112  1
  Te  Te29  1  0.500188  0.182076  0.595888  1
  Te  Te30  1  0.499026  0.317005  0.095559  1
  Te  Te31  1  0.499026  0.682995  0.904441  1
  Te  Te32  1  0.000632  0.606762  0.302903  1
  Te  Te33  1  0.000632  0.393238  0.697097  1
  Te  Te34  1  0.999702  0.106461  0.195942  1
  Te  Te35  1  0.999702  0.893539  0.804058  1
