# generated using pymatgen
data_Hf5ZrTa3Al13Ir7
_symmetry_space_group_name_H-M   'P 1'
_cell_length_a   8.80958344
_cell_length_b   8.80574451
_cell_length_c   8.80574353
_cell_angle_alpha   59.94930400
_cell_angle_beta   59.86267289
_cell_angle_gamma   59.86268119
_symmetry_Int_Tables_number   1
_chemical_formula_structural   Hf5ZrTa3Al13Ir7
_chemical_formula_sum   'Hf5 Zr1 Ta3 Al13 Ir7'
_cell_volume   481.83900127
_cell_formula_units_Z   1
loop_
 _symmetry_equiv_pos_site_id
 _symmetry_equiv_pos_as_xyz
  1  'x, y, z'
loop_
 _atom_site_type_symbol
 _atom_site_label
 _atom_site_symmetry_multiplicity
 _atom_site_fract_x
 _atom_site_fract_y
 _atom_site_fract_z
 _atom_site_occupancy
  Hf  Hf0  1  0.687927  0.687304  0.309181  1
  Hf  Hf1  1  0.315418  0.683361  0.314088  1
  Hf  Hf2  1  0.681582  0.317099  0.317099  1
  Hf  Hf3  1  0.315418  0.314088  0.683361  1
  Hf  Hf4  1  0.687927  0.309181  0.687304  1
  Zr  Zr5  1  0.309354  0.687853  0.687853  1
  Ta  Ta6  1  0.878380  0.878171  0.362276  1
  Ta  Ta7  1  0.878380  0.362276  0.878171  1
  Ta  Ta8  1  0.362771  0.878501  0.878501  1
  Al  Al9  1  0.880488  0.881061  0.881061  1
  Al  Al10  1  0.119470  0.119858  0.636337  1
  Al  Al11  1  0.119470  0.636337  0.119858  1
  Al  Al12  1  0.636673  0.119445  0.119445  1
  Al  Al13  1  0.122007  0.122411  0.122411  1
  Al  Al14  1  0.663902  0.663810  0.016993  1
  Al  Al15  1  0.663902  0.016993  0.663810  1
  Al  Al16  1  0.016531  0.663946  0.663946  1
  Al  Al17  1  0.657010  0.656938  0.656938  1
  Al  Al18  1  0.338696  0.338587  0.986177  1
  Al  Al19  1  0.338696  0.986177  0.338587  1
  Al  Al20  1  0.985868  0.338634  0.338634  1
  Al  Al21  1  0.337894  0.337577  0.337577  1
  Ir  Ir22  1  0.002761  0.002091  0.002091  1
  Ir  Ir23  1  0.998532  0.999307  0.495549  1
  Ir  Ir24  1  0.504418  0.997525  0.503250  1
  Ir  Ir25  1  0.997177  0.503740  0.503740  1
  Ir  Ir26  1  0.504418  0.503250  0.997525  1
  Ir  Ir27  1  0.998532  0.495549  0.999307  1
  Ir  Ir28  1  0.496399  0.998933  0.998933  1
