# generated using pymatgen
data_Co3(AsO3)2
_symmetry_space_group_name_H-M   'P 1'
_cell_length_a   5.28814900
_cell_length_b   8.39084915
_cell_length_c   16.10969400
_cell_angle_alpha   82.65656543
_cell_angle_beta   90.00000000
_cell_angle_gamma   90.00000000
_symmetry_Int_Tables_number   1
_chemical_formula_structural   Co3(AsO3)2
_chemical_formula_sum   'Co12 As8 O24'
_cell_volume   708.95724152
_cell_formula_units_Z   4
loop_
 _symmetry_equiv_pos_site_id
 _symmetry_equiv_pos_as_xyz
  1  'x, y, z'
loop_
 _atom_site_type_symbol
 _atom_site_label
 _atom_site_symmetry_multiplicity
 _atom_site_fract_x
 _atom_site_fract_y
 _atom_site_fract_z
 _atom_site_occupancy
  Co  Co0  1  0.153796  0.868874  0.759047  1
  Co  Co1  1  0.653796  0.131126  0.740953  1
  Co  Co2  1  0.846204  0.131126  0.240953  1
  Co  Co3  1  0.346204  0.868874  0.259047  1
  Co  Co4  1  0.618689  0.387639  0.567872  1
  Co  Co5  1  0.118689  0.612361  0.932128  1
  Co  Co6  1  0.381311  0.612361  0.432128  1
  Co  Co7  1  0.881311  0.387639  0.067872  1
  Co  Co8  1  0.043516  0.511371  0.689786  1
  Co  Co9  1  0.543516  0.488629  0.810214  1
  Co  Co10  1  0.956484  0.488629  0.310214  1
  Co  Co11  1  0.456484  0.511371  0.189786  1
  As  As12  1  0.540447  0.741051  0.630428  1
  As  As13  1  0.040447  0.258949  0.869572  1
  As  As14  1  0.459553  0.258949  0.369572  1
  As  As15  1  0.959553  0.741051  0.130428  1
  As  As16  1  0.130170  0.167449  0.606457  1
  As  As17  1  0.630170  0.832551  0.893543  1
  As  As18  1  0.869830  0.832551  0.393543  1
  As  As19  1  0.369830  0.167449  0.106457  1
  O  O20  1  0.500884  0.614793  0.549214  1
  O  O21  1  0.000884  0.385207  0.950786  1
  O  O22  1  0.499116  0.385207  0.450786  1
  O  O23  1  0.999116  0.614793  0.049214  1
  O  O24  1  0.441159  0.219264  0.643306  1
  O  O25  1  0.941159  0.780736  0.856694  1
  O  O26  1  0.558841  0.780736  0.356694  1
  O  O27  1  0.058841  0.219264  0.143306  1
  O  O28  1  0.999414  0.070965  0.704319  1
  O  O29  1  0.499414  0.929035  0.795681  1
  O  O30  1  0.000586  0.929035  0.295681  1
  O  O31  1  0.500586  0.070965  0.204319  1
  O  O32  1  0.976562  0.360928  0.606842  1
  O  O33  1  0.476562  0.639072  0.893158  1
  O  O34  1  0.023438  0.639072  0.393158  1
  O  O35  1  0.523438  0.360928  0.106842  1
  O  O36  1  0.188580  0.415286  0.797393  1
  O  O37  1  0.688580  0.584714  0.702607  1
  O  O38  1  0.811420  0.584714  0.202607  1
  O  O39  1  0.311420  0.415286  0.297393  1
  O  O40  1  0.225534  0.720028  0.675515  1
  O  O41  1  0.725534  0.279972  0.824485  1
  O  O42  1  0.774466  0.279972  0.324485  1
  O  O43  1  0.274466  0.720028  0.175515  1
