# generated using pymatgen
data_CsSe23
_symmetry_space_group_name_H-M   'P 1'
_cell_length_a   5.82090142
_cell_length_b   10.28878309
_cell_length_c   17.10028050
_cell_angle_alpha   89.20852081
_cell_angle_beta   78.78273751
_cell_angle_gamma   98.86073910
_symmetry_Int_Tables_number   1
_chemical_formula_structural   CsSe23
_chemical_formula_sum   'Cs1 Se23'
_cell_volume   991.56919311
_cell_formula_units_Z   1
loop_
 _symmetry_equiv_pos_site_id
 _symmetry_equiv_pos_as_xyz
  1  'x, y, z'
loop_
 _atom_site_type_symbol
 _atom_site_label
 _atom_site_symmetry_multiplicity
 _atom_site_fract_x
 _atom_site_fract_y
 _atom_site_fract_z
 _atom_site_occupancy
  Cs  Cs0  1  0.447747  0.164320  0.395581  1
  Se  Se1  1  0.547316  0.802063  0.380486  1
  Se  Se2  1  0.017774  0.316587  0.114860  1
  Se  Se3  1  0.911435  0.299615  0.520488  1
  Se  Se4  1  0.290836  0.767507  0.507100  1
  Se  Se5  1  0.235483  0.285511  0.986594  1
  Se  Se6  1  0.765703  0.711897  0.014306  1
  Se  Se7  1  0.059102  0.420850  0.374219  1
  Se  Se8  1  0.691725  0.596130  0.351996  1
  Se  Se9  1  0.782551  0.110479  0.160818  1
  Se  Se10  1  0.232088  0.872497  0.123766  1
  Se  Se11  1  0.720644  0.654782  0.627239  1
  Se  Se12  1  0.298648  0.341017  0.629772  1
  Se  Se13  1  0.233719  0.887995  0.845850  1
  Se  Se14  1  0.780663  0.118716  0.872992  1
  Se  Se15  1  0.986564  0.671284  0.111255  1
  Se  Se16  1  0.516267  0.829856  0.606183  1
  Se  Se17  1  0.559650  0.181073  0.602741  1
  Se  Se18  1  0.995631  0.682397  0.887517  1
  Se  Se19  1  0.007617  0.324286  0.891103  1
  Se  Se20  1  0.425826  0.473164  0.279210  1
  Se  Se21  1  0.011308  0.985696  0.223781  1
  Se  Se22  1  0.463434  0.492775  0.716030  1
  Se  Se23  1  0.018267  0.009499  0.776116  1
