# generated using pymatgen
data_Lu4GaTcRu6
_symmetry_space_group_name_H-M   'P 1'
_cell_length_a   5.16108542
_cell_length_b   5.32707568
_cell_length_c   8.78433000
_cell_angle_alpha   90.00000000
_cell_angle_beta   90.00000000
_cell_angle_gamma   119.47751094
_symmetry_Int_Tables_number   1
_chemical_formula_structural   Lu4GaTcRu6
_chemical_formula_sum   'Lu4 Ga1 Tc1 Ru6'
_cell_volume   210.24793141
_cell_formula_units_Z   1
loop_
 _symmetry_equiv_pos_site_id
 _symmetry_equiv_pos_as_xyz
  1  'x, y, z'
loop_
 _atom_site_type_symbol
 _atom_site_label
 _atom_site_symmetry_multiplicity
 _atom_site_fract_x
 _atom_site_fract_y
 _atom_site_fract_z
 _atom_site_occupancy
  Lu  Lu0  1  0.334542  0.669458  0.437639  1
  Lu  Lu1  1  0.662320  0.330250  0.566314  1
  Lu  Lu2  1  0.662320  0.330250  0.933686  1
  Lu  Lu3  1  0.334542  0.669458  0.062361  1
  Ga  Ga4  1  0.834446  0.170073  0.250000  1
  Tc  Tc5  1  0.658897  0.832239  0.750000  1
  Ru  Ru6  1  0.995296  0.989867  0.500287  1
  Ru  Ru7  1  0.995296  0.989867  0.999713  1
  Ru  Ru8  1  0.825213  0.656335  0.250000  1
  Ru  Ru9  1  0.347500  0.180097  0.250000  1
  Ru  Ru10  1  0.172057  0.832980  0.750000  1
  Ru  Ru11  1  0.177572  0.349126  0.750000  1
