# generated using pymatgen
data_Ho4Zn4Ir3Pd
_symmetry_space_group_name_H-M   'P 1'
_cell_length_a   4.05132200
_cell_length_b   6.99889476
_cell_length_c   8.14081006
_cell_angle_alpha   90.14834334
_cell_angle_beta   90.00000000
_cell_angle_gamma   90.00000000
_symmetry_Int_Tables_number   1
_chemical_formula_structural   Ho4Zn4Ir3Pd
_chemical_formula_sum   'Ho4 Zn4 Ir3 Pd1'
_cell_volume   230.83007470
_cell_formula_units_Z   1
loop_
 _symmetry_equiv_pos_site_id
 _symmetry_equiv_pos_as_xyz
  1  'x, y, z'
loop_
 _atom_site_type_symbol
 _atom_site_label
 _atom_site_symmetry_multiplicity
 _atom_site_fract_x
 _atom_site_fract_y
 _atom_site_fract_z
 _atom_site_occupancy
  Ho  Ho0  1  0.750000  0.466496  0.176582  1
  Ho  Ho1  1  0.750000  0.950150  0.315935  1
  Ho  Ho2  1  0.250000  0.540907  0.817063  1
  Ho  Ho3  1  0.250000  0.035158  0.689418  1
  Zn  Zn4  1  0.750000  0.863633  0.935210  1
  Zn  Zn5  1  0.750000  0.365333  0.566584  1
  Zn  Zn6  1  0.250000  0.136592  0.062903  1
  Zn  Zn7  1  0.250000  0.638167  0.435133  1
  Ir  Ir8  1  0.750000  0.247327  0.877375  1
  Ir  Ir9  1  0.750000  0.745991  0.620815  1
  Ir  Ir10  1  0.250000  0.755638  0.123850  1
  Pd  Pd11  1  0.250000  0.254610  0.379133  1
