# generated using pymatgen
data_Tb16Er3LuSn16
_symmetry_space_group_name_H-M   'P 1'
_cell_length_a   8.02869198
_cell_length_b   8.18617195
_cell_length_c   15.50706500
_cell_angle_alpha   90.00000000
_cell_angle_beta   90.00000000
_cell_angle_gamma   90.05592226
_symmetry_Int_Tables_number   1
_chemical_formula_structural   Tb16Er3LuSn16
_chemical_formula_sum   'Tb16 Er3 Lu1 Sn16'
_cell_volume   1019.18977926
_cell_formula_units_Z   1
loop_
 _symmetry_equiv_pos_site_id
 _symmetry_equiv_pos_as_xyz
  1  'x, y, z'
loop_
 _atom_site_type_symbol
 _atom_site_label
 _atom_site_symmetry_multiplicity
 _atom_site_fract_x
 _atom_site_fract_y
 _atom_site_fract_z
 _atom_site_occupancy
  Tb  Tb0  1  0.366475  0.837501  0.878034  1
  Tb  Tb1  1  0.866492  0.662622  0.622245  1
  Tb  Tb2  1  0.633209  0.162309  0.377722  1
  Tb  Tb3  1  0.133841  0.337235  0.122342  1
  Tb  Tb4  1  0.633209  0.162309  0.122278  1
  Tb  Tb5  1  0.133841  0.337235  0.377658  1
  Tb  Tb6  1  0.366475  0.837501  0.621966  1
  Tb  Tb7  1  0.866492  0.662622  0.877755  1
  Tb  Tb8  1  0.519408  0.320562  0.902832  1
  Tb  Tb9  1  0.019383  0.179433  0.596940  1
  Tb  Tb10  1  0.480441  0.679553  0.402790  1
  Tb  Tb11  1  0.980539  0.820787  0.097236  1
  Tb  Tb12  1  0.480441  0.679553  0.097210  1
  Tb  Tb13  1  0.980539  0.820787  0.402764  1
  Tb  Tb14  1  0.519408  0.320562  0.597168  1
  Tb  Tb15  1  0.019383  0.179433  0.903060  1
  Er  Er16  1  0.198015  0.502930  0.750000  1
  Er  Er17  1  0.697937  0.997190  0.750000  1
  Er  Er18  1  0.802220  0.497456  0.250000  1
  Lu  Lu19  1  0.301782  0.003089  0.250000  1
  Sn  Sn20  1  0.293633  0.036278  0.042900  1
  Sn  Sn21  1  0.793675  0.463226  0.457709  1
  Sn  Sn22  1  0.706450  0.963213  0.542213  1
  Sn  Sn23  1  0.206239  0.536575  0.957867  1
  Sn  Sn24  1  0.706450  0.963213  0.957787  1
  Sn  Sn25  1  0.206239  0.536575  0.542133  1
  Sn  Sn26  1  0.293633  0.036278  0.457100  1
  Sn  Sn27  1  0.793675  0.463226  0.042291  1
  Sn  Sn28  1  0.563475  0.618062  0.750000  1
  Sn  Sn29  1  0.063738  0.882159  0.750000  1
  Sn  Sn30  1  0.436495  0.382152  0.250000  1
  Sn  Sn31  1  0.937095  0.117270  0.250000  1
  Sn  Sn32  1  0.328640  0.148331  0.750000  1
  Sn  Sn33  1  0.829020  0.351275  0.750000  1
  Sn  Sn34  1  0.670759  0.851749  0.250000  1
  Sn  Sn35  1  0.171252  0.649752  0.250000  1
