# generated using pymatgen
data_PrGdEr2(MoN3)4
_symmetry_space_group_name_H-M   'P 1'
_cell_length_a   7.26612618
_cell_length_b   7.26612650
_cell_length_c   6.21227176
_cell_angle_alpha   75.40533220
_cell_angle_beta   75.40531974
_cell_angle_gamma   82.83188945
_symmetry_Int_Tables_number   1
_chemical_formula_structural   PrGdEr2(MoN3)4
_chemical_formula_sum   'Pr1 Gd1 Er2 Mo4 N12'
_cell_volume   306.50325811
_cell_formula_units_Z   1
loop_
 _symmetry_equiv_pos_site_id
 _symmetry_equiv_pos_as_xyz
  1  'x, y, z'
loop_
 _atom_site_type_symbol
 _atom_site_label
 _atom_site_symmetry_multiplicity
 _atom_site_fract_x
 _atom_site_fract_y
 _atom_site_fract_z
 _atom_site_occupancy
  Pr  Pr0  1  0.692976  0.307024  0.250000  1
  Gd  Gd1  1  0.302613  0.697387  0.750000  1
  Er  Er2  1  0.916652  0.083348  0.750000  1
  Er  Er3  1  0.087934  0.912066  0.250000  1
  Mo  Mo4  1  0.802477  0.619701  0.749697  1
  Mo  Mo5  1  0.196887  0.381924  0.247106  1
  Mo  Mo6  1  0.618076  0.803113  0.252894  1
  Mo  Mo7  1  0.380299  0.197523  0.750303  1
  N  N8  1  0.217693  0.997818  0.854515  1
  N  N9  1  0.346147  0.365348  0.472048  1
  N  N10  1  0.647172  0.633698  0.531797  1
  N  N11  1  0.621012  0.108401  0.668062  1
  N  N12  1  0.002182  0.782307  0.645485  1
  N  N13  1  0.787548  0.995456  0.145298  1
  N  N14  1  0.104941  0.621708  0.159546  1
  N  N15  1  0.891599  0.378988  0.831938  1
  N  N16  1  0.004544  0.212452  0.354702  1
  N  N17  1  0.366302  0.352828  0.968203  1
  N  N18  1  0.634652  0.653853  0.027952  1
  N  N19  1  0.378292  0.895059  0.340454  1
