# generated using pymatgen
data_Zr4TiSiSn2Sb
_symmetry_space_group_name_H-M   'P 1'
_cell_length_a   8.63183827
_cell_length_b   8.62748855
_cell_length_c   5.79082472
_cell_angle_alpha   90.05691278
_cell_angle_beta   89.97156144
_cell_angle_gamma   119.98333533
_symmetry_Int_Tables_number   1
_chemical_formula_structural   Zr4TiSiSn2Sb
_chemical_formula_sum   'Zr8 Ti2 Si2 Sn4 Sb2'
_cell_volume   373.53510827
_cell_formula_units_Z   2
loop_
 _symmetry_equiv_pos_site_id
 _symmetry_equiv_pos_as_xyz
  1  'x, y, z'
loop_
 _atom_site_type_symbol
 _atom_site_label
 _atom_site_symmetry_multiplicity
 _atom_site_fract_x
 _atom_site_fract_y
 _atom_site_fract_z
 _atom_site_occupancy
  Zr  Zr0  1  0.259832  0.000192  0.250106  1
  Zr  Zr1  1  0.259832  0.259641  0.749894  1
  Zr  Zr2  1  0.000480  0.741098  0.750080  1
  Zr  Zr3  1  0.000480  0.259381  0.249920  1
  Zr  Zr4  1  0.739803  0.739742  0.249915  1
  Zr  Zr5  1  0.739803  0.000062  0.750085  1
  Zr  Zr6  1  0.665140  0.332569  0.000000  1
  Zr  Zr7  1  0.334058  0.667029  0.500000  1
  Ti  Ti8  1  0.333936  0.666968  0.000000  1
  Ti  Ti9  1  0.665351  0.332675  0.500000  1
  Si  Si10  1  0.998851  0.999425  0.000000  1
  Si  Si11  1  0.998830  0.999414  0.500000  1
  Sn  Sn12  1  0.605474  0.999955  0.250007  1
  Sn  Sn13  1  0.605474  0.605519  0.749993  1
  Sn  Sn14  1  0.999429  0.396032  0.749965  1
  Sn  Sn15  1  0.999429  0.603397  0.250035  1
  Sb  Sb16  1  0.396899  0.397387  0.249919  1
  Sb  Sb17  1  0.396899  0.999513  0.750081  1
