# generated using pymatgen
data_Ho3Er13InAg3Rh4
_symmetry_space_group_name_H-M   'P 1'
_cell_length_a   9.49503986
_cell_length_b   9.49226622
_cell_length_c   9.49345170
_cell_angle_alpha   60.16932187
_cell_angle_beta   60.16575166
_cell_angle_gamma   60.18384064
_symmetry_Int_Tables_number   1
_chemical_formula_structural   Ho3Er13InAg3Rh4
_chemical_formula_sum   'Ho3 Er13 In1 Ag3 Rh4'
_cell_volume   607.39862487
_cell_formula_units_Z   1
loop_
 _symmetry_equiv_pos_site_id
 _symmetry_equiv_pos_as_xyz
  1  'x, y, z'
loop_
 _atom_site_type_symbol
 _atom_site_label
 _atom_site_symmetry_multiplicity
 _atom_site_fract_x
 _atom_site_fract_y
 _atom_site_fract_z
 _atom_site_occupancy
  Ho  Ho0  1  0.189616  0.189905  0.810331  1
  Ho  Ho1  1  0.435940  0.063261  0.063173  1
  Ho  Ho2  1  0.435107  0.060702  0.435119  1
  Er  Er3  1  0.063139  0.435992  0.063445  1
  Er  Er4  1  0.648716  0.053200  0.648144  1
  Er  Er5  1  0.189054  0.811864  0.812262  1
  Er  Er6  1  0.062908  0.063365  0.435980  1
  Er  Er7  1  0.810268  0.189779  0.189777  1
  Er  Er8  1  0.812398  0.811898  0.189051  1
  Er  Er9  1  0.648459  0.648151  0.053382  1
  Er  Er10  1  0.648771  0.648615  0.648759  1
  Er  Er11  1  0.060476  0.435413  0.434978  1
  Er  Er12  1  0.053333  0.648507  0.648259  1
  Er  Er13  1  0.812048  0.189096  0.812069  1
  Er  Er14  1  0.435080  0.435441  0.060544  1
  Er  Er15  1  0.189596  0.810154  0.189897  1
  In  In16  1  0.421127  0.421225  0.420958  1
  Ag  Ag17  1  0.417353  0.748573  0.417612  1
  Ag  Ag18  1  0.417473  0.417698  0.748765  1
  Ag  Ag19  1  0.748979  0.417419  0.417434  1
  Rh  Rh20  1  0.856445  0.429436  0.856801  1
  Rh  Rh21  1  0.856984  0.856688  0.429101  1
  Rh  Rh22  1  0.429314  0.856340  0.856982  1
  Rh  Rh23  1  0.857418  0.857278  0.857177  1
