# generated using pymatgen
data_Ba4ScBiO8
_symmetry_space_group_name_H-M   'P 1'
_cell_length_a   7.48051200
_cell_length_b   7.48051236
_cell_length_c   5.99960500
_cell_angle_alpha   90.00000000
_cell_angle_beta   90.00000000
_cell_angle_gamma   132.72585434
_symmetry_Int_Tables_number   1
_chemical_formula_structural   Ba4ScBiO8
_chemical_formula_sum   'Ba4 Sc1 Bi1 O8'
_cell_volume   246.62737427
_cell_formula_units_Z   1
loop_
 _symmetry_equiv_pos_site_id
 _symmetry_equiv_pos_as_xyz
  1  'x, y, z'
loop_
 _atom_site_type_symbol
 _atom_site_label
 _atom_site_symmetry_multiplicity
 _atom_site_fract_x
 _atom_site_fract_y
 _atom_site_fract_z
 _atom_site_occupancy
  Ba  Ba0  1  0.351361  0.648639  0.000000  1
  Ba  Ba1  1  0.855401  0.144599  0.500000  1
  Ba  Ba2  1  0.144599  0.855401  0.500000  1
  Ba  Ba3  1  0.648639  0.351361  0.000000  1
  Sc  Sc4  1  0.000000  0.000000  0.000000  1
  Bi  Bi5  1  0.500000  0.500000  0.500000  1
  O  O6  1  0.247816  0.247816  0.748742  1
  O  O7  1  0.752184  0.752184  0.251258  1
  O  O8  1  0.752184  0.752184  0.748742  1
  O  O9  1  0.247816  0.247816  0.251258  1
  O  O10  1  0.157734  0.842266  0.000000  1
  O  O11  1  0.658273  0.341727  0.500000  1
  O  O12  1  0.341727  0.658273  0.500000  1
  O  O13  1  0.842266  0.157734  0.000000  1
