# generated using pymatgen
data_Hf6TcSn6Rh5
_symmetry_space_group_name_H-M   'P 1'
_cell_length_a   7.55447200
_cell_length_b   7.55447229
_cell_length_c   6.90956500
_cell_angle_alpha   90.00000000
_cell_angle_beta   90.00000000
_cell_angle_gamma   119.99999873
_symmetry_Int_Tables_number   1
_chemical_formula_structural   Hf6TcSn6Rh5
_chemical_formula_sum   'Hf6 Tc1 Sn6 Rh5'
_cell_volume   341.49912277
_cell_formula_units_Z   1
loop_
 _symmetry_equiv_pos_site_id
 _symmetry_equiv_pos_as_xyz
  1  'x, y, z'
loop_
 _atom_site_type_symbol
 _atom_site_label
 _atom_site_symmetry_multiplicity
 _atom_site_fract_x
 _atom_site_fract_y
 _atom_site_fract_z
 _atom_site_occupancy
  Hf  Hf0  1  0.005669  0.394119  0.746101  1
  Hf  Hf1  1  0.605881  0.611550  0.746101  1
  Hf  Hf2  1  0.388450  0.994331  0.746101  1
  Hf  Hf3  1  0.000531  0.392355  0.253809  1
  Hf  Hf4  1  0.607645  0.608176  0.253809  1
  Hf  Hf5  1  0.391824  0.999469  0.253809  1
  Tc  Tc6  1  0.333333  0.666667  0.498394  1
  Sn  Sn7  1  0.272553  0.270010  0.499866  1
  Sn  Sn8  1  0.997457  0.727447  0.499866  1
  Sn  Sn9  1  0.997473  0.722678  0.000459  1
  Sn  Sn10  1  0.729990  0.002543  0.499866  1
  Sn  Sn11  1  0.725205  0.002527  0.000459  1
  Sn  Sn12  1  0.277322  0.274795  0.000459  1
  Rh  Rh13  1  0.666667  0.333333  0.508702  1
  Rh  Rh14  1  0.333333  0.666667  0.001536  1
  Rh  Rh15  1  0.000000  0.000000  0.754656  1
  Rh  Rh16  1  0.000000  0.000000  0.245521  1
  Rh  Rh17  1  0.666667  0.333333  0.990484  1
