# generated using pymatgen
data_Ho2Lu2(Ga8Pd3)3
_symmetry_space_group_name_H-M   'P 1'
_cell_length_a   7.49608267
_cell_length_b   7.56142209
_cell_length_c   13.43555300
_cell_angle_alpha   84.81631431
_cell_angle_beta   79.66574773
_cell_angle_gamma   60.20604987
_symmetry_Int_Tables_number   1
_chemical_formula_structural   Ho2Lu2(Ga8Pd3)3
_chemical_formula_sum   'Ho2 Lu2 Ga24 Pd9'
_cell_volume   650.15763484
_cell_formula_units_Z   1
loop_
 _symmetry_equiv_pos_site_id
 _symmetry_equiv_pos_as_xyz
  1  'x, y, z'
loop_
 _atom_site_type_symbol
 _atom_site_label
 _atom_site_symmetry_multiplicity
 _atom_site_fract_x
 _atom_site_fract_y
 _atom_site_fract_z
 _atom_site_occupancy
  Ho  Ho0  1  0.730917  0.497393  0.811789  1
  Ho  Ho1  1  0.269083  0.502607  0.188211  1
  Lu  Lu2  1  0.394225  0.168860  0.810945  1
  Lu  Lu3  1  0.605775  0.831140  0.189055  1
  Ga  Ga4  1  0.684432  0.834836  0.939229  1
  Ga  Ga5  1  0.315568  0.165164  0.060771  1
  Ga  Ga6  1  0.143151  0.835978  0.558328  1
  Ga  Ga7  1  0.856849  0.164022  0.441672  1
  Ga  Ga8  1  0.477477  0.167222  0.556101  1
  Ga  Ga9  1  0.522523  0.832778  0.443899  1
  Ga  Ga10  1  0.223589  0.164451  0.322908  1
  Ga  Ga11  1  0.776411  0.835549  0.677092  1
  Ga  Ga12  1  0.434721  0.503795  0.675867  1
  Ga  Ga13  1  0.565279  0.496205  0.324133  1
  Ga  Ga14  1  0.105871  0.163271  0.675663  1
  Ga  Ga15  1  0.894129  0.836729  0.324337  1
  Ga  Ga16  1  0.356422  0.497564  0.939229  1
  Ga  Ga17  1  0.643578  0.502436  0.060771  1
  Ga  Ga18  1  0.021393  0.168427  0.943336  1
  Ga  Ga19  1  0.978607  0.831573  0.056664  1
  Ga  Ga20  1  0.188047  0.500193  0.443214  1
  Ga  Ga21  1  0.811953  0.499807  0.556786  1
  Ga  Ga22  1  0.733887  0.163446  0.181821  1
  Ga  Ga23  1  0.266113  0.836554  0.818179  1
  Ga  Ga24  1  0.061196  0.628394  0.817085  1
  Ga  Ga25  1  0.938804  0.371606  0.182915  1
  Ga  Ga26  1  0.855047  0.039403  0.817016  1
  Ga  Ga27  1  0.144953  0.960597  0.182984  1
  Pd  Pd28  1  0.115348  0.496694  0.639170  1
  Pd  Pd29  1  0.884652  0.503306  0.360830  1
  Pd  Pd30  1  0.660859  0.170148  0.998688  1
  Pd  Pd31  1  0.339141  0.829852  0.001312  1
  Pd  Pd32  1  0.543505  0.166531  0.359847  1
  Pd  Pd33  1  0.456495  0.833469  0.640153  1
  Pd  Pd34  1  0.776992  0.172474  0.638896  1
  Pd  Pd35  1  0.223008  0.827526  0.361104  1
  Pd  Pd36  1  0.000000  0.500000  0.000000  1
