# generated using pymatgen
data_Tb6CrCo17P12
_symmetry_space_group_name_H-M   'P 1'
_cell_length_a   3.69681000
_cell_length_b   10.53344700
_cell_length_c   12.20578300
_cell_angle_alpha   90.00000000
_cell_angle_beta   90.00000000
_cell_angle_gamma   90.00000000
_symmetry_Int_Tables_number   1
_chemical_formula_structural   Tb6CrCo17P12
_chemical_formula_sum   'Tb6 Cr1 Co17 P12'
_cell_volume   475.29504779
_cell_formula_units_Z   1
loop_
 _symmetry_equiv_pos_site_id
 _symmetry_equiv_pos_as_xyz
  1  'x, y, z'
loop_
 _atom_site_type_symbol
 _atom_site_label
 _atom_site_symmetry_multiplicity
 _atom_site_fract_x
 _atom_site_fract_y
 _atom_site_fract_z
 _atom_site_occupancy
  Tb  Tb0  1  0.000000  0.500000  0.523033  1
  Tb  Tb1  1  0.500000  0.000000  0.478094  1
  Tb  Tb2  1  0.500000  0.817637  0.206211  1
  Tb  Tb3  1  0.500000  0.182363  0.206211  1
  Tb  Tb4  1  0.000000  0.682411  0.795344  1
  Tb  Tb5  1  0.000000  0.317589  0.795344  1
  Cr  Cr6  1  0.500000  0.500000  0.155188  1
  Co  Co7  1  0.000000  0.000000  0.840421  1
  Co  Co8  1  0.500000  0.500000  0.703080  1
  Co  Co9  1  0.000000  0.000000  0.296278  1
  Co  Co10  1  0.000000  0.500000  0.987802  1
  Co  Co11  1  0.500000  0.000000  0.014135  1
  Co  Co12  1  0.500000  0.332899  0.993743  1
  Co  Co13  1  0.500000  0.667101  0.993743  1
  Co  Co14  1  0.000000  0.166753  0.005524  1
  Co  Co15  1  0.000000  0.833247  0.005524  1
  Co  Co16  1  0.500000  0.296603  0.430347  1
  Co  Co17  1  0.500000  0.703397  0.430347  1
  Co  Co18  1  0.000000  0.203307  0.569124  1
  Co  Co19  1  0.000000  0.796693  0.569124  1
  Co  Co20  1  0.500000  0.879478  0.709228  1
  Co  Co21  1  0.500000  0.120522  0.709228  1
  Co  Co22  1  0.000000  0.619988  0.290620  1
  Co  Co23  1  0.000000  0.380012  0.290620  1
  P  P24  1  0.500000  0.500000  0.882736  1
  P  P25  1  0.000000  0.000000  0.116648  1
  P  P26  1  0.500000  0.500000  0.345993  1
  P  P27  1  0.000000  0.000000  0.657002  1
  P  P28  1  0.500000  0.310279  0.615924  1
  P  P29  1  0.500000  0.689721  0.615924  1
  P  P30  1  0.000000  0.189258  0.384454  1
  P  P31  1  0.000000  0.810742  0.384454  1
  P  P32  1  0.500000  0.848883  0.892800  1
  P  P33  1  0.500000  0.151117  0.892800  1
  P  P34  1  0.000000  0.653727  0.106476  1
  P  P35  1  0.000000  0.346273  0.106476  1
