# generated using pymatgen
data_Ho8Ta11NbSi15Ge
_symmetry_space_group_name_H-M   'P 1'
_cell_length_a   6.85674342
_cell_length_b   7.04212864
_cell_length_c   13.39115303
_cell_angle_alpha   90.04349129
_cell_angle_beta   89.93213012
_cell_angle_gamma   90.04818329
_symmetry_Int_Tables_number   1
_chemical_formula_structural   Ho8Ta11NbSi15Ge
_chemical_formula_sum   'Ho8 Ta11 Nb1 Si15 Ge1'
_cell_volume   646.60527451
_cell_formula_units_Z   1
loop_
 _symmetry_equiv_pos_site_id
 _symmetry_equiv_pos_as_xyz
  1  'x, y, z'
loop_
 _atom_site_type_symbol
 _atom_site_label
 _atom_site_symmetry_multiplicity
 _atom_site_fract_x
 _atom_site_fract_y
 _atom_site_fract_z
 _atom_site_occupancy
  Ho  Ho0  1  0.502143  0.328803  0.095624  1
  Ho  Ho1  1  0.000963  0.170746  0.404007  1
  Ho  Ho2  1  0.501057  0.673538  0.596186  1
  Ho  Ho3  1  0.997951  0.828457  0.904886  1
  Ho  Ho4  1  0.497863  0.671202  0.904734  1
  Ho  Ho5  1  0.997662  0.829552  0.595751  1
  Ho  Ho6  1  0.502648  0.327211  0.403588  1
  Ho  Ho7  1  0.001906  0.171673  0.095329  1
  Ta  Ta8  1  0.665256  0.008833  0.750365  1
  Ta  Ta9  1  0.164433  0.490489  0.752067  1
  Ta  Ta10  1  0.334863  0.991199  0.249722  1
  Ta  Ta11  1  0.835118  0.509149  0.249869  1
  Ta  Ta12  1  0.836761  0.324706  0.625582  1
  Ta  Ta13  1  0.338216  0.174846  0.875099  1
  Ta  Ta14  1  0.161753  0.674948  0.124954  1
  Ta  Ta15  1  0.661396  0.825353  0.374442  1
  Ta  Ta16  1  0.160123  0.677662  0.373169  1
  Ta  Ta17  1  0.660879  0.824833  0.125017  1
  Ta  Ta18  1  0.838234  0.324951  0.875103  1
  Nb  Nb19  1  0.340477  0.171166  0.626238  1
  Si  Si20  1  0.797688  0.627503  0.750197  1
  Si  Si21  1  0.296749  0.871168  0.750649  1
  Si  Si22  1  0.202717  0.372358  0.249767  1
  Si  Si23  1  0.702827  0.127626  0.249552  1
  Si  Si24  1  0.542873  0.377318  0.750233  1
  Si  Si25  1  0.042841  0.123005  0.750164  1
  Si  Si26  1  0.456765  0.622684  0.249901  1
  Si  Si27  1  0.956075  0.877786  0.249051  1
  Si  Si28  1  0.665553  0.037292  0.540093  1
  Si  Si29  1  0.164677  0.463132  0.959590  1
  Si  Si30  1  0.334864  0.963246  0.040525  1
  Si  Si31  1  0.831383  0.537572  0.458762  1
  Si  Si32  1  0.334712  0.962624  0.459407  1
  Si  Si33  1  0.835306  0.536885  0.040709  1
  Si  Si34  1  0.664863  0.036829  0.959559  1
  Ge  Ge35  1  0.170406  0.463656  0.540104  1
