# generated using pymatgen
data_TbTm5(CoSn6)2
_symmetry_space_group_name_H-M   'P 1'
_cell_length_a   8.42177070
_cell_length_b   8.42177051
_cell_length_c   13.08718326
_cell_angle_alpha   89.97971807
_cell_angle_beta   90.02028783
_cell_angle_gamma   148.79868591
_symmetry_Int_Tables_number   1
_chemical_formula_structural   TbTm5(CoSn6)2
_chemical_formula_sum   'Tb1 Tm5 Co2 Sn12'
_cell_volume   480.86350864
_cell_formula_units_Z   1
loop_
 _symmetry_equiv_pos_site_id
 _symmetry_equiv_pos_as_xyz
  1  'x, y, z'
loop_
 _atom_site_type_symbol
 _atom_site_label
 _atom_site_symmetry_multiplicity
 _atom_site_fract_x
 _atom_site_fract_y
 _atom_site_fract_z
 _atom_site_occupancy
  Tb  Tb0  1  0.900041  0.099959  0.405972  1
  Tm  Tm1  1  0.898702  0.101298  0.093859  1
  Tm  Tm2  1  0.101452  0.898548  0.595147  1
  Tm  Tm3  1  0.900449  0.099551  0.750882  1
  Tm  Tm4  1  0.101115  0.898885  0.905550  1
  Tm  Tm5  1  0.099591  0.900409  0.248980  1
  Co  Co6  1  0.299634  0.700366  0.249351  1
  Co  Co7  1  0.699825  0.300175  0.750437  1
  Sn  Sn8  1  0.755711  0.244289  0.571879  1
  Sn  Sn9  1  0.427675  0.572325  0.577068  1
  Sn  Sn10  1  0.573411  0.426589  0.424516  1
  Sn  Sn11  1  0.732565  0.267435  0.249607  1
  Sn  Sn12  1  0.267088  0.732912  0.750036  1
  Sn  Sn13  1  0.243714  0.756286  0.071024  1
  Sn  Sn14  1  0.243367  0.756633  0.428337  1
  Sn  Sn15  1  0.573268  0.426732  0.074507  1
  Sn  Sn16  1  0.454609  0.545391  0.248210  1
  Sn  Sn17  1  0.545398  0.454602  0.750888  1
  Sn  Sn18  1  0.756106  0.243894  0.928649  1
  Sn  Sn19  1  0.426278  0.573722  0.925099  1
