# generated using pymatgen
data_Li2Ac4Si5Hg
_symmetry_space_group_name_H-M   'P 1'
_cell_length_a   4.71793967
_cell_length_b   8.19567726
_cell_length_c   8.39929317
_cell_angle_alpha   104.26764440
_cell_angle_beta   106.34254426
_cell_angle_gamma   89.96861065
_symmetry_Int_Tables_number   1
_chemical_formula_structural   Li2Ac4Si5Hg
_chemical_formula_sum   'Li2 Ac4 Si5 Hg1'
_cell_volume   301.21064927
_cell_formula_units_Z   1
loop_
 _symmetry_equiv_pos_site_id
 _symmetry_equiv_pos_as_xyz
  1  'x, y, z'
loop_
 _atom_site_type_symbol
 _atom_site_label
 _atom_site_symmetry_multiplicity
 _atom_site_fract_x
 _atom_site_fract_y
 _atom_site_fract_z
 _atom_site_occupancy
  Li  Li0  1  0.206306  0.246146  0.412675  1
  Li  Li1  1  0.787047  0.750545  0.574147  1
  Ac  Ac2  1  0.617821  0.930238  0.234347  1
  Ac  Ac3  1  0.389983  0.572386  0.783090  1
  Ac  Ac4  1  0.383496  0.064737  0.768715  1
  Ac  Ac5  1  0.613498  0.434516  0.225134  1
  Si  Si6  1  0.958849  0.853834  0.915758  1
  Si  Si7  1  0.043218  0.144811  0.085627  1
  Si  Si8  1  0.959904  0.353852  0.919747  1
  Si  Si9  1  0.204661  0.723373  0.409133  1
  Si  Si10  1  0.047650  0.649399  0.095798  1
  Hg  Hg11  1  0.787569  0.276165  0.575830  1
