# generated using pymatgen
data_Ho5Th3(MgOs)2
_symmetry_space_group_name_H-M   'P 1'
_cell_length_a   9.76162676
_cell_length_b   9.83703113
_cell_length_c   9.83703120
_cell_angle_alpha   59.49350798
_cell_angle_beta   60.25325300
_cell_angle_gamma   60.25324401
_symmetry_Int_Tables_number   1
_chemical_formula_structural   Ho5Th3(MgOs)2
_chemical_formula_sum   'Ho10 Th6 Mg4 Os4'
_cell_volume   667.85880948
_cell_formula_units_Z   2
loop_
 _symmetry_equiv_pos_site_id
 _symmetry_equiv_pos_as_xyz
  1  'x, y, z'
loop_
 _atom_site_type_symbol
 _atom_site_label
 _atom_site_symmetry_multiplicity
 _atom_site_fract_x
 _atom_site_fract_y
 _atom_site_fract_z
 _atom_site_occupancy
  Ho  Ho0  1  0.189507  0.810493  0.189507  1
  Ho  Ho1  1  0.810493  0.189507  0.810493  1
  Ho  Ho2  1  0.189507  0.189507  0.810493  1
  Ho  Ho3  1  0.810493  0.810493  0.189507  1
  Ho  Ho4  1  0.932922  0.567078  0.567078  1
  Ho  Ho5  1  0.567078  0.932922  0.932922  1
  Ho  Ho6  1  0.562122  0.937878  0.562122  1
  Ho  Ho7  1  0.937878  0.562122  0.937878  1
  Ho  Ho8  1  0.562122  0.562122  0.937878  1
  Ho  Ho9  1  0.937878  0.937878  0.562122  1
  Th  Th10  1  0.340710  0.349781  0.349781  1
  Th  Th11  1  0.349781  0.340710  0.959728  1
  Th  Th12  1  0.349781  0.959728  0.340710  1
  Th  Th13  1  0.959728  0.349781  0.349781  1
  Th  Th14  1  0.816091  0.183909  0.183909  1
  Th  Th15  1  0.183909  0.816091  0.816091  1
  Mg  Mg16  1  0.582376  0.579376  0.579376  1
  Mg  Mg17  1  0.579376  0.582376  0.258872  1
  Mg  Mg18  1  0.579376  0.258872  0.582376  1
  Mg  Mg19  1  0.258872  0.579376  0.579376  1
  Os  Os20  1  0.131316  0.146294  0.146294  1
  Os  Os21  1  0.146294  0.131316  0.576095  1
  Os  Os22  1  0.146294  0.576095  0.131316  1
  Os  Os23  1  0.576095  0.146294  0.146294  1
