# generated using pymatgen
data_Y3PaHg2Rh3
_symmetry_space_group_name_H-M   'P 1'
_cell_length_a   7.82145387
_cell_length_b   7.82145384
_cell_length_c   3.85723200
_cell_angle_alpha   90.00000000
_cell_angle_beta   90.00000000
_cell_angle_gamma   121.69703774
_symmetry_Int_Tables_number   1
_chemical_formula_structural   Y3PaHg2Rh3
_chemical_formula_sum   'Y3 Pa1 Hg2 Rh3'
_cell_volume   200.76950815
_cell_formula_units_Z   1
loop_
 _symmetry_equiv_pos_site_id
 _symmetry_equiv_pos_as_xyz
  1  'x, y, z'
loop_
 _atom_site_type_symbol
 _atom_site_label
 _atom_site_symmetry_multiplicity
 _atom_site_fract_x
 _atom_site_fract_y
 _atom_site_fract_z
 _atom_site_occupancy
  Y  Y0  1  0.961402  0.403342  0.500000  1
  Y  Y1  1  0.644205  0.644205  0.500000  1
  Y  Y2  1  0.403342  0.961402  0.500000  1
  Pa  Pa3  1  0.267347  0.267347  0.000000  1
  Hg  Hg4  1  0.013558  0.737984  0.000000  1
  Hg  Hg5  1  0.737984  0.013558  0.000000  1
  Rh  Rh6  1  0.324332  0.617717  0.000000  1
  Rh  Rh7  1  0.030117  0.030117  0.500000  1
  Rh  Rh8  1  0.617717  0.324332  0.000000  1
