# generated using pymatgen
data_Tb3TmCoAg
_symmetry_space_group_name_H-M   'P 1'
_cell_length_a   9.43972656
_cell_length_b   9.43972587
_cell_length_c   9.42697400
_cell_angle_alpha   60.04468345
_cell_angle_beta   60.04468590
_cell_angle_gamma   59.91063881
_symmetry_Int_Tables_number   1
_chemical_formula_structural   Tb3TmCoAg
_chemical_formula_sum   'Tb12 Tm4 Co4 Ag4'
_cell_volume   593.98373342
_cell_formula_units_Z   4
loop_
 _symmetry_equiv_pos_site_id
 _symmetry_equiv_pos_as_xyz
  1  'x, y, z'
loop_
 _atom_site_type_symbol
 _atom_site_label
 _atom_site_symmetry_multiplicity
 _atom_site_fract_x
 _atom_site_fract_y
 _atom_site_fract_z
 _atom_site_occupancy
  Tb  Tb0  1  0.185736  0.185736  0.814264  1
  Tb  Tb1  1  0.814264  0.814264  0.185736  1
  Tb  Tb2  1  0.938038  0.561961  0.561962  1
  Tb  Tb3  1  0.561961  0.938038  0.938039  1
  Tb  Tb4  1  0.561962  0.938038  0.561962  1
  Tb  Tb5  1  0.938038  0.561961  0.938039  1
  Tb  Tb6  1  0.561922  0.561921  0.938079  1
  Tb  Tb7  1  0.938078  0.938078  0.561922  1
  Tb  Tb8  1  0.349258  0.349258  0.347889  1
  Tb  Tb9  1  0.349258  0.349258  0.953596  1
  Tb  Tb10  1  0.347889  0.953596  0.349258  1
  Tb  Tb11  1  0.953596  0.347889  0.349258  1
  Tm  Tm12  1  0.813426  0.186574  0.186574  1
  Tm  Tm13  1  0.186574  0.813426  0.813426  1
  Tm  Tm14  1  0.186574  0.813426  0.186574  1
  Tm  Tm15  1  0.813426  0.186574  0.813426  1
  Co  Co16  1  0.140954  0.140954  0.141296  1
  Co  Co17  1  0.140954  0.140954  0.576797  1
  Co  Co18  1  0.141296  0.576797  0.140954  1
  Co  Co19  1  0.576797  0.141296  0.140954  1
  Ag  Ag20  1  0.580961  0.580961  0.581783  1
  Ag  Ag21  1  0.580961  0.580961  0.256295  1
  Ag  Ag22  1  0.581783  0.256295  0.580961  1
  Ag  Ag23  1  0.256295  0.581783  0.580961  1
