# generated using pymatgen
data_LiZrNi12As7
_symmetry_space_group_name_H-M   'P 1'
_cell_length_a   9.33577100
_cell_length_b   9.33577175
_cell_length_c   3.71645800
_cell_angle_alpha   90.00000000
_cell_angle_beta   90.00000000
_cell_angle_gamma   119.99999381
_symmetry_Int_Tables_number   1
_chemical_formula_structural   LiZrNi12As7
_chemical_formula_sum   'Li1 Zr1 Ni12 As7'
_cell_volume   280.51772176
_cell_formula_units_Z   1
loop_
 _symmetry_equiv_pos_site_id
 _symmetry_equiv_pos_as_xyz
  1  'x, y, z'
loop_
 _atom_site_type_symbol
 _atom_site_label
 _atom_site_symmetry_multiplicity
 _atom_site_fract_x
 _atom_site_fract_y
 _atom_site_fract_z
 _atom_site_occupancy
  Li  Li0  1  0.000000  0.000000  0.500000  1
  Zr  Zr1  1  0.666667  0.333333  0.000000  1
  Ni  Ni2  1  0.490608  0.947808  0.000000  1
  Ni  Ni3  1  0.052192  0.542801  0.000000  1
  Ni  Ni4  1  0.457199  0.509392  0.000000  1
  Ni  Ni5  1  0.710934  0.091382  0.500000  1
  Ni  Ni6  1  0.908618  0.619553  0.500000  1
  Ni  Ni7  1  0.380447  0.289066  0.500000  1
  Ni  Ni8  1  0.771304  0.718630  0.000000  1
  Ni  Ni9  1  0.281370  0.052673  0.000000  1
  Ni  Ni10  1  0.947327  0.228696  0.000000  1
  Ni  Ni11  1  0.546694  0.758390  0.500000  1
  Ni  Ni12  1  0.241610  0.788303  0.500000  1
  Ni  Ni13  1  0.211697  0.453306  0.500000  1
  As  As14  1  0.333333  0.666667  0.000000  1
  As  As15  1  0.451373  0.082061  0.500000  1
  As  As16  1  0.917939  0.369312  0.500000  1
  As  As17  1  0.630688  0.548627  0.500000  1
  As  As18  1  0.746798  0.951482  0.000000  1
  As  As19  1  0.048518  0.795316  0.000000  1
  As  As20  1  0.204684  0.253202  0.000000  1
