# generated using pymatgen
data_TbEr2Fe(Co4P3)2
_symmetry_space_group_name_H-M   'P 1'
_cell_length_a   3.68990600
_cell_length_b   10.52249200
_cell_length_c   12.17148300
_cell_angle_alpha   90.00000000
_cell_angle_beta   90.00000000
_cell_angle_gamma   90.00000000
_symmetry_Int_Tables_number   1
_chemical_formula_structural   TbEr2Fe(Co4P3)2
_chemical_formula_sum   'Tb2 Er4 Fe2 Co16 P12'
_cell_volume   472.58224792
_cell_formula_units_Z   2
loop_
 _symmetry_equiv_pos_site_id
 _symmetry_equiv_pos_as_xyz
  1  'x, y, z'
loop_
 _atom_site_type_symbol
 _atom_site_label
 _atom_site_symmetry_multiplicity
 _atom_site_fract_x
 _atom_site_fract_y
 _atom_site_fract_z
 _atom_site_occupancy
  Tb  Tb0  1  0.750000  0.250000  0.478109  1
  Tb  Tb1  1  0.250000  0.750000  0.521891  1
  Er  Er2  1  0.250000  0.931687  0.795278  1
  Er  Er3  1  0.250000  0.568313  0.795278  1
  Er  Er4  1  0.750000  0.068313  0.204722  1
  Er  Er5  1  0.750000  0.431687  0.204722  1
  Fe  Fe6  1  0.250000  0.250000  0.843255  1
  Fe  Fe7  1  0.750000  0.750000  0.156745  1
  Co  Co8  1  0.250000  0.250000  0.296998  1
  Co  Co9  1  0.750000  0.750000  0.703002  1
  Co  Co10  1  0.750000  0.250000  0.013637  1
  Co  Co11  1  0.250000  0.750000  0.986363  1
  Co  Co12  1  0.250000  0.417070  0.006023  1
  Co  Co13  1  0.250000  0.082930  0.006023  1
  Co  Co14  1  0.750000  0.582930  0.993977  1
  Co  Co15  1  0.750000  0.917070  0.993977  1
  Co  Co16  1  0.250000  0.453429  0.569749  1
  Co  Co17  1  0.250000  0.046571  0.569749  1
  Co  Co18  1  0.750000  0.546571  0.430251  1
  Co  Co19  1  0.750000  0.953429  0.430251  1
  Co  Co20  1  0.250000  0.871458  0.290031  1
  Co  Co21  1  0.250000  0.628542  0.290031  1
  Co  Co22  1  0.750000  0.128542  0.709969  1
  Co  Co23  1  0.750000  0.371458  0.709969  1
  P  P24  1  0.250000  0.250000  0.117672  1
  P  P25  1  0.750000  0.750000  0.882328  1
  P  P26  1  0.250000  0.250000  0.658028  1
  P  P27  1  0.750000  0.750000  0.341972  1
  P  P28  1  0.250000  0.440062  0.383206  1
  P  P29  1  0.250000  0.059938  0.383206  1
  P  P30  1  0.750000  0.559938  0.616794  1
  P  P31  1  0.750000  0.940062  0.616794  1
  P  P32  1  0.250000  0.903177  0.107248  1
  P  P33  1  0.250000  0.596823  0.107248  1
  P  P34  1  0.750000  0.096823  0.892752  1
  P  P35  1  0.750000  0.403177  0.892752  1
