# generated using pymatgen
data_Hf5Zr3Co16Si7P5
_symmetry_space_group_name_H-M   'P 1'
_cell_length_a   12.19586215
_cell_length_b   12.19311042
_cell_length_c   3.66585800
_cell_angle_alpha   90.00000000
_cell_angle_beta   90.00000000
_cell_angle_gamma   119.92540234
_symmetry_Int_Tables_number   1
_chemical_formula_structural   Hf5Zr3Co16Si7P5
_chemical_formula_sum   'Hf5 Zr3 Co16 Si7 P5'
_cell_volume   472.45369511
_cell_formula_units_Z   1
loop_
 _symmetry_equiv_pos_site_id
 _symmetry_equiv_pos_as_xyz
  1  'x, y, z'
loop_
 _atom_site_type_symbol
 _atom_site_label
 _atom_site_symmetry_multiplicity
 _atom_site_fract_x
 _atom_site_fract_y
 _atom_site_fract_z
 _atom_site_occupancy
  Hf  Hf0  1  0.439815  0.440297  0.000000  1
  Hf  Hf1  1  0.558988  0.999015  0.000000  1
  Hf  Hf2  1  0.334155  0.667650  0.000000  1
  Hf  Hf3  1  0.663587  0.333153  0.000000  1
  Hf  Hf4  1  0.002872  0.560201  0.000000  1
  Zr  Zr5  1  0.817589  0.814737  0.500000  1
  Zr  Zr6  1  0.997775  0.180113  0.500000  1
  Zr  Zr7  1  0.181911  0.001006  0.500000  1
  Co  Co8  1  0.620416  0.818210  0.000000  1
  Co  Co9  1  0.375675  0.198927  0.000000  1
  Co  Co10  1  0.003436  0.725715  0.500000  1
  Co  Co11  1  0.280390  0.281595  0.500000  1
  Co  Co12  1  0.881820  0.359765  0.500000  1
  Co  Co13  1  0.717059  0.995552  0.500000  1
  Co  Co14  1  0.824887  0.628799  0.000000  1
  Co  Co15  1  0.177903  0.803979  0.000000  1
  Co  Co16  1  0.356686  0.871872  0.500000  1
  Co  Co17  1  0.131029  0.488481  0.500000  1
  Co  Co18  1  0.639659  0.516521  0.500000  1
  Co  Co19  1  0.999792  0.994598  0.000000  1
  Co  Co20  1  0.513738  0.642298  0.500000  1
  Co  Co21  1  0.479723  0.125140  0.500000  1
  Co  Co22  1  0.198555  0.378240  0.000000  1
  Co  Co23  1  0.804356  0.176485  0.000000  1
  Si  Si24  1  0.000518  0.348206  0.000000  1
  Si  Si25  1  0.823933  0.516205  0.500000  1
  Si  Si26  1  0.694448  0.177700  0.500000  1
  Si  Si27  1  0.175976  0.177953  0.000000  1
  Si  Si28  1  0.650156  0.649844  0.000000  1
  Si  Si29  1  0.820723  0.996864  0.000000  1
  Si  Si30  1  0.349044  0.001264  0.000000  1
  P  P31  1  0.516826  0.824292  0.500000  1
  P  P32  1  0.176344  0.693898  0.500000  1
  P  P33  1  0.481470  0.306998  0.500000  1
  P  P34  1  0.000524  0.820924  0.000000  1
  P  P35  1  0.308222  0.483505  0.500000  1
