# generated using pymatgen
data_Nd3Sc2P12Ir10Ru9
_symmetry_space_group_name_H-M   'P 1'
_cell_length_a   12.66122200
_cell_length_b   12.66122259
_cell_length_c   3.94989500
_cell_angle_alpha   90.00000000
_cell_angle_beta   90.00000000
_cell_angle_gamma   120.00000368
_symmetry_Int_Tables_number   1
_chemical_formula_structural   Nd3Sc2P12Ir10Ru9
_chemical_formula_sum   'Nd3 Sc2 P12 Ir10 Ru9'
_cell_volume   548.36210415
_cell_formula_units_Z   1
loop_
 _symmetry_equiv_pos_site_id
 _symmetry_equiv_pos_as_xyz
  1  'x, y, z'
loop_
 _atom_site_type_symbol
 _atom_site_label
 _atom_site_symmetry_multiplicity
 _atom_site_fract_x
 _atom_site_fract_y
 _atom_site_fract_z
 _atom_site_occupancy
  Nd  Nd0  1  0.810845  0.000000  0.500000  1
  Nd  Nd1  1  0.000000  0.810845  0.500000  1
  Nd  Nd2  1  0.189155  0.189155  0.500000  1
  Sc  Sc3  1  0.333333  0.666667  0.000000  1
  Sc  Sc4  1  0.666667  0.333333  0.000000  1
  P  P5  1  0.184396  0.000000  0.000000  1
  P  P6  1  0.000000  0.184396  0.000000  1
  P  P7  1  0.815604  0.815604  0.000000  1
  P  P8  1  0.176317  0.483502  0.500000  1
  P  P9  1  0.516498  0.692814  0.500000  1
  P  P10  1  0.307186  0.823683  0.500000  1
  P  P11  1  0.692814  0.516498  0.500000  1
  P  P12  1  0.823683  0.307186  0.500000  1
  P  P13  1  0.483502  0.176317  0.500000  1
  P  P14  1  0.633396  0.000000  0.000000  1
  P  P15  1  0.000000  0.633396  0.000000  1
  P  P16  1  0.366604  0.366604  0.000000  1
  Ir  Ir17  1  0.365387  0.496602  0.500000  1
  Ir  Ir18  1  0.503398  0.868784  0.500000  1
  Ir  Ir19  1  0.131216  0.634613  0.500000  1
  Ir  Ir20  1  0.868784  0.503398  0.500000  1
  Ir  Ir21  1  0.634613  0.131216  0.500000  1
  Ir  Ir22  1  0.496602  0.365387  0.500000  1
  Ir  Ir23  1  0.289599  0.000000  0.500000  1
  Ir  Ir24  1  0.000000  0.289599  0.500000  1
  Ir  Ir25  1  0.710401  0.710401  0.500000  1
  Ir  Ir26  1  0.000000  0.000000  0.000000  1
  Ru  Ru27  1  0.452078  0.000000  0.000000  1
  Ru  Ru28  1  0.000000  0.452078  0.000000  1
  Ru  Ru29  1  0.547922  0.547922  0.000000  1
  Ru  Ru30  1  0.183245  0.383662  0.000000  1
  Ru  Ru31  1  0.616338  0.799585  0.000000  1
  Ru  Ru32  1  0.200415  0.816755  0.000000  1
  Ru  Ru33  1  0.799585  0.616338  0.000000  1
  Ru  Ru34  1  0.816755  0.200415  0.000000  1
  Ru  Ru35  1  0.383662  0.183245  0.000000  1
