# generated using pymatgen
data_Ce7Th(OsC2)4
_symmetry_space_group_name_H-M   'P 1'
_cell_length_a   5.28733600
_cell_length_b   6.52785676
_cell_length_c   9.90196178
_cell_angle_alpha   90.25145905
_cell_angle_beta   90.00000000
_cell_angle_gamma   90.00000000
_symmetry_Int_Tables_number   1
_chemical_formula_structural   Ce7Th(OsC2)4
_chemical_formula_sum   'Ce7 Th1 Os4 C8'
_cell_volume   341.76264248
_cell_formula_units_Z   1
loop_
 _symmetry_equiv_pos_site_id
 _symmetry_equiv_pos_as_xyz
  1  'x, y, z'
loop_
 _atom_site_type_symbol
 _atom_site_label
 _atom_site_symmetry_multiplicity
 _atom_site_fract_x
 _atom_site_fract_y
 _atom_site_fract_z
 _atom_site_occupancy
  Ce  Ce0  1  0.250000  0.692409  0.546167  1
  Ce  Ce1  1  0.750000  0.307589  0.456219  1
  Ce  Ce2  1  0.750000  0.804587  0.044000  1
  Ce  Ce3  1  0.250000  0.196092  0.954223  1
  Ce  Ce4  1  0.250000  0.519125  0.222134  1
  Ce  Ce5  1  0.750000  0.480947  0.776702  1
  Ce  Ce6  1  0.750000  0.981407  0.723129  1
  Th  Th7  1  0.250000  0.020376  0.277628  1
  Os  Os8  1  0.250000  0.730002  0.860610  1
  Os  Os9  1  0.750000  0.269412  0.138917  1
  Os  Os10  1  0.750000  0.769480  0.361765  1
  Os  Os11  1  0.250000  0.228780  0.638442  1
  C  C12  1  0.250000  0.470069  0.755215  1
  C  C13  1  0.750000  0.528549  0.244865  1
  C  C14  1  0.750000  0.028122  0.254894  1
  C  C15  1  0.250000  0.971318  0.745608  1
  C  C16  1  0.250000  0.833131  0.052330  1
  C  C17  1  0.750000  0.168050  0.947429  1
  C  C18  1  0.750000  0.667394  0.552690  1
  C  C19  1  0.250000  0.333161  0.447032  1
