# generated using pymatgen
data_Y8Zr9Si16Mo3
_symmetry_space_group_name_H-M   'P 1'
_cell_length_a   7.00444748
_cell_length_b   7.22358948
_cell_length_c   13.82042500
_cell_angle_alpha   90.00000000
_cell_angle_beta   90.00000000
_cell_angle_gamma   89.95787566
_symmetry_Int_Tables_number   1
_chemical_formula_structural   Y8Zr9Si16Mo3
_chemical_formula_sum   'Y8 Zr9 Si16 Mo3'
_cell_volume   699.27535321
_cell_formula_units_Z   1
loop_
 _symmetry_equiv_pos_site_id
 _symmetry_equiv_pos_as_xyz
  1  'x, y, z'
loop_
 _atom_site_type_symbol
 _atom_site_label
 _atom_site_symmetry_multiplicity
 _atom_site_fract_x
 _atom_site_fract_y
 _atom_site_fract_z
 _atom_site_occupancy
  Y  Y0  1  0.516086  0.676676  0.600304  1
  Y  Y1  1  0.015748  0.821837  0.900129  1
  Y  Y2  1  0.482177  0.325598  0.096127  1
  Y  Y3  1  0.984776  0.177935  0.403410  1
  Y  Y4  1  0.482177  0.325598  0.403873  1
  Y  Y5  1  0.984776  0.177935  0.096590  1
  Y  Y6  1  0.516086  0.676676  0.899696  1
  Y  Y7  1  0.015748  0.821837  0.599871  1
  Zr  Zr8  1  0.676202  0.174034  0.627187  1
  Zr  Zr9  1  0.177775  0.325793  0.873570  1
  Zr  Zr10  1  0.321756  0.823100  0.124070  1
  Zr  Zr11  1  0.825787  0.672974  0.375359  1
  Zr  Zr12  1  0.321756  0.823100  0.375930  1
  Zr  Zr13  1  0.825787  0.672974  0.124641  1
  Zr  Zr14  1  0.676202  0.174034  0.872813  1
  Zr  Zr15  1  0.177775  0.325793  0.626430  1
  Zr  Zr16  1  0.650555  0.997103  0.250000  1
  Si  Si17  1  0.653703  0.967407  0.460525  1
  Si  Si18  1  0.152193  0.532333  0.042219  1
  Si  Si19  1  0.347167  0.030476  0.954665  1
  Si  Si20  1  0.845585  0.466970  0.544391  1
  Si  Si21  1  0.347167  0.030476  0.545335  1
  Si  Si22  1  0.845585  0.466970  0.955609  1
  Si  Si23  1  0.653703  0.967407  0.039475  1
  Si  Si24  1  0.152193  0.532333  0.457781  1
  Si  Si25  1  0.479628  0.386956  0.750000  1
  Si  Si26  1  0.979465  0.114672  0.750000  1
  Si  Si27  1  0.519586  0.612571  0.250000  1
  Si  Si28  1  0.027523  0.880803  0.250000  1
  Si  Si29  1  0.718400  0.869340  0.750000  1
  Si  Si30  1  0.217691  0.630779  0.750000  1
  Si  Si31  1  0.273995  0.134165  0.250000  1
  Si  Si32  1  0.784108  0.373299  0.250000  1
  Mo  Mo33  1  0.852025  0.490965  0.750000  1
  Mo  Mo34  1  0.350949  0.010045  0.750000  1
  Mo  Mo35  1  0.148163  0.509037  0.250000  1
