# generated using pymatgen
data_Sm4ErUS10
_symmetry_space_group_name_H-M   'P 1'
_cell_length_a   7.48818000
_cell_length_b   7.92995800
_cell_length_c   11.88543300
_cell_angle_alpha   90.00000000
_cell_angle_beta   90.00000000
_cell_angle_gamma   90.00000000
_symmetry_Int_Tables_number   1
_chemical_formula_structural   Sm4ErUS10
_chemical_formula_sum   'Sm8 Er2 U2 S20'
_cell_volume   705.76833713
_cell_formula_units_Z   2
loop_
 _symmetry_equiv_pos_site_id
 _symmetry_equiv_pos_as_xyz
  1  'x, y, z'
loop_
 _atom_site_type_symbol
 _atom_site_label
 _atom_site_symmetry_multiplicity
 _atom_site_fract_x
 _atom_site_fract_y
 _atom_site_fract_z
 _atom_site_occupancy
  Sm  Sm0  1  0.527203  0.501878  0.322441  1
  Sm  Sm1  1  0.972797  0.998122  0.822441  1
  Sm  Sm2  1  0.478014  0.996448  0.677580  1
  Sm  Sm3  1  0.021986  0.503552  0.177580  1
  Sm  Sm4  1  0.478014  0.503552  0.677580  1
  Sm  Sm5  1  0.021986  0.996448  0.177580  1
  Sm  Sm6  1  0.527203  0.998122  0.322441  1
  Sm  Sm7  1  0.972797  0.501878  0.822441  1
  Er  Er8  1  0.072996  0.750000  0.494816  1
  Er  Er9  1  0.427004  0.750000  0.994816  1
  U  U10  1  0.941702  0.250000  0.506067  1
  U  U11  1  0.558298  0.250000  0.006067  1
  S  S12  1  0.835192  0.966149  0.596661  1
  S  S13  1  0.664808  0.533851  0.096661  1
  S  S14  1  0.163644  0.455291  0.404152  1
  S  S15  1  0.336356  0.044709  0.904152  1
  S  S16  1  0.163644  0.044709  0.404152  1
  S  S17  1  0.336356  0.455291  0.904152  1
  S  S18  1  0.835192  0.533851  0.596661  1
  S  S19  1  0.664808  0.966149  0.096661  1
  S  S20  1  0.830305  0.750000  0.314235  1
  S  S21  1  0.669695  0.750000  0.814235  1
  S  S22  1  0.169289  0.250000  0.683874  1
  S  S23  1  0.330711  0.250000  0.183874  1
  S  S24  1  0.454370  0.750000  0.497843  1
  S  S25  1  0.045630  0.750000  0.997843  1
  S  S26  1  0.550204  0.250000  0.498974  1
  S  S27  1  0.949796  0.250000  0.998974  1
  S  S28  1  0.192746  0.750000  0.713397  1
  S  S29  1  0.307254  0.750000  0.213397  1
  S  S30  1  0.808767  0.250000  0.289127  1
  S  S31  1  0.691233  0.250000  0.789127  1
