# generated using pymatgen
data_YEr19Hg6RuPt
_symmetry_space_group_name_H-M   'P 1'
_cell_length_a   9.57038201
_cell_length_b   9.56886200
_cell_length_c   9.56572600
_cell_angle_alpha   90.00000000
_cell_angle_beta   90.00000000
_cell_angle_gamma   119.99474985
_symmetry_Int_Tables_number   1
_chemical_formula_structural   YEr19Hg6RuPt
_chemical_formula_sum   'Y1 Er19 Hg6 Ru1 Pt1'
_cell_volume   758.68431680
_cell_formula_units_Z   1
loop_
 _symmetry_equiv_pos_site_id
 _symmetry_equiv_pos_as_xyz
  1  'x, y, z'
loop_
 _atom_site_type_symbol
 _atom_site_label
 _atom_site_symmetry_multiplicity
 _atom_site_fract_x
 _atom_site_fract_y
 _atom_site_fract_z
 _atom_site_occupancy
  Y  Y0  1  0.915080  0.457539  0.250000  1
  Er  Er1  1  0.000147  0.000073  0.499717  1
  Er  Er2  1  0.000147  0.000073  0.000283  1
  Er  Er3  1  0.208144  0.793208  0.442203  1
  Er  Er4  1  0.208144  0.414937  0.442203  1
  Er  Er5  1  0.585264  0.792632  0.441972  1
  Er  Er6  1  0.790263  0.208801  0.560770  1
  Er  Er7  1  0.790263  0.581461  0.560770  1
  Er  Er8  1  0.418932  0.209465  0.560426  1
  Er  Er9  1  0.790263  0.208801  0.939230  1
  Er  Er10  1  0.790263  0.581461  0.939230  1
  Er  Er11  1  0.418932  0.209465  0.939574  1
  Er  Er12  1  0.208144  0.793208  0.057797  1
  Er  Er13  1  0.208144  0.414937  0.057797  1
  Er  Er14  1  0.585264  0.792632  0.058028  1
  Er  Er15  1  0.541589  0.457848  0.250000  1
  Er  Er16  1  0.541589  0.083741  0.250000  1
  Er  Er17  1  0.459312  0.540571  0.750000  1
  Er  Er18  1  0.459312  0.918742  0.750000  1
  Er  Er19  1  0.080893  0.540447  0.750000  1
  Hg  Hg20  1  0.880845  0.117212  0.250000  1
  Hg  Hg21  1  0.880845  0.763634  0.250000  1
  Hg  Hg22  1  0.237431  0.118717  0.250000  1
  Hg  Hg23  1  0.119321  0.881020  0.750000  1
  Hg  Hg24  1  0.119321  0.238298  0.750000  1
  Hg  Hg25  1  0.761542  0.880770  0.750000  1
  Ru  Ru26  1  0.666906  0.333453  0.750000  1
  Pt  Pt27  1  0.333703  0.666851  0.250000  1
