# generated using pymatgen
data_Lu3ThAlFe
_symmetry_space_group_name_H-M   'P 1'
_cell_length_a   9.25572167
_cell_length_b   9.25572147
_cell_length_c   9.25572000
_cell_angle_alpha   59.99999811
_cell_angle_beta   59.99999882
_cell_angle_gamma   60.00000263
_symmetry_Int_Tables_number   1
_chemical_formula_structural   Lu3ThAlFe
_chemical_formula_sum   'Lu12 Th4 Al4 Fe4'
_cell_volume   560.68091345
_cell_formula_units_Z   4
loop_
 _symmetry_equiv_pos_site_id
 _symmetry_equiv_pos_as_xyz
  1  'x, y, z'
loop_
 _atom_site_type_symbol
 _atom_site_label
 _atom_site_symmetry_multiplicity
 _atom_site_fract_x
 _atom_site_fract_y
 _atom_site_fract_z
 _atom_site_occupancy
  Lu  Lu0  1  0.060082  0.440104  0.440104  1
  Lu  Lu1  1  0.439990  0.059953  0.059953  1
  Lu  Lu2  1  0.440104  0.060082  0.440104  1
  Lu  Lu3  1  0.059953  0.439990  0.059953  1
  Lu  Lu4  1  0.440104  0.440104  0.060082  1
  Lu  Lu5  1  0.059953  0.059953  0.439990  1
  Lu  Lu6  1  0.186524  0.813403  0.813403  1
  Lu  Lu7  1  0.813507  0.186476  0.186476  1
  Lu  Lu8  1  0.813403  0.186524  0.813403  1
  Lu  Lu9  1  0.186476  0.813507  0.186476  1
  Lu  Lu10  1  0.813403  0.813403  0.186524  1
  Lu  Lu11  1  0.186476  0.186476  0.813507  1
  Th  Th12  1  0.597799  0.597799  0.597799  1
  Th  Th13  1  0.597908  0.597908  0.206368  1
  Th  Th14  1  0.597908  0.206368  0.597908  1
  Th  Th15  1  0.206368  0.597908  0.597908  1
  Al  Al16  1  0.829316  0.829316  0.829316  1
  Al  Al17  1  0.829323  0.829323  0.511827  1
  Al  Al18  1  0.829323  0.511827  0.829323  1
  Al  Al19  1  0.511827  0.829323  0.829323  1
  Fe  Fe20  1  0.393084  0.393084  0.393084  1
  Fe  Fe21  1  0.392911  0.392911  0.821346  1
  Fe  Fe22  1  0.392911  0.821346  0.392911  1
  Fe  Fe23  1  0.821346  0.392911  0.392911  1
