# generated using pymatgen
data_Cs2Ti3(GaO5)2
_symmetry_space_group_name_H-M   'P 1'
_cell_length_a   9.77704022
_cell_length_b   9.77704010
_cell_length_c   13.15738700
_cell_angle_alpha   50.39118381
_cell_angle_beta   50.39118442
_cell_angle_gamma   42.43785601
_symmetry_Int_Tables_number   1
_chemical_formula_structural   Cs2Ti3(GaO5)2
_chemical_formula_sum   'Cs4 Ti6 Ga4 O20'
_cell_volume   619.18263901
_cell_formula_units_Z   2
loop_
 _symmetry_equiv_pos_site_id
 _symmetry_equiv_pos_as_xyz
  1  'x, y, z'
loop_
 _atom_site_type_symbol
 _atom_site_label
 _atom_site_symmetry_multiplicity
 _atom_site_fract_x
 _atom_site_fract_y
 _atom_site_fract_z
 _atom_site_occupancy
  Cs  Cs0  1  0.633026  0.848433  0.128454  1
  Cs  Cs1  1  0.151567  0.366974  0.871546  1
  Cs  Cs2  1  0.275826  0.990590  0.620882  1
  Cs  Cs3  1  0.009410  0.724174  0.379118  1
  Ti  Ti4  1  0.696065  0.425679  0.802995  1
  Ti  Ti5  1  0.574321  0.303935  0.197005  1
  Ti  Ti6  1  0.267841  0.732159  0.500000  1
  Ti  Ti7  1  0.015372  0.984628  0.000000  1
  Ti  Ti8  1  0.760031  0.988858  0.705246  1
  Ti  Ti9  1  0.011142  0.239969  0.294754  1
  Ga  Ga10  1  0.730002  0.441956  0.538802  1
  Ga  Ga11  1  0.558044  0.269998  0.461198  1
  Ga  Ga12  1  0.260969  0.473445  0.063446  1
  Ga  Ga13  1  0.526555  0.739031  0.936554  1
  O  O14  1  0.980871  0.314256  0.406743  1
  O  O15  1  0.685744  0.019129  0.593257  1
  O  O16  1  0.650501  0.251111  0.684992  1
  O  O17  1  0.748889  0.349499  0.315008  1
  O  O18  1  0.058986  0.819274  0.655090  1
  O  O19  1  0.180726  0.941014  0.344910  1
  O  O20  1  0.506399  0.688271  0.467021  1
  O  O21  1  0.311729  0.493601  0.532979  1
  O  O22  1  0.781834  0.503716  0.613131  1
  O  O23  1  0.496284  0.218166  0.386869  1
  O  O24  1  0.132587  0.356970  0.112567  1
  O  O25  1  0.643030  0.867413  0.887433  1
  O  O26  1  0.415346  0.525596  0.875467  1
  O  O27  1  0.474404  0.584654  0.124533  1
  O  O28  1  0.452010  0.269675  0.161611  1
  O  O29  1  0.730325  0.547990  0.838389  1
  O  O30  1  0.874957  0.130658  0.879998  1
  O  O31  1  0.869342  0.125043  0.120002  1
  O  O32  1  0.048102  0.727925  0.104133  1
  O  O33  1  0.272075  0.951898  0.895867  1
