# generated using pymatgen
data_Tm4Sc8Ni4AgBi
_symmetry_space_group_name_H-M   'P 1'
_cell_length_a   8.01113556
_cell_length_b   8.01315413
_cell_length_c   8.00618807
_cell_angle_alpha   107.13008015
_cell_angle_beta   109.32979841
_cell_angle_gamma   112.03162875
_symmetry_Int_Tables_number   1
_chemical_formula_structural   Tm4Sc8Ni4AgBi
_chemical_formula_sum   'Tm4 Sc8 Ni4 Ag1 Bi1'
_cell_volume   394.71534399
_cell_formula_units_Z   1
loop_
 _symmetry_equiv_pos_site_id
 _symmetry_equiv_pos_as_xyz
  1  'x, y, z'
loop_
 _atom_site_type_symbol
 _atom_site_label
 _atom_site_symmetry_multiplicity
 _atom_site_fract_x
 _atom_site_fract_y
 _atom_site_fract_z
 _atom_site_occupancy
  Tm  Tm0  1  0.608220  0.792106  0.816530  1
  Tm  Tm1  1  0.975520  0.791753  0.183507  1
  Tm  Tm2  1  0.024562  0.208400  0.816461  1
  Tm  Tm3  1  0.391796  0.207992  0.183421  1
  Sc  Sc4  1  0.707356  0.281030  0.988430  1
  Sc  Sc5  1  0.292663  0.718988  0.011533  1
  Sc  Sc6  1  0.707358  0.719333  0.426771  1
  Sc  Sc7  1  0.292762  0.280599  0.573213  1
  Sc  Sc8  1  0.805742  0.127068  0.321519  1
  Sc  Sc9  1  0.805781  0.484344  0.678578  1
  Sc  Sc10  1  0.194148  0.872705  0.678513  1
  Sc  Sc11  1  0.194340  0.515757  0.321555  1
  Ni  Ni12  1  0.860976  0.500048  0.361448  1
  Ni  Ni13  1  0.138846  0.499335  0.638528  1
  Ni  Ni14  1  0.000857  0.134961  0.135714  1
  Ni  Ni15  1  0.998974  0.865393  0.864328  1
  Ag  Ag16  1  0.500108  0.500184  0.999943  1
  Bi  Bi17  1  0.499991  0.000008  0.500008  1
