# generated using pymatgen
data_Sc2Co3Sn2
_symmetry_space_group_name_H-M   'P 1'
_cell_length_a   7.53146936
_cell_length_b   7.53146924
_cell_length_c   7.53147069
_cell_angle_alpha   33.80608395
_cell_angle_beta   33.80608329
_cell_angle_gamma   33.80608020
_symmetry_Int_Tables_number   1
_chemical_formula_structural   Sc2Co3Sn2
_chemical_formula_sum   'Sc2 Co3 Sn2'
_cell_volume   117.84452561
_cell_formula_units_Z   1
loop_
 _symmetry_equiv_pos_site_id
 _symmetry_equiv_pos_as_xyz
  1  'x, y, z'
loop_
 _atom_site_type_symbol
 _atom_site_label
 _atom_site_symmetry_multiplicity
 _atom_site_fract_x
 _atom_site_fract_y
 _atom_site_fract_z
 _atom_site_occupancy
  Sc  Sc0  1  0.755037  0.755037  0.755037  1
  Sc  Sc1  1  0.246187  0.246187  0.246187  1
  Co  Co2  1  0.120918  0.120918  0.120918  1
  Co  Co3  1  0.629726  0.629726  0.629726  1
  Co  Co4  1  0.374463  0.374463  0.374463  1
  Sn  Sn5  1  0.996849  0.996849  0.996849  1
  Sn  Sn6  1  0.501821  0.501821  0.501821  1
