# generated using pymatgen
data_Th(Al3Pt)3
_symmetry_space_group_name_H-M   'P 1'
_cell_length_a   10.43595307
_cell_length_b   10.43594182
_cell_length_c   10.43591445
_cell_angle_alpha   42.65110913
_cell_angle_beta   42.65084617
_cell_angle_gamma   42.65107874
_symmetry_Int_Tables_number   1
_chemical_formula_structural   Th(Al3Pt)3
_chemical_formula_sum   'Th2 Al18 Pt6'
_cell_volume   472.56862580
_cell_formula_units_Z   2
loop_
 _symmetry_equiv_pos_site_id
 _symmetry_equiv_pos_as_xyz
  1  'x, y, z'
loop_
 _atom_site_type_symbol
 _atom_site_label
 _atom_site_symmetry_multiplicity
 _atom_site_fract_x
 _atom_site_fract_y
 _atom_site_fract_z
 _atom_site_occupancy
  Th  Th0  1  0.166773  0.166774  0.166773  1
  Th  Th1  1  0.833226  0.833225  0.833229  1
  Al  Al2  1  0.049426  0.049426  0.049428  1
  Al  Al3  1  0.699948  0.500001  0.300052  1
  Al  Al4  1  0.665832  0.334166  0.999999  1
  Al  Al5  1  0.108305  0.432860  0.757768  1
  Al  Al6  1  0.432855  0.757764  0.108312  1
  Al  Al7  1  0.383873  0.383878  0.383876  1
  Al  Al8  1  0.334171  0.000002  0.665834  1
  Al  Al9  1  0.616125  0.616121  0.616126  1
  Al  Al10  1  0.242232  0.567139  0.891695  1
  Al  Al11  1  0.567148  0.891691  0.242229  1
  Al  Al12  1  0.500002  0.300054  0.699947  1
  Al  Al13  1  0.757770  0.108310  0.432851  1
  Al  Al14  1  0.950573  0.950573  0.950573  1
  Al  Al15  1  0.300053  0.699947  0.499999  1
  Al  Al16  1  0.000001  0.665837  0.334168  1
  Al  Al17  1  0.715583  0.715582  0.715581  1
  Al  Al18  1  0.284418  0.284419  0.284416  1
  Al  Al19  1  0.891689  0.242235  0.567144  1
  Pt  Pt20  1  0.238606  0.923894  0.581170  1
  Pt  Pt21  1  0.923895  0.581171  0.238605  1
  Pt  Pt22  1  0.761396  0.418829  0.076103  1
  Pt  Pt23  1  0.076100  0.761395  0.418829  1
  Pt  Pt24  1  0.418825  0.076105  0.761395  1
  Pt  Pt25  1  0.581173  0.238604  0.923899  1
