# generated using pymatgen
data_LiZn5B6Ir11
_symmetry_space_group_name_H-M   'P 1'
_cell_length_a   2.88580100
_cell_length_b   8.57234600
_cell_length_c   11.54342400
_cell_angle_alpha   90.00000000
_cell_angle_beta   90.00000000
_cell_angle_gamma   90.00000000
_symmetry_Int_Tables_number   1
_chemical_formula_structural   LiZn5B6Ir11
_chemical_formula_sum   'Li1 Zn5 B6 Ir11'
_cell_volume   285.56220017
_cell_formula_units_Z   1
loop_
 _symmetry_equiv_pos_site_id
 _symmetry_equiv_pos_as_xyz
  1  'x, y, z'
loop_
 _atom_site_type_symbol
 _atom_site_label
 _atom_site_symmetry_multiplicity
 _atom_site_fract_x
 _atom_site_fract_y
 _atom_site_fract_z
 _atom_site_occupancy
  Li  Li0  1  0.500000  0.000000  0.196749  1
  Zn  Zn1  1  0.500000  0.000000  0.502709  1
  Zn  Zn2  1  0.500000  0.500000  0.011145  1
  Zn  Zn3  1  0.500000  0.648338  0.497745  1
  Zn  Zn4  1  0.500000  0.351662  0.497745  1
  Zn  Zn5  1  0.500000  0.000000  0.789340  1
  B  B6  1  0.500000  0.808738  0.000736  1
  B  B7  1  0.500000  0.191262  0.000736  1
  B  B8  1  0.500000  0.690880  0.270629  1
  B  B9  1  0.500000  0.309120  0.270629  1
  B  B10  1  0.500000  0.318213  0.733738  1
  B  B11  1  0.500000  0.681787  0.733738  1
  Ir  Ir12  1  0.000000  0.000000  0.983095  1
  Ir  Ir13  1  0.000000  0.500000  0.313785  1
  Ir  Ir14  1  0.000000  0.500000  0.678869  1
  Ir  Ir15  1  0.000000  0.720255  0.125818  1
  Ir  Ir16  1  0.000000  0.279745  0.125818  1
  Ir  Ir17  1  0.000000  0.298551  0.879519  1
  Ir  Ir18  1  0.000000  0.701449  0.879519  1
  Ir  Ir19  1  0.000000  0.830668  0.357997  1
  Ir  Ir20  1  0.000000  0.169332  0.357997  1
  Ir  Ir21  1  0.000000  0.174966  0.645971  1
  Ir  Ir22  1  0.000000  0.825034  0.645971  1
