# generated using pymatgen
data_La6Ho2AlPd24
_symmetry_space_group_name_H-M   'P 1'
_cell_length_a   8.52618500
_cell_length_b   8.52618500
_cell_length_c   8.52618500
_cell_angle_alpha   90.00083328
_cell_angle_beta   89.99916672
_cell_angle_gamma   89.99916673
_symmetry_Int_Tables_number   1
_chemical_formula_structural   La6Ho2AlPd24
_chemical_formula_sum   'La6 Ho2 Al1 Pd24'
_cell_volume   619.81810089
_cell_formula_units_Z   1
loop_
 _symmetry_equiv_pos_site_id
 _symmetry_equiv_pos_as_xyz
  1  'x, y, z'
loop_
 _atom_site_type_symbol
 _atom_site_label
 _atom_site_symmetry_multiplicity
 _atom_site_fract_x
 _atom_site_fract_y
 _atom_site_fract_z
 _atom_site_occupancy
  La  La0  1  0.252037  0.252593  0.252593  1
  La  La1  1  0.747963  0.747407  0.747407  1
  La  La2  1  0.747407  0.747963  0.252593  1
  La  La3  1  0.747407  0.252593  0.747963  1
  La  La4  1  0.252593  0.252037  0.747407  1
  La  La5  1  0.252593  0.747407  0.252037  1
  Ho  Ho6  1  0.251826  0.748174  0.748174  1
  Ho  Ho7  1  0.748174  0.251826  0.251826  1
  Al  Al8  1  0.000000  0.000000  0.000000  1
  Pd  Pd9  1  0.260598  0.501915  0.996947  1
  Pd  Pd10  1  0.739402  0.498085  0.003053  1
  Pd  Pd11  1  0.996947  0.260598  0.498085  1
  Pd  Pd12  1  0.501915  0.260598  0.003053  1
  Pd  Pd13  1  0.003053  0.739402  0.501915  1
  Pd  Pd14  1  0.498085  0.739402  0.996947  1
  Pd  Pd15  1  0.501915  0.003053  0.260598  1
  Pd  Pd16  1  0.260598  0.996947  0.501915  1
  Pd  Pd17  1  0.498085  0.996947  0.739402  1
  Pd  Pd18  1  0.739402  0.003053  0.498085  1
  Pd  Pd19  1  0.996947  0.498085  0.260598  1
  Pd  Pd20  1  0.003053  0.501915  0.739402  1
  Pd  Pd21  1  0.253401  0.502868  0.502868  1
  Pd  Pd22  1  0.746599  0.497132  0.497132  1
  Pd  Pd23  1  0.502868  0.253401  0.497132  1
  Pd  Pd24  1  0.497132  0.746599  0.502868  1
  Pd  Pd25  1  0.502868  0.497132  0.253401  1
  Pd  Pd26  1  0.497132  0.502868  0.746599  1
  Pd  Pd27  1  0.291730  0.997465  0.997465  1
  Pd  Pd28  1  0.708270  0.002535  0.002535  1
  Pd  Pd29  1  0.997465  0.291730  0.002535  1
  Pd  Pd30  1  0.002535  0.708270  0.997465  1
  Pd  Pd31  1  0.997465  0.002535  0.291730  1
  Pd  Pd32  1  0.002535  0.997465  0.708270  1
