# generated using pymatgen
data_TmGaCo2NiB
_symmetry_space_group_name_H-M   'P 1'
_cell_length_a   5.17585800
_cell_length_b   5.11187296
_cell_length_c   6.66228100
_cell_angle_alpha   90.00000000
_cell_angle_beta   90.00000000
_cell_angle_gamma   120.41495429
_symmetry_Int_Tables_number   1
_chemical_formula_structural   TmGaCo2NiB
_chemical_formula_sum   'Tm2 Ga2 Co4 Ni2 B2'
_cell_volume   152.01442994
_cell_formula_units_Z   2
loop_
 _symmetry_equiv_pos_site_id
 _symmetry_equiv_pos_as_xyz
  1  'x, y, z'
loop_
 _atom_site_type_symbol
 _atom_site_label
 _atom_site_symmetry_multiplicity
 _atom_site_fract_x
 _atom_site_fract_y
 _atom_site_fract_z
 _atom_site_occupancy
  Tm  Tm0  1  0.999981  0.000000  0.000000  1
  Tm  Tm1  1  0.000020  0.000000  0.500000  1
  Ga  Ga2  1  0.330841  0.661724  0.000000  1
  Ga  Ga3  1  0.669117  0.338276  0.000000  1
  Co  Co4  1  0.499984  0.500007  0.295741  1
  Co  Co5  1  0.999976  0.499993  0.295741  1
  Co  Co6  1  0.499984  0.500007  0.704259  1
  Co  Co7  1  0.999976  0.499993  0.704259  1
  Ni  Ni8  1  0.499988  0.000000  0.294940  1
  Ni  Ni9  1  0.499988  0.000000  0.705060  1
  B  B10  1  0.326530  0.653118  0.500000  1
  B  B11  1  0.673413  0.346882  0.500000  1
