# generated using pymatgen
data_Ho12InFe2Ni3
_symmetry_space_group_name_H-M   'P 1'
_cell_length_a   8.26530073
_cell_length_b   8.26512433
_cell_length_c   8.26530260
_cell_angle_alpha   110.18490323
_cell_angle_beta   110.06063474
_cell_angle_gamma   108.17671531
_symmetry_Int_Tables_number   1
_chemical_formula_structural   Ho12InFe2Ni3
_chemical_formula_sum   'Ho12 In1 Fe2 Ni3'
_cell_volume   434.48408406
_cell_formula_units_Z   1
loop_
 _symmetry_equiv_pos_site_id
 _symmetry_equiv_pos_as_xyz
  1  'x, y, z'
loop_
 _atom_site_type_symbol
 _atom_site_label
 _atom_site_symmetry_multiplicity
 _atom_site_fract_x
 _atom_site_fract_y
 _atom_site_fract_z
 _atom_site_occupancy
  Ho  Ho0  1  0.316134  0.619788  0.303654  1
  Ho  Ho1  1  0.683866  0.380212  0.696346  1
  Ho  Ho2  1  0.316133  0.012470  0.696339  1
  Ho  Ho3  1  0.683867  0.987530  0.303661  1
  Ho  Ho4  1  0.183888  0.291402  0.475290  1
  Ho  Ho5  1  0.816112  0.708598  0.524710  1
  Ho  Ho6  1  0.183889  0.708598  0.892486  1
  Ho  Ho7  1  0.816111  0.291402  0.107514  1
  Ho  Ho8  1  0.408243  0.214818  0.193434  1
  Ho  Ho9  1  0.591757  0.785182  0.806566  1
  Ho  Ho10  1  0.021385  0.214818  0.806576  1
  Ho  Ho11  1  0.978615  0.785182  0.193424  1
  In  In12  1  0.500000  0.500000  0.000000  1
  Fe  Fe13  1  0.110456  0.610421  0.499965  1
  Fe  Fe14  1  0.889544  0.389579  0.500035  1
  Ni  Ni15  1  0.369684  0.000000  0.369684  1
  Ni  Ni16  1  0.630316  0.000000  0.630316  1
  Ni  Ni17  1  0.000000  0.000000  0.000000  1
