# generated using pymatgen
data_Tb4Sn3As3Rh7
_symmetry_space_group_name_H-M   'P 1'
_cell_length_a   7.51267979
_cell_length_b   7.43776565
_cell_length_c   7.43776580
_cell_angle_alpha   109.26628677
_cell_angle_beta   109.67537332
_cell_angle_gamma   109.67538885
_symmetry_Int_Tables_number   1
_chemical_formula_structural   Tb4Sn3As3Rh7
_chemical_formula_sum   'Tb4 Sn3 As3 Rh7'
_cell_volume   319.12258117
_cell_formula_units_Z   1
loop_
 _symmetry_equiv_pos_site_id
 _symmetry_equiv_pos_as_xyz
  1  'x, y, z'
loop_
 _atom_site_type_symbol
 _atom_site_label
 _atom_site_symmetry_multiplicity
 _atom_site_fract_x
 _atom_site_fract_y
 _atom_site_fract_z
 _atom_site_occupancy
  Tb  Tb0  1  0.551586  0.000000  0.000000  1
  Tb  Tb1  1  0.989565  0.475275  0.000000  1
  Tb  Tb2  1  0.989565  0.000000  0.475275  1
  Tb  Tb3  1  0.514289  0.524725  0.524725  1
  Sn  Sn4  1  0.018817  0.709219  0.709219  1
  Sn  Sn5  1  0.309597  0.000000  0.290781  1
  Sn  Sn6  1  0.309597  0.290781  0.000000  1
  As  As7  1  0.011347  0.343582  0.343582  1
  As  As8  1  0.667765  0.000000  0.656418  1
  As  As9  1  0.667765  0.656418  0.000000  1
  Rh  Rh10  1  0.955480  0.000000  0.000000  1
  Rh  Rh11  1  0.498926  0.744175  0.245289  1
  Rh  Rh12  1  0.754751  0.501114  0.255825  1
  Rh  Rh13  1  0.253637  0.754711  0.498886  1
  Rh  Rh14  1  0.253637  0.498886  0.754711  1
  Rh  Rh15  1  0.498926  0.245289  0.744175  1
  Rh  Rh16  1  0.754751  0.255825  0.501114  1
