# generated using pymatgen
data_CsH9Os
_symmetry_space_group_name_H-M   'P 1'
_cell_length_a   5.25358098
_cell_length_b   5.25358105
_cell_length_c   5.25358172
_cell_angle_alpha   93.01912449
_cell_angle_beta   93.01913021
_cell_angle_gamma   93.01911730
_symmetry_Int_Tables_number   1
_chemical_formula_structural   CsH9Os
_chemical_formula_sum   'Cs1 H9 Os1'
_cell_volume   144.37356131
_cell_formula_units_Z   1
loop_
 _symmetry_equiv_pos_site_id
 _symmetry_equiv_pos_as_xyz
  1  'x, y, z'
loop_
 _atom_site_type_symbol
 _atom_site_label
 _atom_site_symmetry_multiplicity
 _atom_site_fract_x
 _atom_site_fract_y
 _atom_site_fract_z
 _atom_site_occupancy
  Cs  Cs0  1  0.000000  0.000000  0.000000  1
  H  H1  1  0.500000  0.714595  0.285405  1
  H  H2  1  0.714595  0.285405  0.500000  1
  H  H3  1  0.285405  0.500000  0.714595  1
  H  H4  1  0.481173  0.788867  0.639181  1
  H  H5  1  0.360819  0.211133  0.518827  1
  H  H6  1  0.788867  0.639181  0.481173  1
  H  H7  1  0.211133  0.518827  0.360819  1
  H  H8  1  0.639181  0.481173  0.788867  1
  H  H9  1  0.518827  0.360819  0.211133  1
  Os  Os10  1  0.500000  0.500000  0.500000  1
