# generated using pymatgen
data_Tb3Ho3Ga7Co16
_symmetry_space_group_name_H-M   'P 1'
_cell_length_a   8.48308533
_cell_length_b   8.48382759
_cell_length_c   8.48382600
_cell_angle_alpha   59.99999841
_cell_angle_beta   59.99710394
_cell_angle_gamma   59.99710288
_symmetry_Int_Tables_number   1
_chemical_formula_structural   Tb3Ho3Ga7Co16
_chemical_formula_sum   'Tb3 Ho3 Ga7 Co16'
_cell_volume   431.72122828
_cell_formula_units_Z   1
loop_
 _symmetry_equiv_pos_site_id
 _symmetry_equiv_pos_as_xyz
  1  'x, y, z'
loop_
 _atom_site_type_symbol
 _atom_site_label
 _atom_site_symmetry_multiplicity
 _atom_site_fract_x
 _atom_site_fract_y
 _atom_site_fract_z
 _atom_site_occupancy
  Tb  Tb0  1  0.718879  0.280699  0.280699  1
  Tb  Tb1  1  0.718879  0.280699  0.719723  1
  Tb  Tb2  1  0.718879  0.719723  0.280699  1
  Ho  Ho3  1  0.279070  0.720724  0.720724  1
  Ho  Ho4  1  0.279070  0.720724  0.279481  1
  Ho  Ho5  1  0.279070  0.279481  0.720724  1
  Ga  Ga6  1  0.999783  0.000072  0.000072  1
  Ga  Ga7  1  0.499283  0.999817  0.999817  1
  Ga  Ga8  1  0.499283  0.999817  0.501081  1
  Ga  Ga9  1  0.499283  0.501081  0.999817  1
  Ga  Ga10  1  0.000802  0.499932  0.499932  1
  Ga  Ga11  1  0.000802  0.499932  0.999333  1
  Ga  Ga12  1  0.000802  0.999333  0.499932  1
  Co  Co13  1  0.620009  0.126664  0.126664  1
  Co  Co14  1  0.127401  0.620939  0.125830  1
  Co  Co15  1  0.127401  0.125830  0.620939  1
  Co  Co16  1  0.127401  0.125830  0.125830  1
  Co  Co17  1  0.378822  0.873725  0.873725  1
  Co  Co18  1  0.874305  0.379488  0.873103  1
  Co  Co19  1  0.874305  0.873103  0.379488  1
  Co  Co20  1  0.874305  0.873103  0.873103  1
  Co  Co21  1  0.037249  0.320917  0.320917  1
  Co  Co22  1  0.321206  0.036646  0.321075  1
  Co  Co23  1  0.321206  0.321075  0.036646  1
  Co  Co24  1  0.321206  0.321075  0.321075  1
  Co  Co25  1  0.964068  0.678644  0.678644  1
  Co  Co26  1  0.679077  0.963018  0.678952  1
  Co  Co27  1  0.679077  0.678952  0.963018  1
  Co  Co28  1  0.679077  0.678952  0.678952  1
