# generated using pymatgen
data_Er6Al20Si4Ni3Os5
_symmetry_space_group_name_H-M   'P 1'
_cell_length_a   8.68573800
_cell_length_b   8.64821716
_cell_length_c   9.44372733
_cell_angle_alpha   90.32567324
_cell_angle_beta   90.00000000
_cell_angle_gamma   120.14362260
_symmetry_Int_Tables_number   1
_chemical_formula_structural   Er6Al20Si4Ni3Os5
_chemical_formula_sum   'Er6 Al20 Si4 Ni3 Os5'
_cell_volume   613.43373082
_cell_formula_units_Z   1
loop_
 _symmetry_equiv_pos_site_id
 _symmetry_equiv_pos_as_xyz
  1  'x, y, z'
loop_
 _atom_site_type_symbol
 _atom_site_label
 _atom_site_symmetry_multiplicity
 _atom_site_fract_x
 _atom_site_fract_y
 _atom_site_fract_z
 _atom_site_occupancy
  Er  Er0  1  0.197983  0.395967  0.251464  1
  Er  Er1  1  0.802017  0.604033  0.748536  1
  Er  Er2  1  0.604680  0.799363  0.250349  1
  Er  Er3  1  0.395320  0.200637  0.749651  1
  Er  Er4  1  0.194683  0.799363  0.250349  1
  Er  Er5  1  0.805317  0.200637  0.749651  1
  Al  Al6  1  0.161934  0.323867  0.578989  1
  Al  Al7  1  0.838066  0.676133  0.421011  1
  Al  Al8  1  0.676403  0.839401  0.579509  1
  Al  Al9  1  0.837657  0.675313  0.079366  1
  Al  Al10  1  0.323597  0.160599  0.420491  1
  Al  Al11  1  0.162343  0.324687  0.920634  1
  Al  Al12  1  0.162997  0.839401  0.579509  1
  Al  Al13  1  0.324107  0.161987  0.080113  1
  Al  Al14  1  0.837003  0.160599  0.420491  1
  Al  Al15  1  0.675893  0.838013  0.919887  1
  Al  Al16  1  0.837881  0.161987  0.080113  1
  Al  Al17  1  0.162119  0.838013  0.919887  1
  Al  Al18  1  0.561961  0.123921  0.246421  1
  Al  Al19  1  0.438039  0.876079  0.753579  1
  Al  Al20  1  0.870536  0.434467  0.249643  1
  Al  Al21  1  0.129464  0.565533  0.750357  1
  Al  Al22  1  0.563931  0.434467  0.249643  1
  Al  Al23  1  0.436069  0.565533  0.750357  1
  Al  Al24  1  0.999224  0.998447  0.250898  1
  Al  Al25  1  0.000776  0.001553  0.749102  1
  Si  Si26  1  0.333091  0.666184  0.034563  1
  Si  Si27  1  0.666909  0.333816  0.965437  1
  Si  Si28  1  0.666453  0.332905  0.529999  1
  Si  Si29  1  0.333547  0.667095  0.470001  1
  Ni  Ni30  1  0.500000  0.000000  0.000000  1
  Ni  Ni31  1  0.000000  0.000000  0.000000  1
  Ni  Ni32  1  0.000000  0.000000  0.500000  1
  Os  Os33  1  0.000000  0.500000  0.000000  1
  Os  Os34  1  0.500000  0.000000  0.500000  1
  Os  Os35  1  0.500000  0.500000  0.000000  1
  Os  Os36  1  0.000000  0.500000  0.500000  1
  Os  Os37  1  0.500000  0.500000  0.500000  1
