# generated using pymatgen
data_Cs3KAl2Se5
_symmetry_space_group_name_H-M   'P 1'
_cell_length_a   8.42010478
_cell_length_b   8.99396720
_cell_length_c   11.38702969
_cell_angle_alpha   77.44679576
_cell_angle_beta   83.93116907
_cell_angle_gamma   81.13558196
_symmetry_Int_Tables_number   1
_chemical_formula_structural   Cs3KAl2Se5
_chemical_formula_sum   'Cs6 K2 Al4 Se10'
_cell_volume   829.33724136
_cell_formula_units_Z   2
loop_
 _symmetry_equiv_pos_site_id
 _symmetry_equiv_pos_as_xyz
  1  'x, y, z'
loop_
 _atom_site_type_symbol
 _atom_site_label
 _atom_site_symmetry_multiplicity
 _atom_site_fract_x
 _atom_site_fract_y
 _atom_site_fract_z
 _atom_site_occupancy
  Cs  Cs0  1  0.190099  0.086595  0.872179  1
  Cs  Cs1  1  0.055195  0.603912  0.766389  1
  Cs  Cs2  1  0.809901  0.913405  0.127821  1
  Cs  Cs3  1  0.944805  0.396088  0.233611  1
  Cs  Cs4  1  0.575998  0.709451  0.509255  1
  Cs  Cs5  1  0.424002  0.290549  0.490745  1
  K  K6  1  0.432355  0.338146  0.084246  1
  K  K7  1  0.567645  0.661854  0.915754  1
  Al  Al8  1  0.901276  0.082718  0.599760  1
  Al  Al9  1  0.098724  0.917282  0.400240  1
  Al  Al10  1  0.290495  0.730958  0.208356  1
  Al  Al11  1  0.709505  0.269042  0.791644  1
  Se  Se12  1  0.879325  0.348432  0.605725  1
  Se  Se13  1  0.182258  0.965300  0.584497  1
  Se  Se14  1  0.443524  0.400404  0.775293  1
  Se  Se15  1  0.182911  0.688760  0.035700  1
  Se  Se16  1  0.817089  0.311240  0.964300  1
  Se  Se17  1  0.556476  0.599596  0.224707  1
  Se  Se18  1  0.120675  0.651568  0.394275  1
  Se  Se19  1  0.262978  0.011082  0.219774  1
  Se  Se20  1  0.737022  0.988918  0.780226  1
  Se  Se21  1  0.817742  0.034700  0.415503  1
