# generated using pymatgen
data_Dy3Y17(IrRh3)3
_symmetry_space_group_name_H-M   'P 1'
_cell_length_a   10.94894443
_cell_length_b   10.94880312
_cell_length_c   6.39016000
_cell_angle_alpha   89.99603079
_cell_angle_beta   89.99806776
_cell_angle_gamma   89.92110140
_symmetry_Int_Tables_number   1
_chemical_formula_structural   Dy3Y17(IrRh3)3
_chemical_formula_sum   'Dy3 Y17 Ir3 Rh9'
_cell_volume   766.03783032
_cell_formula_units_Z   1
loop_
 _symmetry_equiv_pos_site_id
 _symmetry_equiv_pos_as_xyz
  1  'x, y, z'
loop_
 _atom_site_type_symbol
 _atom_site_label
 _atom_site_symmetry_multiplicity
 _atom_site_fract_x
 _atom_site_fract_y
 _atom_site_fract_z
 _atom_site_occupancy
  Dy  Dy0  1  0.000161  0.000284  0.000305  1
  Dy  Dy1  1  0.499678  0.499814  0.999757  1
  Dy  Dy2  1  0.500196  0.500312  0.500210  1
  Y  Y3  1  0.291484  0.090598  0.380086  1
  Y  Y4  1  0.291640  0.909245  0.879617  1
  Y  Y5  1  0.708642  0.088421  0.879430  1
  Y  Y6  1  0.708142  0.909092  0.379637  1
  Y  Y7  1  0.587319  0.789537  0.881121  1
  Y  Y8  1  0.587345  0.209415  0.379197  1
  Y  Y9  1  0.412223  0.790052  0.380098  1
  Y  Y10  1  0.410335  0.209324  0.881025  1
  Y  Y11  1  0.210479  0.412350  0.619038  1
  Y  Y12  1  0.209906  0.587430  0.119749  1
  Y  Y13  1  0.790616  0.413002  0.120614  1
  Y  Y14  1  0.790666  0.590040  0.619138  1
  Y  Y15  1  0.909748  0.708612  0.119993  1
  Y  Y16  1  0.911230  0.291481  0.620508  1
  Y  Y17  1  0.091094  0.708245  0.620299  1
  Y  Y18  1  0.090577  0.291771  0.120434  1
  Y  Y19  1  0.999738  0.999863  0.499732  1
  Ir  Ir20  1  0.653151  0.652279  0.249862  1
  Ir  Ir21  1  0.347733  0.346840  0.249994  1
  Ir  Ir22  1  0.346701  0.653293  0.750072  1
  Rh  Rh23  1  0.846523  0.153633  0.248380  1
  Rh  Rh24  1  0.847018  0.847855  0.751934  1
  Rh  Rh25  1  0.152337  0.152791  0.751351  1
  Rh  Rh26  1  0.152534  0.847295  0.248322  1
  Rh  Rh27  1  0.653630  0.346297  0.750172  1
  Rh  Rh28  1  0.500177  0.000534  0.125853  1
  Rh  Rh29  1  0.500336  0.000827  0.627134  1
  Rh  Rh30  1  0.999172  0.499655  0.873041  1
  Rh  Rh31  1  0.999467  0.499811  0.373896  1
