# generated using pymatgen
data_TbTm4Lu7Co5Sn
_symmetry_space_group_name_H-M   'P 1'
_cell_length_a   8.10103058
_cell_length_b   8.10984986
_cell_length_c   8.10984926
_cell_angle_alpha   110.89830501
_cell_angle_beta   110.96406873
_cell_angle_gamma   106.63104582
_symmetry_Int_Tables_number   1
_chemical_formula_structural   TbTm4Lu7Co5Sn
_chemical_formula_sum   'Tb1 Tm4 Lu7 Co5 Sn1'
_cell_volume   409.17681901
_cell_formula_units_Z   1
loop_
 _symmetry_equiv_pos_site_id
 _symmetry_equiv_pos_as_xyz
  1  'x, y, z'
loop_
 _atom_site_type_symbol
 _atom_site_label
 _atom_site_symmetry_multiplicity
 _atom_site_fract_x
 _atom_site_fract_y
 _atom_site_fract_z
 _atom_site_occupancy
  Tb  Tb0  1  0.019866  0.212229  0.807637  1
  Tm  Tm1  1  0.812260  0.709599  0.523146  1
  Tm  Tm2  1  0.186123  0.286850  0.471650  1
  Tm  Tm3  1  0.186123  0.714473  0.899274  1
  Tm  Tm4  1  0.812260  0.289114  0.102660  1
  Lu  Lu5  1  0.685358  0.381221  0.693554  1
  Lu  Lu6  1  0.315399  0.621088  0.307947  1
  Lu  Lu7  1  0.685358  0.991801  0.304135  1
  Lu  Lu8  1  0.315399  0.007451  0.694311  1
  Lu  Lu9  1  0.593766  0.786726  0.807041  1
  Lu  Lu10  1  0.409107  0.213806  0.195300  1
  Lu  Lu11  1  0.980731  0.786362  0.194369  1
  Co  Co12  1  0.622682  0.998924  0.623757  1
  Co  Co13  1  0.374169  0.000913  0.373258  1
  Co  Co14  1  0.114528  0.613644  0.500883  1
  Co  Co15  1  0.883644  0.387175  0.496469  1
  Co  Co16  1  0.001670  0.997632  0.004038  1
  Sn  Sn17  1  0.501562  0.500992  0.000571  1
