# generated using pymatgen
data_Be7Ni(RuW)2
_symmetry_space_group_name_H-M   'P 1'
_cell_length_a   4.45605500
_cell_length_b   4.45605540
_cell_length_c   7.19089800
_cell_angle_alpha   90.00000000
_cell_angle_beta   90.00000000
_cell_angle_gamma   120.00000448
_symmetry_Int_Tables_number   1
_chemical_formula_structural   Be7Ni(RuW)2
_chemical_formula_sum   'Be7 Ni1 Ru2 W2'
_cell_volume   123.65590619
_cell_formula_units_Z   1
loop_
 _symmetry_equiv_pos_site_id
 _symmetry_equiv_pos_as_xyz
  1  'x, y, z'
loop_
 _atom_site_type_symbol
 _atom_site_label
 _atom_site_symmetry_multiplicity
 _atom_site_fract_x
 _atom_site_fract_y
 _atom_site_fract_z
 _atom_site_occupancy
  Be  Be0  1  0.000000  0.000000  0.500000  1
  Be  Be1  1  0.829683  0.170317  0.258295  1
  Be  Be2  1  0.829683  0.659367  0.258295  1
  Be  Be3  1  0.340633  0.170317  0.258295  1
  Be  Be4  1  0.170317  0.829683  0.741705  1
  Be  Be5  1  0.170317  0.340633  0.741705  1
  Be  Be6  1  0.659367  0.829683  0.741705  1
  Ni  Ni7  1  0.000000  0.000000  0.000000  1
  Ru  Ru8  1  0.333333  0.666667  0.428790  1
  Ru  Ru9  1  0.666667  0.333333  0.571210  1
  W  W10  1  0.666667  0.333333  0.931923  1
  W  W11  1  0.333333  0.666667  0.068077  1
