# generated using pymatgen
data_Ac4NdRu2
_symmetry_space_group_name_H-M   'P 1'
_cell_length_a   9.39668047
_cell_length_b   9.39668104
_cell_length_c   7.64463023
_cell_angle_alpha   84.33313159
_cell_angle_beta   84.33313316
_cell_angle_gamma   43.07657604
_symmetry_Int_Tables_number   1
_chemical_formula_structural   Ac4NdRu2
_chemical_formula_sum   'Ac8 Nd2 Ru4'
_cell_volume   458.40502956
_cell_formula_units_Z   2
loop_
 _symmetry_equiv_pos_site_id
 _symmetry_equiv_pos_as_xyz
  1  'x, y, z'
loop_
 _atom_site_type_symbol
 _atom_site_label
 _atom_site_symmetry_multiplicity
 _atom_site_fract_x
 _atom_site_fract_y
 _atom_site_fract_z
 _atom_site_occupancy
  Ac  Ac0  1  0.010820  0.804604  0.912962  1
  Ac  Ac1  1  0.195396  0.989180  0.587038  1
  Ac  Ac2  1  0.989180  0.195396  0.087038  1
  Ac  Ac3  1  0.804604  0.010820  0.412962  1
  Ac  Ac4  1  0.363942  0.214451  0.816275  1
  Ac  Ac5  1  0.785549  0.636058  0.683725  1
  Ac  Ac6  1  0.636058  0.785549  0.183725  1
  Ac  Ac7  1  0.214451  0.363942  0.316275  1
  Nd  Nd8  1  0.566897  0.433103  0.750000  1
  Nd  Nd9  1  0.433103  0.566897  0.250000  1
  Ru  Ru10  1  0.186194  0.603164  0.576705  1
  Ru  Ru11  1  0.396836  0.813806  0.923295  1
  Ru  Ru12  1  0.813806  0.396836  0.423295  1
  Ru  Ru13  1  0.603164  0.186194  0.076705  1
