# generated using pymatgen
data_Zr20Zn3Sn2Sb7
_symmetry_space_group_name_H-M   'P 1'
_cell_length_a   5.57238808
_cell_length_b   8.38996298
_cell_length_c   15.82820500
_cell_angle_alpha   90.00000000
_cell_angle_beta   90.00000000
_cell_angle_gamma   109.41528103
_symmetry_Int_Tables_number   1
_chemical_formula_structural   Zr20Zn3Sn2Sb7
_chemical_formula_sum   'Zr20 Zn3 Sn2 Sb7'
_cell_volume   697.92134958
_cell_formula_units_Z   1
loop_
 _symmetry_equiv_pos_site_id
 _symmetry_equiv_pos_as_xyz
  1  'x, y, z'
loop_
 _atom_site_type_symbol
 _atom_site_label
 _atom_site_symmetry_multiplicity
 _atom_site_fract_x
 _atom_site_fract_y
 _atom_site_fract_z
 _atom_site_occupancy
  Zr  Zr0  1  0.431258  0.859973  0.355206  1
  Zr  Zr1  1  0.923399  0.860088  0.851296  1
  Zr  Zr2  1  0.063094  0.139715  0.148825  1
  Zr  Zr3  1  0.570937  0.140190  0.644800  1
  Zr  Zr4  1  0.653785  0.296458  0.071565  1
  Zr  Zr5  1  0.146528  0.291244  0.568607  1
  Zr  Zr6  1  0.854101  0.708709  0.431692  1
  Zr  Zr7  1  0.356632  0.703660  0.928000  1
  Zr  Zr8  1  0.846215  0.703542  0.071565  1
  Zr  Zr9  1  0.353472  0.708756  0.568607  1
  Zr  Zr10  1  0.645899  0.291291  0.431692  1
  Zr  Zr11  1  0.143368  0.296340  0.928000  1
  Zr  Zr12  1  0.068742  0.140027  0.355206  1
  Zr  Zr13  1  0.576601  0.139912  0.851296  1
  Zr  Zr14  1  0.436906  0.860285  0.148825  1
  Zr  Zr15  1  0.929063  0.859810  0.644800  1
  Zr  Zr16  1  0.499742  0.500457  0.250730  1
  Zr  Zr17  1  0.999872  0.499611  0.749497  1
  Zr  Zr18  1  0.000258  0.499543  0.250730  1
  Zr  Zr19  1  0.500128  0.500389  0.749497  1
  Zn  Zn20  1  0.750000  0.000000  0.499868  1
  Zn  Zn21  1  0.750000  0.000000  0.999983  1
  Zn  Zn22  1  0.250000  0.000000  0.499952  1
  Sn  Sn23  1  0.250000  0.500000  0.086386  1
  Sn  Sn24  1  0.250000  0.000000  0.999927  1
  Sb  Sb25  1  0.916226  0.827471  0.251903  1
  Sb  Sb26  1  0.411647  0.827424  0.748022  1
  Sb  Sb27  1  0.583774  0.172529  0.251903  1
  Sb  Sb28  1  0.088353  0.172576  0.748022  1
  Sb  Sb29  1  0.750000  0.500000  0.586396  1
  Sb  Sb30  1  0.250000  0.500000  0.413781  1
  Sb  Sb31  1  0.750000  0.500000  0.913424  1
