# generated using pymatgen
data_Ba6Dy2(TeO6)3
_symmetry_space_group_name_H-M   'P 1'
_cell_length_a   10.41661452
_cell_length_b   10.41661396
_cell_length_c   10.41661437
_cell_angle_alpha   146.50571428
_cell_angle_beta   131.93056254
_cell_angle_gamma   59.85630628
_symmetry_Int_Tables_number   1
_chemical_formula_structural   Ba6Dy2(TeO6)3
_chemical_formula_sum   'Ba6 Dy2 Te3 O18'
_cell_volume   459.83774634
_cell_formula_units_Z   1
loop_
 _symmetry_equiv_pos_site_id
 _symmetry_equiv_pos_as_xyz
  1  'x, y, z'
loop_
 _atom_site_type_symbol
 _atom_site_label
 _atom_site_symmetry_multiplicity
 _atom_site_fract_x
 _atom_site_fract_y
 _atom_site_fract_z
 _atom_site_occupancy
  Ba  Ba0  1  0.775981  0.500000  0.275981  1
  Ba  Ba1  1  0.389806  0.154752  0.235054  1
  Ba  Ba2  1  0.080301  0.845248  0.235054  1
  Ba  Ba3  1  0.224019  0.500000  0.724019  1
  Ba  Ba4  1  0.919699  0.154752  0.764946  1
  Ba  Ba5  1  0.610194  0.845248  0.764946  1
  Dy  Dy6  1  0.666033  0.666033  0.000000  1
  Dy  Dy7  1  0.333967  0.333967  0.000000  1
  Te  Te8  1  0.500000  0.000000  0.500000  1
  Te  Te9  1  0.171103  0.671103  0.500000  1
  Te  Te10  1  0.828897  0.328897  0.500000  1
  O  O11  1  0.724187  0.000000  0.724187  1
  O  O12  1  0.405553  0.670672  0.734881  1
  O  O13  1  0.064209  0.329328  0.734881  1
  O  O14  1  0.578268  0.843384  0.265115  1
  O  O15  1  0.247720  0.516285  0.268565  1
  O  O16  1  0.904302  0.178150  0.273848  1
  O  O17  1  0.421732  0.686847  0.265115  1
  O  O18  1  0.095698  0.369546  0.273848  1
  O  O19  1  0.752280  0.020845  0.268565  1
  O  O20  1  0.275813  0.000000  0.275813  1
  O  O21  1  0.935791  0.670672  0.265119  1
  O  O22  1  0.594447  0.329328  0.265119  1
  O  O23  1  0.421732  0.156616  0.734885  1
  O  O24  1  0.095698  0.821850  0.726152  1
  O  O25  1  0.752280  0.483715  0.731435  1
  O  O26  1  0.578268  0.313153  0.734885  1
  O  O27  1  0.247720  0.979155  0.731435  1
  O  O28  1  0.904302  0.630455  0.726152  1
