# generated using pymatgen
data_Lu5Co19GeP11
_symmetry_space_group_name_H-M   'P 1'
_cell_length_a   11.93400000
_cell_length_b   11.93399986
_cell_length_c   3.64123700
_cell_angle_alpha   90.00000000
_cell_angle_beta   90.00000000
_cell_angle_gamma   119.95756073
_symmetry_Int_Tables_number   1
_chemical_formula_structural   Lu5Co19GeP11
_chemical_formula_sum   'Lu5 Co19 Ge1 P11'
_cell_volume   449.30081501
_cell_formula_units_Z   1
loop_
 _symmetry_equiv_pos_site_id
 _symmetry_equiv_pos_as_xyz
  1  'x, y, z'
loop_
 _atom_site_type_symbol
 _atom_site_label
 _atom_site_symmetry_multiplicity
 _atom_site_fract_x
 _atom_site_fract_y
 _atom_site_fract_z
 _atom_site_occupancy
  Lu  Lu0  1  0.667008  0.334532  0.000000  1
  Lu  Lu1  1  0.334532  0.667008  0.000000  1
  Lu  Lu2  1  0.180364  0.180364  0.500000  1
  Lu  Lu3  1  0.813638  0.000708  0.500000  1
  Lu  Lu4  1  0.000708  0.813638  0.500000  1
  Co  Co5  1  0.820119  0.198146  0.000000  1
  Co  Co6  1  0.803472  0.625354  0.000000  1
  Co  Co7  1  0.378793  0.170714  0.000000  1
  Co  Co8  1  0.198146  0.820119  0.000000  1
  Co  Co9  1  0.625354  0.803472  0.000000  1
  Co  Co10  1  0.170714  0.378793  0.000000  1
  Co  Co11  1  0.560350  0.560350  0.000000  1
  Co  Co12  1  0.446540  0.994990  0.000000  1
  Co  Co13  1  0.994990  0.446540  0.000000  1
  Co  Co14  1  0.642205  0.124675  0.500000  1
  Co  Co15  1  0.873176  0.516636  0.500000  1
  Co  Co16  1  0.489993  0.356698  0.500000  1
  Co  Co17  1  0.124675  0.642205  0.500000  1
  Co  Co18  1  0.516636  0.873176  0.500000  1
  Co  Co19  1  0.356698  0.489993  0.500000  1
  Co  Co20  1  0.718396  0.718396  0.500000  1
  Co  Co21  1  0.284449  0.997289  0.500000  1
  Co  Co22  1  0.997289  0.284449  0.500000  1
  Co  Co23  1  0.001673  0.001673  0.000000  1
  Ge  Ge24  1  0.364709  0.364709  0.000000  1
  P  P25  1  0.633921  0.999801  0.000000  1
  P  P26  1  0.999801  0.633921  0.000000  1
  P  P27  1  0.831884  0.314825  0.500000  1
  P  P28  1  0.686159  0.520835  0.500000  1
  P  P29  1  0.482101  0.164914  0.500000  1
  P  P30  1  0.314825  0.831884  0.500000  1
  P  P31  1  0.520835  0.686159  0.500000  1
  P  P32  1  0.164914  0.482101  0.500000  1
  P  P33  1  0.822306  0.822306  0.000000  1
  P  P34  1  0.180171  0.998455  0.000000  1
  P  P35  1  0.998455  0.180171  0.000000  1
