# generated using pymatgen
data_Th2Ta3Co9P7
_symmetry_space_group_name_H-M   'P 1'
_cell_length_a   9.31081054
_cell_length_b   9.31191078
_cell_length_c   3.78040500
_cell_angle_alpha   90.00000000
_cell_angle_beta   90.00000000
_cell_angle_gamma   119.99290251
_symmetry_Int_Tables_number   1
_chemical_formula_structural   Th2Ta3Co9P7
_chemical_formula_sum   'Th2 Ta3 Co9 P7'
_cell_volume   283.87445423
_cell_formula_units_Z   1
loop_
 _symmetry_equiv_pos_site_id
 _symmetry_equiv_pos_as_xyz
  1  'x, y, z'
loop_
 _atom_site_type_symbol
 _atom_site_label
 _atom_site_symmetry_multiplicity
 _atom_site_fract_x
 _atom_site_fract_y
 _atom_site_fract_z
 _atom_site_occupancy
  Th  Th0  1  0.333154  0.666565  0.000000  1
  Th  Th1  1  0.000132  0.000041  0.500000  1
  Ta  Ta2  1  0.785311  0.229954  0.500000  1
  Ta  Ta3  1  0.770065  0.555397  0.500000  1
  Ta  Ta4  1  0.444505  0.214603  0.500000  1
  Co  Co5  1  0.033755  0.267428  0.000000  1
  Co  Co6  1  0.732654  0.766429  0.000000  1
  Co  Co7  1  0.233580  0.966240  0.000000  1
  Co  Co8  1  0.541836  0.053302  0.000000  1
  Co  Co9  1  0.946760  0.488576  0.000000  1
  Co  Co10  1  0.511393  0.458093  0.000000  1
  Co  Co11  1  0.612750  0.895320  0.500000  1
  Co  Co12  1  0.104605  0.717351  0.500000  1
  Co  Co13  1  0.282669  0.387332  0.500000  1
  P  P14  1  0.766794  0.023531  0.000000  1
  P  P15  1  0.976470  0.743269  0.000000  1
  P  P16  1  0.256756  0.233205  0.000000  1
  P  P17  1  0.373594  0.926575  0.500000  1
  P  P18  1  0.073438  0.447190  0.500000  1
  P  P19  1  0.553129  0.626305  0.500000  1
  P  P20  1  0.666651  0.333295  0.000000  1
