# generated using pymatgen
data_Pr2Nd4HfCo17P12
_symmetry_space_group_name_H-M   'P 1'
_cell_length_a   3.76731300
_cell_length_b   10.71808300
_cell_length_c   12.48022200
_cell_angle_alpha   90.00000000
_cell_angle_beta   90.00000000
_cell_angle_gamma   90.00000000
_symmetry_Int_Tables_number   1
_chemical_formula_structural   Pr2Nd4HfCo17P12
_chemical_formula_sum   'Pr2 Nd4 Hf1 Co17 P12'
_cell_volume   503.93106429
_cell_formula_units_Z   1
loop_
 _symmetry_equiv_pos_site_id
 _symmetry_equiv_pos_as_xyz
  1  'x, y, z'
loop_
 _atom_site_type_symbol
 _atom_site_label
 _atom_site_symmetry_multiplicity
 _atom_site_fract_x
 _atom_site_fract_y
 _atom_site_fract_z
 _atom_site_occupancy
  Pr  Pr0  1  0.000000  0.500000  0.527984  1
  Pr  Pr1  1  0.500000  0.000000  0.478635  1
  Nd  Nd2  1  0.500000  0.820643  0.207400  1
  Nd  Nd3  1  0.500000  0.179357  0.207400  1
  Nd  Nd4  1  0.000000  0.683166  0.795677  1
  Nd  Nd5  1  0.000000  0.316834  0.795677  1
  Hf  Hf6  1  0.500000  0.500000  0.150674  1
  Co  Co7  1  0.000000  0.000000  0.839991  1
  Co  Co8  1  0.500000  0.500000  0.705275  1
  Co  Co9  1  0.000000  0.000000  0.294494  1
  Co  Co10  1  0.000000  0.500000  0.985122  1
  Co  Co11  1  0.500000  0.000000  0.012022  1
  Co  Co12  1  0.500000  0.327679  0.990655  1
  Co  Co13  1  0.500000  0.672321  0.990655  1
  Co  Co14  1  0.000000  0.161866  0.001480  1
  Co  Co15  1  0.000000  0.838134  0.001480  1
  Co  Co16  1  0.500000  0.295546  0.432992  1
  Co  Co17  1  0.500000  0.704454  0.432992  1
  Co  Co18  1  0.000000  0.202539  0.570608  1
  Co  Co19  1  0.000000  0.797461  0.570608  1
  Co  Co20  1  0.500000  0.882372  0.709876  1
  Co  Co21  1  0.500000  0.117628  0.709876  1
  Co  Co22  1  0.000000  0.619889  0.295158  1
  Co  Co23  1  0.000000  0.380111  0.295158  1
  P  P24  1  0.500000  0.500000  0.885097  1
  P  P25  1  0.000000  0.000000  0.112666  1
  P  P26  1  0.500000  0.500000  0.354707  1
  P  P27  1  0.000000  0.000000  0.660729  1
  P  P28  1  0.500000  0.303915  0.615957  1
  P  P29  1  0.500000  0.696085  0.615957  1
  P  P30  1  0.000000  0.194113  0.387747  1
  P  P31  1  0.000000  0.805887  0.387747  1
  P  P32  1  0.500000  0.853105  0.891299  1
  P  P33  1  0.500000  0.146895  0.891299  1
  P  P34  1  0.000000  0.662400  0.097451  1
  P  P35  1  0.000000  0.337600  0.097451  1
