# generated using pymatgen
data_Lu4TlPd
_symmetry_space_group_name_H-M   'P 1'
_cell_length_a   9.53150125
_cell_length_b   9.53150117
_cell_length_c   9.53150000
_cell_angle_alpha   59.99999713
_cell_angle_beta   59.99999739
_cell_angle_gamma   60.00000000
_symmetry_Int_Tables_number   1
_chemical_formula_structural   Lu4TlPd
_chemical_formula_sum   'Lu16 Tl4 Pd4'
_cell_volume   612.30647363
_cell_formula_units_Z   4
loop_
 _symmetry_equiv_pos_site_id
 _symmetry_equiv_pos_as_xyz
  1  'x, y, z'
loop_
 _atom_site_type_symbol
 _atom_site_label
 _atom_site_symmetry_multiplicity
 _atom_site_fract_x
 _atom_site_fract_y
 _atom_site_fract_z
 _atom_site_occupancy
  Lu  Lu0  1  0.602970  0.602970  0.602970  1
  Lu  Lu1  1  0.602970  0.602970  0.191091  1
  Lu  Lu2  1  0.602970  0.191091  0.602970  1
  Lu  Lu3  1  0.191091  0.602970  0.602970  1
  Lu  Lu4  1  0.061960  0.438040  0.438040  1
  Lu  Lu5  1  0.438040  0.061960  0.061960  1
  Lu  Lu6  1  0.438040  0.061960  0.438040  1
  Lu  Lu7  1  0.061960  0.438040  0.061960  1
  Lu  Lu8  1  0.438040  0.438040  0.061960  1
  Lu  Lu9  1  0.061960  0.061960  0.438040  1
  Lu  Lu10  1  0.186685  0.813315  0.813315  1
  Lu  Lu11  1  0.813315  0.186685  0.186685  1
  Lu  Lu12  1  0.813315  0.186685  0.813315  1
  Lu  Lu13  1  0.186685  0.813315  0.186685  1
  Lu  Lu14  1  0.813315  0.813315  0.186685  1
  Lu  Lu15  1  0.186685  0.186685  0.813315  1
  Tl  Tl16  1  0.835993  0.835993  0.835993  1
  Tl  Tl17  1  0.835993  0.835993  0.492022  1
  Tl  Tl18  1  0.835993  0.492022  0.835993  1
  Tl  Tl19  1  0.492022  0.835993  0.835993  1
  Pd  Pd20  1  0.394521  0.394521  0.394521  1
  Pd  Pd21  1  0.394521  0.394521  0.816437  1
  Pd  Pd22  1  0.394521  0.816437  0.394521  1
  Pd  Pd23  1  0.816437  0.394521  0.394521  1
