# generated using pymatgen
data_Nd16Hg4IrPt3
_symmetry_space_group_name_H-M   'P 1'
_cell_length_a   9.98715140
_cell_length_b   9.96260460
_cell_length_c   9.96224126
_cell_angle_alpha   60.10381339
_cell_angle_beta   60.23801557
_cell_angle_gamma   60.25595670
_symmetry_Int_Tables_number   1
_chemical_formula_structural   Nd16Hg4IrPt3
_chemical_formula_sum   'Nd16 Hg4 Ir1 Pt3'
_cell_volume   704.06040586
_cell_formula_units_Z   1
loop_
 _symmetry_equiv_pos_site_id
 _symmetry_equiv_pos_as_xyz
  1  'x, y, z'
loop_
 _atom_site_type_symbol
 _atom_site_label
 _atom_site_symmetry_multiplicity
 _atom_site_fract_x
 _atom_site_fract_y
 _atom_site_fract_z
 _atom_site_occupancy
  Nd  Nd0  1  0.602244  0.598657  0.598597  1
  Nd  Nd1  1  0.605362  0.601046  0.194072  1
  Nd  Nd2  1  0.605338  0.194027  0.601049  1
  Nd  Nd3  1  0.187477  0.604844  0.604937  1
  Nd  Nd4  1  0.057818  0.439929  0.440028  1
  Nd  Nd5  1  0.441093  0.058637  0.058684  1
  Nd  Nd6  1  0.442082  0.060522  0.440565  1
  Nd  Nd7  1  0.056552  0.438932  0.063601  1
  Nd  Nd8  1  0.442106  0.440626  0.060545  1
  Nd  Nd9  1  0.056520  0.063572  0.439041  1
  Nd  Nd10  1  0.190961  0.812103  0.811993  1
  Nd  Nd11  1  0.813249  0.187589  0.187563  1
  Nd  Nd12  1  0.814740  0.189495  0.810754  1
  Nd  Nd13  1  0.188831  0.810357  0.187403  1
  Nd  Nd14  1  0.814770  0.810769  0.189460  1
  Nd  Nd15  1  0.188874  0.187387  0.810227  1
  Hg  Hg16  1  0.834052  0.834673  0.834645  1
  Hg  Hg17  1  0.833923  0.835339  0.495140  1
  Hg  Hg18  1  0.833937  0.495137  0.835305  1
  Hg  Hg19  1  0.496231  0.834522  0.834507  1
  Ir  Ir20  1  0.820967  0.392500  0.392400  1
  Pt  Pt21  1  0.391759  0.395475  0.395550  1
  Pt  Pt22  1  0.390581  0.393650  0.820257  1
  Pt  Pt23  1  0.390533  0.820210  0.393676  1
