# generated using pymatgen
data_Lu10GaSnPb4
_symmetry_space_group_name_H-M   'P 1'
_cell_length_a   6.47286803
_cell_length_b   8.74827355
_cell_length_c   8.78892541
_cell_angle_alpha   119.84711160
_cell_angle_beta   90.00374908
_cell_angle_gamma   89.99245514
_symmetry_Int_Tables_number   1
_chemical_formula_structural   Lu10GaSnPb4
_chemical_formula_sum   'Lu10 Ga1 Sn1 Pb4'
_cell_volume   431.67065881
_cell_formula_units_Z   1
loop_
 _symmetry_equiv_pos_site_id
 _symmetry_equiv_pos_as_xyz
  1  'x, y, z'
loop_
 _atom_site_type_symbol
 _atom_site_label
 _atom_site_symmetry_multiplicity
 _atom_site_fract_x
 _atom_site_fract_y
 _atom_site_fract_z
 _atom_site_occupancy
  Lu  Lu0  1  0.750014  0.242358  0.000000  1
  Lu  Lu1  1  0.749962  0.758471  0.773899  1
  Lu  Lu2  1  0.749962  0.984573  0.226101  1
  Lu  Lu3  1  0.250023  0.764599  0.000000  1
  Lu  Lu4  1  0.250080  0.235913  0.234008  1
  Lu  Lu5  1  0.250080  0.001904  0.765992  1
  Lu  Lu6  1  0.503639  0.344401  0.680490  1
  Lu  Lu7  1  0.503639  0.663911  0.319510  1
  Lu  Lu8  1  0.996311  0.663704  0.319167  1
  Lu  Lu9  1  0.996311  0.344538  0.680833  1
  Ga  Ga10  1  0.749775  0.600934  0.000000  1
  Sn  Sn11  1  0.250162  0.396672  0.000000  1
  Pb  Pb12  1  0.750168  0.391121  0.393624  1
  Pb  Pb13  1  0.750168  0.997498  0.606376  1
  Pb  Pb14  1  0.249851  0.604795  0.600187  1
  Pb  Pb15  1  0.249851  0.004607  0.399813  1
