# generated using pymatgen
data_Hf18TiZnRe7P
_symmetry_space_group_name_H-M   'P 1'
_cell_length_a   8.59438500
_cell_length_b   8.59438411
_cell_length_c   8.59367400
_cell_angle_alpha   90.00000000
_cell_angle_beta   90.00000000
_cell_angle_gamma   119.99999958
_symmetry_Int_Tables_number   1
_chemical_formula_structural   Hf18TiZnRe7P
_chemical_formula_sum   'Hf18 Ti1 Zn1 Re7 P1'
_cell_volume   549.71687978
_cell_formula_units_Z   1
loop_
 _symmetry_equiv_pos_site_id
 _symmetry_equiv_pos_as_xyz
  1  'x, y, z'
loop_
 _atom_site_type_symbol
 _atom_site_label
 _atom_site_symmetry_multiplicity
 _atom_site_fract_x
 _atom_site_fract_y
 _atom_site_fract_z
 _atom_site_occupancy
  Hf  Hf0  1  0.195137  0.804863  0.450728  1
  Hf  Hf1  1  0.195137  0.390274  0.450728  1
  Hf  Hf2  1  0.609726  0.804863  0.450728  1
  Hf  Hf3  1  0.803032  0.196968  0.549596  1
  Hf  Hf4  1  0.803032  0.606063  0.549596  1
  Hf  Hf5  1  0.393937  0.196968  0.549596  1
  Hf  Hf6  1  0.804785  0.195215  0.949471  1
  Hf  Hf7  1  0.804785  0.609571  0.949471  1
  Hf  Hf8  1  0.390429  0.195215  0.949471  1
  Hf  Hf9  1  0.194364  0.805636  0.049918  1
  Hf  Hf10  1  0.194364  0.388728  0.049918  1
  Hf  Hf11  1  0.611272  0.805636  0.049918  1
  Hf  Hf12  1  0.541772  0.458228  0.248768  1
  Hf  Hf13  1  0.541772  0.083544  0.248768  1
  Hf  Hf14  1  0.916456  0.458228  0.248768  1
  Hf  Hf15  1  0.458794  0.541206  0.750634  1
  Hf  Hf16  1  0.458794  0.917589  0.750634  1
  Hf  Hf17  1  0.082411  0.541206  0.750634  1
  Ti  Ti18  1  0.000000  0.000000  0.499219  1
  Zn  Zn19  1  0.333333  0.666667  0.249192  1
  Re  Re20  1  0.889026  0.110974  0.252236  1
  Re  Re21  1  0.889026  0.778052  0.252236  1
  Re  Re22  1  0.221948  0.110974  0.252236  1
  Re  Re23  1  0.110133  0.889867  0.748600  1
  Re  Re24  1  0.110133  0.220266  0.748600  1
  Re  Re25  1  0.779734  0.889867  0.748600  1
  Re  Re26  1  0.000000  0.000000  0.000504  1
  P  P27  1  0.666667  0.333333  0.751236  1
