# generated using pymatgen
data_Pr2BeIrI
_symmetry_space_group_name_H-M   'P 1'
_cell_length_a   4.08821300
_cell_length_b   4.08821384
_cell_length_c   17.91884900
_cell_angle_alpha   90.00000000
_cell_angle_beta   90.00000000
_cell_angle_gamma   120.00000126
_symmetry_Int_Tables_number   1
_chemical_formula_structural   Pr2BeIrI
_chemical_formula_sum   'Pr4 Be2 Ir2 I2'
_cell_volume   259.36290112
_cell_formula_units_Z   2
loop_
 _symmetry_equiv_pos_site_id
 _symmetry_equiv_pos_as_xyz
  1  'x, y, z'
loop_
 _atom_site_type_symbol
 _atom_site_label
 _atom_site_symmetry_multiplicity
 _atom_site_fract_x
 _atom_site_fract_y
 _atom_site_fract_z
 _atom_site_occupancy
  Pr  Pr0  1  0.000000  0.000000  0.606909  1
  Pr  Pr1  1  0.000000  0.000000  0.393651  1
  Pr  Pr2  1  0.000000  0.000000  0.106909  1
  Pr  Pr3  1  0.000000  0.000000  0.893651  1
  Be  Be4  1  0.666667  0.333333  0.499915  1
  Be  Be5  1  0.333333  0.666667  0.999915  1
  Ir  Ir6  1  0.666667  0.333333  0.999743  1
  Ir  Ir7  1  0.333333  0.666667  0.499743  1
  I  I8  1  0.666667  0.333333  0.249782  1
  I  I9  1  0.333333  0.666667  0.749782  1
