# generated using pymatgen
data_PrTh3(Rh2Pb)2
_symmetry_space_group_name_H-M   'P 1'
_cell_length_a   7.92386310
_cell_length_b   7.92386321
_cell_length_c   3.78588800
_cell_angle_alpha   90.00000000
_cell_angle_beta   90.00000000
_cell_angle_gamma   92.21374178
_symmetry_Int_Tables_number   1
_chemical_formula_structural   PrTh3(Rh2Pb)2
_chemical_formula_sum   'Pr1 Th3 Rh4 Pb2'
_cell_volume   237.52944384
_cell_formula_units_Z   1
loop_
 _symmetry_equiv_pos_site_id
 _symmetry_equiv_pos_as_xyz
  1  'x, y, z'
loop_
 _atom_site_type_symbol
 _atom_site_label
 _atom_site_symmetry_multiplicity
 _atom_site_fract_x
 _atom_site_fract_y
 _atom_site_fract_z
 _atom_site_occupancy
  Pr  Pr0  1  0.171896  0.328104  0.500000  1
  Th  Th1  1  0.326680  0.830684  0.500000  1
  Th  Th2  1  0.669316  0.173320  0.500000  1
  Th  Th3  1  0.829895  0.670105  0.500000  1
  Rh  Rh4  1  0.856071  0.375191  0.000000  1
  Rh  Rh5  1  0.641455  0.858545  0.000000  1
  Rh  Rh6  1  0.387978  0.112022  0.000000  1
  Rh  Rh7  1  0.124809  0.643929  0.000000  1
  Pb  Pb8  1  0.493411  0.501510  0.000000  1
  Pb  Pb9  1  0.998490  0.006589  0.000000  1
