# generated using pymatgen
data_Na4LaAuO6
_symmetry_space_group_name_H-M   'P 1'
_cell_length_a   5.89822242
_cell_length_b   5.89822191
_cell_length_c   5.91135003
_cell_angle_alpha   99.34706880
_cell_angle_beta   99.34706130
_cell_angle_gamma   120.21305423
_symmetry_Int_Tables_number   1
_chemical_formula_structural   Na4LaAuO6
_chemical_formula_sum   'Na4 La1 Au1 O6'
_cell_volume   168.01346173
_cell_formula_units_Z   1
loop_
 _symmetry_equiv_pos_site_id
 _symmetry_equiv_pos_as_xyz
  1  'x, y, z'
loop_
 _atom_site_type_symbol
 _atom_site_label
 _atom_site_symmetry_multiplicity
 _atom_site_fract_x
 _atom_site_fract_y
 _atom_site_fract_z
 _atom_site_occupancy
  Na  Na0  1  0.500925  0.499072  0.000000  1
  Na  Na1  1  0.977154  0.022846  0.499999  1
  Na  Na2  1  0.673791  0.326210  0.500001  1
  Na  Na3  1  0.344855  0.655146  0.500001  1
  La  La4  1  0.165984  0.834013  0.000000  1
  Au  Au5  1  0.833643  0.166354  0.000000  1
  O  O6  1  0.911320  0.527786  0.221661  1
  O  O7  1  0.191757  0.233039  0.220924  1
  O  O8  1  0.608414  0.947023  0.211429  1
  O  O9  1  0.052980  0.391588  0.788573  1
  O  O10  1  0.766961  0.808243  0.779076  1
  O  O11  1  0.472215  0.088681  0.778341  1
