# generated using pymatgen
data_Li14MgSn4
_symmetry_space_group_name_H-M   'P 1'
_cell_length_a   9.80480126
_cell_length_b   9.80480134
_cell_length_c   9.80480212
_cell_angle_alpha   109.42274765
_cell_angle_beta   109.42274670
_cell_angle_gamma   109.56821130
_symmetry_Int_Tables_number   1
_chemical_formula_structural   Li14MgSn4
_chemical_formula_sum   'Li28 Mg2 Sn8'
_cell_volume   725.59386420
_cell_formula_units_Z   2
loop_
 _symmetry_equiv_pos_site_id
 _symmetry_equiv_pos_as_xyz
  1  'x, y, z'
loop_
 _atom_site_type_symbol
 _atom_site_label
 _atom_site_symmetry_multiplicity
 _atom_site_fract_x
 _atom_site_fract_y
 _atom_site_fract_z
 _atom_site_occupancy
  Li  Li0  1  0.064017  0.538411  0.276089  1
  Li  Li1  1  0.262321  0.787928  0.723911  1
  Li  Li2  1  0.185983  0.962072  0.974393  1
  Li  Li3  1  0.987679  0.211589  0.025607  1
  Li  Li4  1  0.037928  0.012321  0.223911  1
  Li  Li5  1  0.788411  0.814017  0.776089  1
  Li  Li6  1  0.461589  0.737679  0.525607  1
  Li  Li7  1  0.212072  0.935983  0.474393  1
  Li  Li8  1  0.717698  0.347048  0.062124  1
  Li  Li9  1  0.965076  0.402952  0.870649  1
  Li  Li10  1  0.284924  0.655573  0.937876  1
  Li  Li11  1  0.532302  0.094427  0.129351  1
  Li  Li12  1  0.690590  0.857135  0.089833  1
  Li  Li13  1  0.482699  0.892865  0.333455  1
  Li  Li14  1  0.559410  0.149244  0.666545  1
  Li  Li15  1  0.767301  0.600756  0.910167  1
  Li  Li16  1  0.850756  0.517301  0.410167  1
  Li  Li17  1  0.399244  0.309410  0.166545  1
  Li  Li18  1  0.142865  0.232699  0.833455  1
  Li  Li19  1  0.107135  0.440590  0.589833  1
  Li  Li20  1  0.905573  0.034924  0.437876  1
  Li  Li21  1  0.344427  0.282302  0.629351  1
  Li  Li22  1  0.597048  0.467698  0.562124  1
  Li  Li23  1  0.652952  0.715076  0.370649  1
  Li  Li24  1  0.999699  0.875000  0.624699  1
  Li  Li25  1  0.250301  0.375000  0.375301  1
  Li  Li26  1  0.125000  0.749699  0.124699  1
  Li  Li27  1  0.625000  0.000301  0.875301  1
  Mg  Mg28  1  0.500000  0.500000  0.000000  1
  Mg  Mg29  1  0.750000  0.250000  0.500000  1
  Sn  Sn30  1  0.288371  0.535582  0.162220  1
  Sn  Sn31  1  0.373363  0.126152  0.837780  1
  Sn  Sn32  1  0.961629  0.623848  0.747211  1
  Sn  Sn33  1  0.876637  0.214418  0.252789  1
  Sn  Sn34  1  0.376152  0.123363  0.337780  1
  Sn  Sn35  1  0.785582  0.038371  0.662220  1
  Sn  Sn36  1  0.464418  0.626637  0.752789  1
  Sn  Sn37  1  0.873848  0.711629  0.247211  1
