# generated using pymatgen
data_La5Y5(ThIn10)2
_symmetry_space_group_name_H-M   'P 1'
_cell_length_a   6.75122309
_cell_length_b   10.58220042
_cell_length_c   12.53909489
_cell_angle_alpha   90.10523604
_cell_angle_beta   90.08297725
_cell_angle_gamma   90.16235645
_symmetry_Int_Tables_number   1
_chemical_formula_structural   La5Y5(ThIn10)2
_chemical_formula_sum   'La5 Y5 Th2 In20'
_cell_volume   895.82194216
_cell_formula_units_Z   1
loop_
 _symmetry_equiv_pos_site_id
 _symmetry_equiv_pos_as_xyz
  1  'x, y, z'
loop_
 _atom_site_type_symbol
 _atom_site_label
 _atom_site_symmetry_multiplicity
 _atom_site_fract_x
 _atom_site_fract_y
 _atom_site_fract_z
 _atom_site_occupancy
  La  La0  1  0.887093  0.488272  0.146285  1
  La  La1  1  0.613489  0.011418  0.645574  1
  La  La2  1  0.112145  0.988934  0.853305  1
  La  La3  1  0.385267  0.512052  0.354499  1
  La  La4  1  0.112903  0.510586  0.854886  1
  Y  Y5  1  0.353765  0.750119  0.064344  1
  Y  Y6  1  0.149255  0.754311  0.564206  1
  Y  Y7  1  0.647143  0.247833  0.936306  1
  Y  Y8  1  0.854327  0.249448  0.436401  1
  Y  Y9  1  0.612139  0.488323  0.644898  1
  Th  Th10  1  0.386862  0.989101  0.354322  1
  Th  Th11  1  0.885364  0.009463  0.146618  1
  In  In12  1  0.613190  0.746906  0.508670  1
  In  In13  1  0.884753  0.749364  0.004427  1
  In  In14  1  0.390200  0.251522  0.494726  1
  In  In15  1  0.111874  0.248865  0.995853  1
  In  In16  1  0.656521  0.750450  0.246999  1
  In  In17  1  0.840803  0.745140  0.743314  1
  In  In18  1  0.344233  0.253545  0.753114  1
  In  In19  1  0.157350  0.248176  0.254155  1
  In  In20  1  0.105217  0.751908  0.285109  1
  In  In21  1  0.393646  0.748857  0.785401  1
  In  In22  1  0.890066  0.255556  0.713112  1
  In  In23  1  0.606777  0.248594  0.215426  1
  In  In24  1  0.870927  0.546961  0.408409  1
  In  In25  1  0.627908  0.951209  0.907131  1
  In  In26  1  0.128719  0.051785  0.592896  1
  In  In27  1  0.374748  0.451744  0.092608  1
  In  In28  1  0.132744  0.455591  0.594768  1
  In  In29  1  0.372432  0.046868  0.094119  1
  In  In30  1  0.871758  0.952026  0.406919  1
  In  In31  1  0.626384  0.545073  0.901201  1
