# generated using pymatgen
data_YHo2CdSn3Ir2
_symmetry_space_group_name_H-M   'P 1'
_cell_length_a   7.68448406
_cell_length_b   7.70041219
_cell_length_c   3.93579400
_cell_angle_alpha   90.00000000
_cell_angle_beta   90.00000000
_cell_angle_gamma   120.01535282
_symmetry_Int_Tables_number   1
_chemical_formula_structural   YHo2CdSn3Ir2
_chemical_formula_sum   'Y1 Ho2 Cd1 Sn3 Ir2'
_cell_volume   201.66218555
_cell_formula_units_Z   1
loop_
 _symmetry_equiv_pos_site_id
 _symmetry_equiv_pos_as_xyz
  1  'x, y, z'
loop_
 _atom_site_type_symbol
 _atom_site_label
 _atom_site_symmetry_multiplicity
 _atom_site_fract_x
 _atom_site_fract_y
 _atom_site_fract_z
 _atom_site_occupancy
  Y  Y0  1  0.383951  0.409506  0.500000  1
  Ho  Ho1  1  0.590007  0.973119  0.500000  1
  Ho  Ho2  1  0.026917  0.617054  0.500000  1
  Cd  Cd3  1  0.667076  0.333338  0.000000  1
  Sn  Sn4  1  0.744975  0.746100  0.000000  1
  Sn  Sn5  1  0.253894  0.998435  0.000000  1
  Sn  Sn6  1  0.001087  0.255140  0.000000  1
  Ir  Ir7  1  0.332899  0.668004  0.000000  1
  Ir  Ir8  1  0.999193  0.999306  0.500000  1
