# generated using pymatgen
data_Yb6(CoO3)5
_symmetry_space_group_name_H-M   'P 1'
_cell_length_a   6.57725530
_cell_length_b   6.58063117
_cell_length_c   6.57990478
_cell_angle_alpha   86.07591084
_cell_angle_beta   86.26863804
_cell_angle_gamma   86.18295317
_symmetry_Int_Tables_number   1
_chemical_formula_structural   Yb6(CoO3)5
_chemical_formula_sum   'Yb6 Co5 O15'
_cell_volume   282.97224426
_cell_formula_units_Z   1
loop_
 _symmetry_equiv_pos_site_id
 _symmetry_equiv_pos_as_xyz
  1  'x, y, z'
loop_
 _atom_site_type_symbol
 _atom_site_label
 _atom_site_symmetry_multiplicity
 _atom_site_fract_x
 _atom_site_fract_y
 _atom_site_fract_z
 _atom_site_occupancy
  Yb  Yb0  1  0.140616  0.861839  0.501097  1
  Yb  Yb1  1  0.499255  0.138979  0.859502  1
  Yb  Yb2  1  0.860877  0.499555  0.138246  1
  Yb  Yb3  1  0.308444  0.691206  0.999717  1
  Yb  Yb4  1  0.000066  0.308915  0.691399  1
  Yb  Yb5  1  0.691619  0.000046  0.308292  1
  Co  Co6  1  0.502716  0.501698  0.495685  1
  Co  Co7  1  0.100616  0.100579  0.101123  1
  Co  Co8  1  0.898940  0.899104  0.899583  1
  Co  Co9  1  0.297769  0.296252  0.297876  1
  Co  Co10  1  0.701633  0.703600  0.703021  1
  O  O11  1  0.000239  0.836066  0.163877  1
  O  O12  1  0.162905  0.000190  0.837107  1
  O  O13  1  0.836439  0.163451  0.999557  1
  O  O14  1  0.269505  0.573184  0.350337  1
  O  O15  1  0.426505  0.734803  0.654232  1
  O  O16  1  0.347314  0.266133  0.573121  1
  O  O17  1  0.732341  0.652238  0.426335  1
  O  O18  1  0.573976  0.345791  0.266178  1
  O  O19  1  0.649854  0.427087  0.731360  1
  O  O20  1  0.780807  0.977329  0.645484  1
  O  O21  1  0.022747  0.218525  0.355065  1
  O  O22  1  0.218519  0.354960  0.023283  1
  O  O23  1  0.645184  0.781234  0.977606  1
  O  O24  1  0.354390  0.022394  0.219132  1
  O  O25  1  0.976725  0.644843  0.781787  1
