# generated using pymatgen
data_Ac2(AlAg2)3
_symmetry_space_group_name_H-M   'P 1'
_cell_length_a   8.95422376
_cell_length_b   8.95422369
_cell_length_c   8.95422624
_cell_angle_alpha   58.02146890
_cell_angle_beta   58.02146934
_cell_angle_gamma   58.02147046
_symmetry_Int_Tables_number   1
_chemical_formula_structural   Ac2(AlAg2)3
_chemical_formula_sum   'Ac4 Al6 Ag12'
_cell_volume   484.61794339
_cell_formula_units_Z   2
loop_
 _symmetry_equiv_pos_site_id
 _symmetry_equiv_pos_as_xyz
  1  'x, y, z'
loop_
 _atom_site_type_symbol
 _atom_site_label
 _atom_site_symmetry_multiplicity
 _atom_site_fract_x
 _atom_site_fract_y
 _atom_site_fract_z
 _atom_site_occupancy
  Ac  Ac0  1  0.906946  0.906946  0.906946  1
  Ac  Ac1  1  0.406946  0.406946  0.406946  1
  Ac  Ac2  1  0.093054  0.093054  0.093054  1
  Ac  Ac3  1  0.593054  0.593054  0.593054  1
  Al  Al4  1  0.565249  0.750000  0.934751  1
  Al  Al5  1  0.934751  0.565249  0.750000  1
  Al  Al6  1  0.750000  0.934751  0.565249  1
  Al  Al7  1  0.434751  0.250000  0.065249  1
  Al  Al8  1  0.065249  0.434751  0.250000  1
  Al  Al9  1  0.250000  0.065249  0.434751  1
  Ag  Ag10  1  0.481215  0.862551  0.201971  1
  Ag  Ag11  1  0.201971  0.481215  0.862551  1
  Ag  Ag12  1  0.862551  0.201971  0.481215  1
  Ag  Ag13  1  0.701971  0.362551  0.981215  1
  Ag  Ag14  1  0.981215  0.701971  0.362551  1
  Ag  Ag15  1  0.362551  0.981215  0.701971  1
  Ag  Ag16  1  0.518785  0.137449  0.798029  1
  Ag  Ag17  1  0.798029  0.518785  0.137449  1
  Ag  Ag18  1  0.137449  0.798029  0.518785  1
  Ag  Ag19  1  0.298029  0.637449  0.018785  1
  Ag  Ag20  1  0.018785  0.298029  0.637449  1
  Ag  Ag21  1  0.637449  0.018785  0.298029  1
