# generated using pymatgen
data_Tb3CeV4O12
_symmetry_space_group_name_H-M   'P 1'
_cell_length_a   5.38291954
_cell_length_b   5.70845630
_cell_length_c   7.77271900
_cell_angle_alpha   90.00000000
_cell_angle_beta   90.00000000
_cell_angle_gamma   90.40972547
_symmetry_Int_Tables_number   1
_chemical_formula_structural   Tb3CeV4O12
_chemical_formula_sum   'Tb3 Ce1 V4 O12'
_cell_volume   238.83525355
_cell_formula_units_Z   1
loop_
 _symmetry_equiv_pos_site_id
 _symmetry_equiv_pos_as_xyz
  1  'x, y, z'
loop_
 _atom_site_type_symbol
 _atom_site_label
 _atom_site_symmetry_multiplicity
 _atom_site_fract_x
 _atom_site_fract_y
 _atom_site_fract_z
 _atom_site_occupancy
  Tb  Tb0  1  0.979298  0.065122  0.750000  1
  Tb  Tb1  1  0.476723  0.427874  0.250000  1
  Tb  Tb2  1  0.019092  0.935523  0.250000  1
  Ce  Ce3  1  0.518831  0.564792  0.750000  1
  V  V4  1  0.999449  0.500326  0.002541  1
  V  V5  1  0.500118  0.998653  0.498185  1
  V  V6  1  0.999449  0.500326  0.497459  1
  V  V7  1  0.500118  0.998653  0.001815  1
  O  O8  1  0.693351  0.296303  0.944067  1
  O  O9  1  0.309558  0.699025  0.439630  1
  O  O10  1  0.811464  0.808728  0.556096  1
  O  O11  1  0.195444  0.196286  0.440011  1
  O  O12  1  0.693351  0.296303  0.555933  1
  O  O13  1  0.885123  0.541287  0.250000  1
  O  O14  1  0.195444  0.196286  0.059989  1
  O  O15  1  0.380122  0.963027  0.750000  1
  O  O16  1  0.811464  0.808728  0.943904  1
  O  O17  1  0.620070  0.044379  0.250000  1
  O  O18  1  0.309558  0.699025  0.060370  1
  O  O19  1  0.101972  0.459353  0.750000  1
