# generated using pymatgen
data_Tb6Dy4Si5P
_symmetry_space_group_name_H-M   'P 1'
_cell_length_a   8.45427800
_cell_length_b   8.45949156
_cell_length_c   6.33868400
_cell_angle_alpha   90.00000000
_cell_angle_beta   90.00000000
_cell_angle_gamma   119.97961515
_symmetry_Int_Tables_number   1
_chemical_formula_structural   Tb6Dy4Si5P
_chemical_formula_sum   'Tb6 Dy4 Si5 P1'
_cell_volume   392.68082212
_cell_formula_units_Z   1
loop_
 _symmetry_equiv_pos_site_id
 _symmetry_equiv_pos_as_xyz
  1  'x, y, z'
loop_
 _atom_site_type_symbol
 _atom_site_label
 _atom_site_symmetry_multiplicity
 _atom_site_fract_x
 _atom_site_fract_y
 _atom_site_fract_z
 _atom_site_occupancy
  Tb  Tb0  1  0.000908  0.756480  0.750000  1
  Tb  Tb1  1  0.000957  0.244647  0.250000  1
  Tb  Tb2  1  0.756311  0.755353  0.250000  1
  Tb  Tb3  1  0.754557  0.000000  0.750000  1
  Tb  Tb4  1  0.244427  0.243520  0.750000  1
  Tb  Tb5  1  0.244161  0.000000  0.250000  1
  Dy  Dy6  1  0.666277  0.332469  0.999669  1
  Dy  Dy7  1  0.333808  0.667531  0.500331  1
  Dy  Dy8  1  0.333808  0.667531  0.999669  1
  Dy  Dy9  1  0.666277  0.332469  0.500331  1
  Si  Si10  1  0.394391  0.393885  0.250000  1
  Si  Si11  1  0.000506  0.606115  0.250000  1
  Si  Si12  1  0.000134  0.393616  0.750000  1
  Si  Si13  1  0.606519  0.606384  0.750000  1
  Si  Si14  1  0.607070  0.000000  0.250000  1
  P  P15  1  0.389889  0.000000  0.750000  1
