# generated using pymatgen
data_Y2B6Ir8Rh
_symmetry_space_group_name_H-M   'P 1'
_cell_length_a   5.64419790
_cell_length_b   5.64419838
_cell_length_c   8.64784000
_cell_angle_alpha   90.00000000
_cell_angle_beta   90.00000000
_cell_angle_gamma   119.90593899
_symmetry_Int_Tables_number   1
_chemical_formula_structural   Y2B6Ir8Rh
_chemical_formula_sum   'Y2 B6 Ir8 Rh1'
_cell_volume   238.81061869
_cell_formula_units_Z   1
loop_
 _symmetry_equiv_pos_site_id
 _symmetry_equiv_pos_as_xyz
  1  'x, y, z'
loop_
 _atom_site_type_symbol
 _atom_site_label
 _atom_site_symmetry_multiplicity
 _atom_site_fract_x
 _atom_site_fract_y
 _atom_site_fract_z
 _atom_site_occupancy
  Y  Y0  1  0.000000  0.000000  0.701604  1
  Y  Y1  1  0.000000  0.000000  0.299047  1
  B  B2  1  0.666874  0.333126  0.999701  1
  B  B3  1  0.333126  0.666874  0.999701  1
  B  B4  1  0.666745  0.333255  0.667729  1
  B  B5  1  0.333255  0.666745  0.667729  1
  B  B6  1  0.333147  0.666853  0.332201  1
  B  B7  1  0.666853  0.333147  0.332201  1
  Ir  Ir8  1  0.500000  0.500000  0.836347  1
  Ir  Ir9  1  0.500000  0.000000  0.836271  1
  Ir  Ir10  1  0.000000  0.500000  0.836271  1
  Ir  Ir11  1  0.500000  0.000000  0.164045  1
  Ir  Ir12  1  0.000000  0.500000  0.164045  1
  Ir  Ir13  1  0.500000  0.500000  0.499098  1
  Ir  Ir14  1  0.500000  0.000000  0.499811  1
  Ir  Ir15  1  0.000000  0.500000  0.499811  1
  Rh  Rh16  1  0.500000  0.500000  0.164390  1
