# generated using pymatgen
data_TbHf7Ti9Re3Si16
_symmetry_space_group_name_H-M   'P 1'
_cell_length_a   6.77587997
_cell_length_b   6.77563343
_cell_length_c   12.46290760
_cell_angle_alpha   90.02978397
_cell_angle_beta   89.93439311
_cell_angle_gamma   89.96231762
_symmetry_Int_Tables_number   1
_chemical_formula_structural   TbHf7Ti9Re3Si16
_chemical_formula_sum   'Tb1 Hf7 Ti9 Re3 Si16'
_cell_volume   572.18246407
_cell_formula_units_Z   1
loop_
 _symmetry_equiv_pos_site_id
 _symmetry_equiv_pos_as_xyz
  1  'x, y, z'
loop_
 _atom_site_type_symbol
 _atom_site_label
 _atom_site_symmetry_multiplicity
 _atom_site_fract_x
 _atom_site_fract_y
 _atom_site_fract_z
 _atom_site_occupancy
  Tb  Tb0  1  0.998404  0.661544  0.029547  1
  Hf  Hf1  1  0.340107  0.999557  0.470900  1
  Hf  Hf2  1  0.498174  0.839693  0.719602  1
  Hf  Hf3  1  0.499017  0.160449  0.222726  1
  Hf  Hf4  1  0.839363  0.498656  0.280121  1
  Hf  Hf5  1  0.160674  0.499682  0.778484  1
  Hf  Hf6  1  0.659359  0.001371  0.971278  1
  Hf  Hf7  1  0.999132  0.341141  0.529204  1
  Ti  Ti8  1  0.670421  0.670691  0.499986  1
  Ti  Ti9  1  0.156472  0.000888  0.871930  1
  Ti  Ti10  1  0.498239  0.653641  0.123520  1
  Ti  Ti11  1  0.500089  0.348867  0.624100  1
  Ti  Ti12  1  0.653957  0.494354  0.875410  1
  Ti  Ti13  1  0.348651  0.501043  0.376630  1
  Ti  Ti14  1  0.846458  0.997647  0.375120  1
  Ti  Ti15  1  0.002054  0.153008  0.127513  1
  Ti  Ti16  1  0.996230  0.847336  0.624666  1
  Re  Re17  1  0.333151  0.326441  0.999762  1
  Re  Re18  1  0.170798  0.834077  0.250561  1
  Re  Re19  1  0.831655  0.169590  0.749879  1
  Si  Si20  1  0.204796  0.133370  0.676312  1
  Si  Si21  1  0.372435  0.705654  0.925297  1
  Si  Si22  1  0.634690  0.294513  0.429107  1
  Si  Si23  1  0.701799  0.362823  0.073043  1
  Si  Si24  1  0.293138  0.635120  0.571241  1
  Si  Si25  1  0.789196  0.870612  0.181154  1
  Si  Si26  1  0.132923  0.205852  0.324241  1
  Si  Si27  1  0.864401  0.796883  0.818564  1
  Si  Si28  1  0.297633  0.959212  0.066171  1
  Si  Si29  1  0.541341  0.795091  0.316490  1
  Si  Si30  1  0.456883  0.205033  0.814628  1
  Si  Si31  1  0.794795  0.542521  0.683745  1
  Si  Si32  1  0.208309  0.454302  0.186393  1
  Si  Si33  1  0.703429  0.046103  0.566390  1
  Si  Si34  1  0.956728  0.288780  0.932885  1
  Si  Si35  1  0.045095  0.704458  0.433405  1
