# generated using pymatgen
data_Tm2Mn3Ni9As6P
_symmetry_space_group_name_H-M   'P 1'
_cell_length_a   9.41832200
_cell_length_b   9.41832327
_cell_length_c   3.78217500
_cell_angle_alpha   90.00000000
_cell_angle_beta   90.00000000
_cell_angle_gamma   120.00000257
_symmetry_Int_Tables_number   1
_chemical_formula_structural   Tm2Mn3Ni9As6P
_chemical_formula_sum   'Tm2 Mn3 Ni9 As6 P1'
_cell_volume   290.54898806
_cell_formula_units_Z   1
loop_
 _symmetry_equiv_pos_site_id
 _symmetry_equiv_pos_as_xyz
  1  'x, y, z'
loop_
 _atom_site_type_symbol
 _atom_site_label
 _atom_site_symmetry_multiplicity
 _atom_site_fract_x
 _atom_site_fract_y
 _atom_site_fract_z
 _atom_site_occupancy
  Tm  Tm0  1  0.000000  0.000000  0.000000  1
  Tm  Tm1  1  0.666667  0.333333  0.500000  1
  Mn  Mn2  1  0.445996  0.570840  0.500000  1
  Mn  Mn3  1  0.429160  0.875158  0.500000  1
  Mn  Mn4  1  0.124842  0.554004  0.500000  1
  Ni  Ni5  1  0.706234  0.607458  0.000000  1
  Ni  Ni6  1  0.392542  0.098777  0.000000  1
  Ni  Ni7  1  0.901223  0.293766  0.000000  1
  Ni  Ni8  1  0.211954  0.399040  0.000000  1
  Ni  Ni9  1  0.600960  0.812914  0.000000  1
  Ni  Ni10  1  0.187086  0.788046  0.000000  1
  Ni  Ni11  1  0.281173  0.235184  0.500000  1
  Ni  Ni12  1  0.764816  0.045988  0.500000  1
  Ni  Ni13  1  0.954012  0.718827  0.500000  1
  As  As14  1  0.448759  0.372180  0.000000  1
  As  As15  1  0.627820  0.076580  0.000000  1
  As  As16  1  0.923420  0.551241  0.000000  1
  As  As17  1  0.039935  0.257374  0.500000  1
  As  As18  1  0.742626  0.782562  0.500000  1
  As  As19  1  0.217438  0.960065  0.500000  1
  P  P20  1  0.333333  0.666667  0.000000  1
