# generated using pymatgen
data_Th4Zr3Nb3Si8
_symmetry_space_group_name_H-M   'P 1'
_cell_length_a   7.33304358
_cell_length_b   7.15729825
_cell_length_c   7.32652306
_cell_angle_alpha   71.24149424
_cell_angle_beta   89.98575559
_cell_angle_gamma   90.25843882
_symmetry_Int_Tables_number   1
_chemical_formula_structural   Th4Zr3Nb3Si8
_chemical_formula_sum   'Th4 Zr3 Nb3 Si8'
_cell_volume   364.10129975
_cell_formula_units_Z   1
loop_
 _symmetry_equiv_pos_site_id
 _symmetry_equiv_pos_as_xyz
  1  'x, y, z'
loop_
 _atom_site_type_symbol
 _atom_site_label
 _atom_site_symmetry_multiplicity
 _atom_site_fract_x
 _atom_site_fract_y
 _atom_site_fract_z
 _atom_site_occupancy
  Th  Th0  1  0.672220  0.931977  0.691894  1
  Th  Th1  1  0.329648  0.066808  0.308781  1
  Th  Th2  1  0.171054  0.567973  0.307887  1
  Th  Th3  1  0.827437  0.433435  0.691704  1
  Zr  Zr4  1  0.327532  0.250227  0.754450  1
  Zr  Zr5  1  0.175766  0.751401  0.754620  1
  Zr  Zr6  1  0.824523  0.247964  0.247742  1
  Nb  Nb7  1  0.675523  0.749743  0.242752  1
  Nb  Nb8  1  0.996305  0.997953  0.002994  1
  Nb  Nb9  1  0.501769  0.501220  0.002417  1
  Si  Si10  1  0.957396  0.865498  0.410181  1
  Si  Si11  1  0.037294  0.131066  0.587601  1
  Si  Si12  1  0.463792  0.634176  0.579484  1
  Si  Si13  1  0.538184  0.377626  0.408549  1
  Si  Si14  1  0.871457  0.630507  0.000267  1
  Si  Si15  1  0.123477  0.369455  0.003520  1
  Si  Si16  1  0.380530  0.868606  0.005410  1
  Si  Si17  1  0.626095  0.124364  0.999747  1
