# generated using pymatgen
data_Ho12ZnCo3SiBi
_symmetry_space_group_name_H-M   'P 1'
_cell_length_a   8.36744691
_cell_length_b   8.36759842
_cell_length_c   8.36744773
_cell_angle_alpha   112.90476168
_cell_angle_beta   110.61813922
_cell_angle_gamma   104.98996144
_symmetry_Int_Tables_number   1
_chemical_formula_structural   Ho12ZnCo3SiBi
_chemical_formula_sum   'Ho12 Zn1 Co3 Si1 Bi1'
_cell_volume   448.74962527
_cell_formula_units_Z   1
loop_
 _symmetry_equiv_pos_site_id
 _symmetry_equiv_pos_as_xyz
  1  'x, y, z'
loop_
 _atom_site_type_symbol
 _atom_site_label
 _atom_site_symmetry_multiplicity
 _atom_site_fract_x
 _atom_site_fract_y
 _atom_site_fract_z
 _atom_site_occupancy
  Ho  Ho0  1  0.817143  0.714390  0.531526  1
  Ho  Ho1  1  0.184445  0.281869  0.466326  1
  Ho  Ho2  1  0.184459  0.718131  0.902576  1
  Ho  Ho3  1  0.817135  0.285610  0.102753  1
  Ho  Ho4  1  0.690250  0.378641  0.684742  1
  Ho  Ho5  1  0.306100  0.621359  0.311608  1
  Ho  Ho6  1  0.690255  0.005528  0.311619  1
  Ho  Ho7  1  0.306091  0.994472  0.684727  1
  Ho  Ho8  1  0.574004  0.770645  0.803359  1
  Ho  Ho9  1  0.424046  0.222546  0.201497  1
  Ho  Ho10  1  0.978951  0.777454  0.201500  1
  Ho  Ho11  1  0.032714  0.229355  0.803359  1
  Zn  Zn12  1  0.002249  0.000000  0.002249  1
  Co  Co13  1  0.357268  0.000000  0.357268  1
  Co  Co14  1  0.109453  0.609680  0.499788  1
  Co  Co15  1  0.890109  0.390320  0.499773  1
  Si  Si16  1  0.630142  0.000000  0.630142  1
  Bi  Bi17  1  0.505187  0.500000  0.005187  1
