# generated using pymatgen
data_LaTbB5
_symmetry_space_group_name_H-M   'P 1'
_cell_length_a   7.26459100
_cell_length_b   7.24511578
_cell_length_c   7.27957321
_cell_angle_alpha   77.33215725
_cell_angle_beta   90.00000000
_cell_angle_gamma   90.00000000
_symmetry_Int_Tables_number   1
_chemical_formula_structural   LaTbB5
_chemical_formula_sum   'La4 Tb4 B20'
_cell_volume   373.81775747
_cell_formula_units_Z   4
loop_
 _symmetry_equiv_pos_site_id
 _symmetry_equiv_pos_as_xyz
  1  'x, y, z'
loop_
 _atom_site_type_symbol
 _atom_site_label
 _atom_site_symmetry_multiplicity
 _atom_site_fract_x
 _atom_site_fract_y
 _atom_site_fract_z
 _atom_site_occupancy
  La  La0  1  0.687818  0.779584  0.625337  1
  La  La1  1  0.187818  0.220416  0.874663  1
  La  La2  1  0.312182  0.220416  0.374663  1
  La  La3  1  0.812182  0.779584  0.125337  1
  Tb  Tb4  1  0.316860  0.748002  0.256220  1
  Tb  Tb5  1  0.816860  0.251998  0.243780  1
  Tb  Tb6  1  0.683140  0.251998  0.743780  1
  Tb  Tb7  1  0.183140  0.748002  0.756220  1
  B  B8  1  0.504655  0.315955  0.037645  1
  B  B9  1  0.004655  0.684045  0.462355  1
  B  B10  1  0.495345  0.684045  0.962355  1
  B  B11  1  0.995345  0.315955  0.537645  1
  B  B12  1  0.484515  0.922792  0.931169  1
  B  B13  1  0.984515  0.077208  0.568831  1
  B  B14  1  0.515485  0.077208  0.068831  1
  B  B15  1  0.015485  0.922792  0.431169  1
  B  B16  1  0.327816  0.495375  0.040702  1
  B  B17  1  0.827816  0.504625  0.459298  1
  B  B18  1  0.672184  0.504625  0.959298  1
  B  B19  1  0.172184  0.495375  0.540702  1
  B  B20  1  0.908898  0.498609  0.909213  1
  B  B21  1  0.408898  0.501391  0.590787  1
  B  B22  1  0.091102  0.501391  0.090787  1
  B  B23  1  0.591102  0.498609  0.409213  1
  B  B24  1  0.960499  0.496706  0.672387  1
  B  B25  1  0.460499  0.503294  0.827613  1
  B  B26  1  0.039501  0.503294  0.327613  1
  B  B27  1  0.539501  0.496706  0.172387  1
