# generated using pymatgen
data_Y4HoLu3(ReB6)4
_symmetry_space_group_name_H-M   'P 1'
_cell_length_a   3.65485100
_cell_length_b   9.12544803
_cell_length_c   11.51280500
_cell_angle_alpha   90.00581254
_cell_angle_beta   90.00000000
_cell_angle_gamma   90.00000000
_symmetry_Int_Tables_number   1
_chemical_formula_structural   Y4HoLu3(ReB6)4
_chemical_formula_sum   'Y4 Ho1 Lu3 Re4 B24'
_cell_volume   383.97683031
_cell_formula_units_Z   1
loop_
 _symmetry_equiv_pos_site_id
 _symmetry_equiv_pos_as_xyz
  1  'x, y, z'
loop_
 _atom_site_type_symbol
 _atom_site_label
 _atom_site_symmetry_multiplicity
 _atom_site_fract_x
 _atom_site_fract_y
 _atom_site_fract_z
 _atom_site_occupancy
  Y  Y0  1  0.000000  0.323063  0.414017  1
  Y  Y1  1  0.000000  0.676715  0.586284  1
  Y  Y2  1  0.000000  0.822947  0.085796  1
  Y  Y3  1  0.000000  0.177136  0.913830  1
  Ho  Ho4  1  0.000000  0.943628  0.370630  1
  Lu  Lu5  1  0.000000  0.056792  0.630622  1
  Lu  Lu6  1  0.000000  0.443504  0.129435  1
  Lu  Lu7  1  0.000000  0.556597  0.870167  1
  Re  Re8  1  0.000000  0.638314  0.319714  1
  Re  Re9  1  0.000000  0.360532  0.680389  1
  Re  Re10  1  0.000000  0.140406  0.179178  1
  Re  Re11  1  0.000000  0.860321  0.820212  1
  B  B12  1  0.500000  0.553025  0.432563  1
  B  B13  1  0.500000  0.446003  0.567653  1
  B  B14  1  0.500000  0.054139  0.066949  1
  B  B15  1  0.500000  0.946125  0.932518  1
  B  B16  1  0.500000  0.749282  0.418321  1
  B  B17  1  0.500000  0.249257  0.582048  1
  B  B18  1  0.500000  0.251384  0.081279  1
  B  B19  1  0.500000  0.748922  0.918338  1
  B  B20  1  0.500000  0.791971  0.265112  1
  B  B21  1  0.500000  0.206999  0.734675  1
  B  B22  1  0.500000  0.293687  0.234003  1
  B  B23  1  0.500000  0.706799  0.765704  1
  B  B24  1  0.500000  0.629635  0.184567  1
  B  B25  1  0.500000  0.370034  0.815163  1
  B  B26  1  0.500000  0.131397  0.314372  1
  B  B27  1  0.500000  0.869783  0.685275  1
  B  B28  1  0.500000  0.982739  0.211873  1
  B  B29  1  0.500000  0.017908  0.787419  1
  B  B30  1  0.500000  0.481631  0.286950  1
  B  B31  1  0.500000  0.518049  0.712840  1
  B  B32  1  0.500000  0.597729  0.027049  1
  B  B33  1  0.500000  0.402354  0.972588  1
  B  B34  1  0.500000  0.099621  0.473719  1
  B  B35  1  0.500000  0.901569  0.528749  1
