# generated using pymatgen
data_Tb3Pr4Er13Pt16
_symmetry_space_group_name_H-M   'P 1'
_cell_length_a   7.51000875
_cell_length_b   7.59311774
_cell_length_c   14.73762000
_cell_angle_alpha   90.00362196
_cell_angle_beta   90.02558853
_cell_angle_gamma   89.91315430
_symmetry_Int_Tables_number   1
_chemical_formula_structural   Tb3Pr4Er13Pt16
_chemical_formula_sum   'Tb3 Pr4 Er13 Pt16'
_cell_volume   840.40260174
_cell_formula_units_Z   1
loop_
 _symmetry_equiv_pos_site_id
 _symmetry_equiv_pos_as_xyz
  1  'x, y, z'
loop_
 _atom_site_type_symbol
 _atom_site_label
 _atom_site_symmetry_multiplicity
 _atom_site_fract_x
 _atom_site_fract_y
 _atom_site_fract_z
 _atom_site_occupancy
  Tb  Tb0  1  0.501925  0.321006  0.905496  1
  Tb  Tb1  1  0.498078  0.681127  0.405785  1
  Tb  Tb2  1  0.998353  0.820808  0.095048  1
  Pr  Pr3  1  0.501133  0.676306  0.092933  1
  Pr  Pr4  1  0.498749  0.324994  0.592708  1
  Pr  Pr5  1  0.999332  0.176674  0.907984  1
  Pr  Pr6  1  0.998539  0.174034  0.592534  1
  Er  Er7  1  0.681482  0.990162  0.250910  1
  Er  Er8  1  0.180741  0.510435  0.251157  1
  Er  Er9  1  0.819307  0.490733  0.750751  1
  Er  Er10  1  0.320116  0.009812  0.750590  1
  Er  Er11  1  0.654686  0.831304  0.622526  1
  Er  Er12  1  0.156580  0.667333  0.877819  1
  Er  Er13  1  0.842850  0.332564  0.376980  1
  Er  Er14  1  0.343487  0.167917  0.123208  1
  Er  Er15  1  0.341616  0.165947  0.377042  1
  Er  Er16  1  0.843924  0.331987  0.124200  1
  Er  Er17  1  0.154481  0.668837  0.622413  1
  Er  Er18  1  0.656501  0.832615  0.876985  1
  Er  Er19  1  0.998101  0.818443  0.405350  1
  Pt  Pt20  1  0.819512  0.642530  0.252163  1
  Pt  Pt21  1  0.313674  0.860329  0.252555  1
  Pt  Pt22  1  0.682625  0.139615  0.751719  1
  Pt  Pt23  1  0.186575  0.362653  0.750676  1
  Pt  Pt24  1  0.548074  0.381309  0.251542  1
  Pt  Pt25  1  0.046125  0.116693  0.250569  1
  Pt  Pt26  1  0.952404  0.877971  0.749805  1
  Pt  Pt27  1  0.453418  0.620663  0.750883  1
  Pt  Pt28  1  0.821115  0.542799  0.538927  1
  Pt  Pt29  1  0.322034  0.965742  0.957765  1
  Pt  Pt30  1  0.685120  0.027145  0.454463  1
  Pt  Pt31  1  0.177287  0.466117  0.043028  1
  Pt  Pt32  1  0.181296  0.473313  0.454088  1
  Pt  Pt33  1  0.682662  0.036306  0.042646  1
  Pt  Pt34  1  0.321551  0.958117  0.539053  1
  Pt  Pt35  1  0.816552  0.535664  0.957700  1
