# generated using pymatgen
data_Y6Si(P3Rh5)4
_symmetry_space_group_name_H-M   'P 1'
_cell_length_a   13.38893400
_cell_length_b   13.38893316
_cell_length_c   3.91125800
_cell_angle_alpha   90.00000000
_cell_angle_beta   90.00000000
_cell_angle_gamma   120.00000208
_symmetry_Int_Tables_number   1
_chemical_formula_structural   Y6Si(P3Rh5)4
_chemical_formula_sum   'Y6 Si1 P12 Rh20'
_cell_volume   607.21020401
_cell_formula_units_Z   1
loop_
 _symmetry_equiv_pos_site_id
 _symmetry_equiv_pos_as_xyz
  1  'x, y, z'
loop_
 _atom_site_type_symbol
 _atom_site_label
 _atom_site_symmetry_multiplicity
 _atom_site_fract_x
 _atom_site_fract_y
 _atom_site_fract_z
 _atom_site_occupancy
  Y  Y0  1  0.530269  0.717066  0.248240  1
  Y  Y1  1  0.282934  0.813203  0.248240  1
  Y  Y2  1  0.186797  0.469731  0.248240  1
  Y  Y3  1  0.469731  0.282934  0.751760  1
  Y  Y4  1  0.717066  0.186797  0.751760  1
  Y  Y5  1  0.813203  0.530269  0.751760  1
  Si  Si6  1  0.000000  0.000000  0.000000  1
  P  P7  1  0.525805  0.138915  0.250573  1
  P  P8  1  0.861085  0.386891  0.250573  1
  P  P9  1  0.613109  0.474195  0.250573  1
  P  P10  1  0.946568  0.716174  0.253026  1
  P  P11  1  0.283826  0.230393  0.253026  1
  P  P12  1  0.769607  0.053432  0.253026  1
  P  P13  1  0.386891  0.525805  0.749427  1
  P  P14  1  0.474195  0.861085  0.749427  1
  P  P15  1  0.138915  0.613109  0.749427  1
  P  P16  1  0.716174  0.769607  0.746974  1
  P  P17  1  0.230393  0.946568  0.746974  1
  P  P18  1  0.053432  0.283826  0.746974  1
  Rh  Rh19  1  0.333333  0.666667  0.752313  1
  Rh  Rh20  1  0.920457  0.250383  0.253976  1
  Rh  Rh21  1  0.749617  0.670075  0.253976  1
  Rh  Rh22  1  0.329925  0.079543  0.253976  1
  Rh  Rh23  1  0.440119  0.024351  0.751367  1
  Rh  Rh24  1  0.975649  0.415769  0.751367  1
  Rh  Rh25  1  0.584231  0.559881  0.751367  1
  Rh  Rh26  1  0.666667  0.333333  0.247687  1
  Rh  Rh27  1  0.094534  0.190895  0.245983  1
  Rh  Rh28  1  0.809105  0.903640  0.245983  1
  Rh  Rh29  1  0.096360  0.905466  0.245983  1
  Rh  Rh30  1  0.024351  0.584231  0.248633  1
  Rh  Rh31  1  0.415769  0.440119  0.248633  1
  Rh  Rh32  1  0.559881  0.975649  0.248633  1
  Rh  Rh33  1  0.670075  0.920457  0.746024  1
  Rh  Rh34  1  0.079543  0.749617  0.746024  1
  Rh  Rh35  1  0.250383  0.329925  0.746024  1
  Rh  Rh36  1  0.905466  0.809105  0.754017  1
  Rh  Rh37  1  0.190895  0.096360  0.754017  1
  Rh  Rh38  1  0.903640  0.094534  0.754017  1
