# generated using pymatgen
data_LiY2Ho(Co4P3)2
_symmetry_space_group_name_H-M   'P 1'
_cell_length_a   3.71726900
_cell_length_b   10.58476900
_cell_length_c   12.19793500
_cell_angle_alpha   90.00000000
_cell_angle_beta   90.00000000
_cell_angle_gamma   90.00000000
_symmetry_Int_Tables_number   1
_chemical_formula_structural   LiY2Ho(Co4P3)2
_chemical_formula_sum   'Li2 Y4 Ho2 Co16 P12'
_cell_volume   479.94524046
_cell_formula_units_Z   2
loop_
 _symmetry_equiv_pos_site_id
 _symmetry_equiv_pos_as_xyz
  1  'x, y, z'
loop_
 _atom_site_type_symbol
 _atom_site_label
 _atom_site_symmetry_multiplicity
 _atom_site_fract_x
 _atom_site_fract_y
 _atom_site_fract_z
 _atom_site_occupancy
  Li  Li0  1  0.500000  0.500000  0.152753  1
  Li  Li1  1  0.000000  0.000000  0.847409  1
  Y  Y2  1  0.000000  0.500000  0.522831  1
  Y  Y3  1  0.500000  0.000000  0.477057  1
  Y  Y4  1  0.000000  0.680814  0.793869  1
  Y  Y5  1  0.000000  0.319186  0.793869  1
  Ho  Ho6  1  0.500000  0.819485  0.206041  1
  Ho  Ho7  1  0.500000  0.180515  0.206041  1
  Co  Co8  1  0.500000  0.500000  0.704099  1
  Co  Co9  1  0.000000  0.000000  0.295446  1
  Co  Co10  1  0.000000  0.500000  0.987440  1
  Co  Co11  1  0.500000  0.000000  0.013132  1
  Co  Co12  1  0.500000  0.332726  0.997171  1
  Co  Co13  1  0.500000  0.667274  0.997171  1
  Co  Co14  1  0.000000  0.166980  0.003340  1
  Co  Co15  1  0.000000  0.833020  0.003340  1
  Co  Co16  1  0.500000  0.296535  0.430843  1
  Co  Co17  1  0.500000  0.703465  0.430843  1
  Co  Co18  1  0.000000  0.203307  0.568770  1
  Co  Co19  1  0.000000  0.796693  0.568770  1
  Co  Co20  1  0.500000  0.878810  0.706626  1
  Co  Co21  1  0.500000  0.121190  0.706626  1
  Co  Co22  1  0.000000  0.621473  0.293167  1
  Co  Co23  1  0.000000  0.378527  0.293167  1
  P  P24  1  0.500000  0.500000  0.885233  1
  P  P25  1  0.000000  0.000000  0.115186  1
  P  P26  1  0.500000  0.500000  0.345176  1
  P  P27  1  0.000000  0.000000  0.654717  1
  P  P28  1  0.500000  0.309300  0.615803  1
  P  P29  1  0.500000  0.690700  0.615803  1
  P  P30  1  0.000000  0.190565  0.383732  1
  P  P31  1  0.000000  0.809435  0.383732  1
  P  P32  1  0.500000  0.843753  0.893754  1
  P  P33  1  0.500000  0.156247  0.893754  1
  P  P34  1  0.000000  0.656755  0.106644  1
  P  P35  1  0.000000  0.343245  0.106644  1
