# generated using pymatgen
data_Dy4Lu16AlBi11
_symmetry_space_group_name_H-M   'P 1'
_cell_length_a   8.12001110
_cell_length_b   9.36561800
_cell_length_c   11.84921849
_cell_angle_alpha   90.00000000
_cell_angle_beta   90.26060146
_cell_angle_gamma   90.00000000
_symmetry_Int_Tables_number   1
_chemical_formula_structural   Dy4Lu16AlBi11
_chemical_formula_sum   'Dy4 Lu16 Al1 Bi11'
_cell_volume   901.11097336
_cell_formula_units_Z   1
loop_
 _symmetry_equiv_pos_site_id
 _symmetry_equiv_pos_as_xyz
  1  'x, y, z'
loop_
 _atom_site_type_symbol
 _atom_site_label
 _atom_site_symmetry_multiplicity
 _atom_site_fract_x
 _atom_site_fract_y
 _atom_site_fract_z
 _atom_site_occupancy
  Dy  Dy0  1  0.313360  0.250000  0.218680  1
  Dy  Dy1  1  0.811753  0.250000  0.282489  1
  Dy  Dy2  1  0.678894  0.750000  0.787125  1
  Dy  Dy3  1  0.189654  0.750000  0.721805  1
  Lu  Lu4  1  0.353858  0.750000  0.208454  1
  Lu  Lu5  1  0.852320  0.750000  0.282566  1
  Lu  Lu6  1  0.648785  0.250000  0.781597  1
  Lu  Lu7  1  0.149707  0.250000  0.718457  1
  Lu  Lu8  1  0.683849  0.572892  0.057137  1
  Lu  Lu9  1  0.192401  0.932836  0.438605  1
  Lu  Lu10  1  0.308770  0.054188  0.940537  1
  Lu  Lu11  1  0.807658  0.433133  0.560321  1
  Lu  Lu12  1  0.308770  0.445812  0.940537  1
  Lu  Lu13  1  0.807658  0.066867  0.560321  1
  Lu  Lu14  1  0.683849  0.927108  0.057137  1
  Lu  Lu15  1  0.192401  0.567164  0.438605  1
  Lu  Lu16  1  0.477692  0.250000  0.489710  1
  Lu  Lu17  1  0.979895  0.250000  0.010173  1
  Lu  Lu18  1  0.522827  0.750000  0.510349  1
  Lu  Lu19  1  0.035013  0.750000  0.990014  1
  Al  Al20  1  0.405504  0.750000  0.960522  1
  Bi  Bi21  1  0.903564  0.750000  0.542233  1
  Bi  Bi22  1  0.597341  0.250000  0.040465  1
  Bi  Bi23  1  0.097701  0.250000  0.459575  1
  Bi  Bi24  1  0.564123  0.994260  0.326634  1
  Bi  Bi25  1  0.062877  0.504385  0.174829  1
  Bi  Bi26  1  0.435756  0.494917  0.674177  1
  Bi  Bi27  1  0.935633  0.004944  0.825654  1
  Bi  Bi28  1  0.435756  0.005083  0.674177  1
  Bi  Bi29  1  0.935633  0.495056  0.825654  1
  Bi  Bi30  1  0.564123  0.505740  0.326634  1
  Bi  Bi31  1  0.062877  0.995615  0.174829  1
