# generated using pymatgen
data_Dy5Y3Sc12Si15P
_symmetry_space_group_name_H-M   'P 1'
_cell_length_a   7.09401961
_cell_length_b   7.37556061
_cell_length_c   13.97936504
_cell_angle_alpha   89.99791463
_cell_angle_beta   89.98762510
_cell_angle_gamma   90.13390972
_symmetry_Int_Tables_number   1
_chemical_formula_structural   Dy5Y3Sc12Si15P
_chemical_formula_sum   'Dy5 Y3 Sc12 Si15 P1'
_cell_volume   731.43151771
_cell_formula_units_Z   1
loop_
 _symmetry_equiv_pos_site_id
 _symmetry_equiv_pos_as_xyz
  1  'x, y, z'
loop_
 _atom_site_type_symbol
 _atom_site_label
 _atom_site_symmetry_multiplicity
 _atom_site_fract_x
 _atom_site_fract_y
 _atom_site_fract_z
 _atom_site_occupancy
  Dy  Dy0  1  0.990752  0.826976  0.599421  1
  Dy  Dy1  1  0.511539  0.324441  0.096715  1
  Dy  Dy2  1  0.010428  0.174928  0.403424  1
  Dy  Dy3  1  0.511492  0.324506  0.403705  1
  Dy  Dy4  1  0.489680  0.675001  0.595971  1
  Y  Y5  1  0.010118  0.174741  0.096627  1
  Y  Y6  1  0.990795  0.826970  0.900314  1
  Y  Y7  1  0.489942  0.674807  0.903940  1
  Sc  Sc8  1  0.159911  0.501618  0.749695  1
  Sc  Sc9  1  0.838571  0.497696  0.250285  1
  Sc  Sc10  1  0.339314  0.002071  0.250246  1
  Sc  Sc11  1  0.662335  0.999628  0.749634  1
  Sc  Sc12  1  0.327368  0.173368  0.627158  1
  Sc  Sc13  1  0.668256  0.823385  0.375412  1
  Sc  Sc14  1  0.168271  0.677061  0.375319  1
  Sc  Sc15  1  0.668483  0.823406  0.125063  1
  Sc  Sc16  1  0.832427  0.322874  0.626225  1
  Sc  Sc17  1  0.327169  0.173301  0.872549  1
  Sc  Sc18  1  0.832496  0.323036  0.873247  1
  Sc  Sc19  1  0.168502  0.676941  0.125052  1
  Si  Si20  1  0.965251  0.883066  0.250175  1
  Si  Si21  1  0.465928  0.615825  0.250125  1
  Si  Si22  1  0.531784  0.381993  0.749792  1
  Si  Si23  1  0.295889  0.864005  0.749701  1
  Si  Si24  1  0.713991  0.125817  0.250249  1
  Si  Si25  1  0.214703  0.373825  0.250313  1
  Si  Si26  1  0.786983  0.627789  0.749613  1
  Si  Si27  1  0.157624  0.463742  0.539968  1
  Si  Si28  1  0.842140  0.535794  0.461269  1
  Si  Si29  1  0.340485  0.965290  0.460690  1
  Si  Si30  1  0.842323  0.535723  0.038923  1
  Si  Si31  1  0.659172  0.036534  0.540203  1
  Si  Si32  1  0.157034  0.463384  0.959939  1
  Si  Si33  1  0.658725  0.037229  0.959851  1
  Si  Si34  1  0.341317  0.965331  0.039458  1
  P  P35  1  0.028803  0.127899  0.749730  1
