# generated using pymatgen
data_YbDy6CoSn23Ir3Ru2
_symmetry_space_group_name_H-M   'P 1'
_cell_length_a   9.83928071
_cell_length_b   9.85084359
_cell_length_c   10.09167062
_cell_angle_alpha   90.12704310
_cell_angle_beta   89.82109150
_cell_angle_gamma   119.92837982
_symmetry_Int_Tables_number   1
_chemical_formula_structural   YbDy6CoSn23Ir3Ru2
_chemical_formula_sum   'Yb1 Dy6 Co1 Sn23 Ir3 Ru2'
_cell_volume   847.69809146
_cell_formula_units_Z   1
loop_
 _symmetry_equiv_pos_site_id
 _symmetry_equiv_pos_as_xyz
  1  'x, y, z'
loop_
 _atom_site_type_symbol
 _atom_site_label
 _atom_site_symmetry_multiplicity
 _atom_site_fract_x
 _atom_site_fract_y
 _atom_site_fract_z
 _atom_site_occupancy
  Yb  Yb0  1  0.006394  0.003255  0.003996  1
  Dy  Dy1  1  0.482202  0.518858  0.305446  1
  Dy  Dy2  1  0.517521  0.480777  0.693760  1
  Dy  Dy3  1  0.482981  0.963689  0.304939  1
  Dy  Dy4  1  0.516906  0.036585  0.694253  1
  Dy  Dy5  1  0.034861  0.516871  0.304331  1
  Dy  Dy6  1  0.963435  0.482219  0.695133  1
  Co  Co7  1  0.658800  0.829433  0.799524  1
  Sn  Sn8  1  0.350496  0.997582  0.997980  1
  Sn  Sn9  1  0.653369  0.996511  0.996318  1
  Sn  Sn10  1  0.997945  0.348930  0.000959  1
  Sn  Sn11  1  0.002036  0.650950  0.998604  1
  Sn  Sn12  1  0.650706  0.656410  0.994871  1
  Sn  Sn13  1  0.353161  0.353746  0.999379  1
  Sn  Sn14  1  0.337495  0.670436  0.818488  1
  Sn  Sn15  1  0.667263  0.331882  0.177665  1
  Sn  Sn16  1  0.999820  0.999979  0.501223  1
  Sn  Sn17  1  0.778726  0.221191  0.458575  1
  Sn  Sn18  1  0.221447  0.778482  0.541223  1
  Sn  Sn19  1  0.777819  0.557072  0.459664  1
  Sn  Sn20  1  0.222375  0.443386  0.540165  1
  Sn  Sn21  1  0.444329  0.222801  0.458942  1
  Sn  Sn22  1  0.561936  0.780377  0.547772  1
  Sn  Sn23  1  0.333177  0.666645  0.122264  1
  Sn  Sn24  1  0.665481  0.332512  0.876451  1
  Sn  Sn25  1  0.115926  0.881914  0.282134  1
  Sn  Sn26  1  0.877342  0.110021  0.724136  1
  Sn  Sn27  1  0.115243  0.234327  0.279259  1
  Sn  Sn28  1  0.878326  0.767300  0.726723  1
  Sn  Sn29  1  0.764055  0.882821  0.280294  1
  Sn  Sn30  1  0.234410  0.116406  0.719223  1
  Ir  Ir31  1  0.827560  0.658631  0.199429  1
  Ir  Ir32  1  0.169261  0.340274  0.798375  1
  Ir  Ir33  1  0.340193  0.169882  0.200447  1
  Ru  Ru34  1  0.828359  0.168031  0.200912  1
  Ru  Ru35  1  0.168651  0.829816  0.797147  1
