# generated using pymatgen
data_Y8Zn2CoSi12Pd
_symmetry_space_group_name_H-M   'P 1'
_cell_length_a   8.06224900
_cell_length_b   8.06224836
_cell_length_c   8.13934200
_cell_angle_alpha   90.00000000
_cell_angle_beta   90.00000000
_cell_angle_gamma   119.99999851
_symmetry_Int_Tables_number   1
_chemical_formula_structural   Y8Zn2CoSi12Pd
_chemical_formula_sum   'Y8 Zn2 Co1 Si12 Pd1'
_cell_volume   458.17597766
_cell_formula_units_Z   1
loop_
 _symmetry_equiv_pos_site_id
 _symmetry_equiv_pos_as_xyz
  1  'x, y, z'
loop_
 _atom_site_type_symbol
 _atom_site_label
 _atom_site_symmetry_multiplicity
 _atom_site_fract_x
 _atom_site_fract_y
 _atom_site_fract_z
 _atom_site_occupancy
  Y  Y0  1  0.497488  0.994977  0.246246  1
  Y  Y1  1  0.497118  0.994235  0.753089  1
  Y  Y2  1  0.005023  0.502512  0.246246  1
  Y  Y3  1  0.005765  0.502882  0.753089  1
  Y  Y4  1  0.497488  0.502512  0.246246  1
  Y  Y5  1  0.497118  0.502882  0.753089  1
  Y  Y6  1  0.000000  0.000000  0.249772  1
  Y  Y7  1  0.000000  0.000000  0.751150  1
  Zn  Zn8  1  0.666667  0.333333  0.996738  1
  Zn  Zn9  1  0.666667  0.333333  0.499281  1
  Co  Co10  1  0.333333  0.666667  0.003485  1
  Si  Si11  1  0.175332  0.350664  0.998659  1
  Si  Si12  1  0.836961  0.673923  0.001638  1
  Si  Si13  1  0.649336  0.824668  0.998659  1
  Si  Si14  1  0.834947  0.669893  0.501658  1
  Si  Si15  1  0.326077  0.163039  0.001638  1
  Si  Si16  1  0.167067  0.334134  0.498567  1
  Si  Si17  1  0.175332  0.824668  0.998659  1
  Si  Si18  1  0.330107  0.165053  0.501658  1
  Si  Si19  1  0.836961  0.163039  0.001638  1
  Si  Si20  1  0.665866  0.832933  0.498567  1
  Si  Si21  1  0.834947  0.165053  0.501658  1
  Si  Si22  1  0.167067  0.832933  0.498567  1
  Pd  Pd23  1  0.333333  0.666667  0.500004  1
