# generated using pymatgen
data_Y12Ho4Cd4Ir3Rh
_symmetry_space_group_name_H-M   'P 1'
_cell_length_a   9.66029989
_cell_length_b   9.66029905
_cell_length_c   9.66029947
_cell_angle_alpha   59.90037763
_cell_angle_beta   59.90038286
_cell_angle_gamma   59.90037910
_symmetry_Int_Tables_number   1
_chemical_formula_structural   Y12Ho4Cd4Ir3Rh
_chemical_formula_sum   'Y12 Ho4 Cd4 Ir3 Rh1'
_cell_volume   636.02492315
_cell_formula_units_Z   1
loop_
 _symmetry_equiv_pos_site_id
 _symmetry_equiv_pos_as_xyz
  1  'x, y, z'
loop_
 _atom_site_type_symbol
 _atom_site_label
 _atom_site_symmetry_multiplicity
 _atom_site_fract_x
 _atom_site_fract_y
 _atom_site_fract_z
 _atom_site_occupancy
  Y  Y0  1  0.808533  0.189912  0.189912  1
  Y  Y1  1  0.188903  0.810087  0.810087  1
  Y  Y2  1  0.189912  0.808533  0.189912  1
  Y  Y3  1  0.810087  0.188903  0.810087  1
  Y  Y4  1  0.189912  0.189912  0.808533  1
  Y  Y5  1  0.810087  0.810087  0.188903  1
  Y  Y6  1  0.939351  0.561777  0.561777  1
  Y  Y7  1  0.563134  0.937603  0.937603  1
  Y  Y8  1  0.561777  0.939351  0.561777  1
  Y  Y9  1  0.937603  0.563134  0.937603  1
  Y  Y10  1  0.561777  0.561777  0.939351  1
  Y  Y11  1  0.937603  0.937603  0.563134  1
  Ho  Ho12  1  0.348127  0.348127  0.348127  1
  Ho  Ho13  1  0.349644  0.349644  0.953438  1
  Ho  Ho14  1  0.349644  0.953438  0.349644  1
  Ho  Ho15  1  0.953438  0.349644  0.349644  1
  Cd  Cd16  1  0.580231  0.580231  0.580231  1
  Cd  Cd17  1  0.580647  0.580647  0.257675  1
  Cd  Cd18  1  0.580647  0.257675  0.580647  1
  Cd  Cd19  1  0.257675  0.580647  0.580647  1
  Ir  Ir20  1  0.143186  0.143186  0.572008  1
  Ir  Ir21  1  0.143186  0.572008  0.143186  1
  Ir  Ir22  1  0.572008  0.143186  0.143186  1
  Rh  Rh23  1  0.142886  0.142886  0.142886  1
