# generated using pymatgen
data_ErPa3Ge4(IrPt)2
_symmetry_space_group_name_H-M   'P 1'
_cell_length_a   4.36002000
_cell_length_b   7.00428267
_cell_length_c   7.66329472
_cell_angle_alpha   90.32601273
_cell_angle_beta   90.00000000
_cell_angle_gamma   90.00000000
_symmetry_Int_Tables_number   1
_chemical_formula_structural   ErPa3Ge4(IrPt)2
_chemical_formula_sum   'Er1 Pa3 Ge4 Ir2 Pt2'
_cell_volume   234.02413229
_cell_formula_units_Z   1
loop_
 _symmetry_equiv_pos_site_id
 _symmetry_equiv_pos_as_xyz
  1  'x, y, z'
loop_
 _atom_site_type_symbol
 _atom_site_label
 _atom_site_symmetry_multiplicity
 _atom_site_fract_x
 _atom_site_fract_y
 _atom_site_fract_z
 _atom_site_occupancy
  Er  Er0  1  0.250000  0.992793  0.294781  1
  Pa  Pa1  1  0.250000  0.497290  0.198948  1
  Pa  Pa2  1  0.750000  0.502534  0.801403  1
  Pa  Pa3  1  0.750000  0.006618  0.709886  1
  Ge  Ge4  1  0.250000  0.823462  0.917803  1
  Ge  Ge5  1  0.750000  0.181305  0.089505  1
  Ge  Ge6  1  0.750000  0.692855  0.408965  1
  Ge  Ge7  1  0.250000  0.310724  0.584817  1
  Ir  Ir8  1  0.750000  0.767686  0.077647  1
  Ir  Ir9  1  0.250000  0.229385  0.911606  1
  Pt  Pt10  1  0.250000  0.714302  0.589341  1
  Pt  Pt11  1  0.750000  0.281045  0.415296  1
