# generated using pymatgen
data_Ac2B4Os3Rh
_symmetry_space_group_name_H-M   'P 1'
_cell_length_a   7.01212252
_cell_length_b   6.14386384
_cell_length_c   5.72070400
_cell_angle_alpha   72.35834065
_cell_angle_beta   56.61283416
_cell_angle_gamma   51.37975091
_symmetry_Int_Tables_number   1
_chemical_formula_structural   Ac2B4Os3Rh
_chemical_formula_sum   'Ac2 B4 Os3 Rh1'
_cell_volume   160.47048418
_cell_formula_units_Z   1
loop_
 _symmetry_equiv_pos_site_id
 _symmetry_equiv_pos_as_xyz
  1  'x, y, z'
loop_
 _atom_site_type_symbol
 _atom_site_label
 _atom_site_symmetry_multiplicity
 _atom_site_fract_x
 _atom_site_fract_y
 _atom_site_fract_z
 _atom_site_occupancy
  Ac  Ac0  1  0.997516  0.997516  0.002484  1
  Ac  Ac1  1  0.252769  0.252769  0.247231  1
  B  B2  1  0.669928  0.334085  0.673921  1
  B  B3  1  0.334085  0.669928  0.322065  1
  B  B4  1  0.933572  0.557951  0.927628  1
  B  B5  1  0.557951  0.933572  0.580848  1
  Os  Os6  1  0.616066  0.616066  0.883934  1
  Os  Os7  1  0.637114  0.637114  0.362885  1
  Os  Os8  1  0.364906  0.364907  0.635093  1
  Rh  Rh9  1  0.886093  0.886092  0.613907  1
