# generated using pymatgen
data_Sm8Y(IO8)3
_symmetry_space_group_name_H-M   'P 1'
_cell_length_a   5.60085874
_cell_length_b   7.86427628
_cell_length_c   11.88937700
_cell_angle_alpha   76.15713648
_cell_angle_beta   90.12691126
_cell_angle_gamma   89.81209639
_symmetry_Int_Tables_number   1
_chemical_formula_structural   Sm8Y(IO8)3
_chemical_formula_sum   'Sm8 Y1 I3 O24'
_cell_volume   508.47244703
_cell_formula_units_Z   1
loop_
 _symmetry_equiv_pos_site_id
 _symmetry_equiv_pos_as_xyz
  1  'x, y, z'
loop_
 _atom_site_type_symbol
 _atom_site_label
 _atom_site_symmetry_multiplicity
 _atom_site_fract_x
 _atom_site_fract_y
 _atom_site_fract_z
 _atom_site_occupancy
  Sm  Sm0  1  0.740028  0.972481  0.757169  1
  Sm  Sm1  1  0.258656  0.001287  0.257628  1
  Sm  Sm2  1  0.193201  0.780390  0.589329  1
  Sm  Sm3  1  0.801425  0.807508  0.066615  1
  Sm  Sm4  1  0.681354  0.508336  0.745156  1
  Sm  Sm5  1  0.300765  0.510414  0.245451  1
  Sm  Sm6  1  0.231202  0.181481  0.923154  1
  Sm  Sm7  1  0.801444  0.220663  0.426321  1
  Y  Y8  1  0.255091  0.703896  0.894817  1
  I  I9  1  0.745260  0.734946  0.383052  1
  I  I10  1  0.245295  0.269407  0.609953  1
  I  I11  1  0.754970  0.274955  0.120627  1
  O  O12  1  0.006817  0.949197  0.902363  1
  O  O13  1  0.526027  0.891093  0.927542  1
  O  O14  1  0.925464  0.948684  0.393391  1
  O  O15  1  0.479148  0.770777  0.718648  1
  O  O16  1  0.467903  0.838533  0.432703  1
  O  O17  1  0.967677  0.712698  0.754930  1
  O  O18  1  0.566647  0.807836  0.235336  1
  O  O19  1  0.853509  0.640848  0.532617  1
  O  O20  1  0.399991  0.448000  0.878640  1
  O  O21  1  0.018982  0.713882  0.290685  1
  O  O22  1  0.373680  0.489791  0.606553  1
  O  O23  1  0.899063  0.355864  0.976292  1
  O  O24  1  0.152204  0.658471  0.082122  1
  O  O25  1  0.632274  0.511848  0.377204  1
  O  O26  1  0.977535  0.302465  0.703558  1
  O  O27  1  0.627570  0.499722  0.111013  1
  O  O28  1  0.140931  0.363564  0.453928  1
  O  O29  1  0.413413  0.179149  0.750821  1
  O  O30  1  0.011606  0.298144  0.230731  1
  O  O31  1  0.506135  0.160945  0.552375  1
  O  O32  1  0.559486  0.213571  0.268382  1
  O  O33  1  0.057037  0.064789  0.597089  1
  O  O34  1  0.488877  0.154403  0.077590  1
  O  O35  1  0.939335  0.059962  0.126211  1
