# generated using pymatgen
data_Er2Lu6Tc(B8Os)3
_symmetry_space_group_name_H-M   'P 1'
_cell_length_a   3.60976400
_cell_length_b   9.04721781
_cell_length_c   11.42340612
_cell_angle_alpha   89.96317796
_cell_angle_beta   90.00000000
_cell_angle_gamma   90.00000000
_symmetry_Int_Tables_number   1
_chemical_formula_structural   Er2Lu6Tc(B8Os)3
_chemical_formula_sum   'Er2 Lu6 Tc1 B24 Os3'
_cell_volume   373.06918878
_cell_formula_units_Z   1
loop_
 _symmetry_equiv_pos_site_id
 _symmetry_equiv_pos_as_xyz
  1  'x, y, z'
loop_
 _atom_site_type_symbol
 _atom_site_label
 _atom_site_symmetry_multiplicity
 _atom_site_fract_x
 _atom_site_fract_y
 _atom_site_fract_z
 _atom_site_occupancy
  Er  Er0  1  0.000000  0.323100  0.412966  1
  Er  Er1  1  0.000000  0.678193  0.583520  1
  Lu  Lu2  1  0.000000  0.818894  0.088068  1
  Lu  Lu3  1  0.000000  0.178739  0.915141  1
  Lu  Lu4  1  0.000000  0.942795  0.372412  1
  Lu  Lu5  1  0.000000  0.056737  0.627453  1
  Lu  Lu6  1  0.000000  0.444676  0.127763  1
  Lu  Lu7  1  0.000000  0.556562  0.872792  1
  Tc  Tc8  1  0.000000  0.638160  0.320424  1
  B  B9  1  0.500000  0.553043  0.433193  1
  B  B10  1  0.500000  0.446415  0.567152  1
  B  B11  1  0.500000  0.053258  0.066119  1
  B  B12  1  0.500000  0.946697  0.934087  1
  B  B13  1  0.500000  0.749642  0.419274  1
  B  B14  1  0.500000  0.250584  0.580579  1
  B  B15  1  0.500000  0.249354  0.079572  1
  B  B16  1  0.500000  0.750772  0.920380  1
  B  B17  1  0.500000  0.792457  0.265032  1
  B  B18  1  0.500000  0.207814  0.734945  1
  B  B19  1  0.500000  0.291569  0.233327  1
  B  B20  1  0.500000  0.708711  0.766069  1
  B  B21  1  0.500000  0.630946  0.184341  1
  B  B22  1  0.500000  0.368846  0.816139  1
  B  B23  1  0.500000  0.130380  0.314650  1
  B  B24  1  0.500000  0.869902  0.684833  1
  B  B25  1  0.500000  0.981265  0.212494  1
  B  B26  1  0.500000  0.018717  0.787758  1
  B  B27  1  0.500000  0.481393  0.286559  1
  B  B28  1  0.500000  0.517892  0.713533  1
  B  B29  1  0.500000  0.605067  0.028653  1
  B  B30  1  0.500000  0.394722  0.970791  1
  B  B31  1  0.500000  0.104445  0.471181  1
  B  B32  1  0.500000  0.896703  0.529079  1
  Os  Os33  1  0.000000  0.361418  0.680310  1
  Os  Os34  1  0.000000  0.137200  0.177842  1
  Os  Os35  1  0.000000  0.862926  0.821563  1
