# generated using pymatgen
data_TbHo3(CuPt)2
_symmetry_space_group_name_H-M   'P 1'
_cell_length_a   4.44408200
_cell_length_b   5.51265221
_cell_length_c   7.11545560
_cell_angle_alpha   90.07630317
_cell_angle_beta   90.00000000
_cell_angle_gamma   90.00000000
_symmetry_Int_Tables_number   1
_chemical_formula_structural   TbHo3(CuPt)2
_chemical_formula_sum   'Tb1 Ho3 Cu2 Pt2'
_cell_volume   174.31910408
_cell_formula_units_Z   1
loop_
 _symmetry_equiv_pos_site_id
 _symmetry_equiv_pos_as_xyz
  1  'x, y, z'
loop_
 _atom_site_type_symbol
 _atom_site_label
 _atom_site_symmetry_multiplicity
 _atom_site_fract_x
 _atom_site_fract_y
 _atom_site_fract_z
 _atom_site_occupancy
  Tb  Tb0  1  0.000000  0.885037  0.184129  1
  Ho  Ho1  1  0.000000  0.115274  0.683903  1
  Ho  Ho2  1  0.500000  0.393997  0.316330  1
  Ho  Ho3  1  0.500000  0.605348  0.815833  1
  Cu  Cu4  1  0.500000  0.892600  0.465709  1
  Cu  Cu5  1  0.500000  0.108802  0.961493  1
  Pt  Pt6  1  0.000000  0.612535  0.537142  1
  Pt  Pt7  1  0.000000  0.386407  0.035463  1
