# generated using pymatgen
data_PrY3CoAg
_symmetry_space_group_name_H-M   'P 1'
_cell_length_a   9.55401948
_cell_length_b   9.55401977
_cell_length_c   9.55402100
_cell_angle_alpha   60.00000613
_cell_angle_beta   60.00000511
_cell_angle_gamma   60.00000443
_symmetry_Int_Tables_number   1
_chemical_formula_structural   PrY3CoAg
_chemical_formula_sum   'Pr4 Y12 Co4 Ag4'
_cell_volume   616.65676901
_cell_formula_units_Z   4
loop_
 _symmetry_equiv_pos_site_id
 _symmetry_equiv_pos_as_xyz
  1  'x, y, z'
loop_
 _atom_site_type_symbol
 _atom_site_label
 _atom_site_symmetry_multiplicity
 _atom_site_fract_x
 _atom_site_fract_y
 _atom_site_fract_z
 _atom_site_occupancy
  Pr  Pr0  1  0.351380  0.351380  0.351380  1
  Pr  Pr1  1  0.351380  0.351380  0.945859  1
  Pr  Pr2  1  0.351380  0.945859  0.351380  1
  Pr  Pr3  1  0.945859  0.351380  0.351380  1
  Y  Y4  1  0.813907  0.186093  0.186093  1
  Y  Y5  1  0.186093  0.813907  0.813907  1
  Y  Y6  1  0.186093  0.813907  0.186093  1
  Y  Y7  1  0.813907  0.186093  0.813907  1
  Y  Y8  1  0.186093  0.186093  0.813907  1
  Y  Y9  1  0.813907  0.813907  0.186093  1
  Y  Y10  1  0.935884  0.564116  0.564116  1
  Y  Y11  1  0.564116  0.935884  0.935884  1
  Y  Y12  1  0.564116  0.935884  0.564116  1
  Y  Y13  1  0.935884  0.564116  0.935884  1
  Y  Y14  1  0.564116  0.564116  0.935884  1
  Y  Y15  1  0.935884  0.935884  0.564116  1
  Co  Co16  1  0.140183  0.140183  0.140183  1
  Co  Co17  1  0.140183  0.140183  0.579450  1
  Co  Co18  1  0.140183  0.579450  0.140183  1
  Co  Co19  1  0.579450  0.140183  0.140183  1
  Ag  Ag20  1  0.581848  0.581848  0.581848  1
  Ag  Ag21  1  0.581848  0.581848  0.254456  1
  Ag  Ag22  1  0.581848  0.254456  0.581848  1
  Ag  Ag23  1  0.254456  0.581848  0.581848  1
