# generated using pymatgen
data_TbTh3(InCu2)2
_symmetry_space_group_name_H-M   'P 1'
_cell_length_a   7.79759200
_cell_length_b   7.79759213
_cell_length_c   3.79098000
_cell_angle_alpha   90.00000000
_cell_angle_beta   90.00000000
_cell_angle_gamma   91.24781293
_symmetry_Int_Tables_number   1
_chemical_formula_structural   TbTh3(InCu2)2
_chemical_formula_sum   'Tb1 Th3 In2 Cu4'
_cell_volume   230.44618038
_cell_formula_units_Z   1
loop_
 _symmetry_equiv_pos_site_id
 _symmetry_equiv_pos_as_xyz
  1  'x, y, z'
loop_
 _atom_site_type_symbol
 _atom_site_label
 _atom_site_symmetry_multiplicity
 _atom_site_fract_x
 _atom_site_fract_y
 _atom_site_fract_z
 _atom_site_occupancy
  Tb  Tb0  1  0.821873  0.678127  0.500000  1
  Th  Th1  1  0.679254  0.177857  0.500000  1
  Th  Th2  1  0.322143  0.820746  0.500000  1
  Th  Th3  1  0.177305  0.322695  0.500000  1
  In  In4  1  0.505896  0.504148  0.000000  1
  In  In5  1  0.995852  0.994104  0.000000  1
  Cu  Cu6  1  0.113824  0.619644  0.000000  1
  Cu  Cu7  1  0.880356  0.386176  0.000000  1
  Cu  Cu8  1  0.620394  0.879606  0.000000  1
  Cu  Cu9  1  0.383102  0.116898  0.000000  1
