# generated using pymatgen
data_Tm2Mn2Fe2Co8P7
_symmetry_space_group_name_H-M   'P 1'
_cell_length_a   9.01872511
_cell_length_b   9.01326959
_cell_length_c   3.59489900
_cell_angle_alpha   90.00000000
_cell_angle_beta   90.00000000
_cell_angle_gamma   119.96558125
_symmetry_Int_Tables_number   1
_chemical_formula_structural   Tm2Mn2Fe2Co8P7
_chemical_formula_sum   'Tm2 Mn2 Fe2 Co8 P7'
_cell_volume   253.16015682
_cell_formula_units_Z   1
loop_
 _symmetry_equiv_pos_site_id
 _symmetry_equiv_pos_as_xyz
  1  'x, y, z'
loop_
 _atom_site_type_symbol
 _atom_site_label
 _atom_site_symmetry_multiplicity
 _atom_site_fract_x
 _atom_site_fract_y
 _atom_site_fract_z
 _atom_site_occupancy
  Tm  Tm0  1  0.331888  0.667152  0.000000  1
  Tm  Tm1  1  0.999782  0.999731  0.500000  1
  Mn  Mn2  1  0.768399  0.213851  0.500000  1
  Mn  Mn3  1  0.443578  0.233047  0.500000  1
  Fe  Fe4  1  0.546807  0.490500  0.000000  1
  Fe  Fe5  1  0.791917  0.556414  0.500000  1
  Co  Co6  1  0.727906  0.961615  0.000000  1
  Co  Co7  1  0.235228  0.271205  0.000000  1
  Co  Co8  1  0.037137  0.764835  0.000000  1
  Co  Co9  1  0.942148  0.451037  0.000000  1
  Co  Co10  1  0.508390  0.057938  0.000000  1
  Co  Co11  1  0.105374  0.385371  0.500000  1
  Co  Co12  1  0.280402  0.895224  0.500000  1
  Co  Co13  1  0.616701  0.719148  0.500000  1
  P  P14  1  0.966504  0.220311  0.000000  1
  P  P15  1  0.253724  0.032955  0.000000  1
  P  P16  1  0.779822  0.742515  0.000000  1
  P  P17  1  0.067933  0.621734  0.500000  1
  P  P18  1  0.549658  0.925776  0.500000  1
  P  P19  1  0.379474  0.453532  0.500000  1
  P  P20  1  0.667231  0.336106  0.000000  1
