# generated using pymatgen
data_Nd3Hf3Sn6(IrRh2)2
_symmetry_space_group_name_H-M   'P 1'
_cell_length_a   7.50586800
_cell_length_b   7.50586905
_cell_length_c   7.71799000
_cell_angle_alpha   90.00000000
_cell_angle_beta   90.00000000
_cell_angle_gamma   120.00000419
_symmetry_Int_Tables_number   1
_chemical_formula_structural   Nd3Hf3Sn6(IrRh2)2
_chemical_formula_sum   'Nd3 Hf3 Sn6 Ir2 Rh4'
_cell_volume   376.56220702
_cell_formula_units_Z   1
loop_
 _symmetry_equiv_pos_site_id
 _symmetry_equiv_pos_as_xyz
  1  'x, y, z'
loop_
 _atom_site_type_symbol
 _atom_site_label
 _atom_site_symmetry_multiplicity
 _atom_site_fract_x
 _atom_site_fract_y
 _atom_site_fract_z
 _atom_site_occupancy
  Nd  Nd0  1  0.000005  0.409003  0.749374  1
  Nd  Nd1  1  0.590997  0.591002  0.749374  1
  Nd  Nd2  1  0.408998  0.999995  0.749374  1
  Hf  Hf3  1  0.999276  0.394147  0.250696  1
  Hf  Hf4  1  0.605853  0.605130  0.250696  1
  Hf  Hf5  1  0.394870  0.000724  0.250696  1
  Sn  Sn6  1  0.263763  0.264297  0.487497  1
  Sn  Sn7  1  0.000534  0.736237  0.487497  1
  Sn  Sn8  1  0.000514  0.735770  0.012319  1
  Sn  Sn9  1  0.735703  0.999466  0.487497  1
  Sn  Sn10  1  0.735255  0.999486  0.012319  1
  Sn  Sn11  1  0.264230  0.264745  0.012319  1
  Ir  Ir12  1  0.333333  0.666667  0.451200  1
  Ir  Ir13  1  0.666667  0.333333  0.452576  1
  Rh  Rh14  1  0.333333  0.666667  0.048821  1
  Rh  Rh15  1  0.000000  0.000000  0.749721  1
  Rh  Rh16  1  0.000000  0.000000  0.250600  1
  Rh  Rh17  1  0.666667  0.333333  0.047426  1
