# generated using pymatgen
data_K8Ba4SiSnP8
_symmetry_space_group_name_H-M   'P 1'
_cell_length_a   10.25274828
_cell_length_b   10.25345905
_cell_length_c   7.87409313
_cell_angle_alpha   89.06593889
_cell_angle_beta   88.67019700
_cell_angle_gamma   119.59943082
_symmetry_Int_Tables_number   1
_chemical_formula_structural   K8Ba4SiSnP8
_chemical_formula_sum   'K8 Ba4 Si1 Sn1 P8'
_cell_volume   719.18748579
_cell_formula_units_Z   1
loop_
 _symmetry_equiv_pos_site_id
 _symmetry_equiv_pos_as_xyz
  1  'x, y, z'
loop_
 _atom_site_type_symbol
 _atom_site_label
 _atom_site_symmetry_multiplicity
 _atom_site_fract_x
 _atom_site_fract_y
 _atom_site_fract_z
 _atom_site_occupancy
  K  K0  1  0.046519  0.522105  0.615060  1
  K  K1  1  0.527591  0.057748  0.113384  1
  K  K2  1  0.277056  0.135299  0.815147  1
  K  K3  1  0.869392  0.722136  0.767357  1
  K  K4  1  0.859485  0.151358  0.792312  1
  K  K5  1  0.722649  0.868433  0.277206  1
  K  K6  1  0.134797  0.278447  0.325935  1
  K  K7  1  0.149091  0.857478  0.301504  1
  Ba  Ba8  1  0.474378  0.951324  0.616171  1
  Ba  Ba9  1  0.472230  0.521589  0.620450  1
  Ba  Ba10  1  0.937288  0.466117  0.108936  1
  Ba  Ba11  1  0.525599  0.463659  0.115055  1
  Si  Si12  1  0.667412  0.336330  0.501131  1
  Sn  Sn13  1  0.336473  0.669347  0.005503  1
  P  P14  1  0.662204  0.342570  0.802133  1
  P  P15  1  0.347978  0.666036  0.333086  1
  P  P16  1  0.610264  0.799578  0.882690  1
  P  P17  1  0.197543  0.389077  0.921677  1
  P  P18  1  0.192392  0.798775  0.904946  1
  P  P19  1  0.414537  0.210281  0.419527  1
  P  P20  1  0.786674  0.583436  0.390794  1
  P  P21  1  0.788451  0.208881  0.407491  1
