# generated using pymatgen
data_Ti3Cr2P3Ru
_symmetry_space_group_name_H-M   'P 1'
_cell_length_a   6.39097112
_cell_length_b   6.39097059
_cell_length_c   3.34645300
_cell_angle_alpha   90.00000000
_cell_angle_beta   90.00000000
_cell_angle_gamma   119.90676379
_symmetry_Int_Tables_number   1
_chemical_formula_structural   Ti3Cr2P3Ru
_chemical_formula_sum   'Ti3 Cr2 P3 Ru1'
_cell_volume   118.48306850
_cell_formula_units_Z   1
loop_
 _symmetry_equiv_pos_site_id
 _symmetry_equiv_pos_as_xyz
  1  'x, y, z'
loop_
 _atom_site_type_symbol
 _atom_site_label
 _atom_site_symmetry_multiplicity
 _atom_site_fract_x
 _atom_site_fract_y
 _atom_site_fract_z
 _atom_site_occupancy
  Ti  Ti0  1  0.400239  0.400239  0.500000  1
  Ti  Ti1  1  0.590763  0.005394  0.500000  1
  Ti  Ti2  1  0.005394  0.590763  0.500000  1
  Cr  Cr3  1  0.000263  0.252244  0.000000  1
  Cr  Cr4  1  0.252244  0.000263  0.000000  1
  P  P5  1  0.004382  0.004382  0.500000  1
  P  P6  1  0.665790  0.330546  0.000000  1
  P  P7  1  0.330546  0.665790  0.000000  1
  Ru  Ru8  1  0.750377  0.750377  0.000000  1
