# generated using pymatgen
data_Pr10SmIn9Pd4
_symmetry_space_group_name_H-M   'P 1'
_cell_length_a   13.58488160
_cell_length_b   13.58488197
_cell_length_c   3.82675100
_cell_angle_alpha   90.00000000
_cell_angle_beta   90.00000000
_cell_angle_gamma   111.51517551
_symmetry_Int_Tables_number   1
_chemical_formula_structural   Pr10SmIn9Pd4
_chemical_formula_sum   'Pr10 Sm1 In9 Pd4'
_cell_volume   657.01382012
_cell_formula_units_Z   1
loop_
 _symmetry_equiv_pos_site_id
 _symmetry_equiv_pos_as_xyz
  1  'x, y, z'
loop_
 _atom_site_type_symbol
 _atom_site_label
 _atom_site_symmetry_multiplicity
 _atom_site_fract_x
 _atom_site_fract_y
 _atom_site_fract_z
 _atom_site_occupancy
  Pr  Pr0  1  0.417179  0.068389  0.000000  1
  Pr  Pr1  1  0.583496  0.930021  0.000000  1
  Pr  Pr2  1  0.068389  0.417179  0.000000  1
  Pr  Pr3  1  0.930021  0.583496  0.000000  1
  Pr  Pr4  1  0.158883  0.839919  0.000000  1
  Pr  Pr5  1  0.839919  0.158883  0.000000  1
  Pr  Pr6  1  0.371093  0.629813  0.000000  1
  Pr  Pr7  1  0.629813  0.371093  0.000000  1
  Pr  Pr8  1  0.308737  0.308737  0.000000  1
  Pr  Pr9  1  0.999905  0.999905  0.000000  1
  Sm  Sm10  1  0.691465  0.691465  0.000000  1
  In  In11  1  0.367722  0.838704  0.500000  1
  In  In12  1  0.632524  0.161230  0.500000  1
  In  In13  1  0.838704  0.367722  0.500000  1
  In  In14  1  0.161230  0.632524  0.500000  1
  In  In15  1  0.219452  0.076649  0.500000  1
  In  In16  1  0.779808  0.920515  0.500000  1
  In  In17  1  0.076649  0.219452  0.500000  1
  In  In18  1  0.920515  0.779808  0.500000  1
  In  In19  1  0.502191  0.502191  0.500000  1
  Pd  Pd20  1  0.450166  0.247812  0.500000  1
  Pd  Pd21  1  0.553705  0.750625  0.500000  1
  Pd  Pd22  1  0.247812  0.450166  0.500000  1
  Pd  Pd23  1  0.750625  0.553705  0.500000  1
