# generated using pymatgen
data_Ho3TmV2Pt2F28
_symmetry_space_group_name_H-M   'P 1'
_cell_length_a   5.51693312
_cell_length_b   8.81805956
_cell_length_c   11.82283462
_cell_angle_alpha   63.02104608
_cell_angle_beta   90.02125397
_cell_angle_gamma   90.00021590
_symmetry_Int_Tables_number   1
_chemical_formula_structural   Ho3TmV2Pt2F28
_chemical_formula_sum   'Ho3 Tm1 V2 Pt2 F28'
_cell_volume   512.57149928
_cell_formula_units_Z   1
loop_
 _symmetry_equiv_pos_site_id
 _symmetry_equiv_pos_as_xyz
  1  'x, y, z'
loop_
 _atom_site_type_symbol
 _atom_site_label
 _atom_site_symmetry_multiplicity
 _atom_site_fract_x
 _atom_site_fract_y
 _atom_site_fract_z
 _atom_site_occupancy
  Ho  Ho0  1  0.257894  0.186518  0.735377  1
  Ho  Ho1  1  0.240278  0.191320  0.227101  1
  Ho  Ho2  1  0.740087  0.808453  0.272921  1
  Tm  Tm3  1  0.758397  0.812085  0.764487  1
  V  V4  1  0.754427  0.277393  0.952787  1
  V  V5  1  0.255263  0.724108  0.547807  1
  Pt  Pt6  1  0.243036  0.730648  0.042498  1
  Pt  Pt7  1  0.743810  0.268680  0.457008  1
  F  F8  1  0.438570  0.700772  0.914924  1
  F  F9  1  0.936927  0.299282  0.584855  1
  F  F10  1  0.543231  0.292870  0.073318  1
  F  F11  1  0.042621  0.708231  0.427477  1
  F  F12  1  0.440723  0.281143  0.541267  1
  F  F13  1  0.940398  0.718814  0.956883  1
  F  F14  1  0.534409  0.715538  0.454329  1
  F  F15  1  0.035083  0.285182  0.045639  1
  F  F16  1  0.767585  0.511729  0.863096  1
  F  F17  1  0.268521  0.490185  0.636900  1
  F  F18  1  0.231515  0.481915  0.145083  1
  F  F19  1  0.732648  0.517606  0.354594  1
  F  F20  1  0.757292  0.046468  0.044235  1
  F  F21  1  0.258041  0.954778  0.455916  1
  F  F22  1  0.245043  0.980109  0.948889  1
  F  F23  1  0.745416  0.019023  0.551504  1
  F  F24  1  0.987858  0.726552  0.648543  1
  F  F25  1  0.486621  0.274464  0.852999  1
  F  F26  1  0.041785  0.264567  0.367219  1
  F  F27  1  0.539767  0.734858  0.133124  1
  F  F28  1  0.053125  0.754495  0.174833  1
  F  F29  1  0.555358  0.244768  0.324271  1
  F  F30  1  0.962345  0.259631  0.829613  1
  F  F31  1  0.465509  0.742141  0.670363  1
  F  F32  1  0.421955  0.972373  0.231340  1
  F  F33  1  0.922193  0.027432  0.268473  1
  F  F34  1  0.577958  0.024821  0.765789  1
  F  F35  1  0.074310  0.971045  0.734539  1
