# generated using pymatgen
data_Pr4As7IrRh7
_symmetry_space_group_name_H-M   'P 1'
_cell_length_a   4.12464000
_cell_length_b   13.26857670
_cell_length_c   13.63474086
_cell_angle_alpha   81.45120257
_cell_angle_beta   90.00000000
_cell_angle_gamma   90.00000000
_symmetry_Int_Tables_number   1
_chemical_formula_structural   Pr4As7IrRh7
_chemical_formula_sum   'Pr8 As14 Ir2 Rh14'
_cell_volume   737.91288615
_cell_formula_units_Z   2
loop_
 _symmetry_equiv_pos_site_id
 _symmetry_equiv_pos_as_xyz
  1  'x, y, z'
loop_
 _atom_site_type_symbol
 _atom_site_label
 _atom_site_symmetry_multiplicity
 _atom_site_fract_x
 _atom_site_fract_y
 _atom_site_fract_z
 _atom_site_occupancy
  Pr  Pr0  1  0.250000  0.101411  0.788025  1
  Pr  Pr1  1  0.750000  0.898589  0.211975  1
  Pr  Pr2  1  0.250000  0.280602  0.101864  1
  Pr  Pr3  1  0.750000  0.719398  0.898136  1
  Pr  Pr4  1  0.250000  0.518269  0.292530  1
  Pr  Pr5  1  0.750000  0.481731  0.707470  1
  Pr  Pr6  1  0.250000  0.208269  0.438065  1
  Pr  Pr7  1  0.750000  0.791731  0.561935  1
  As  As8  1  0.250000  0.051368  0.101895  1
  As  As9  1  0.750000  0.948632  0.898105  1
  As  As10  1  0.250000  0.313454  0.688620  1
  As  As11  1  0.750000  0.686546  0.311380  1
  As  As12  1  0.250000  0.607356  0.565205  1
  As  As13  1  0.750000  0.392644  0.434795  1
  As  As14  1  0.250000  0.846361  0.720103  1
  As  As15  1  0.750000  0.153639  0.279897  1
  As  As16  1  0.750000  0.257015  0.919492  1
  As  As17  1  0.250000  0.742985  0.080508  1
  As  As18  1  0.750000  0.094071  0.586768  1
  As  As19  1  0.250000  0.905929  0.413232  1
  As  As20  1  0.750000  0.471082  0.128189  1
  As  As21  1  0.250000  0.528918  0.871811  1
  Ir  Ir22  1  0.250000  0.344370  0.861165  1
  Ir  Ir23  1  0.750000  0.655630  0.138835  1
  Rh  Rh24  1  0.250000  0.988518  0.574024  1
  Rh  Rh25  1  0.750000  0.011482  0.425976  1
  Rh  Rh26  1  0.250000  0.664671  0.731786  1
  Rh  Rh27  1  0.750000  0.335329  0.268214  1
  Rh  Rh28  1  0.250000  0.553218  0.046486  1
  Rh  Rh29  1  0.750000  0.446782  0.953514  1
  Rh  Rh30  1  0.250000  0.055615  0.279399  1
  Rh  Rh31  1  0.750000  0.944385  0.720601  1
  Rh  Rh32  1  0.250000  0.426114  0.527202  1
  Rh  Rh33  1  0.750000  0.573886  0.472798  1
  Rh  Rh34  1  0.250000  0.918224  0.996050  1
  Rh  Rh35  1  0.750000  0.081776  0.003950  1
  Rh  Rh36  1  0.250000  0.722245  0.399662  1
  Rh  Rh37  1  0.750000  0.277755  0.600338  1
