# generated using pymatgen
data_DyErGa3Cu
_symmetry_space_group_name_H-M   'P 1'
_cell_length_a   4.36432000
_cell_length_b   4.36432001
_cell_length_c   7.18099000
_cell_angle_alpha   90.00000000
_cell_angle_beta   90.00000000
_cell_angle_gamma   119.99999994
_symmetry_Int_Tables_number   1
_chemical_formula_structural   DyErGa3Cu
_chemical_formula_sum   'Dy1 Er1 Ga3 Cu1'
_cell_volume   118.45356271
_cell_formula_units_Z   1
loop_
 _symmetry_equiv_pos_site_id
 _symmetry_equiv_pos_as_xyz
  1  'x, y, z'
loop_
 _atom_site_type_symbol
 _atom_site_label
 _atom_site_symmetry_multiplicity
 _atom_site_fract_x
 _atom_site_fract_y
 _atom_site_fract_z
 _atom_site_occupancy
  Dy  Dy0  1  0.333333  0.666667  0.260274  1
  Er  Er1  1  0.333333  0.666667  0.730355  1
  Ga  Ga2  1  0.666667  0.333333  0.481411  1
  Ga  Ga3  1  0.666667  0.333333  0.042067  1
  Ga  Ga4  1  0.000000  0.000000  0.948363  1
  Cu  Cu5  1  0.000000  0.000000  0.537530  1
