# generated using pymatgen
data_YEr3(CuPt)2
_symmetry_space_group_name_H-M   'P 1'
_cell_length_a   4.45883700
_cell_length_b   5.48234244
_cell_length_c   7.10808922
_cell_angle_alpha   90.29589366
_cell_angle_beta   90.00000000
_cell_angle_gamma   90.00000000
_symmetry_Int_Tables_number   1
_chemical_formula_structural   YEr3(CuPt)2
_chemical_formula_sum   'Y1 Er3 Cu2 Pt2'
_cell_volume   173.75400946
_cell_formula_units_Z   1
loop_
 _symmetry_equiv_pos_site_id
 _symmetry_equiv_pos_as_xyz
  1  'x, y, z'
loop_
 _atom_site_type_symbol
 _atom_site_label
 _atom_site_symmetry_multiplicity
 _atom_site_fract_x
 _atom_site_fract_y
 _atom_site_fract_z
 _atom_site_occupancy
  Y  Y0  1  0.500000  0.606458  0.816242  1
  Er  Er1  1  0.000000  0.116499  0.683699  1
  Er  Er2  1  0.000000  0.883907  0.184443  1
  Er  Er3  1  0.500000  0.394058  0.316268  1
  Cu  Cu4  1  0.500000  0.894037  0.462450  1
  Cu  Cu5  1  0.500000  0.107343  0.965374  1
  Pt  Pt6  1  0.000000  0.615005  0.532821  1
  Pt  Pt7  1  0.000000  0.382694  0.038707  1
