# generated using pymatgen
data_Er7TmTi11Si16Au
_symmetry_space_group_name_H-M   'P 1'
_cell_length_a   7.03863387
_cell_length_b   7.03871499
_cell_length_c   12.83541300
_cell_angle_alpha   90.12103274
_cell_angle_beta   89.87914548
_cell_angle_gamma   89.63520639
_symmetry_Int_Tables_number   1
_chemical_formula_structural   Er7TmTi11Si16Au
_chemical_formula_sum   'Er7 Tm1 Ti11 Si16 Au1'
_cell_volume   635.88832736
_cell_formula_units_Z   1
loop_
 _symmetry_equiv_pos_site_id
 _symmetry_equiv_pos_as_xyz
  1  'x, y, z'
loop_
 _atom_site_type_symbol
 _atom_site_label
 _atom_site_symmetry_multiplicity
 _atom_site_fract_x
 _atom_site_fract_y
 _atom_site_fract_z
 _atom_site_occupancy
  Er  Er0  1  0.497723  0.841073  0.716774  1
  Er  Er1  1  0.501065  0.157306  0.214473  1
  Er  Er2  1  0.841067  0.497715  0.283233  1
  Er  Er3  1  0.157314  0.501077  0.785539  1
  Er  Er4  1  0.656464  0.000877  0.968706  1
  Er  Er5  1  0.002017  0.341068  0.533243  1
  Er  Er6  1  0.000862  0.656462  0.031260  1
  Tm  Tm7  1  0.341095  0.001957  0.466754  1
  Ti  Ti8  1  0.174692  0.826197  0.249484  1
  Ti  Ti9  1  0.826190  0.174681  0.750525  1
  Ti  Ti10  1  0.672763  0.672801  0.499995  1
  Ti  Ti11  1  0.147449  0.007173  0.876787  1
  Ti  Ti12  1  0.495092  0.650851  0.122935  1
  Ti  Ti13  1  0.507059  0.350989  0.625418  1
  Ti  Ti14  1  0.650843  0.495089  0.877073  1
  Ti  Ti15  1  0.351003  0.507072  0.374572  1
  Ti  Ti16  1  0.850568  0.992133  0.374226  1
  Ti  Ti17  1  0.007183  0.147440  0.123217  1
  Ti  Ti18  1  0.992152  0.850562  0.625766  1
  Si  Si19  1  0.202185  0.133112  0.684091  1
  Si  Si20  1  0.373548  0.720088  0.928280  1
  Si  Si21  1  0.631729  0.293658  0.432127  1
  Si  Si22  1  0.720092  0.373544  0.071717  1
  Si  Si23  1  0.293701  0.631820  0.567858  1
  Si  Si24  1  0.797556  0.866573  0.182368  1
  Si  Si25  1  0.133155  0.202128  0.315922  1
  Si  Si26  1  0.866567  0.797547  0.817635  1
  Si  Si27  1  0.286466  0.938118  0.065789  1
  Si  Si28  1  0.546909  0.791614  0.314526  1
  Si  Si29  1  0.454438  0.207363  0.809838  1
  Si  Si30  1  0.791577  0.546951  0.685503  1
  Si  Si31  1  0.207363  0.454442  0.190164  1
  Si  Si32  1  0.708234  0.047840  0.564498  1
  Si  Si33  1  0.938115  0.286470  0.934215  1
  Si  Si34  1  0.047885  0.708327  0.435482  1
  Au  Au35  1  0.327879  0.327883  0.000010  1
