# generated using pymatgen
data_Ba2FeAs4Ir3
_symmetry_space_group_name_H-M   'P 1'
_cell_length_a   5.78604700
_cell_length_b   7.07578717
_cell_length_c   5.79038471
_cell_angle_alpha   65.67480504
_cell_angle_beta   89.99990133
_cell_angle_gamma   89.99995161
_symmetry_Int_Tables_number   1
_chemical_formula_structural   Ba2FeAs4Ir3
_chemical_formula_sum   'Ba2 Fe1 As4 Ir3'
_cell_volume   216.01725552
_cell_formula_units_Z   1
loop_
 _symmetry_equiv_pos_site_id
 _symmetry_equiv_pos_as_xyz
  1  'x, y, z'
loop_
 _atom_site_type_symbol
 _atom_site_label
 _atom_site_symmetry_multiplicity
 _atom_site_fract_x
 _atom_site_fract_y
 _atom_site_fract_z
 _atom_site_occupancy
  Ba  Ba0  1  0.993593  0.000001  0.999999  1
  Ba  Ba1  1  0.506325  0.999999  0.500001  1
  Fe  Fe2  1  0.249835  0.499999  0.499999  1
  As  As3  1  0.487862  0.707645  0.156675  1
  As  As4  1  0.012218  0.708750  0.632722  1
  As  As5  1  0.012221  0.291250  0.367277  1
  As  As6  1  0.487865  0.292357  0.843324  1
  Ir  Ir7  1  0.249341  0.500001  0.000001  1
  Ir  Ir8  1  0.750526  0.500001  0.000000  1
  Ir  Ir9  1  0.750214  0.499997  0.500000  1
