# generated using pymatgen
data_Er8Tm2Zn3Bi2Au
_symmetry_space_group_name_H-M   'P 1'
_cell_length_a   8.59790330
_cell_length_b   8.59790393
_cell_length_c   8.59762703
_cell_angle_alpha   124.08103367
_cell_angle_beta   124.08103228
_cell_angle_gamma   83.06787149
_symmetry_Int_Tables_number   1
_chemical_formula_structural   Er8Tm2Zn3Bi2Au
_chemical_formula_sum   'Er8 Tm2 Zn3 Bi2 Au1'
_cell_volume   418.32573603
_cell_formula_units_Z   1
loop_
 _symmetry_equiv_pos_site_id
 _symmetry_equiv_pos_as_xyz
  1  'x, y, z'
loop_
 _atom_site_type_symbol
 _atom_site_label
 _atom_site_symmetry_multiplicity
 _atom_site_fract_x
 _atom_site_fract_y
 _atom_site_fract_z
 _atom_site_occupancy
  Er  Er0  1  0.510185  0.011349  0.805777  1
  Er  Er1  1  0.204405  0.705570  0.194223  1
  Er  Er2  1  0.011520  0.205109  0.500000  1
  Er  Er3  1  0.705434  0.511303  0.500000  1
  Er  Er4  1  0.488651  0.989815  0.194223  1
  Er  Er5  1  0.794430  0.295595  0.805777  1
  Er  Er6  1  0.988697  0.794566  0.500000  1
  Er  Er7  1  0.294891  0.488480  0.500000  1
  Tm  Tm8  1  0.499591  0.499446  0.999037  1
  Tm  Tm9  1  0.000554  0.000409  0.000963  1
  Zn  Zn10  1  0.137957  0.639686  0.777643  1
  Zn  Zn11  1  0.860314  0.362043  0.222357  1
  Zn  Zn12  1  0.639943  0.860057  0.500000  1
  Bi  Bi13  1  0.249359  0.250641  0.000000  1
  Bi  Bi14  1  0.749359  0.750641  0.000000  1
  Au  Au15  1  0.364708  0.135292  0.500000  1
