# generated using pymatgen
data_BaV6InTe6
_symmetry_space_group_name_H-M   'P 1'
_cell_length_a   4.51226700
_cell_length_b   9.46558344
_cell_length_c   9.55638853
_cell_angle_alpha   119.41638851
_cell_angle_beta   90.00000000
_cell_angle_gamma   90.00000000
_symmetry_Int_Tables_number   1
_chemical_formula_structural   BaV6InTe6
_chemical_formula_sum   'Ba1 V6 In1 Te6'
_cell_volume   355.54183428
_cell_formula_units_Z   1
loop_
 _symmetry_equiv_pos_site_id
 _symmetry_equiv_pos_as_xyz
  1  'x, y, z'
loop_
 _atom_site_type_symbol
 _atom_site_label
 _atom_site_symmetry_multiplicity
 _atom_site_fract_x
 _atom_site_fract_y
 _atom_site_fract_z
 _atom_site_occupancy
  Ba  Ba0  1  0.750000  0.667962  0.327819  1
  V  V1  1  0.750000  0.962374  0.815226  1
  V  V2  1  0.750000  0.180507  0.155701  1
  V  V3  1  0.750000  0.890718  0.022149  1
  V  V4  1  0.250000  0.038499  0.184175  1
  V  V5  1  0.250000  0.818636  0.844401  1
  V  V6  1  0.250000  0.109706  0.979290  1
  In  In7  1  0.250000  0.325022  0.665730  1
  Te  Te8  1  0.750000  0.633537  0.698947  1
  Te  Te9  1  0.750000  0.289162  0.938160  1
  Te  Te10  1  0.750000  0.066358  0.368137  1
  Te  Te11  1  0.250000  0.367619  0.308007  1
  Te  Te12  1  0.250000  0.706714  0.057351  1
  Te  Te13  1  0.250000  0.943187  0.634908  1
