# generated using pymatgen
data_Ca12Cu12Si11Sb
_symmetry_space_group_name_H-M   'P 1'
_cell_length_a   4.30678500
_cell_length_b   7.40717802
_cell_length_c   21.30100780
_cell_angle_alpha   89.97263218
_cell_angle_beta   90.00000000
_cell_angle_gamma   90.00000000
_symmetry_Int_Tables_number   1
_chemical_formula_structural   Ca12Cu12Si11Sb
_chemical_formula_sum   'Ca12 Cu12 Si11 Sb1'
_cell_volume   679.52599599
_cell_formula_units_Z   1
loop_
 _symmetry_equiv_pos_site_id
 _symmetry_equiv_pos_as_xyz
  1  'x, y, z'
loop_
 _atom_site_type_symbol
 _atom_site_label
 _atom_site_symmetry_multiplicity
 _atom_site_fract_x
 _atom_site_fract_y
 _atom_site_fract_z
 _atom_site_occupancy
  Ca  Ca0  1  0.250000  0.716459  0.006684  1
  Ca  Ca1  1  0.750000  0.286898  0.003177  1
  Ca  Ca2  1  0.750000  0.211080  0.497090  1
  Ca  Ca3  1  0.250000  0.790653  0.501320  1
  Ca  Ca4  1  0.250000  0.797980  0.168536  1
  Ca  Ca5  1  0.750000  0.194726  0.828214  1
  Ca  Ca6  1  0.750000  0.298560  0.333857  1
  Ca  Ca7  1  0.250000  0.704864  0.663656  1
  Ca  Ca8  1  0.250000  0.700784  0.333486  1
  Ca  Ca9  1  0.750000  0.299671  0.664286  1
  Ca  Ca10  1  0.750000  0.202683  0.168856  1
  Ca  Ca11  1  0.250000  0.799853  0.829566  1
  Cu  Cu12  1  0.250000  0.413976  0.099642  1
  Cu  Cu13  1  0.750000  0.609305  0.904867  1
  Cu  Cu14  1  0.750000  0.912803  0.402033  1
  Cu  Cu15  1  0.250000  0.086914  0.597124  1
  Cu  Cu16  1  0.250000  0.413710  0.235165  1
  Cu  Cu17  1  0.750000  0.583325  0.762131  1
  Cu  Cu18  1  0.750000  0.913353  0.266235  1
  Cu  Cu19  1  0.250000  0.085066  0.730622  1
  Cu  Cu20  1  0.250000  0.420800  0.436337  1
  Cu  Cu21  1  0.750000  0.577909  0.559050  1
  Cu  Cu22  1  0.750000  0.920845  0.067871  1
  Cu  Cu23  1  0.250000  0.063627  0.944452  1
  Si  Si24  1  0.250000  0.091138  0.069710  1
  Si  Si25  1  0.750000  0.914194  0.931545  1
  Si  Si26  1  0.750000  0.592129  0.432541  1
  Si  Si27  1  0.250000  0.408544  0.568455  1
  Si  Si28  1  0.250000  0.079395  0.274670  1
  Si  Si29  1  0.750000  0.918207  0.723095  1
  Si  Si30  1  0.750000  0.579895  0.227139  1
  Si  Si31  1  0.250000  0.415140  0.764086  1
  Si  Si32  1  0.250000  0.083780  0.394664  1
  Si  Si33  1  0.750000  0.917814  0.603548  1
  Si  Si34  1  0.750000  0.583879  0.107295  1
  Sb  Sb35  1  0.250000  0.410043  0.898996  1
