# generated using pymatgen
data_YEr15Cd4(NiOs)2
_symmetry_space_group_name_H-M   'P 1'
_cell_length_a   9.52151868
_cell_length_b   9.52148664
_cell_length_c   9.61171100
_cell_angle_alpha   59.68613553
_cell_angle_beta   59.68580484
_cell_angle_gamma   59.37067041
_symmetry_Int_Tables_number   1
_chemical_formula_structural   YEr15Cd4(NiOs)2
_chemical_formula_sum   'Y1 Er15 Cd4 Ni2 Os2'
_cell_volume   610.28160168
_cell_formula_units_Z   1
loop_
 _symmetry_equiv_pos_site_id
 _symmetry_equiv_pos_as_xyz
  1  'x, y, z'
loop_
 _atom_site_type_symbol
 _atom_site_label
 _atom_site_symmetry_multiplicity
 _atom_site_fract_x
 _atom_site_fract_y
 _atom_site_fract_z
 _atom_site_occupancy
  Y  Y0  1  0.191208  0.191167  0.808829  1
  Er  Er1  1  0.600154  0.600081  0.592830  1
  Er  Er2  1  0.600151  0.600082  0.206930  1
  Er  Er3  1  0.602334  0.205822  0.595922  1
  Er  Er4  1  0.205837  0.602309  0.595922  1
  Er  Er5  1  0.060644  0.436719  0.439590  1
  Er  Er6  1  0.436726  0.060660  0.063039  1
  Er  Er7  1  0.436724  0.060664  0.439572  1
  Er  Er8  1  0.060638  0.436723  0.063051  1
  Er  Er9  1  0.438338  0.438297  0.061692  1
  Er  Er10  1  0.060442  0.060571  0.439493  1
  Er  Er11  1  0.188823  0.806243  0.816473  1
  Er  Er12  1  0.806258  0.188858  0.188452  1
  Er  Er13  1  0.806252  0.188862  0.816431  1
  Er  Er14  1  0.188817  0.806254  0.188457  1
  Er  Er15  1  0.815185  0.815161  0.184830  1
  Cd  Cd16  1  0.829455  0.829457  0.832522  1
  Cd  Cd17  1  0.829459  0.829459  0.508552  1
  Cd  Cd18  1  0.829651  0.506610  0.831869  1
  Cd  Cd19  1  0.506596  0.829653  0.831879  1
  Ni  Ni20  1  0.392228  0.826703  0.390529  1
  Ni  Ni21  1  0.826700  0.392237  0.390530  1
  Os  Os22  1  0.393689  0.393705  0.388398  1
  Os  Os23  1  0.393691  0.393703  0.824206  1
