# generated using pymatgen
data_TmTh4ZrRh10
_symmetry_space_group_name_H-M   'P 1'
_cell_length_a   5.93425587
_cell_length_b   5.93425614
_cell_length_c   9.01009600
_cell_angle_alpha   90.00000000
_cell_angle_beta   90.00000000
_cell_angle_gamma   103.20954292
_symmetry_Int_Tables_number   1
_chemical_formula_structural   TmTh4ZrRh10
_chemical_formula_sum   'Tm1 Th4 Zr1 Rh10'
_cell_volume   308.89875371
_cell_formula_units_Z   1
loop_
 _symmetry_equiv_pos_site_id
 _symmetry_equiv_pos_as_xyz
  1  'x, y, z'
loop_
 _atom_site_type_symbol
 _atom_site_label
 _atom_site_symmetry_multiplicity
 _atom_site_fract_x
 _atom_site_fract_y
 _atom_site_fract_z
 _atom_site_occupancy
  Tm  Tm0  1  0.595940  0.595940  0.750000  1
  Th  Th1  1  0.790113  0.205851  0.500654  1
  Th  Th2  1  0.205851  0.790113  0.999346  1
  Th  Th3  1  0.205851  0.790113  0.500654  1
  Th  Th4  1  0.790113  0.205851  0.999346  1
  Zr  Zr5  1  0.406594  0.406594  0.250000  1
  Rh  Rh6  1  0.694348  0.694348  0.052225  1
  Rh  Rh7  1  0.694348  0.694348  0.447775  1
  Rh  Rh8  1  0.294943  0.294943  0.966663  1
  Rh  Rh9  1  0.294943  0.294943  0.533337  1
  Rh  Rh10  1  0.493867  0.041125  0.750000  1
  Rh  Rh11  1  0.504761  0.978775  0.250000  1
  Rh  Rh12  1  0.011059  0.011059  0.250000  1
  Rh  Rh13  1  0.997370  0.997370  0.750000  1
  Rh  Rh14  1  0.041125  0.493867  0.750000  1
  Rh  Rh15  1  0.978775  0.504761  0.250000  1
