# generated using pymatgen
data_Tb2Ga5CoRh2
_symmetry_space_group_name_H-M   'P 1'
_cell_length_a   8.52458307
_cell_length_b   8.52458392
_cell_length_c   5.59926568
_cell_angle_alpha   70.87210443
_cell_angle_beta   70.87211093
_cell_angle_gamma   96.62391462
_symmetry_Int_Tables_number   1
_chemical_formula_structural   Tb2Ga5CoRh2
_chemical_formula_sum   'Tb4 Ga10 Co2 Rh4'
_cell_volume   351.71362480
_cell_formula_units_Z   2
loop_
 _symmetry_equiv_pos_site_id
 _symmetry_equiv_pos_as_xyz
  1  'x, y, z'
loop_
 _atom_site_type_symbol
 _atom_site_label
 _atom_site_symmetry_multiplicity
 _atom_site_fract_x
 _atom_site_fract_y
 _atom_site_fract_z
 _atom_site_occupancy
  Tb  Tb0  1  0.582367  0.867744  0.775461  1
  Tb  Tb1  1  0.132256  0.417633  0.724539  1
  Tb  Tb2  1  0.417633  0.132256  0.224539  1
  Tb  Tb3  1  0.867744  0.582367  0.275461  1
  Ga  Ga4  1  0.499891  0.500109  0.750000  1
  Ga  Ga5  1  0.500109  0.499891  0.250000  1
  Ga  Ga6  1  0.252451  0.092275  0.827075  1
  Ga  Ga7  1  0.907725  0.747549  0.672925  1
  Ga  Ga8  1  0.747549  0.907725  0.172925  1
  Ga  Ga9  1  0.092275  0.252451  0.327075  1
  Ga  Ga10  1  0.802067  0.197933  0.750000  1
  Ga  Ga11  1  0.197933  0.802067  0.250000  1
  Ga  Ga12  1  0.198170  0.801830  0.750000  1
  Ga  Ga13  1  0.801830  0.198170  0.250000  1
  Co  Co14  1  0.000001  0.999999  0.750000  1
  Co  Co15  1  0.999999  0.000001  0.250000  1
  Rh  Rh16  1  0.560176  0.257159  0.591670  1
  Rh  Rh17  1  0.742841  0.439824  0.908330  1
  Rh  Rh18  1  0.439824  0.742841  0.408330  1
  Rh  Rh19  1  0.257159  0.560176  0.091670  1
