# generated using pymatgen
data_Er8Ti9Si16Tc3
_symmetry_space_group_name_H-M   'P 1'
_cell_length_a   6.95354467
_cell_length_b   6.95354467
_cell_length_c   12.76291824
_cell_angle_alpha   90.07338465
_cell_angle_beta   89.92661535
_cell_angle_gamma   90.03064255
_symmetry_Int_Tables_number   1
_chemical_formula_structural   Er8Ti9Si16Tc3
_chemical_formula_sum   'Er8 Ti9 Si16 Tc3'
_cell_volume   617.10875954
_cell_formula_units_Z   1
loop_
 _symmetry_equiv_pos_site_id
 _symmetry_equiv_pos_as_xyz
  1  'x, y, z'
loop_
 _atom_site_type_symbol
 _atom_site_label
 _atom_site_symmetry_multiplicity
 _atom_site_fract_x
 _atom_site_fract_y
 _atom_site_fract_z
 _atom_site_occupancy
  Er  Er0  1  0.340428  0.001274  0.467316  1
  Er  Er1  1  0.499163  0.841520  0.719380  1
  Er  Er2  1  0.500215  0.158984  0.217698  1
  Er  Er3  1  0.841520  0.499163  0.280620  1
  Er  Er4  1  0.158984  0.500215  0.782302  1
  Er  Er5  1  0.659022  0.999461  0.968429  1
  Er  Er6  1  0.001274  0.340428  0.532684  1
  Er  Er7  1  0.999461  0.659022  0.031571  1
  Ti  Ti8  1  0.673632  0.673632  0.500000  1
  Ti  Ti9  1  0.151261  0.005492  0.876616  1
  Ti  Ti10  1  0.494426  0.652681  0.124111  1
  Ti  Ti11  1  0.505318  0.348267  0.626943  1
  Ti  Ti12  1  0.652681  0.494426  0.875889  1
  Ti  Ti13  1  0.348267  0.505318  0.373057  1
  Ti  Ti14  1  0.848113  0.992429  0.375481  1
  Ti  Ti15  1  0.005492  0.151261  0.123384  1
  Ti  Ti16  1  0.992429  0.848113  0.624519  1
  Si  Si17  1  0.201238  0.130143  0.683110  1
  Si  Si18  1  0.369466  0.701254  0.932444  1
  Si  Si19  1  0.631856  0.296649  0.433489  1
  Si  Si20  1  0.701254  0.369466  0.067556  1
  Si  Si21  1  0.296649  0.631856  0.566511  1
  Si  Si22  1  0.798209  0.869335  0.183042  1
  Si  Si23  1  0.130143  0.201238  0.316890  1
  Si  Si24  1  0.869335  0.798209  0.816958  1
  Si  Si25  1  0.291263  0.952111  0.066571  1
  Si  Si26  1  0.547095  0.790919  0.315758  1
  Si  Si27  1  0.452373  0.209658  0.816414  1
  Si  Si28  1  0.790919  0.547095  0.684242  1
  Si  Si29  1  0.209658  0.452373  0.183586  1
  Si  Si30  1  0.707645  0.049084  0.567317  1
  Si  Si31  1  0.952111  0.291263  0.933429  1
  Si  Si32  1  0.049084  0.707645  0.432683  1
  Tc  Tc33  1  0.327811  0.327811  0.000000  1
  Tc  Tc34  1  0.173919  0.828287  0.248976  1
  Tc  Tc35  1  0.828287  0.173919  0.751024  1
