# generated using pymatgen
data_Hf3Fe4SiMoP3
_symmetry_space_group_name_H-M   'P 1'
_cell_length_a   3.71524600
_cell_length_b   6.21310860
_cell_length_c   7.01871318
_cell_angle_alpha   90.40100815
_cell_angle_beta   90.00000000
_cell_angle_gamma   90.00000000
_symmetry_Int_Tables_number   1
_chemical_formula_structural   Hf3Fe4SiMoP3
_chemical_formula_sum   'Hf3 Fe4 Si1 Mo1 P3'
_cell_volume   162.01058038
_cell_formula_units_Z   1
loop_
 _symmetry_equiv_pos_site_id
 _symmetry_equiv_pos_as_xyz
  1  'x, y, z'
loop_
 _atom_site_type_symbol
 _atom_site_label
 _atom_site_symmetry_multiplicity
 _atom_site_fract_x
 _atom_site_fract_y
 _atom_site_fract_z
 _atom_site_occupancy
  Hf  Hf0  1  0.750000  0.484881  0.320021  1
  Hf  Hf1  1  0.250000  0.020739  0.811518  1
  Hf  Hf2  1  0.750000  0.979816  0.187685  1
  Fe  Fe3  1  0.750000  0.860396  0.561793  1
  Fe  Fe4  1  0.250000  0.150022  0.437857  1
  Fe  Fe5  1  0.750000  0.344268  0.938890  1
  Fe  Fe6  1  0.250000  0.645982  0.062605  1
  Si  Si7  1  0.750000  0.706825  0.873609  1
  Mo  Mo8  1  0.250000  0.518932  0.674237  1
  P  P9  1  0.250000  0.280828  0.117318  1
  P  P10  1  0.250000  0.779241  0.396202  1
  P  P11  1  0.750000  0.228071  0.618267  1
