# generated using pymatgen
data_Er2MgB2Ir5
_symmetry_space_group_name_H-M   'P 1'
_cell_length_a   9.72207300
_cell_length_b   9.72207300
_cell_length_c   3.10914600
_cell_angle_alpha   90.00000000
_cell_angle_beta   90.00000000
_cell_angle_gamma   90.00000000
_symmetry_Int_Tables_number   1
_chemical_formula_structural   Er2MgB2Ir5
_chemical_formula_sum   'Er4 Mg2 B4 Ir10'
_cell_volume   293.87244866
_cell_formula_units_Z   2
loop_
 _symmetry_equiv_pos_site_id
 _symmetry_equiv_pos_as_xyz
  1  'x, y, z'
loop_
 _atom_site_type_symbol
 _atom_site_label
 _atom_site_symmetry_multiplicity
 _atom_site_fract_x
 _atom_site_fract_y
 _atom_site_fract_z
 _atom_site_occupancy
  Er  Er0  1  0.177557  0.677557  0.000000  1
  Er  Er1  1  0.322443  0.177557  0.000000  1
  Er  Er2  1  0.677557  0.822443  0.000000  1
  Er  Er3  1  0.822443  0.322443  0.000000  1
  Mg  Mg4  1  0.000000  0.000000  0.000000  1
  Mg  Mg5  1  0.500000  0.500000  0.000000  1
  B  B6  1  0.123994  0.376006  0.000000  1
  B  B7  1  0.376006  0.876006  0.000000  1
  B  B8  1  0.623994  0.123994  0.000000  1
  B  B9  1  0.876006  0.623994  0.000000  1
  Ir  Ir10  1  0.000000  0.500000  0.500000  1
  Ir  Ir11  1  0.069001  0.223373  0.500000  1
  Ir  Ir12  1  0.223373  0.930999  0.500000  1
  Ir  Ir13  1  0.276627  0.430999  0.500000  1
  Ir  Ir14  1  0.430999  0.723373  0.500000  1
  Ir  Ir15  1  0.500000  0.000000  0.500000  1
  Ir  Ir16  1  0.569001  0.276627  0.500000  1
  Ir  Ir17  1  0.723373  0.569001  0.500000  1
  Ir  Ir18  1  0.776627  0.069001  0.500000  1
  Ir  Ir19  1  0.930999  0.776627  0.500000  1
