# generated using pymatgen
data_Y5Si9P3Ir19
_symmetry_space_group_name_H-M   'P 1'
_cell_length_a   12.83282800
_cell_length_b   12.83282796
_cell_length_c   3.95026600
_cell_angle_alpha   90.00000000
_cell_angle_beta   90.00000000
_cell_angle_gamma   120.00000011
_symmetry_Int_Tables_number   1
_chemical_formula_structural   Y5Si9P3Ir19
_chemical_formula_sum   'Y5 Si9 P3 Ir19'
_cell_volume   563.38037862
_cell_formula_units_Z   1
loop_
 _symmetry_equiv_pos_site_id
 _symmetry_equiv_pos_as_xyz
  1  'x, y, z'
loop_
 _atom_site_type_symbol
 _atom_site_label
 _atom_site_symmetry_multiplicity
 _atom_site_fract_x
 _atom_site_fract_y
 _atom_site_fract_z
 _atom_site_occupancy
  Y  Y0  1  0.666667  0.333333  0.000000  1
  Y  Y1  1  0.333333  0.666667  0.000000  1
  Y  Y2  1  0.814414  0.814414  0.500000  1
  Y  Y3  1  0.185586  0.000000  0.500000  1
  Y  Y4  1  0.000000  0.185586  0.500000  1
  Si  Si5  1  0.686377  0.167214  0.500000  1
  Si  Si6  1  0.832786  0.519163  0.500000  1
  Si  Si7  1  0.480837  0.313623  0.500000  1
  Si  Si8  1  0.167214  0.686377  0.500000  1
  Si  Si9  1  0.519163  0.832786  0.500000  1
  Si  Si10  1  0.313623  0.480837  0.500000  1
  Si  Si11  1  0.632902  0.632902  0.000000  1
  Si  Si12  1  0.367098  0.000000  0.000000  1
  Si  Si13  1  0.000000  0.367098  0.000000  1
  P  P14  1  0.178557  0.178557  0.000000  1
  P  P15  1  0.821443  0.000000  0.000000  1
  P  P16  1  0.000000  0.821443  0.000000  1
  Ir  Ir17  1  0.806739  0.179555  0.000000  1
  Ir  Ir18  1  0.820445  0.627184  0.000000  1
  Ir  Ir19  1  0.372816  0.193261  0.000000  1
  Ir  Ir20  1  0.179555  0.806739  0.000000  1
  Ir  Ir21  1  0.627184  0.820445  0.000000  1
  Ir  Ir22  1  0.193261  0.372816  0.000000  1
  Ir  Ir23  1  0.447158  0.447158  0.000000  1
  Ir  Ir24  1  0.552842  0.000000  0.000000  1
  Ir  Ir25  1  0.000000  0.552842  0.000000  1
  Ir  Ir26  1  0.278227  0.278227  0.500000  1
  Ir  Ir27  1  0.721773  0.000000  0.500000  1
  Ir  Ir28  1  0.000000  0.721773  0.500000  1
  Ir  Ir29  1  0.872584  0.359731  0.500000  1
  Ir  Ir30  1  0.640269  0.512854  0.500000  1
  Ir  Ir31  1  0.487146  0.127416  0.500000  1
  Ir  Ir32  1  0.359731  0.872584  0.500000  1
  Ir  Ir33  1  0.512854  0.640269  0.500000  1
  Ir  Ir34  1  0.127416  0.487146  0.500000  1
  Ir  Ir35  1  0.000000  0.000000  0.000000  1
