# generated using pymatgen
data_HoTm3MoRu7
_symmetry_space_group_name_H-M   'P 1'
_cell_length_a   5.44510323
_cell_length_b   5.18302941
_cell_length_c   8.97342901
_cell_angle_alpha   89.99469222
_cell_angle_beta   90.00119763
_cell_angle_gamma   121.91467345
_symmetry_Int_Tables_number   1
_chemical_formula_structural   HoTm3MoRu7
_chemical_formula_sum   'Ho1 Tm3 Mo1 Ru7'
_cell_volume   214.96718904
_cell_formula_units_Z   1
loop_
 _symmetry_equiv_pos_site_id
 _symmetry_equiv_pos_as_xyz
  1  'x, y, z'
loop_
 _atom_site_type_symbol
 _atom_site_label
 _atom_site_symmetry_multiplicity
 _atom_site_fract_x
 _atom_site_fract_y
 _atom_site_fract_z
 _atom_site_occupancy
  Ho  Ho0  1  0.672263  0.345190  0.563174  1
  Tm  Tm1  1  0.334341  0.668931  0.431399  1
  Tm  Tm2  1  0.334374  0.669036  0.068224  1
  Tm  Tm3  1  0.672643  0.345965  0.936796  1
  Mo  Mo4  1  0.162371  0.325106  0.750487  1
  Ru  Ru5  1  0.008208  0.017687  0.498445  1
  Ru  Ru6  1  0.008021  0.017341  0.001617  1
  Ru  Ru7  1  0.171382  0.820710  0.750866  1
  Ru  Ru8  1  0.651003  0.821184  0.750813  1
  Ru  Ru9  1  0.821553  0.642875  0.249294  1
  Ru  Ru10  1  0.831568  0.162513  0.249443  1
  Ru  Ru11  1  0.332277  0.163462  0.249442  1
