# generated using pymatgen
data_Eu2Fe2NiN3
_symmetry_space_group_name_H-M   'P 1'
_cell_length_a   6.32763703
_cell_length_b   6.32763693
_cell_length_c   6.17838539
_cell_angle_alpha   88.58858326
_cell_angle_beta   88.58858526
_cell_angle_gamma   118.21975113
_symmetry_Int_Tables_number   1
_chemical_formula_structural   Eu2Fe2NiN3
_chemical_formula_sum   'Eu4 Fe4 Ni2 N6'
_cell_volume   217.72226967
_cell_formula_units_Z   2
loop_
 _symmetry_equiv_pos_site_id
 _symmetry_equiv_pos_as_xyz
  1  'x, y, z'
loop_
 _atom_site_type_symbol
 _atom_site_label
 _atom_site_symmetry_multiplicity
 _atom_site_fract_x
 _atom_site_fract_y
 _atom_site_fract_z
 _atom_site_occupancy
  Eu  Eu0  1  0.827313  0.676879  0.898560  1
  Eu  Eu1  1  0.323121  0.172687  0.601440  1
  Eu  Eu2  1  0.172687  0.323121  0.101440  1
  Eu  Eu3  1  0.676879  0.827313  0.398560  1
  Fe  Fe4  1  0.569317  0.168725  0.103934  1
  Fe  Fe5  1  0.430683  0.831275  0.896066  1
  Fe  Fe6  1  0.831275  0.430683  0.396066  1
  Fe  Fe7  1  0.168725  0.569317  0.603934  1
  Ni  Ni8  1  0.811347  0.188653  0.750000  1
  Ni  Ni9  1  0.188653  0.811347  0.250000  1
  N  N10  1  0.422464  0.577536  0.750000  1
  N  N11  1  0.577536  0.422464  0.250000  1
  N  N12  1  0.006827  0.734851  0.511642  1
  N  N13  1  0.734851  0.006827  0.011642  1
  N  N14  1  0.993173  0.265149  0.488358  1
  N  N15  1  0.265149  0.993173  0.988358  1
