# generated using pymatgen
data_Dy6RuAu7
_symmetry_space_group_name_H-M   'P 1'
_cell_length_a   8.03936958
_cell_length_b   8.03937053
_cell_length_c   8.03937027
_cell_angle_alpha   114.14038098
_cell_angle_beta   114.14039203
_cell_angle_gamma   114.14036589
_symmetry_Int_Tables_number   1
_chemical_formula_structural   Dy6RuAu7
_chemical_formula_sum   'Dy6 Ru1 Au7'
_cell_volume   312.36864237
_cell_formula_units_Z   1
loop_
 _symmetry_equiv_pos_site_id
 _symmetry_equiv_pos_as_xyz
  1  'x, y, z'
loop_
 _atom_site_type_symbol
 _atom_site_label
 _atom_site_symmetry_multiplicity
 _atom_site_fract_x
 _atom_site_fract_y
 _atom_site_fract_z
 _atom_site_occupancy
  Dy  Dy0  1  0.008646  0.378390  0.259069  1
  Dy  Dy1  1  0.378390  0.259069  0.008646  1
  Dy  Dy2  1  0.740931  0.991354  0.621610  1
  Dy  Dy3  1  0.259069  0.008646  0.378390  1
  Dy  Dy4  1  0.621610  0.740931  0.991354  1
  Dy  Dy5  1  0.991354  0.621610  0.740931  1
  Ru  Ru6  1  0.000000  0.000000  0.000000  1
  Au  Au7  1  0.500000  0.500000  0.500000  1
  Au  Au8  1  0.430930  0.922007  0.760269  1
  Au  Au9  1  0.922007  0.760269  0.430930  1
  Au  Au10  1  0.239731  0.569070  0.077993  1
  Au  Au11  1  0.760269  0.430930  0.922007  1
  Au  Au12  1  0.077993  0.239731  0.569070  1
  Au  Au13  1  0.569070  0.077993  0.239731  1
