# generated using pymatgen
data_Nd3Sn3PdRh2
_symmetry_space_group_name_H-M   'P 1'
_cell_length_a   7.62768300
_cell_length_b   7.62768253
_cell_length_c   4.10180900
_cell_angle_alpha   90.00000000
_cell_angle_beta   90.00000000
_cell_angle_gamma   119.99999769
_symmetry_Int_Tables_number   1
_chemical_formula_structural   Nd3Sn3PdRh2
_chemical_formula_sum   'Nd3 Sn3 Pd1 Rh2'
_cell_volume   206.67660579
_cell_formula_units_Z   1
loop_
 _symmetry_equiv_pos_site_id
 _symmetry_equiv_pos_as_xyz
  1  'x, y, z'
loop_
 _atom_site_type_symbol
 _atom_site_label
 _atom_site_symmetry_multiplicity
 _atom_site_fract_x
 _atom_site_fract_y
 _atom_site_fract_z
 _atom_site_occupancy
  Nd  Nd0  1  0.007841  0.594280  0.000000  1
  Nd  Nd1  1  0.405720  0.413561  0.000000  1
  Nd  Nd2  1  0.586439  0.992159  0.000000  1
  Sn  Sn3  1  0.748163  0.749439  0.500000  1
  Sn  Sn4  1  0.001276  0.251837  0.500000  1
  Sn  Sn5  1  0.250561  0.998724  0.500000  1
  Pd  Pd6  1  0.666667  0.333333  0.500000  1
  Rh  Rh7  1  0.000000  0.000000  0.000000  1
  Rh  Rh8  1  0.333333  0.666667  0.500000  1
