# generated using pymatgen
data_Dy5Tm2P12Ir3Rh14
_symmetry_space_group_name_H-M   'P 1'
_cell_length_a   12.78103186
_cell_length_b   12.95897434
_cell_length_c   3.95330400
_cell_angle_alpha   90.00000000
_cell_angle_beta   90.00000000
_cell_angle_gamma   119.50439869
_symmetry_Int_Tables_number   1
_chemical_formula_structural   Dy5Tm2P12Ir3Rh14
_chemical_formula_sum   'Dy5 Tm2 P12 Ir3 Rh14'
_cell_volume   569.86852388
_cell_formula_units_Z   1
loop_
 _symmetry_equiv_pos_site_id
 _symmetry_equiv_pos_as_xyz
  1  'x, y, z'
loop_
 _atom_site_type_symbol
 _atom_site_label
 _atom_site_symmetry_multiplicity
 _atom_site_fract_x
 _atom_site_fract_y
 _atom_site_fract_z
 _atom_site_occupancy
  Dy  Dy0  1  0.330539  0.662840  0.500000  1
  Dy  Dy1  1  0.667484  0.336893  0.500000  1
  Dy  Dy2  1  0.001026  0.814751  0.000000  1
  Dy  Dy3  1  0.186080  0.185199  0.000000  1
  Dy  Dy4  1  0.809723  0.000164  0.000000  1
  Tm  Tm5  1  0.997626  0.442422  0.500000  1
  Tm  Tm6  1  0.554058  0.556576  0.500000  1
  P  P7  1  0.007104  0.654398  0.500000  1
  P  P8  1  0.352332  0.345105  0.500000  1
  P  P9  1  0.638696  0.000047  0.500000  1
  P  P10  1  0.515308  0.689455  0.000000  1
  P  P11  1  0.312552  0.828951  0.000000  1
  P  P12  1  0.169168  0.481489  0.000000  1
  P  P13  1  0.483535  0.170789  0.000000  1
  P  P14  1  0.687990  0.519579  0.000000  1
  P  P15  1  0.825252  0.310446  0.000000  1
  P  P16  1  0.999208  0.174725  0.500000  1
  P  P17  1  0.825108  0.825806  0.500000  1
  P  P18  1  0.183351  0.999951  0.500000  1
  Ir  Ir19  1  0.724501  0.728652  0.000000  1
  Ir  Ir20  1  0.285592  0.000114  0.000000  1
  Ir  Ir21  1  0.004870  0.000019  0.500000  1
  Rh  Rh22  1  0.508026  0.868316  0.000000  1
  Rh  Rh23  1  0.124970  0.647162  0.000000  1
  Rh  Rh24  1  0.355693  0.491990  0.000000  1
  Rh  Rh25  1  0.477967  0.352844  0.000000  1
  Rh  Rh26  1  0.863714  0.508150  0.000000  1
  Rh  Rh27  1  0.639777  0.131482  0.000000  1
  Rh  Rh28  1  0.459641  0.000131  0.500000  1
  Rh  Rh29  1  0.995682  0.272084  0.000000  1
  Rh  Rh30  1  0.623881  0.810111  0.500000  1
  Rh  Rh31  1  0.206688  0.826399  0.500000  1
  Rh  Rh32  1  0.178222  0.367479  0.500000  1
  Rh  Rh33  1  0.380165  0.173478  0.500000  1
  Rh  Rh34  1  0.810332  0.631895  0.500000  1
  Rh  Rh35  1  0.814138  0.190107  0.500000  1
