# generated using pymatgen
data_Ba6AlCo(O4F)2
_symmetry_space_group_name_H-M   'P 1'
_cell_length_a   7.35156100
_cell_length_b   8.24737400
_cell_length_c   10.64467300
_cell_angle_alpha   90.00000000
_cell_angle_beta   90.00000000
_cell_angle_gamma   90.00000000
_symmetry_Int_Tables_number   1
_chemical_formula_structural   Ba6AlCo(O4F)2
_chemical_formula_sum   'Ba12 Al2 Co2 O16 F4'
_cell_volume   645.39794627
_cell_formula_units_Z   2
loop_
 _symmetry_equiv_pos_site_id
 _symmetry_equiv_pos_as_xyz
  1  'x, y, z'
loop_
 _atom_site_type_symbol
 _atom_site_label
 _atom_site_symmetry_multiplicity
 _atom_site_fract_x
 _atom_site_fract_y
 _atom_site_fract_z
 _atom_site_occupancy
  Ba  Ba0  1  0.401035  0.024759  0.833848  1
  Ba  Ba1  1  0.098965  0.475241  0.333848  1
  Ba  Ba2  1  0.594761  0.523675  0.166333  1
  Ba  Ba3  1  0.905239  0.976325  0.666333  1
  Ba  Ba4  1  0.594761  0.976325  0.166333  1
  Ba  Ba5  1  0.905239  0.523675  0.666333  1
  Ba  Ba6  1  0.401035  0.475241  0.833848  1
  Ba  Ba7  1  0.098965  0.024759  0.333848  1
  Ba  Ba8  1  0.899472  0.250000  0.964749  1
  Ba  Ba9  1  0.600528  0.250000  0.464749  1
  Ba  Ba10  1  0.092662  0.750000  0.033888  1
  Ba  Ba11  1  0.407338  0.750000  0.533888  1
  Al  Al12  1  0.810322  0.750000  0.396556  1
  Al  Al13  1  0.689678  0.750000  0.896556  1
  Co  Co14  1  0.199008  0.250000  0.600548  1
  Co  Co15  1  0.300992  0.250000  0.100548  1
  O  O16  1  0.302608  0.052720  0.573742  1
  O  O17  1  0.197392  0.447280  0.073742  1
  O  O18  1  0.694606  0.565192  0.427664  1
  O  O19  1  0.805394  0.934808  0.927664  1
  O  O20  1  0.694606  0.934808  0.427664  1
  O  O21  1  0.805394  0.565192  0.927664  1
  O  O22  1  0.302608  0.447280  0.573742  1
  O  O23  1  0.197392  0.052720  0.073742  1
  O  O24  1  0.977506  0.250000  0.505684  1
  O  O25  1  0.522494  0.250000  0.005684  1
  O  O26  1  0.014631  0.750000  0.488808  1
  O  O27  1  0.485369  0.750000  0.988808  1
  O  O28  1  0.131126  0.250000  0.775573  1
  O  O29  1  0.368874  0.250000  0.275573  1
  O  O30  1  0.868952  0.750000  0.232564  1
  O  O31  1  0.631048  0.750000  0.732564  1
  F  F32  1  0.659785  0.250000  0.725613  1
  F  F33  1  0.840215  0.250000  0.225613  1
  F  F34  1  0.339215  0.750000  0.272841  1
  F  F35  1  0.160785  0.750000  0.772841  1
