# generated using pymatgen
data_Np6Sb8(RhAu)3
_symmetry_space_group_name_H-M   'P 1'
_cell_length_a   8.49907825
_cell_length_b   8.49907867
_cell_length_c   8.57282265
_cell_angle_alpha   109.25882669
_cell_angle_beta   110.01080790
_cell_angle_gamma   108.79212289
_symmetry_Int_Tables_number   1
_chemical_formula_structural   Np6Sb8(RhAu)3
_chemical_formula_sum   'Np6 Sb8 Rh3 Au3'
_cell_volume   478.71816377
_cell_formula_units_Z   1
loop_
 _symmetry_equiv_pos_site_id
 _symmetry_equiv_pos_as_xyz
  1  'x, y, z'
loop_
 _atom_site_type_symbol
 _atom_site_label
 _atom_site_symmetry_multiplicity
 _atom_site_fract_x
 _atom_site_fract_y
 _atom_site_fract_z
 _atom_site_occupancy
  Np  Np0  1  0.384125  0.259280  0.639147  1
  Np  Np1  1  0.120133  0.744978  0.860853  1
  Np  Np2  1  0.616217  0.366217  0.250000  1
  Np  Np3  1  0.882309  0.132309  0.750000  1
  Np  Np4  1  0.252218  0.620485  0.385903  1
  Np  Np5  1  0.734582  0.866315  0.114097  1
  Sb  Sb6  1  0.491639  0.992783  0.819403  1
  Sb  Sb7  1  0.824609  0.499356  0.991344  1
  Sb  Sb8  1  0.008012  0.833265  0.508656  1
  Sb  Sb9  1  0.673380  0.672236  0.680597  1
  Sb  Sb10  1  0.319970  0.495058  0.991611  1
  Sb  Sb11  1  0.509083  0.012705  0.334334  1
  Sb  Sb12  1  0.003448  0.328359  0.508389  1
  Sb  Sb13  1  0.178370  0.174748  0.165666  1
  Rh  Rh14  1  0.374561  0.624561  0.750000  1
  Rh  Rh15  1  0.251081  0.128374  0.872230  1
  Rh  Rh16  1  0.756145  0.378851  0.627770  1
  Au  Au17  1  0.872508  0.247891  0.125681  1
  Au  Au18  1  0.622210  0.746827  0.374319  1
  Au  Au19  1  0.125400  0.875400  0.250000  1
