# generated using pymatgen
data_YbBi2(B2O5)2
_symmetry_space_group_name_H-M   'P 1'
_cell_length_a   6.67429398
_cell_length_b   6.89907539
_cell_length_c   9.65690792
_cell_angle_alpha   94.83744506
_cell_angle_beta   107.91811317
_cell_angle_gamma   101.85547369
_symmetry_Int_Tables_number   1
_chemical_formula_structural   YbBi2(B2O5)2
_chemical_formula_sum   'Yb2 Bi4 B8 O20'
_cell_volume   408.84364557
_cell_formula_units_Z   2
loop_
 _symmetry_equiv_pos_site_id
 _symmetry_equiv_pos_as_xyz
  1  'x, y, z'
loop_
 _atom_site_type_symbol
 _atom_site_label
 _atom_site_symmetry_multiplicity
 _atom_site_fract_x
 _atom_site_fract_y
 _atom_site_fract_z
 _atom_site_occupancy
  Yb  Yb0  1  0.036493  0.871609  0.170498  1
  Yb  Yb1  1  0.963507  0.128391  0.829502  1
  Bi  Bi2  1  0.734154  0.632353  0.669910  1
  Bi  Bi3  1  0.265846  0.367647  0.330090  1
  Bi  Bi4  1  0.696347  0.027513  0.400532  1
  Bi  Bi5  1  0.303653  0.972487  0.599468  1
  B  B6  1  0.388185  0.202077  0.061449  1
  B  B7  1  0.611815  0.797923  0.938551  1
  B  B8  1  0.852767  0.609845  0.363582  1
  B  B9  1  0.147233  0.390155  0.636418  1
  B  B10  1  0.403749  0.750781  0.104769  1
  B  B11  1  0.201513  0.696561  0.831494  1
  B  B12  1  0.798487  0.303439  0.168506  1
  B  B13  1  0.596251  0.249219  0.895231  1
  O  O14  1  0.068365  0.183006  0.611348  1
  O  O15  1  0.646953  0.895230  0.593641  1
  O  O16  1  0.604625  0.779713  0.080759  1
  O  O17  1  0.421445  0.767584  0.822835  1
  O  O18  1  0.578555  0.232416  0.177165  1
  O  O19  1  0.353047  0.104770  0.406359  1
  O  O20  1  0.193691  0.157302  0.080059  1
  O  O21  1  0.787757  0.292624  0.011290  1
  O  O22  1  0.212243  0.707376  0.988710  1
  O  O23  1  0.746826  0.506693  0.446669  1
  O  O24  1  0.892577  0.518020  0.241569  1
  O  O25  1  0.934276  0.178783  0.247621  1
  O  O26  1  0.599586  0.221904  0.754886  1
  O  O27  1  0.806309  0.842698  0.919941  1
  O  O28  1  0.107423  0.481980  0.758431  1
  O  O29  1  0.253174  0.493307  0.553331  1
  O  O30  1  0.065724  0.821217  0.752379  1
  O  O31  1  0.931635  0.816994  0.388652  1
  O  O32  1  0.400414  0.778096  0.245114  1
  O  O33  1  0.395375  0.220287  0.919241  1
