# generated using pymatgen
data_Fe3Co3Mo12(IrN2)2
_symmetry_space_group_name_H-M   'P 1'
_cell_length_a   6.72908900
_cell_length_b   6.73381645
_cell_length_c   6.72837357
_cell_angle_alpha   90.20640567
_cell_angle_beta   90.13514148
_cell_angle_gamma   90.21629784
_symmetry_Int_Tables_number   1
_chemical_formula_structural   Fe3Co3Mo12(IrN2)2
_chemical_formula_sum   'Fe3 Co3 Mo12 Ir2 N4'
_cell_volume   304.87408407
_cell_formula_units_Z   1
loop_
 _symmetry_equiv_pos_site_id
 _symmetry_equiv_pos_as_xyz
  1  'x, y, z'
loop_
 _atom_site_type_symbol
 _atom_site_label
 _atom_site_symmetry_multiplicity
 _atom_site_fract_x
 _atom_site_fract_y
 _atom_site_fract_z
 _atom_site_occupancy
  Fe  Fe0  1  0.431236  0.075709  0.190749  1
  Fe  Fe1  1  0.569411  0.434627  0.673662  1
  Fe  Fe2  1  0.928953  0.926284  0.811414  1
  Co  Co3  1  0.818749  0.682367  0.566596  1
  Co  Co4  1  0.318286  0.319198  0.434186  1
  Co  Co5  1  0.067273  0.563239  0.324774  1
  Mo  Mo6  1  0.624596  0.047276  0.543287  1
  Mo  Mo7  1  0.123297  0.950224  0.455792  1
  Mo  Mo8  1  0.875896  0.550369  0.953533  1
  Mo  Mo9  1  0.373751  0.451576  0.048938  1
  Mo  Mo10  1  0.202488  0.620994  0.697748  1
  Mo  Mo11  1  0.293993  0.126038  0.798557  1
  Mo  Mo12  1  0.797598  0.871954  0.202744  1
  Mo  Mo13  1  0.705980  0.379529  0.300122  1
  Mo  Mo14  1  0.050159  0.207282  0.128437  1
  Mo  Mo15  1  0.953512  0.297758  0.621949  1
  Mo  Mo16  1  0.549923  0.793055  0.871390  1
  Mo  Mo17  1  0.449744  0.702523  0.375867  1
  Ir  Ir18  1  0.682151  0.182982  0.931385  1
  Ir  Ir19  1  0.184031  0.816334  0.068456  1
  N  N20  1  0.374200  0.874412  0.626049  1
  N  N21  1  0.875021  0.125713  0.373690  1
  N  N22  1  0.124640  0.375254  0.875996  1
  N  N23  1  0.625110  0.625302  0.124679  1
