# generated using pymatgen
data_Lu2Co2Pb
_symmetry_space_group_name_H-M   'P 1'
_cell_length_a   7.15869756
_cell_length_b   7.15869732
_cell_length_c   3.84220700
_cell_angle_alpha   90.00000000
_cell_angle_beta   90.00000000
_cell_angle_gamma   149.16545572
_symmetry_Int_Tables_number   1
_chemical_formula_structural   Lu2Co2Pb
_chemical_formula_sum   'Lu2 Co2 Pb1'
_cell_volume   100.92390216
_cell_formula_units_Z   1
loop_
 _symmetry_equiv_pos_site_id
 _symmetry_equiv_pos_as_xyz
  1  'x, y, z'
loop_
 _atom_site_type_symbol
 _atom_site_label
 _atom_site_symmetry_multiplicity
 _atom_site_fract_x
 _atom_site_fract_y
 _atom_site_fract_z
 _atom_site_occupancy
  Lu  Lu0  1  0.358276  0.641724  0.500000  1
  Lu  Lu1  1  0.641724  0.358276  0.500000  1
  Co  Co2  1  0.793599  0.206401  0.000000  1
  Co  Co3  1  0.206401  0.793599  0.000000  1
  Pb  Pb4  1  0.000000  0.000000  0.000000  1
