# generated using pymatgen
data_Ce3TmLuIr3
_symmetry_space_group_name_H-M   'P 1'
_cell_length_a   6.44415601
_cell_length_b   8.18026508
_cell_length_c   8.18028201
_cell_angle_alpha   119.99993496
_cell_angle_beta   89.99721929
_cell_angle_gamma   90.00556084
_symmetry_Int_Tables_number   1
_chemical_formula_structural   Ce3TmLuIr3
_chemical_formula_sum   'Ce6 Tm2 Lu2 Ir6'
_cell_volume   373.45012885
_cell_formula_units_Z   2
loop_
 _symmetry_equiv_pos_site_id
 _symmetry_equiv_pos_as_xyz
  1  'x, y, z'
loop_
 _atom_site_type_symbol
 _atom_site_label
 _atom_site_symmetry_multiplicity
 _atom_site_fract_x
 _atom_site_fract_y
 _atom_site_fract_z
 _atom_site_occupancy
  Ce  Ce0  1  0.750546  0.255590  0.000000  1
  Ce  Ce1  1  0.750424  0.744555  0.744539  1
  Ce  Ce2  1  0.750424  0.000016  0.255461  1
  Ce  Ce3  1  0.249543  0.744396  0.000000  1
  Ce  Ce4  1  0.249494  0.255454  0.255482  1
  Ce  Ce5  1  0.249494  0.999972  0.744518  1
  Tm  Tm6  1  0.500004  0.333285  0.666622  1
  Tm  Tm7  1  0.500004  0.666663  0.333378  1
  Lu  Lu8  1  0.000038  0.666780  0.333455  1
  Lu  Lu9  1  0.000038  0.333325  0.666545  1
  Ir  Ir10  1  0.750732  0.614009  0.000000  1
  Ir  Ir11  1  0.750820  0.386008  0.385958  1
  Ir  Ir12  1  0.750820  0.000051  0.614042  1
  Ir  Ir13  1  0.249174  0.385979  0.000000  1
  Ir  Ir14  1  0.249223  0.613980  0.614043  1
  Ir  Ir15  1  0.249223  0.999937  0.385957  1
