# generated using pymatgen
data_Nd16Tm4(Ir3Rh)3
_symmetry_space_group_name_H-M   'P 1'
_cell_length_a   11.14710200
_cell_length_b   11.14710200
_cell_length_c   6.54506700
_cell_angle_alpha   90.00000000
_cell_angle_beta   90.00000000
_cell_angle_gamma   90.00000000
_symmetry_Int_Tables_number   1
_chemical_formula_structural   Nd16Tm4(Ir3Rh)3
_chemical_formula_sum   'Nd16 Tm4 Ir9 Rh3'
_cell_volume   813.27616950
_cell_formula_units_Z   1
loop_
 _symmetry_equiv_pos_site_id
 _symmetry_equiv_pos_as_xyz
  1  'x, y, z'
loop_
 _atom_site_type_symbol
 _atom_site_label
 _atom_site_symmetry_multiplicity
 _atom_site_fract_x
 _atom_site_fract_y
 _atom_site_fract_z
 _atom_site_occupancy
  Nd  Nd0  1  0.287605  0.087427  0.382235  1
  Nd  Nd1  1  0.287550  0.912355  0.882289  1
  Nd  Nd2  1  0.712450  0.087645  0.882289  1
  Nd  Nd3  1  0.712395  0.912573  0.382235  1
  Nd  Nd4  1  0.587645  0.787550  0.882289  1
  Nd  Nd5  1  0.587427  0.212395  0.382235  1
  Nd  Nd6  1  0.412573  0.787605  0.382235  1
  Nd  Nd7  1  0.412355  0.212450  0.882289  1
  Nd  Nd8  1  0.211792  0.412631  0.616946  1
  Nd  Nd9  1  0.212057  0.587523  0.119210  1
  Nd  Nd10  1  0.787943  0.412477  0.119210  1
  Nd  Nd11  1  0.788208  0.587369  0.616946  1
  Nd  Nd12  1  0.912477  0.712057  0.119210  1
  Nd  Nd13  1  0.912631  0.288208  0.616946  1
  Nd  Nd14  1  0.087369  0.711792  0.616946  1
  Nd  Nd15  1  0.087523  0.287943  0.119210  1
  Tm  Tm16  1  0.000000  0.000000  0.500039  1
  Tm  Tm17  1  0.000000  0.000000  0.999969  1
  Tm  Tm18  1  0.500000  0.500000  0.999969  1
  Tm  Tm19  1  0.500000  0.500000  0.500039  1
  Ir  Ir20  1  0.851416  0.147657  0.249651  1
  Ir  Ir21  1  0.851612  0.852074  0.749536  1
  Ir  Ir22  1  0.148388  0.147926  0.749536  1
  Ir  Ir23  1  0.148584  0.852343  0.249651  1
  Ir  Ir24  1  0.647926  0.351612  0.749536  1
  Ir  Ir25  1  0.647657  0.648584  0.249651  1
  Ir  Ir26  1  0.352343  0.351416  0.249651  1
  Ir  Ir27  1  0.352074  0.648388  0.749536  1
  Ir  Ir28  1  0.000000  0.500000  0.380573  1
  Rh  Rh29  1  0.500000  0.000000  0.119094  1
  Rh  Rh30  1  0.500000  0.000000  0.618970  1
  Rh  Rh31  1  0.000000  0.500000  0.881876  1
