# generated using pymatgen
data_Li4Sm3GdPt4
_symmetry_space_group_name_H-M   'P 1'
_cell_length_a   4.06937200
_cell_length_b   7.20795034
_cell_length_c   8.59943300
_cell_angle_alpha   89.46150501
_cell_angle_beta   90.00000000
_cell_angle_gamma   90.00000000
_symmetry_Int_Tables_number   1
_chemical_formula_structural   Li4Sm3GdPt4
_chemical_formula_sum   'Li4 Sm3 Gd1 Pt4'
_cell_volume   252.22597787
_cell_formula_units_Z   1
loop_
 _symmetry_equiv_pos_site_id
 _symmetry_equiv_pos_as_xyz
  1  'x, y, z'
loop_
 _atom_site_type_symbol
 _atom_site_label
 _atom_site_symmetry_multiplicity
 _atom_site_fract_x
 _atom_site_fract_y
 _atom_site_fract_z
 _atom_site_occupancy
  Li  Li0  1  0.250000  0.375150  0.557547  1
  Li  Li1  1  0.250000  0.873663  0.942187  1
  Li  Li2  1  0.750000  0.621604  0.445688  1
  Li  Li3  1  0.750000  0.128185  0.054842  1
  Sm  Sm4  1  0.250000  0.951597  0.318371  1
  Sm  Sm5  1  0.250000  0.453937  0.181524  1
  Sm  Sm6  1  0.750000  0.046534  0.683012  1
  Gd  Gd7  1  0.750000  0.547798  0.818494  1
  Pt  Pt8  1  0.250000  0.257760  0.876061  1
  Pt  Pt9  1  0.250000  0.751171  0.625172  1
  Pt  Pt10  1  0.750000  0.748214  0.119415  1
  Pt  Pt11  1  0.750000  0.244385  0.377689  1
