# generated using pymatgen
data_Dy5AsPdO12
_symmetry_space_group_name_H-M   'P 1'
_cell_length_a   6.83468404
_cell_length_b   6.83468431
_cell_length_c   7.23575700
_cell_angle_alpha   74.52062489
_cell_angle_beta   74.52063298
_cell_angle_gamma   50.84521655
_symmetry_Int_Tables_number   1
_chemical_formula_structural   Dy5AsPdO12
_chemical_formula_sum   'Dy5 As1 Pd1 O12'
_cell_volume   250.39696849
_cell_formula_units_Z   1
loop_
 _symmetry_equiv_pos_site_id
 _symmetry_equiv_pos_as_xyz
  1  'x, y, z'
loop_
 _atom_site_type_symbol
 _atom_site_label
 _atom_site_symmetry_multiplicity
 _atom_site_fract_x
 _atom_site_fract_y
 _atom_site_fract_z
 _atom_site_occupancy
  Dy  Dy0  1  0.305544  0.296212  0.359994  1
  Dy  Dy1  1  0.703788  0.694456  0.640006  1
  Dy  Dy2  1  0.308644  0.301336  0.833716  1
  Dy  Dy3  1  0.698664  0.691356  0.166284  1
  Dy  Dy4  1  0.007989  0.992011  0.500000  1
  As  As5  1  0.238397  0.761603  0.000000  1
  Pd  Pd6  1  0.747661  0.252339  0.000000  1
  O  O7  1  0.904853  0.435425  0.916693  1
  O  O8  1  0.413770  0.896925  0.920183  1
  O  O9  1  0.103075  0.586230  0.079817  1
  O  O10  1  0.564575  0.095147  0.083307  1
  O  O11  1  0.102046  0.594553  0.572301  1
  O  O12  1  0.602140  0.092743  0.576473  1
  O  O13  1  0.907257  0.397860  0.423527  1
  O  O14  1  0.405447  0.897954  0.427699  1
  O  O15  1  0.012290  0.987498  0.821219  1
  O  O16  1  0.012502  0.987710  0.178781  1
  O  O17  1  0.480534  0.519177  0.819646  1
  O  O18  1  0.480823  0.519466  0.180354  1
