# generated using pymatgen
data_Ta2Nb(Co3B2)3
_symmetry_space_group_name_H-M   'P 1'
_cell_length_a   5.62690091
_cell_length_b   5.62690143
_cell_length_c   5.62690167
_cell_angle_alpha   95.22800778
_cell_angle_beta   95.22798882
_cell_angle_gamma   95.22800673
_symmetry_Int_Tables_number   1
_chemical_formula_structural   Ta2Nb(Co3B2)3
_chemical_formula_sum   'Ta2 Nb1 Co9 B6'
_cell_volume   175.78970830
_cell_formula_units_Z   1
loop_
 _symmetry_equiv_pos_site_id
 _symmetry_equiv_pos_as_xyz
  1  'x, y, z'
loop_
 _atom_site_type_symbol
 _atom_site_label
 _atom_site_symmetry_multiplicity
 _atom_site_fract_x
 _atom_site_fract_y
 _atom_site_fract_z
 _atom_site_occupancy
  Ta  Ta0  1  0.002075  0.002075  0.002075  1
  Ta  Ta1  1  0.667962  0.667962  0.667962  1
  Nb  Nb2  1  0.330965  0.330965  0.330965  1
  Co  Co3  1  0.998661  0.998661  0.501860  1
  Co  Co4  1  0.501860  0.998661  0.998661  1
  Co  Co5  1  0.998661  0.501860  0.998661  1
  Co  Co6  1  0.699999  0.203611  0.699999  1
  Co  Co7  1  0.699999  0.699999  0.203611  1
  Co  Co8  1  0.203611  0.699999  0.699999  1
  Co  Co9  1  0.299006  0.798987  0.299006  1
  Co  Co10  1  0.299006  0.299006  0.798987  1
  Co  Co11  1  0.798987  0.299006  0.299006  1
  B  B12  1  0.615432  0.384348  0.999824  1
  B  B13  1  0.999824  0.615432  0.384348  1
  B  B14  1  0.384348  0.999824  0.615432  1
  B  B15  1  0.999824  0.384348  0.615432  1
  B  B16  1  0.615432  0.999824  0.384348  1
  B  B17  1  0.384348  0.615432  0.999824  1
