# generated using pymatgen
data_Ce3Zr2Co19P12
_symmetry_space_group_name_H-M   'P 1'
_cell_length_a   11.94839700
_cell_length_b   11.95423878
_cell_length_c   3.68362900
_cell_angle_alpha   90.00000000
_cell_angle_beta   90.00000000
_cell_angle_gamma   119.98383874
_symmetry_Int_Tables_number   1
_chemical_formula_structural   Ce3Zr2Co19P12
_chemical_formula_sum   'Ce3 Zr2 Co19 P12'
_cell_volume   455.73122721
_cell_formula_units_Z   1
loop_
 _symmetry_equiv_pos_site_id
 _symmetry_equiv_pos_as_xyz
  1  'x, y, z'
loop_
 _atom_site_type_symbol
 _atom_site_label
 _atom_site_symmetry_multiplicity
 _atom_site_fract_x
 _atom_site_fract_y
 _atom_site_fract_z
 _atom_site_occupancy
  Ce  Ce0  1  0.333540  0.667866  0.500000  1
  Ce  Ce1  1  0.665675  0.332134  0.500000  1
  Ce  Ce2  1  0.818861  0.000000  0.000000  1
  Zr  Zr3  1  0.000982  0.812745  0.000000  1
  Zr  Zr4  1  0.188237  0.187255  0.000000  1
  Co  Co5  1  0.624088  0.800018  0.500000  1
  Co  Co6  1  0.195288  0.822624  0.500000  1
  Co  Co7  1  0.180260  0.376237  0.500000  1
  Co  Co8  1  0.372664  0.177376  0.500000  1
  Co  Co9  1  0.804022  0.623763  0.500000  1
  Co  Co10  1  0.824070  0.199982  0.500000  1
  Co  Co11  1  0.278616  0.000000  0.000000  1
  Co  Co12  1  0.002735  0.283925  0.000000  1
  Co  Co13  1  0.718811  0.716075  0.000000  1
  Co  Co14  1  0.447101  0.000000  0.500000  1
  Co  Co15  1  0.000150  0.451070  0.500000  1
  Co  Co16  1  0.549081  0.548930  0.500000  1
  Co  Co17  1  0.516616  0.874673  0.000000  1
  Co  Co18  1  0.124463  0.644611  0.000000  1
  Co  Co19  1  0.356459  0.481158  0.000000  1
  Co  Co20  1  0.479852  0.355389  0.000000  1
  Co  Co21  1  0.875301  0.518842  0.000000  1
  Co  Co22  1  0.641943  0.125327  0.000000  1
  Co  Co23  1  0.999876  0.000000  0.500000  1
  P  P24  1  0.175265  0.000000  0.500000  1
  P  P25  1  0.007335  0.181844  0.500000  1
  P  P26  1  0.825491  0.818156  0.500000  1
  P  P27  1  0.523689  0.684246  0.000000  1
  P  P28  1  0.313703  0.839226  0.000000  1
  P  P29  1  0.162789  0.478661  0.000000  1
  P  P30  1  0.474478  0.160774  0.000000  1
  P  P31  1  0.684128  0.521339  0.000000  1
  P  P32  1  0.839443  0.315754  0.000000  1
  P  P33  1  0.631767  0.000000  0.500000  1
  P  P34  1  0.000185  0.637149  0.500000  1
  P  P35  1  0.363036  0.362851  0.500000  1
