# generated using pymatgen
data_SrNd4(IrO6)2
_symmetry_space_group_name_H-M   'P 1'
_cell_length_a   7.14448648
_cell_length_b   7.14448609
_cell_length_c   7.70936232
_cell_angle_alpha   74.42114285
_cell_angle_beta   74.42114119
_cell_angle_gamma   51.18940637
_symmetry_Int_Tables_number   1
_chemical_formula_structural   SrNd4(IrO6)2
_chemical_formula_sum   'Sr1 Nd4 Ir2 O12'
_cell_volume   292.72384988
_cell_formula_units_Z   1
loop_
 _symmetry_equiv_pos_site_id
 _symmetry_equiv_pos_as_xyz
  1  'x, y, z'
loop_
 _atom_site_type_symbol
 _atom_site_label
 _atom_site_symmetry_multiplicity
 _atom_site_fract_x
 _atom_site_fract_y
 _atom_site_fract_z
 _atom_site_occupancy
  Sr  Sr0  1  0.000000  0.000000  0.500000  1
  Nd  Nd1  1  0.303899  0.303899  0.364182  1
  Nd  Nd2  1  0.696101  0.696101  0.635818  1
  Nd  Nd3  1  0.691934  0.691934  0.174371  1
  Nd  Nd4  1  0.308066  0.308066  0.825629  1
  Ir  Ir5  1  0.754459  0.245541  0.000000  1
  Ir  Ir6  1  0.245541  0.754459  0.000000  1
  O  O7  1  0.095394  0.578432  0.585590  1
  O  O8  1  0.997905  0.997905  0.168289  1
  O  O9  1  0.421568  0.904606  0.414410  1
  O  O10  1  0.499846  0.499846  0.173560  1
  O  O11  1  0.102154  0.583219  0.074813  1
  O  O12  1  0.904606  0.421568  0.414410  1
  O  O13  1  0.002095  0.002095  0.831711  1
  O  O14  1  0.578432  0.095393  0.585590  1
  O  O15  1  0.500154  0.500154  0.826440  1
  O  O16  1  0.583219  0.102154  0.074813  1
  O  O17  1  0.416781  0.897846  0.925187  1
  O  O18  1  0.897846  0.416781  0.925187  1
