# generated using pymatgen
data_Ac2(Ga3Ir)3
_symmetry_space_group_name_H-M   'P 1'
_cell_length_a   7.79195151
_cell_length_b   7.79195199
_cell_length_c   9.85208400
_cell_angle_alpha   90.00000000
_cell_angle_beta   90.00000000
_cell_angle_gamma   119.54786589
_symmetry_Int_Tables_number   1
_chemical_formula_structural   Ac2(Ga3Ir)3
_chemical_formula_sum   'Ac4 Ga18 Ir6'
_cell_volume   520.36960207
_cell_formula_units_Z   2
loop_
 _symmetry_equiv_pos_site_id
 _symmetry_equiv_pos_as_xyz
  1  'x, y, z'
loop_
 _atom_site_type_symbol
 _atom_site_label
 _atom_site_symmetry_multiplicity
 _atom_site_fract_x
 _atom_site_fract_y
 _atom_site_fract_z
 _atom_site_occupancy
  Ac  Ac0  1  0.997178  0.668559  0.250000  1
  Ac  Ac1  1  0.002822  0.331441  0.750000  1
  Ac  Ac2  1  0.668559  0.997178  0.250000  1
  Ac  Ac3  1  0.331441  0.002822  0.750000  1
  Ga  Ga4  1  0.132871  0.132871  0.250000  1
  Ga  Ga5  1  0.867129  0.867129  0.750000  1
  Ga  Ga6  1  0.006754  0.334427  0.074501  1
  Ga  Ga7  1  0.993246  0.665573  0.925499  1
  Ga  Ga8  1  0.993246  0.665573  0.574501  1
  Ga  Ga9  1  0.334427  0.006754  0.425499  1
  Ga  Ga10  1  0.006754  0.334427  0.425499  1
  Ga  Ga11  1  0.665573  0.993246  0.574501  1
  Ga  Ga12  1  0.665573  0.993246  0.925499  1
  Ga  Ga13  1  0.334427  0.006754  0.074501  1
  Ga  Ga14  1  0.337497  0.337497  0.552949  1
  Ga  Ga15  1  0.662503  0.662503  0.447051  1
  Ga  Ga16  1  0.662503  0.662503  0.052949  1
  Ga  Ga17  1  0.337497  0.337497  0.947051  1
  Ga  Ga18  1  0.337115  0.538515  0.250000  1
  Ga  Ga19  1  0.662885  0.461485  0.750000  1
  Ga  Ga20  1  0.538515  0.337115  0.250000  1
  Ga  Ga21  1  0.461485  0.662885  0.750000  1
  Ir  Ir22  1  0.669580  0.330420  0.000000  1
  Ir  Ir23  1  0.330420  0.669580  0.000000  1
  Ir  Ir24  1  0.330420  0.669580  0.500000  1
  Ir  Ir25  1  0.669580  0.330420  0.500000  1
  Ir  Ir26  1  0.000000  0.000000  0.000000  1
  Ir  Ir27  1  0.000000  0.000000  0.500000  1
