# generated using pymatgen
data_Cs3Rb(TiSe3)2
_symmetry_space_group_name_H-M   'P 1'
_cell_length_a   8.25322692
_cell_length_b   8.25322627
_cell_length_c   10.59442563
_cell_angle_alpha   120.63137985
_cell_angle_beta   120.63137724
_cell_angle_gamma   54.33057079
_symmetry_Int_Tables_number   1
_chemical_formula_structural   Cs3Rb(TiSe3)2
_chemical_formula_sum   'Cs3 Rb1 Ti2 Se6'
_cell_volume   480.60414179
_cell_formula_units_Z   1
loop_
 _symmetry_equiv_pos_site_id
 _symmetry_equiv_pos_as_xyz
  1  'x, y, z'
loop_
 _atom_site_type_symbol
 _atom_site_label
 _atom_site_symmetry_multiplicity
 _atom_site_fract_x
 _atom_site_fract_y
 _atom_site_fract_z
 _atom_site_occupancy
  Cs  Cs0  1  0.689489  0.689489  0.315330  1
  Cs  Cs1  1  0.310588  0.310588  0.684984  1
  Cs  Cs2  1  0.083660  0.083660  0.863602  1
  Rb  Rb3  1  0.913201  0.913201  0.130986  1
  Ti  Ti4  1  0.384558  0.384558  0.323411  1
  Ti  Ti5  1  0.614987  0.614987  0.676754  1
  Se  Se6  1  0.384940  0.384940  0.102354  1
  Se  Se7  1  0.205347  0.205347  0.271379  1
  Se  Se8  1  0.743827  0.256255  0.498964  1
  Se  Se9  1  0.256255  0.743827  0.498964  1
  Se  Se10  1  0.794706  0.794706  0.732417  1
  Se  Se11  1  0.618446  0.618446  0.900857  1
