# generated using pymatgen
data_Pr8Tm12Si15As
_symmetry_space_group_name_H-M   'P 1'
_cell_length_a   7.50972305
_cell_length_b   7.75203452
_cell_length_c   14.69396697
_cell_angle_alpha   90.16961970
_cell_angle_beta   88.74030250
_cell_angle_gamma   90.33552982
_symmetry_Int_Tables_number   1
_chemical_formula_structural   Pr8Tm12Si15As
_chemical_formula_sum   'Pr8 Tm12 Si15 As1'
_cell_volume   855.19374680
_cell_formula_units_Z   1
loop_
 _symmetry_equiv_pos_site_id
 _symmetry_equiv_pos_as_xyz
  1  'x, y, z'
loop_
 _atom_site_type_symbol
 _atom_site_label
 _atom_site_symmetry_multiplicity
 _atom_site_fract_x
 _atom_site_fract_y
 _atom_site_fract_z
 _atom_site_occupancy
  Pr  Pr0  1  0.015747  0.180015  0.403116  1
  Pr  Pr1  1  0.512036  0.322263  0.400535  1
  Pr  Pr2  1  0.479584  0.677369  0.901293  1
  Pr  Pr3  1  0.492077  0.676131  0.598753  1
  Pr  Pr4  1  0.984148  0.819619  0.596380  1
  Pr  Pr5  1  0.979205  0.822411  0.901353  1
  Pr  Pr6  1  0.521276  0.323260  0.099078  1
  Pr  Pr7  1  0.021449  0.178614  0.098651  1
  Tm  Tm8  1  0.331496  0.172337  0.626157  1
  Tm  Tm9  1  0.670015  0.825883  0.374370  1
  Tm  Tm10  1  0.657014  0.992940  0.749708  1
  Tm  Tm11  1  0.166044  0.672612  0.379798  1
  Tm  Tm12  1  0.822366  0.322875  0.876377  1
  Tm  Tm13  1  0.830369  0.328087  0.620037  1
  Tm  Tm14  1  0.842049  0.492811  0.253045  1
  Tm  Tm15  1  0.343362  0.006795  0.251047  1
  Tm  Tm16  1  0.321047  0.176131  0.875972  1
  Tm  Tm17  1  0.177486  0.677581  0.123008  1
  Tm  Tm18  1  0.678594  0.823842  0.123401  1
  Tm  Tm19  1  0.157635  0.507624  0.749726  1
  Si  Si20  1  0.278060  0.876040  0.750276  1
  Si  Si21  1  0.464958  0.618074  0.248200  1
  Si  Si22  1  0.027554  0.117006  0.748656  1
  Si  Si23  1  0.533521  0.382418  0.751399  1
  Si  Si24  1  0.972038  0.883955  0.250025  1
  Si  Si25  1  0.723198  0.122520  0.249301  1
  Si  Si26  1  0.855089  0.532051  0.040359  1
  Si  Si27  1  0.355683  0.969239  0.040471  1
  Si  Si28  1  0.144464  0.468751  0.959060  1
  Si  Si29  1  0.652664  0.034011  0.539499  1
  Si  Si30  1  0.347448  0.964864  0.461547  1
  Si  Si31  1  0.818939  0.536830  0.454653  1
  Si  Si32  1  0.779638  0.620836  0.749886  1
  Si  Si33  1  0.221694  0.380426  0.250022  1
  Si  Si34  1  0.644197  0.031823  0.959418  1
  As  As35  1  0.177858  0.461956  0.545425  1
