# generated using pymatgen
data_GdU7(B6Mo)4
_symmetry_space_group_name_H-M   'P 1'
_cell_length_a   3.69930500
_cell_length_b   9.27812003
_cell_length_c   11.37539503
_cell_angle_alpha   89.99104623
_cell_angle_beta   90.00000000
_cell_angle_gamma   90.00000000
_symmetry_Int_Tables_number   1
_chemical_formula_structural   GdU7(B6Mo)4
_chemical_formula_sum   'Gd1 U7 B24 Mo4'
_cell_volume   390.43308121
_cell_formula_units_Z   1
loop_
 _symmetry_equiv_pos_site_id
 _symmetry_equiv_pos_as_xyz
  1  'x, y, z'
loop_
 _atom_site_type_symbol
 _atom_site_label
 _atom_site_symmetry_multiplicity
 _atom_site_fract_x
 _atom_site_fract_y
 _atom_site_fract_z
 _atom_site_occupancy
  Gd  Gd0  1  0.000000  0.335208  0.407955  1
  U  U1  1  0.000000  0.664582  0.592166  1
  U  U2  1  0.000000  0.834711  0.092497  1
  U  U3  1  0.000000  0.165198  0.907664  1
  U  U4  1  0.000000  0.956148  0.394686  1
  U  U5  1  0.000000  0.044351  0.605173  1
  U  U6  1  0.000000  0.456132  0.105316  1
  U  U7  1  0.000000  0.543810  0.894732  1
  B  B8  1  0.500000  0.553073  0.433410  1
  B  B9  1  0.500000  0.451431  0.569080  1
  B  B10  1  0.500000  0.049431  0.066513  1
  B  B11  1  0.500000  0.950003  0.932893  1
  B  B12  1  0.500000  0.743150  0.424655  1
  B  B13  1  0.500000  0.255519  0.577319  1
  B  B14  1  0.500000  0.243405  0.075751  1
  B  B15  1  0.500000  0.756805  0.924144  1
  B  B16  1  0.500000  0.803722  0.272711  1
  B  B17  1  0.500000  0.196454  0.727676  1
  B  B18  1  0.500000  0.302531  0.225054  1
  B  B19  1  0.500000  0.696456  0.772421  1
  B  B20  1  0.500000  0.644429  0.187442  1
  B  B21  1  0.500000  0.355371  0.812793  1
  B  B22  1  0.500000  0.142459  0.311606  1
  B  B23  1  0.500000  0.855330  0.687575  1
  B  B24  1  0.500000  0.985535  0.218037  1
  B  B25  1  0.500000  0.014392  0.781496  1
  B  B26  1  0.500000  0.487856  0.279955  1
  B  B27  1  0.500000  0.515312  0.718262  1
  B  B28  1  0.500000  0.642570  0.039277  1
  B  B29  1  0.500000  0.357920  0.960806  1
  B  B30  1  0.500000  0.137572  0.461754  1
  B  B31  1  0.500000  0.857555  0.539753  1
  Mo  Mo32  1  0.000000  0.648495  0.319044  1
  Mo  Mo33  1  0.000000  0.355273  0.682888  1
  Mo  Mo34  1  0.000000  0.142765  0.177233  1
  Mo  Mo35  1  0.000000  0.855047  0.820264  1
