# generated using pymatgen
data_SrCaSb3
_symmetry_space_group_name_H-M   'P 1'
_cell_length_a   6.43314800
_cell_length_b   6.66466500
_cell_length_c   14.63385400
_cell_angle_alpha   90.00000000
_cell_angle_beta   90.00000000
_cell_angle_gamma   90.00000000
_symmetry_Int_Tables_number   1
_chemical_formula_structural   SrCaSb3
_chemical_formula_sum   'Sr4 Ca4 Sb12'
_cell_volume   627.42321688
_cell_formula_units_Z   4
loop_
 _symmetry_equiv_pos_site_id
 _symmetry_equiv_pos_as_xyz
  1  'x, y, z'
loop_
 _atom_site_type_symbol
 _atom_site_label
 _atom_site_symmetry_multiplicity
 _atom_site_fract_x
 _atom_site_fract_y
 _atom_site_fract_z
 _atom_site_occupancy
  Sr  Sr0  1  0.947323  0.000000  0.250000  1
  Sr  Sr1  1  0.552677  0.500000  0.250000  1
  Sr  Sr2  1  0.052677  0.000000  0.750000  1
  Sr  Sr3  1  0.447323  0.500000  0.750000  1
  Ca  Ca4  1  0.750000  0.750000  0.998899  1
  Ca  Ca5  1  0.750000  0.250000  0.501101  1
  Ca  Ca6  1  0.250000  0.250000  0.001101  1
  Ca  Ca7  1  0.250000  0.750000  0.498899  1
  Sb  Sb8  1  0.750000  0.750000  0.437816  1
  Sb  Sb9  1  0.750000  0.250000  0.062184  1
  Sb  Sb10  1  0.250000  0.250000  0.562184  1
  Sb  Sb11  1  0.250000  0.750000  0.937816  1
  Sb  Sb12  1  0.428377  0.941540  0.149411  1
  Sb  Sb13  1  0.428377  0.058460  0.350589  1
  Sb  Sb14  1  0.071623  0.441540  0.350589  1
  Sb  Sb15  1  0.071623  0.558460  0.149411  1
  Sb  Sb16  1  0.571623  0.058460  0.850589  1
  Sb  Sb17  1  0.571623  0.941540  0.649411  1
  Sb  Sb18  1  0.928377  0.558460  0.649411  1
  Sb  Sb19  1  0.928377  0.441540  0.850589  1
