# generated using pymatgen
data_Y2Er4ReB14Ru
_symmetry_space_group_name_H-M   'P 1'
_cell_length_a   8.01543316
_cell_length_b   8.01543345
_cell_length_c   9.30952300
_cell_angle_alpha   90.00000000
_cell_angle_beta   90.00000000
_cell_angle_gamma   154.64227828
_symmetry_Int_Tables_number   1
_chemical_formula_structural   Y2Er4ReB14Ru
_chemical_formula_sum   'Y2 Er4 Re1 B14 Ru1'
_cell_volume   256.15186375
_cell_formula_units_Z   1
loop_
 _symmetry_equiv_pos_site_id
 _symmetry_equiv_pos_as_xyz
  1  'x, y, z'
loop_
 _atom_site_type_symbol
 _atom_site_label
 _atom_site_symmetry_multiplicity
 _atom_site_fract_x
 _atom_site_fract_y
 _atom_site_fract_z
 _atom_site_occupancy
  Y  Y0  1  0.244089  0.755911  0.250000  1
  Y  Y1  1  0.755968  0.244032  0.750000  1
  Er  Er2  1  0.894621  0.105379  0.440500  1
  Er  Er3  1  0.105510  0.894490  0.560288  1
  Er  Er4  1  0.894621  0.105379  0.059500  1
  Er  Er5  1  0.105510  0.894490  0.939712  1
  Re  Re6  1  0.947725  0.052275  0.750000  1
  B  B7  1  0.726905  0.273095  0.465508  1
  B  B8  1  0.272439  0.727561  0.533247  1
  B  B9  1  0.726905  0.273095  0.034492  1
  B  B10  1  0.272439  0.727561  0.966753  1
  B  B11  1  0.631301  0.368699  0.151032  1
  B  B12  1  0.367920  0.632080  0.849568  1
  B  B13  1  0.631301  0.368699  0.348968  1
  B  B14  1  0.367920  0.632080  0.650432  1
  B  B15  1  0.520228  0.479772  0.096020  1
  B  B16  1  0.479965  0.520035  0.905072  1
  B  B17  1  0.520228  0.479772  0.403980  1
  B  B18  1  0.479965  0.520035  0.594928  1
  B  B19  1  0.455921  0.544079  0.250000  1
  B  B20  1  0.545130  0.454870  0.750000  1
  Ru  Ru21  1  0.053391  0.946609  0.250000  1
