# generated using pymatgen
data_MnCrB2(PbO4)2
_symmetry_space_group_name_H-M   'P 1'
_cell_length_a   6.08633283
_cell_length_b   7.15345200
_cell_length_c   8.40246219
_cell_angle_alpha   89.99948487
_cell_angle_beta   91.97307042
_cell_angle_gamma   90.00009990
_symmetry_Int_Tables_number   1
_chemical_formula_structural   MnCrB2(PbO4)2
_chemical_formula_sum   'Mn2 Cr2 B4 Pb4 O16'
_cell_volume   365.61194087
_cell_formula_units_Z   2
loop_
 _symmetry_equiv_pos_site_id
 _symmetry_equiv_pos_as_xyz
  1  'x, y, z'
loop_
 _atom_site_type_symbol
 _atom_site_label
 _atom_site_symmetry_multiplicity
 _atom_site_fract_x
 _atom_site_fract_y
 _atom_site_fract_z
 _atom_site_occupancy
  Mn  Mn0  1  0.000030  0.999994  0.000080  1
  Mn  Mn1  1  0.499957  0.499964  0.499942  1
  Cr  Cr2  1  0.000007  0.499992  0.499913  1
  Cr  Cr3  1  0.499981  0.000009  0.000004  1
  B  B4  1  0.238939  0.780966  0.738022  1
  B  B5  1  0.261047  0.280989  0.761978  1
  B  B6  1  0.761065  0.218991  0.261963  1
  B  B7  1  0.738920  0.719017  0.238031  1
  Pb  Pb8  1  0.240696  0.571481  0.142812  1
  Pb  Pb9  1  0.259343  0.071451  0.357196  1
  Pb  Pb10  1  0.759286  0.428577  0.857101  1
  Pb  Pb11  1  0.740752  0.928548  0.642913  1
  O  O12  1  0.227692  0.685296  0.595717  1
  O  O13  1  0.272285  0.185327  0.904282  1
  O  O14  1  0.772297  0.314729  0.404262  1
  O  O15  1  0.727684  0.814752  0.095740  1
  O  O16  1  0.044944  0.829844  0.812996  1
  O  O17  1  0.455067  0.329865  0.687037  1
  O  O18  1  0.955110  0.170105  0.187091  1
  O  O19  1  0.544898  0.670130  0.312945  1
  O  O20  1  0.558056  0.167906  0.193668  1
  O  O21  1  0.941943  0.667907  0.306321  1
  O  O22  1  0.441942  0.832087  0.806374  1
  O  O23  1  0.058053  0.332092  0.693614  1
  O  O24  1  0.247828  0.901384  0.116801  1
  O  O25  1  0.252175  0.401353  0.383201  1
  O  O26  1  0.752228  0.098639  0.883354  1
  O  O27  1  0.747778  0.598605  0.616644  1
