# generated using pymatgen
data_Er15ThCd3Ni4Hg
_symmetry_space_group_name_H-M   'P 1'
_cell_length_a   9.46379335
_cell_length_b   9.46379289
_cell_length_c   9.46379369
_cell_angle_alpha   60.16106697
_cell_angle_beta   60.16106743
_cell_angle_gamma   60.16107044
_symmetry_Int_Tables_number   1
_chemical_formula_structural   Er15ThCd3Ni4Hg
_chemical_formula_sum   'Er15 Th1 Cd3 Ni4 Hg1'
_cell_volume   601.53680787
_cell_formula_units_Z   1
loop_
 _symmetry_equiv_pos_site_id
 _symmetry_equiv_pos_as_xyz
  1  'x, y, z'
loop_
 _atom_site_type_symbol
 _atom_site_label
 _atom_site_symmetry_multiplicity
 _atom_site_fract_x
 _atom_site_fract_y
 _atom_site_fract_z
 _atom_site_occupancy
  Er  Er0  1  0.350511  0.350511  0.946426  1
  Er  Er1  1  0.350511  0.946426  0.350511  1
  Er  Er2  1  0.946426  0.350511  0.350511  1
  Er  Er3  1  0.813513  0.188474  0.188474  1
  Er  Er4  1  0.190000  0.812746  0.812746  1
  Er  Er5  1  0.188474  0.813513  0.188474  1
  Er  Er6  1  0.812746  0.190000  0.812746  1
  Er  Er7  1  0.188474  0.188474  0.813513  1
  Er  Er8  1  0.812746  0.812746  0.190000  1
  Er  Er9  1  0.935872  0.565606  0.565606  1
  Er  Er10  1  0.563940  0.937333  0.937333  1
  Er  Er11  1  0.565606  0.935872  0.565606  1
  Er  Er12  1  0.937333  0.563940  0.937333  1
  Er  Er13  1  0.565606  0.565606  0.935872  1
  Er  Er14  1  0.937333  0.937333  0.563940  1
  Th  Th15  1  0.343338  0.343338  0.343338  1
  Cd  Cd16  1  0.581462  0.581462  0.254531  1
  Cd  Cd17  1  0.581462  0.254531  0.581462  1
  Cd  Cd18  1  0.254531  0.581462  0.581462  1
  Ni  Ni19  1  0.143509  0.143509  0.143509  1
  Ni  Ni20  1  0.140544  0.140544  0.571249  1
  Ni  Ni21  1  0.140544  0.571249  0.140544  1
  Ni  Ni22  1  0.571249  0.140544  0.140544  1
  Hg  Hg23  1  0.584268  0.584268  0.584268  1
