# generated using pymatgen
data_Ti3Mn3SiAs2
_symmetry_space_group_name_H-M   'P 1'
_cell_length_a   6.42952300
_cell_length_b   6.42952253
_cell_length_c   3.41315100
_cell_angle_alpha   90.00000000
_cell_angle_beta   90.00000000
_cell_angle_gamma   119.99999727
_symmetry_Int_Tables_number   1
_chemical_formula_structural   Ti3Mn3SiAs2
_chemical_formula_sum   'Ti3 Mn3 Si1 As2'
_cell_volume   122.19223899
_cell_formula_units_Z   1
loop_
 _symmetry_equiv_pos_site_id
 _symmetry_equiv_pos_as_xyz
  1  'x, y, z'
loop_
 _atom_site_type_symbol
 _atom_site_label
 _atom_site_symmetry_multiplicity
 _atom_site_fract_x
 _atom_site_fract_y
 _atom_site_fract_z
 _atom_site_occupancy
  Ti  Ti0  1  0.596843  0.000000  0.000000  1
  Ti  Ti1  1  0.000000  0.596843  0.000000  1
  Ti  Ti2  1  0.403157  0.403157  0.000000  1
  Mn  Mn3  1  0.246635  0.000000  0.500000  1
  Mn  Mn4  1  0.000000  0.246635  0.500000  1
  Mn  Mn5  1  0.753365  0.753365  0.500000  1
  Si  Si6  1  0.000000  0.000000  0.000000  1
  As  As7  1  0.333333  0.666667  0.500000  1
  As  As8  1  0.666667  0.333333  0.500000  1
