# generated using pymatgen
data_Cs7Cl
_symmetry_space_group_name_H-M   'P 1'
_cell_length_a   25.85097476
_cell_length_b   4.76553773
_cell_length_c   25.86437900
_cell_angle_alpha   90.82268599
_cell_angle_beta   10.66983505
_cell_angle_gamma   90.42382543
_symmetry_Int_Tables_number   1
_chemical_formula_structural   Cs7Cl
_chemical_formula_sum   'Cs7 Cl1'
_cell_volume   589.49812792
_cell_formula_units_Z   1
loop_
 _symmetry_equiv_pos_site_id
 _symmetry_equiv_pos_as_xyz
  1  'x, y, z'
loop_
 _atom_site_type_symbol
 _atom_site_label
 _atom_site_symmetry_multiplicity
 _atom_site_fract_x
 _atom_site_fract_y
 _atom_site_fract_z
 _atom_site_occupancy
  Cs  Cs0  1  0.594276  0.714797  0.997151  1
  Cs  Cs1  1  0.471274  0.741748  0.827890  1
  Cs  Cs2  1  0.036331  0.212095  0.408142  1
  Cs  Cs3  1  0.162999  0.252726  0.575667  1
  Cs  Cs4  1  0.748081  0.821488  0.138003  1
  Cs  Cs5  1  0.898174  0.303233  0.258165  1
  Cs  Cs6  1  0.328679  0.403270  0.690537  1
  Cl  Cl7  1  0.819003  0.797693  0.206056  1
