# generated using pymatgen
data_AlV3Ir4
_symmetry_space_group_name_H-M   'P 1'
_cell_length_a   6.64431702
_cell_length_b   6.64431629
_cell_length_c   2.84288400
_cell_angle_alpha   90.00000000
_cell_angle_beta   90.00000000
_cell_angle_gamma   117.84789578
_symmetry_Int_Tables_number   1
_chemical_formula_structural   AlV3Ir4
_chemical_formula_sum   'Al1 V3 Ir4'
_cell_volume   110.97004775
_cell_formula_units_Z   1
loop_
 _symmetry_equiv_pos_site_id
 _symmetry_equiv_pos_as_xyz
  1  'x, y, z'
loop_
 _atom_site_type_symbol
 _atom_site_label
 _atom_site_symmetry_multiplicity
 _atom_site_fract_x
 _atom_site_fract_y
 _atom_site_fract_z
 _atom_site_occupancy
  Al  Al0  1  0.500000  0.500000  0.500000  1
  V  V1  1  0.223255  0.776745  0.500000  1
  V  V2  1  0.000000  0.000000  0.500000  1
  V  V3  1  0.776745  0.223255  0.500000  1
  Ir  Ir4  1  0.854930  0.602353  0.000000  1
  Ir  Ir5  1  0.397647  0.145070  0.000000  1
  Ir  Ir6  1  0.145070  0.397647  0.000000  1
  Ir  Ir7  1  0.602353  0.854930  0.000000  1
