# generated using pymatgen
data_CoSn16Ir2Pd
_symmetry_space_group_name_H-M   'P 1'
_cell_length_a   12.66398775
_cell_length_b   12.66398789
_cell_length_c   12.66593860
_cell_angle_alpha   150.92289266
_cell_angle_beta   150.92289100
_cell_angle_gamma   41.56511095
_symmetry_Int_Tables_number   1
_chemical_formula_structural   CoSn16Ir2Pd
_chemical_formula_sum   'Co1 Sn16 Ir2 Pd1'
_cell_volume   478.71278059
_cell_formula_units_Z   1
loop_
 _symmetry_equiv_pos_site_id
 _symmetry_equiv_pos_as_xyz
  1  'x, y, z'
loop_
 _atom_site_type_symbol
 _atom_site_label
 _atom_site_symmetry_multiplicity
 _atom_site_fract_x
 _atom_site_fract_y
 _atom_site_fract_z
 _atom_site_occupancy
  Co  Co0  1  0.000000  0.500000  0.500000  1
  Sn  Sn1  1  0.985235  0.485285  0.845196  1
  Sn  Sn2  1  0.359960  0.859909  0.845196  1
  Sn  Sn3  1  0.014715  0.514765  0.154804  1
  Sn  Sn4  1  0.251890  0.606836  0.984014  1
  Sn  Sn5  1  0.106755  0.121569  0.354359  1
  Sn  Sn6  1  0.859710  0.014500  0.500421  1
  Sn  Sn7  1  0.514080  0.359289  0.499579  1
  Sn  Sn8  1  0.140711  0.985920  0.500421  1
  Sn  Sn9  1  0.485500  0.640290  0.499579  1
  Sn  Sn10  1  0.747605  0.732791  0.354359  1
  Sn  Sn11  1  0.378431  0.393245  0.645641  1
  Sn  Sn12  1  0.767209  0.752395  0.645641  1
  Sn  Sn13  1  0.640091  0.140040  0.154804  1
  Sn  Sn14  1  0.893164  0.248110  0.015986  1
  Sn  Sn15  1  0.232124  0.877177  0.984014  1
  Sn  Sn16  1  0.622823  0.267876  0.015986  1
  Ir  Ir17  1  0.750000  0.750000  0.000000  1
  Ir  Ir18  1  0.250000  0.250000  0.000000  1
  Pd  Pd19  1  0.500000  0.000000  0.500000  1
