# generated using pymatgen
data_ErPaZnCuRh2
_symmetry_space_group_name_H-M   'P 1'
_cell_length_a   3.77966700
_cell_length_b   7.06322823
_cell_length_c   8.34879545
_cell_angle_alpha   92.38805466
_cell_angle_beta   90.00000000
_cell_angle_gamma   90.00000000
_symmetry_Int_Tables_number   1
_chemical_formula_structural   ErPaZnCuRh2
_chemical_formula_sum   'Er2 Pa2 Zn2 Cu2 Rh4'
_cell_volume   222.69130863
_cell_formula_units_Z   2
loop_
 _symmetry_equiv_pos_site_id
 _symmetry_equiv_pos_as_xyz
  1  'x, y, z'
loop_
 _atom_site_type_symbol
 _atom_site_label
 _atom_site_symmetry_multiplicity
 _atom_site_fract_x
 _atom_site_fract_y
 _atom_site_fract_z
 _atom_site_occupancy
  Er  Er0  1  0.750000  0.938778  0.682007  1
  Er  Er1  1  0.250000  0.061222  0.317993  1
  Pa  Pa2  1  0.250000  0.546438  0.201149  1
  Pa  Pa3  1  0.750000  0.453562  0.798851  1
  Zn  Zn4  1  0.750000  0.885062  0.063635  1
  Zn  Zn5  1  0.250000  0.114938  0.936365  1
  Cu  Cu6  1  0.250000  0.626506  0.558163  1
  Cu  Cu7  1  0.750000  0.373494  0.441837  1
  Rh  Rh8  1  0.250000  0.718344  0.881559  1
  Rh  Rh9  1  0.750000  0.281656  0.118441  1
  Rh  Rh10  1  0.750000  0.749190  0.354793  1
  Rh  Rh11  1  0.250000  0.250810  0.645207  1
