# generated using pymatgen
data_Nb12VSi4Os7C4
_symmetry_space_group_name_H-M   'P 1'
_cell_length_a   8.30269506
_cell_length_b   8.30262313
_cell_length_c   8.26556755
_cell_angle_alpha   59.85096910
_cell_angle_beta   59.85215733
_cell_angle_gamma   59.99988451
_symmetry_Int_Tables_number   1
_chemical_formula_structural   Nb12VSi4Os7C4
_chemical_formula_sum   'Nb12 V1 Si4 Os7 C4'
_cell_volume   401.98853974
_cell_formula_units_Z   1
loop_
 _symmetry_equiv_pos_site_id
 _symmetry_equiv_pos_as_xyz
  1  'x, y, z'
loop_
 _atom_site_type_symbol
 _atom_site_label
 _atom_site_symmetry_multiplicity
 _atom_site_fract_x
 _atom_site_fract_y
 _atom_site_fract_z
 _atom_site_occupancy
  Nb  Nb0  1  0.552350  0.552367  0.948846  1
  Nb  Nb1  1  0.945641  0.945597  0.550300  1
  Nb  Nb2  1  0.696648  0.696564  0.303302  1
  Nb  Nb3  1  0.302873  0.698666  0.695597  1
  Nb  Nb4  1  0.696609  0.303520  0.303297  1
  Nb  Nb5  1  0.302888  0.302867  0.695584  1
  Nb  Nb6  1  0.558453  0.945609  0.550306  1
  Nb  Nb7  1  0.303459  0.696592  0.303308  1
  Nb  Nb8  1  0.946436  0.552358  0.948857  1
  Nb  Nb9  1  0.945628  0.558474  0.550289  1
  Nb  Nb10  1  0.698656  0.302880  0.695571  1
  Nb  Nb11  1  0.552361  0.946441  0.948832  1
  V  V12  1  0.919719  0.919738  0.240814  1
  Si  Si13  1  0.124532  0.124514  0.626429  1
  Si  Si14  1  0.123993  0.624206  0.127793  1
  Si  Si15  1  0.624247  0.123989  0.127798  1
  Si  Si16  1  0.123966  0.124004  0.127801  1
  Os  Os17  1  0.249104  0.916507  0.917888  1
  Os  Os18  1  0.916520  0.249066  0.917894  1
  Os  Os19  1  0.332606  0.332583  0.334049  1
  Os  Os20  1  0.332577  0.000804  0.334053  1
  Os  Os21  1  0.333008  0.333019  0.000959  1
  Os  Os22  1  0.000731  0.332605  0.334046  1
  Os  Os23  1  0.916508  0.916514  0.917889  1
  C  C24  1  0.626534  0.626498  0.120444  1
  C  C25  1  0.125223  0.624386  0.626016  1
  C  C26  1  0.624360  0.125248  0.626024  1
  C  C27  1  0.624365  0.624385  0.626018  1
