# generated using pymatgen
data_SmThPbAu2
_symmetry_space_group_name_H-M   'P 1'
_cell_length_a   8.09455500
_cell_length_b   8.11449400
_cell_length_c   3.99480900
_cell_angle_alpha   90.00000000
_cell_angle_beta   90.00000000
_cell_angle_gamma   90.00000000
_symmetry_Int_Tables_number   1
_chemical_formula_structural   SmThPbAu2
_chemical_formula_sum   'Sm2 Th2 Pb2 Au4'
_cell_volume   262.39191034
_cell_formula_units_Z   2
loop_
 _symmetry_equiv_pos_site_id
 _symmetry_equiv_pos_as_xyz
  1  'x, y, z'
loop_
 _atom_site_type_symbol
 _atom_site_label
 _atom_site_symmetry_multiplicity
 _atom_site_fract_x
 _atom_site_fract_y
 _atom_site_fract_z
 _atom_site_occupancy
  Sm  Sm0  1  0.172160  0.673511  0.500000  1
  Sm  Sm1  1  0.672159  0.826488  0.500000  1
  Th  Th2  1  0.327750  0.170671  0.500000  1
  Th  Th3  1  0.827750  0.329329  0.500000  1
  Pb  Pb4  1  0.998995  0.996005  0.000000  1
  Pb  Pb5  1  0.498995  0.503995  0.000000  1
  Au  Au6  1  0.625944  0.125061  0.000000  1
  Au  Au7  1  0.125945  0.374939  0.000000  1
  Au  Au8  1  0.875152  0.624508  0.000000  1
  Au  Au9  1  0.375151  0.875492  0.000000  1
