# generated using pymatgen
data_Dy12Ga8Si11Ge
_symmetry_space_group_name_H-M   'P 1'
_cell_length_a   5.97416770
_cell_length_b   9.44661800
_cell_length_c   11.57340700
_cell_angle_alpha   90.00000000
_cell_angle_beta   89.92810894
_cell_angle_gamma   90.00000000
_symmetry_Int_Tables_number   1
_chemical_formula_structural   Dy12Ga8Si11Ge
_chemical_formula_sum   'Dy12 Ga8 Si11 Ge1'
_cell_volume   653.15258162
_cell_formula_units_Z   1
loop_
 _symmetry_equiv_pos_site_id
 _symmetry_equiv_pos_as_xyz
  1  'x, y, z'
loop_
 _atom_site_type_symbol
 _atom_site_label
 _atom_site_symmetry_multiplicity
 _atom_site_fract_x
 _atom_site_fract_y
 _atom_site_fract_z
 _atom_site_occupancy
  Dy  Dy0  1  0.861268  0.750000  0.078569  1
  Dy  Dy1  1  0.635037  0.750000  0.581473  1
  Dy  Dy2  1  0.134619  0.250000  0.918545  1
  Dy  Dy3  1  0.365555  0.250000  0.418678  1
  Dy  Dy4  1  0.875658  0.496720  0.350275  1
  Dy  Dy5  1  0.623569  0.000687  0.849338  1
  Dy  Dy6  1  0.123469  0.999983  0.650842  1
  Dy  Dy7  1  0.377869  0.499009  0.150024  1
  Dy  Dy8  1  0.123469  0.500017  0.650842  1
  Dy  Dy9  1  0.377869  0.000991  0.150024  1
  Dy  Dy10  1  0.875658  0.003280  0.350275  1
  Dy  Dy11  1  0.623569  0.499313  0.849338  1
  Ga  Ga12  1  0.866502  0.054266  0.088356  1
  Ga  Ga13  1  0.634035  0.445790  0.588895  1
  Ga  Ga14  1  0.133830  0.553970  0.911424  1
  Ga  Ga15  1  0.367151  0.945980  0.412413  1
  Ga  Ga16  1  0.133830  0.946030  0.911424  1
  Ga  Ga17  1  0.367151  0.554020  0.412413  1
  Ga  Ga18  1  0.866502  0.445734  0.088356  1
  Ga  Ga19  1  0.634035  0.054210  0.588895  1
  Si  Si20  1  0.338319  0.750000  0.777441  1
  Si  Si21  1  0.838389  0.250000  0.722752  1
  Si  Si22  1  0.661301  0.250000  0.222205  1
  Si  Si23  1  0.392788  0.750000  0.992310  1
  Si  Si24  1  0.107641  0.750000  0.495264  1
  Si  Si25  1  0.606305  0.250000  0.007134  1
  Si  Si26  1  0.894430  0.250000  0.508160  1
  Si  Si27  1  0.588630  0.750000  0.300724  1
  Si  Si28  1  0.916269  0.750000  0.799449  1
  Si  Si29  1  0.416699  0.250000  0.700618  1
  Si  Si30  1  0.083898  0.250000  0.200554  1
  Ge  Ge31  1  0.154684  0.750000  0.272986  1
