# generated using pymatgen
data_Tb2TmCo7(NiP3)2
_symmetry_space_group_name_H-M   'P 1'
_cell_length_a   3.71228900
_cell_length_b   10.47464400
_cell_length_c   12.19674100
_cell_angle_alpha   90.00000000
_cell_angle_beta   90.00000000
_cell_angle_gamma   90.00000000
_symmetry_Int_Tables_number   1
_chemical_formula_structural   Tb2TmCo7(NiP3)2
_chemical_formula_sum   'Tb4 Tm2 Co14 Ni4 P12'
_cell_volume   474.26912363
_cell_formula_units_Z   2
loop_
 _symmetry_equiv_pos_site_id
 _symmetry_equiv_pos_as_xyz
  1  'x, y, z'
loop_
 _atom_site_type_symbol
 _atom_site_label
 _atom_site_symmetry_multiplicity
 _atom_site_fract_x
 _atom_site_fract_y
 _atom_site_fract_z
 _atom_site_occupancy
  Tb  Tb0  1  0.000000  0.500000  0.520569  1
  Tb  Tb1  1  0.500000  0.000000  0.478012  1
  Tb  Tb2  1  0.000000  0.685195  0.794503  1
  Tb  Tb3  1  0.000000  0.314805  0.794503  1
  Tm  Tm4  1  0.500000  0.815721  0.205828  1
  Tm  Tm5  1  0.500000  0.184279  0.205828  1
  Co  Co6  1  0.000000  0.500000  0.985845  1
  Co  Co7  1  0.500000  0.000000  0.017812  1
  Co  Co8  1  0.500000  0.333292  0.997189  1
  Co  Co9  1  0.500000  0.666708  0.997189  1
  Co  Co10  1  0.000000  0.164912  0.005260  1
  Co  Co11  1  0.000000  0.835088  0.005260  1
  Co  Co12  1  0.500000  0.298377  0.428789  1
  Co  Co13  1  0.500000  0.701623  0.428789  1
  Co  Co14  1  0.000000  0.201503  0.568891  1
  Co  Co15  1  0.000000  0.798497  0.568891  1
  Co  Co16  1  0.500000  0.879760  0.710314  1
  Co  Co17  1  0.500000  0.120240  0.710314  1
  Co  Co18  1  0.000000  0.621490  0.288371  1
  Co  Co19  1  0.000000  0.378510  0.288371  1
  Ni  Ni20  1  0.500000  0.500000  0.161670  1
  Ni  Ni21  1  0.000000  0.000000  0.838262  1
  Ni  Ni22  1  0.500000  0.500000  0.703201  1
  Ni  Ni23  1  0.000000  0.000000  0.296474  1
  P  P24  1  0.500000  0.500000  0.884003  1
  P  P25  1  0.000000  0.000000  0.118964  1
  P  P26  1  0.500000  0.500000  0.345127  1
  P  P27  1  0.000000  0.000000  0.653667  1
  P  P28  1  0.500000  0.309339  0.614479  1
  P  P29  1  0.500000  0.690661  0.614479  1
  P  P30  1  0.000000  0.190037  0.383093  1
  P  P31  1  0.000000  0.809963  0.383093  1
  P  P32  1  0.500000  0.847673  0.895677  1
  P  P33  1  0.500000  0.152327  0.895677  1
  P  P34  1  0.000000  0.654958  0.105801  1
  P  P35  1  0.000000  0.345042  0.105801  1
