# generated using pymatgen
data_NaReCl6
_symmetry_space_group_name_H-M   'P 1'
_cell_length_a   6.94115500
_cell_length_b   6.54509579
_cell_length_c   19.49296703
_cell_angle_alpha   89.34648906
_cell_angle_beta   90.00000000
_cell_angle_gamma   90.00000000
_symmetry_Int_Tables_number   1
_chemical_formula_structural   NaReCl6
_chemical_formula_sum   'Na4 Re4 Cl24'
_cell_volume   885.51810922
_cell_formula_units_Z   4
loop_
 _symmetry_equiv_pos_site_id
 _symmetry_equiv_pos_as_xyz
  1  'x, y, z'
loop_
 _atom_site_type_symbol
 _atom_site_label
 _atom_site_symmetry_multiplicity
 _atom_site_fract_x
 _atom_site_fract_y
 _atom_site_fract_z
 _atom_site_occupancy
  Na  Na0  1  0.810905  0.210611  0.747332  1
  Na  Na1  1  0.310905  0.789389  0.752668  1
  Na  Na2  1  0.189095  0.789389  0.252668  1
  Na  Na3  1  0.689095  0.210611  0.247332  1
  Re  Re4  1  0.717127  0.744777  0.618283  1
  Re  Re5  1  0.217127  0.255223  0.881717  1
  Re  Re6  1  0.282873  0.255223  0.381717  1
  Re  Re7  1  0.782873  0.744777  0.118283  1
  Cl  Cl8  1  0.818672  0.615913  0.234607  1
  Cl  Cl9  1  0.318672  0.384087  0.265393  1
  Cl  Cl10  1  0.181328  0.384087  0.765393  1
  Cl  Cl11  1  0.681328  0.615913  0.734607  1
  Cl  Cl12  1  0.604238  0.460649  0.093318  1
  Cl  Cl13  1  0.104238  0.539351  0.406682  1
  Cl  Cl14  1  0.395762  0.539351  0.906682  1
  Cl  Cl15  1  0.895762  0.460649  0.593318  1
  Cl  Cl16  1  0.500336  0.916715  0.156157  1
  Cl  Cl17  1  0.000336  0.083285  0.343843  1
  Cl  Cl18  1  0.499664  0.083285  0.843843  1
  Cl  Cl19  1  0.999664  0.916715  0.656157  1
  Cl  Cl20  1  0.747070  0.884343  0.012488  1
  Cl  Cl21  1  0.247070  0.115657  0.487513  1
  Cl  Cl22  1  0.252930  0.115657  0.987513  1
  Cl  Cl23  1  0.752930  0.884343  0.512487  1
  Cl  Cl24  1  0.961606  0.035404  0.155878  1
  Cl  Cl25  1  0.461606  0.964596  0.344122  1
  Cl  Cl26  1  0.038394  0.964596  0.844122  1
  Cl  Cl27  1  0.538394  0.035404  0.655878  1
  Cl  Cl28  1  0.067848  0.590768  0.090215  1
  Cl  Cl29  1  0.567848  0.409232  0.409785  1
  Cl  Cl30  1  0.932152  0.409232  0.909785  1
  Cl  Cl31  1  0.432152  0.590768  0.590215  1
