# generated using pymatgen
data_SmYU4O12
_symmetry_space_group_name_H-M   'P 1'
_cell_length_a   6.64500028
_cell_length_b   6.64500053
_cell_length_c   6.60185845
_cell_angle_alpha   80.31558674
_cell_angle_beta   80.31559149
_cell_angle_gamma   120.16699072
_symmetry_Int_Tables_number   1
_chemical_formula_structural   SmYU4O12
_chemical_formula_sum   'Sm1 Y1 U4 O12'
_cell_volume   237.26162348
_cell_formula_units_Z   1
loop_
 _symmetry_equiv_pos_site_id
 _symmetry_equiv_pos_as_xyz
  1  'x, y, z'
loop_
 _atom_site_type_symbol
 _atom_site_label
 _atom_site_symmetry_multiplicity
 _atom_site_fract_x
 _atom_site_fract_y
 _atom_site_fract_z
 _atom_site_occupancy
  Sm  Sm0  1  0.499760  0.500240  0.500000  1
  Y  Y1  1  0.833591  0.166409  0.500000  1
  U  U2  1  0.166934  0.833066  0.500000  1
  U  U3  1  0.668023  0.331977  0.000000  1
  U  U4  1  0.999500  0.000500  0.000000  1
  U  U5  1  0.332328  0.667672  0.000000  1
  O  O6  1  0.115573  0.110054  0.637716  1
  O  O7  1  0.703040  0.040221  0.884931  1
  O  O8  1  0.959779  0.296960  0.115069  1
  O  O9  1  0.369340  0.367166  0.889074  1
  O  O10  1  0.042402  0.707604  0.881661  1
  O  O11  1  0.534645  0.198602  0.365408  1
  O  O12  1  0.889946  0.884427  0.362284  1
  O  O13  1  0.448029  0.789518  0.636926  1
  O  O14  1  0.632834  0.630660  0.110926  1
  O  O15  1  0.292396  0.957598  0.118339  1
  O  O16  1  0.801398  0.465355  0.634592  1
  O  O17  1  0.210482  0.551971  0.363074  1
