# generated using pymatgen
data_CoAgBiIrO7
_symmetry_space_group_name_H-M   'P 1'
_cell_length_a   7.11663989
_cell_length_b   7.01367217
_cell_length_c   7.11664023
_cell_angle_alpha   60.47748028
_cell_angle_beta   61.70992028
_cell_angle_gamma   60.47747830
_symmetry_Int_Tables_number   1
_chemical_formula_structural   CoAgBiIrO7
_chemical_formula_sum   'Co2 Ag2 Bi2 Ir2 O14'
_cell_volume   256.12927410
_cell_formula_units_Z   2
loop_
 _symmetry_equiv_pos_site_id
 _symmetry_equiv_pos_as_xyz
  1  'x, y, z'
loop_
 _atom_site_type_symbol
 _atom_site_label
 _atom_site_symmetry_multiplicity
 _atom_site_fract_x
 _atom_site_fract_y
 _atom_site_fract_z
 _atom_site_occupancy
  Co  Co0  1  0.625000  0.125000  0.625000  1
  Co  Co1  1  0.625000  0.625000  0.625000  1
  Ag  Ag2  1  0.125000  0.625000  0.125000  1
  Ag  Ag3  1  0.125000  0.125000  0.125000  1
  Bi  Bi4  1  0.625000  0.125000  0.125000  1
  Bi  Bi5  1  0.125000  0.125000  0.625000  1
  Ir  Ir6  1  0.125000  0.625000  0.625000  1
  Ir  Ir7  1  0.625000  0.625000  0.125000  1
  O  O8  1  0.694673  0.707241  0.303872  1
  O  O9  1  0.303872  0.294213  0.694673  1
  O  O10  1  0.702409  0.297591  0.702409  1
  O  O11  1  0.304960  0.695040  0.304960  1
  O  O12  1  0.303872  0.707241  0.694673  1
  O  O13  1  0.694673  0.294213  0.303872  1
  O  O14  1  0.555327  0.542759  0.946128  1
  O  O15  1  0.946128  0.955787  0.555327  1
  O  O16  1  0.547591  0.952409  0.547591  1
  O  O17  1  0.945040  0.554960  0.945040  1
  O  O18  1  0.946128  0.542759  0.555327  1
  O  O19  1  0.555327  0.955787  0.946128  1
  O  O20  1  0.240675  0.259325  0.240675  1
  O  O21  1  0.009325  0.990675  0.009325  1
