# generated using pymatgen
data_LaSmDy17YSi15Pt
_symmetry_space_group_name_H-M   'P 1'
_cell_length_a   7.42542262
_cell_length_b   7.75862907
_cell_length_c   14.68087567
_cell_angle_alpha   89.71326061
_cell_angle_beta   89.93222450
_cell_angle_gamma   90.04186894
_symmetry_Int_Tables_number   1
_chemical_formula_structural   LaSmDy17YSi15Pt
_chemical_formula_sum   'La1 Sm1 Dy17 Y1 Si15 Pt1'
_cell_volume   845.76998028
_cell_formula_units_Z   1
loop_
 _symmetry_equiv_pos_site_id
 _symmetry_equiv_pos_as_xyz
  1  'x, y, z'
loop_
 _atom_site_type_symbol
 _atom_site_label
 _atom_site_symmetry_multiplicity
 _atom_site_fract_x
 _atom_site_fract_y
 _atom_site_fract_z
 _atom_site_occupancy
  La  La0  1  0.022960  0.428053  0.656488  1
  Sm  Sm1  1  0.524301  0.568237  0.343697  1
  Dy  Dy2  1  0.810722  0.576149  0.875371  1
  Dy  Dy3  1  0.319690  0.427981  0.125637  1
  Dy  Dy4  1  0.182952  0.927407  0.372942  1
  Dy  Dy5  1  0.682161  0.069230  0.626474  1
  Dy  Dy6  1  0.183951  0.927251  0.627692  1
  Dy  Dy7  1  0.681810  0.069503  0.371297  1
  Dy  Dy8  1  0.813454  0.572765  0.126247  1
  Dy  Dy9  1  0.321742  0.431363  0.873653  1
  Dy  Dy10  1  0.643872  0.233872  0.999195  1
  Dy  Dy11  1  0.155745  0.760296  0.000908  1
  Dy  Dy12  1  0.351196  0.263655  0.499712  1
  Dy  Dy13  1  0.850712  0.735174  0.499522  1
  Dy  Dy14  1  0.476211  0.930992  0.846255  1
  Dy  Dy15  1  0.973077  0.066885  0.153002  1
  Dy  Dy16  1  0.474407  0.932026  0.153598  1
  Dy  Dy17  1  0.971748  0.067074  0.848674  1
  Dy  Dy18  1  0.528067  0.565537  0.652065  1
  Y  Y19  1  0.027716  0.433067  0.347943  1
  Si  Si20  1  0.019466  0.352316  0.000359  1
  Si  Si21  1  0.478039  0.856115  0.499883  1
  Si  Si22  1  0.977549  0.139269  0.498527  1
  Si  Si23  1  0.650778  0.276875  0.790312  1
  Si  Si24  1  0.149075  0.721255  0.209909  1
  Si  Si25  1  0.352254  0.218309  0.288646  1
  Si  Si26  1  0.851075  0.784007  0.713014  1
  Si  Si27  1  0.361018  0.219545  0.710737  1
  Si  Si28  1  0.857384  0.778886  0.289326  1
  Si  Si29  1  0.646371  0.273024  0.207753  1
  Si  Si30  1  0.144919  0.728388  0.793016  1
  Si  Si31  1  0.771677  0.882151  0.001136  1
  Si  Si32  1  0.258499  0.126497  0.999905  1
  Si  Si33  1  0.236211  0.626011  0.499885  1
  Si  Si34  1  0.731549  0.374443  0.497273  1
  Pt  Pt35  1  0.517646  0.656389  0.999945  1
