# generated using pymatgen
data_Hf4SiAs
_symmetry_space_group_name_H-M   'P 1'
_cell_length_a   5.33239847
_cell_length_b   5.33239841
_cell_length_c   5.33239755
_cell_angle_alpha   104.35378756
_cell_angle_beta   104.35378277
_cell_angle_gamma   120.27714110
_symmetry_Int_Tables_number   1
_chemical_formula_structural   Hf4SiAs
_chemical_formula_sum   'Hf4 Si1 As1'
_cell_volume   113.55702629
_cell_formula_units_Z   1
loop_
 _symmetry_equiv_pos_site_id
 _symmetry_equiv_pos_as_xyz
  1  'x, y, z'
loop_
 _atom_site_type_symbol
 _atom_site_label
 _atom_site_symmetry_multiplicity
 _atom_site_fract_x
 _atom_site_fract_y
 _atom_site_fract_z
 _atom_site_occupancy
  Hf  Hf0  1  0.657282  0.842718  0.500000  1
  Hf  Hf1  1  0.842718  0.342718  0.185435  1
  Hf  Hf2  1  0.342718  0.157282  0.500000  1
  Hf  Hf3  1  0.157282  0.657282  0.814565  1
  Si  Si4  1  0.250000  0.250000  0.000000  1
  As  As5  1  0.750000  0.750000  0.000000  1
