# generated using pymatgen
data_Er10In3Hg5PdPt3
_symmetry_space_group_name_H-M   'P 1'
_cell_length_a   3.60465400
_cell_length_b   7.94543713
_cell_length_c   18.22581317
_cell_angle_alpha   89.70203020
_cell_angle_beta   90.00000000
_cell_angle_gamma   90.00000000
_symmetry_Int_Tables_number   1
_chemical_formula_structural   Er10In3Hg5PdPt3
_chemical_formula_sum   'Er10 In3 Hg5 Pd1 Pt3'
_cell_volume   521.99028582
_cell_formula_units_Z   1
loop_
 _symmetry_equiv_pos_site_id
 _symmetry_equiv_pos_as_xyz
  1  'x, y, z'
loop_
 _atom_site_type_symbol
 _atom_site_label
 _atom_site_symmetry_multiplicity
 _atom_site_fract_x
 _atom_site_fract_y
 _atom_site_fract_z
 _atom_site_occupancy
  Er  Er0  1  0.000000  0.498705  0.501256  1
  Er  Er1  1  0.000000  0.001422  0.000769  1
  Er  Er2  1  0.000000  0.742665  0.284472  1
  Er  Er3  1  0.000000  0.263307  0.713479  1
  Er  Er4  1  0.000000  0.751397  0.781528  1
  Er  Er5  1  0.000000  0.252172  0.216222  1
  Er  Er6  1  0.000000  0.611201  0.084518  1
  Er  Er7  1  0.000000  0.389949  0.914803  1
  Er  Er8  1  0.000000  0.884534  0.587141  1
  Er  Er9  1  0.000000  0.106354  0.417134  1
  In  In10  1  0.500000  0.418393  0.352543  1
  In  In11  1  0.500000  0.924639  0.150189  1
  In  In12  1  0.500000  0.076791  0.850816  1
  Hg  Hg13  1  0.500000  0.715876  0.935722  1
  Hg  Hg14  1  0.500000  0.286030  0.065304  1
  Hg  Hg15  1  0.500000  0.784513  0.434253  1
  Hg  Hg16  1  0.500000  0.207200  0.562333  1
  Hg  Hg17  1  0.500000  0.576957  0.645091  1
  Pd  Pd18  1  0.500000  0.034194  0.302784  1
  Pt  Pt19  1  0.500000  0.535981  0.198285  1
  Pt  Pt20  1  0.500000  0.465014  0.802893  1
  Pt  Pt21  1  0.500000  0.972707  0.698467  1
