# generated using pymatgen
data_Yb2Dy2VOs7
_symmetry_space_group_name_H-M   'P 1'
_cell_length_a   5.37989200
_cell_length_b   5.37989051
_cell_length_c   8.53810100
_cell_angle_alpha   90.00000000
_cell_angle_beta   90.00000000
_cell_angle_gamma   119.99999686
_symmetry_Int_Tables_number   1
_chemical_formula_structural   Yb2Dy2VOs7
_chemical_formula_sum   'Yb2 Dy2 V1 Os7'
_cell_volume   214.01239539
_cell_formula_units_Z   1
loop_
 _symmetry_equiv_pos_site_id
 _symmetry_equiv_pos_as_xyz
  1  'x, y, z'
loop_
 _atom_site_type_symbol
 _atom_site_label
 _atom_site_symmetry_multiplicity
 _atom_site_fract_x
 _atom_site_fract_y
 _atom_site_fract_z
 _atom_site_occupancy
  Yb  Yb0  1  0.666667  0.333333  0.941427  1
  Yb  Yb1  1  0.333333  0.666667  0.058573  1
  Dy  Dy2  1  0.333333  0.666667  0.424602  1
  Dy  Dy3  1  0.666667  0.333333  0.575398  1
  V  V4  1  0.000000  0.000000  0.500000  1
  Os  Os5  1  0.000000  0.000000  0.000000  1
  Os  Os6  1  0.828537  0.171463  0.254567  1
  Os  Os7  1  0.828537  0.657076  0.254567  1
  Os  Os8  1  0.342924  0.171463  0.254567  1
  Os  Os9  1  0.171463  0.828537  0.745433  1
  Os  Os10  1  0.171463  0.342924  0.745433  1
  Os  Os11  1  0.657076  0.828537  0.745433  1
