# generated using pymatgen
data_DyEr4FeSb2
_symmetry_space_group_name_H-M   'P 1'
_cell_length_a   7.78765500
_cell_length_b   8.73637500
_cell_length_c   12.08778000
_cell_angle_alpha   90.00000000
_cell_angle_beta   90.00000000
_cell_angle_gamma   90.00000000
_symmetry_Int_Tables_number   1
_chemical_formula_structural   DyEr4FeSb2
_chemical_formula_sum   'Dy4 Er16 Fe4 Sb8'
_cell_volume   822.40268247
_cell_formula_units_Z   4
loop_
 _symmetry_equiv_pos_site_id
 _symmetry_equiv_pos_as_xyz
  1  'x, y, z'
loop_
 _atom_site_type_symbol
 _atom_site_label
 _atom_site_symmetry_multiplicity
 _atom_site_fract_x
 _atom_site_fract_y
 _atom_site_fract_z
 _atom_site_occupancy
  Dy  Dy0  1  0.622217  0.750000  0.307829  1
  Dy  Dy1  1  0.877783  0.750000  0.807829  1
  Dy  Dy2  1  0.377783  0.250000  0.692171  1
  Dy  Dy3  1  0.122217  0.250000  0.192171  1
  Er  Er4  1  0.155340  0.750000  0.204536  1
  Er  Er5  1  0.344660  0.750000  0.704536  1
  Er  Er6  1  0.844660  0.250000  0.795464  1
  Er  Er7  1  0.655340  0.250000  0.295464  1
  Er  Er8  1  0.448623  0.750000  0.996053  1
  Er  Er9  1  0.051377  0.750000  0.496053  1
  Er  Er10  1  0.551377  0.250000  0.003947  1
  Er  Er11  1  0.948623  0.250000  0.503947  1
  Er  Er12  1  0.824027  0.535069  0.064300  1
  Er  Er13  1  0.675973  0.964931  0.564300  1
  Er  Er14  1  0.175973  0.035069  0.935700  1
  Er  Er15  1  0.324027  0.464931  0.435700  1
  Er  Er16  1  0.175973  0.464931  0.935700  1
  Er  Er17  1  0.324027  0.035069  0.435700  1
  Er  Er18  1  0.824027  0.964931  0.064300  1
  Er  Er19  1  0.675973  0.535069  0.564300  1
  Fe  Fe20  1  0.429803  0.750000  0.489945  1
  Fe  Fe21  1  0.070197  0.750000  0.989945  1
  Fe  Fe22  1  0.570197  0.250000  0.510055  1
  Fe  Fe23  1  0.929803  0.250000  0.010055  1
  Sb  Sb24  1  0.929694  0.507498  0.328352  1
  Sb  Sb25  1  0.570306  0.992502  0.828352  1
  Sb  Sb26  1  0.070306  0.007498  0.671648  1
  Sb  Sb27  1  0.429694  0.492502  0.171648  1
  Sb  Sb28  1  0.070306  0.492502  0.671648  1
  Sb  Sb29  1  0.429694  0.007498  0.171648  1
  Sb  Sb30  1  0.929694  0.992502  0.328352  1
  Sb  Sb31  1  0.570306  0.507498  0.828352  1
