# generated using pymatgen
data_Np4B16IrRu3
_symmetry_space_group_name_H-M   'P 1'
_cell_length_a   3.50622600
_cell_length_b   6.00094849
_cell_length_c   11.63015953
_cell_angle_alpha   90.00581618
_cell_angle_beta   90.00000000
_cell_angle_gamma   90.00000000
_symmetry_Int_Tables_number   1
_chemical_formula_structural   Np4B16IrRu3
_chemical_formula_sum   'Np4 B16 Ir1 Ru3'
_cell_volume   244.70648274
_cell_formula_units_Z   1
loop_
 _symmetry_equiv_pos_site_id
 _symmetry_equiv_pos_as_xyz
  1  'x, y, z'
loop_
 _atom_site_type_symbol
 _atom_site_label
 _atom_site_symmetry_multiplicity
 _atom_site_fract_x
 _atom_site_fract_y
 _atom_site_fract_z
 _atom_site_occupancy
  Np  Np0  1  0.000000  0.127352  0.648742  1
  Np  Np1  1  0.000000  0.872531  0.349870  1
  Np  Np2  1  0.000000  0.629160  0.849632  1
  Np  Np3  1  0.000000  0.372560  0.150811  1
  B  B4  1  0.500000  0.472155  0.691505  1
  B  B5  1  0.500000  0.527083  0.308325  1
  B  B6  1  0.500000  0.971645  0.807295  1
  B  B7  1  0.500000  0.025401  0.193024  1
  B  B8  1  0.500000  0.288872  0.811051  1
  B  B9  1  0.500000  0.712525  0.187850  1
  B  B10  1  0.500000  0.788506  0.686730  1
  B  B11  1  0.500000  0.212199  0.313063  1
  B  B12  1  0.500000  0.365966  0.969578  1
  B  B13  1  0.500000  0.633702  0.032318  1
  B  B14  1  0.500000  0.865699  0.531612  1
  B  B15  1  0.500000  0.134329  0.468066  1
  B  B16  1  0.500000  0.385640  0.546316  1
  B  B17  1  0.500000  0.614246  0.453313  1
  B  B18  1  0.500000  0.883731  0.953972  1
  B  B19  1  0.500000  0.113336  0.048608  1
  Ir  Ir20  1  0.000000  0.141127  0.906058  1
  Ru  Ru21  1  0.000000  0.862098  0.091864  1
  Ru  Ru22  1  0.000000  0.637730  0.592187  1
  Ru  Ru23  1  0.000000  0.362411  0.408209  1
