# generated using pymatgen
data_HfZr5Ti4(Sb3C)2
_symmetry_space_group_name_H-M   'P 1'
_cell_length_a   8.28161466
_cell_length_b   8.28161479
_cell_length_c   5.67680600
_cell_angle_alpha   90.00000000
_cell_angle_beta   90.00000000
_cell_angle_gamma   120.12160879
_symmetry_Int_Tables_number   1
_chemical_formula_structural   HfZr5Ti4(Sb3C)2
_chemical_formula_sum   'Hf1 Zr5 Ti4 Sb6 C2'
_cell_volume   336.76832371
_cell_formula_units_Z   1
loop_
 _symmetry_equiv_pos_site_id
 _symmetry_equiv_pos_as_xyz
  1  'x, y, z'
loop_
 _atom_site_type_symbol
 _atom_site_label
 _atom_site_symmetry_multiplicity
 _atom_site_fract_x
 _atom_site_fract_y
 _atom_site_fract_z
 _atom_site_occupancy
  Hf  Hf0  1  0.780374  0.780374  0.250000  1
  Zr  Zr1  1  0.226024  0.000873  0.250000  1
  Zr  Zr2  1  0.000873  0.226024  0.250000  1
  Zr  Zr3  1  0.222744  0.222744  0.750000  1
  Zr  Zr4  1  0.773752  0.998569  0.750000  1
  Zr  Zr5  1  0.998569  0.773752  0.750000  1
  Ti  Ti6  1  0.667022  0.333450  0.499778  1
  Ti  Ti7  1  0.333450  0.667022  0.499778  1
  Ti  Ti8  1  0.333450  0.667022  0.000222  1
  Ti  Ti9  1  0.667022  0.333450  0.000222  1
  Sb  Sb10  1  0.411552  0.411552  0.250000  1
  Sb  Sb11  1  0.591624  0.999520  0.250000  1
  Sb  Sb12  1  0.999520  0.591624  0.250000  1
  Sb  Sb13  1  0.589984  0.589984  0.750000  1
  Sb  Sb14  1  0.408549  0.999806  0.750000  1
  Sb  Sb15  1  0.999806  0.408549  0.750000  1
  C  C16  1  0.997842  0.997842  0.498698  1
  C  C17  1  0.997842  0.997842  0.001302  1
