# generated using pymatgen
data_Ca3ErBi3
_symmetry_space_group_name_H-M   'P 1'
_cell_length_a   8.16344956
_cell_length_b   8.38048096
_cell_length_c   8.38048216
_cell_angle_alpha   109.98987417
_cell_angle_beta   108.94745312
_cell_angle_gamma   108.94745279
_symmetry_Int_Tables_number   1
_chemical_formula_structural   Ca3ErBi3
_chemical_formula_sum   'Ca6 Er2 Bi6'
_cell_volume   444.17723296
_cell_formula_units_Z   2
loop_
 _symmetry_equiv_pos_site_id
 _symmetry_equiv_pos_as_xyz
  1  'x, y, z'
loop_
 _atom_site_type_symbol
 _atom_site_label
 _atom_site_symmetry_multiplicity
 _atom_site_fract_x
 _atom_site_fract_y
 _atom_site_fract_z
 _atom_site_occupancy
  Ca  Ca0  1  0.500925  0.000116  0.647403  1
  Ca  Ca1  1  0.353522  0.352713  0.352597  1
  Ca  Ca2  1  0.500809  0.999884  0.147287  1
  Ca  Ca3  1  0.000809  0.647287  0.499884  1
  Ca  Ca4  1  0.853522  0.852597  0.852713  1
  Ca  Ca5  1  0.000925  0.147403  0.500116  1
  Er  Er6  1  0.142829  0.500000  0.000000  1
  Er  Er7  1  0.642829  0.500000  0.000000  1
  Bi  Bi8  1  0.377125  0.622006  0.757452  1
  Bi  Bi9  1  0.877125  0.257452  0.122006  1
  Bi  Bi10  1  0.619673  0.742548  0.364555  1
  Bi  Bi11  1  0.119673  0.864555  0.242548  1
  Bi  Bi12  1  0.255118  0.135445  0.877994  1
  Bi  Bi13  1  0.755118  0.377994  0.635445  1
