# generated using pymatgen
data_GdYB8
_symmetry_space_group_name_H-M   'P 1'
_cell_length_a   7.11815085
_cell_length_b   7.11815085
_cell_length_c   4.03445400
_cell_angle_alpha   90.00000000
_cell_angle_beta   90.00000000
_cell_angle_gamma   89.79089645
_symmetry_Int_Tables_number   1
_chemical_formula_structural   GdYB8
_chemical_formula_sum   'Gd2 Y2 B16'
_cell_volume   204.41664255
_cell_formula_units_Z   2
loop_
 _symmetry_equiv_pos_site_id
 _symmetry_equiv_pos_as_xyz
  1  'x, y, z'
loop_
 _atom_site_type_symbol
 _atom_site_label
 _atom_site_symmetry_multiplicity
 _atom_site_fract_x
 _atom_site_fract_y
 _atom_site_fract_z
 _atom_site_occupancy
  Gd  Gd0  1  0.317000  0.183000  0.000000  1
  Gd  Gd1  1  0.683000  0.817000  0.000000  1
  Y  Y2  1  0.817466  0.317466  0.000000  1
  Y  Y3  1  0.182534  0.682534  0.000000  1
  B  B4  1  0.500000  0.500000  0.796370  1
  B  B5  1  0.000000  0.000000  0.796370  1
  B  B6  1  0.500000  0.500000  0.203630  1
  B  B7  1  0.000000  0.000000  0.203630  1
  B  B8  1  0.675958  0.538298  0.500000  1
  B  B9  1  0.324042  0.461702  0.500000  1
  B  B10  1  0.175987  0.961251  0.500000  1
  B  B11  1  0.824013  0.038749  0.500000  1
  B  B12  1  0.461251  0.675987  0.500000  1
  B  B13  1  0.538749  0.324013  0.500000  1
  B  B14  1  0.038298  0.175958  0.500000  1
  B  B15  1  0.961702  0.824042  0.500000  1
  B  B16  1  0.912840  0.587160  0.500000  1
  B  B17  1  0.087160  0.412840  0.500000  1
  B  B18  1  0.413286  0.913286  0.500000  1
  B  B19  1  0.586714  0.086714  0.500000  1
