# generated using pymatgen
data_CsNd2Ag3Se5
_symmetry_space_group_name_H-M   'P 1'
_cell_length_a   8.17769800
_cell_length_b   8.17769878
_cell_length_c   17.70258300
_cell_angle_alpha   90.00000000
_cell_angle_beta   90.00000000
_cell_angle_gamma   31.08915094
_symmetry_Int_Tables_number   1
_chemical_formula_structural   CsNd2Ag3Se5
_chemical_formula_sum   'Cs2 Nd4 Ag6 Se10'
_cell_volume   611.30903612
_cell_formula_units_Z   2
loop_
 _symmetry_equiv_pos_site_id
 _symmetry_equiv_pos_as_xyz
  1  'x, y, z'
loop_
 _atom_site_type_symbol
 _atom_site_label
 _atom_site_symmetry_multiplicity
 _atom_site_fract_x
 _atom_site_fract_y
 _atom_site_fract_z
 _atom_site_occupancy
  Cs  Cs0  1  0.439068  0.439068  0.250000  1
  Cs  Cs1  1  0.560932  0.560932  0.750000  1
  Nd  Nd2  1  0.309332  0.309332  0.594388  1
  Nd  Nd3  1  0.690668  0.690668  0.094387  1
  Nd  Nd4  1  0.690668  0.690668  0.405612  1
  Nd  Nd5  1  0.309332  0.309332  0.905612  1
  Ag  Ag6  1  0.085302  0.085302  0.538782  1
  Ag  Ag7  1  0.914697  0.914697  0.038782  1
  Ag  Ag8  1  0.914697  0.914697  0.461218  1
  Ag  Ag9  1  0.085302  0.085302  0.961217  1
  Ag  Ag10  1  0.160013  0.160013  0.250000  1
  Ag  Ag11  1  0.839987  0.839987  0.750000  1
  Se  Se12  1  0.321312  0.321312  0.071944  1
  Se  Se13  1  0.678688  0.678688  0.571944  1
  Se  Se14  1  0.678688  0.678688  0.928056  1
  Se  Se15  1  0.321312  0.321312  0.428056  1
  Se  Se16  1  0.754514  0.754514  0.250000  1
  Se  Se17  1  0.245486  0.245486  0.750000  1
  Se  Se18  1  0.064834  0.064834  0.117432  1
  Se  Se19  1  0.935166  0.935166  0.617431  1
  Se  Se20  1  0.935166  0.935166  0.882569  1
  Se  Se21  1  0.064834  0.064834  0.382569  1
