# generated using pymatgen
data_Tb7TmSc12Ga13Si3
_symmetry_space_group_name_H-M   'P 1'
_cell_length_a   7.25035013
_cell_length_b   7.50970427
_cell_length_c   14.41649855
_cell_angle_alpha   89.88925684
_cell_angle_beta   89.96327013
_cell_angle_gamma   90.20300662
_symmetry_Int_Tables_number   1
_chemical_formula_structural   Tb7TmSc12Ga13Si3
_chemical_formula_sum   'Tb7 Tm1 Sc12 Ga13 Si3'
_cell_volume   784.94274352
_cell_formula_units_Z   1
loop_
 _symmetry_equiv_pos_site_id
 _symmetry_equiv_pos_as_xyz
  1  'x, y, z'
loop_
 _atom_site_type_symbol
 _atom_site_label
 _atom_site_symmetry_multiplicity
 _atom_site_fract_x
 _atom_site_fract_y
 _atom_site_fract_z
 _atom_site_occupancy
  Tb  Tb0  1  0.987385  0.822056  0.904913  1
  Tb  Tb1  1  0.489155  0.676294  0.904792  1
  Tb  Tb2  1  0.987517  0.821786  0.595769  1
  Tb  Tb3  1  0.511501  0.320528  0.097352  1
  Tb  Tb4  1  0.012021  0.178027  0.402627  1
  Tb  Tb5  1  0.511648  0.321056  0.402426  1
  Tb  Tb6  1  0.489824  0.676287  0.595608  1
  Tm  Tm7  1  0.012115  0.179730  0.098034  1
  Sc  Sc8  1  0.160605  0.503373  0.750053  1
  Sc  Sc9  1  0.838290  0.493688  0.249712  1
  Sc  Sc10  1  0.338445  0.006456  0.249691  1
  Sc  Sc11  1  0.663851  0.994442  0.750022  1
  Sc  Sc12  1  0.330868  0.174620  0.622690  1
  Sc  Sc13  1  0.670091  0.827739  0.376810  1
  Sc  Sc14  1  0.169905  0.672242  0.376363  1
  Sc  Sc15  1  0.670628  0.827792  0.122692  1
  Sc  Sc16  1  0.829072  0.328307  0.623263  1
  Sc  Sc17  1  0.330748  0.174680  0.877446  1
  Sc  Sc18  1  0.829428  0.328006  0.876939  1
  Sc  Sc19  1  0.169675  0.672424  0.123435  1
  Ga  Ga20  1  0.033123  0.120019  0.750041  1
  Ga  Ga21  1  0.967466  0.886338  0.249239  1
  Ga  Ga22  1  0.467076  0.614817  0.249825  1
  Ga  Ga23  1  0.533274  0.385618  0.750120  1
  Ga  Ga24  1  0.285013  0.873044  0.750244  1
  Ga  Ga25  1  0.158914  0.464299  0.540275  1
  Ga  Ga26  1  0.840191  0.535530  0.457950  1
  Ga  Ga27  1  0.339732  0.964036  0.458349  1
  Ga  Ga28  1  0.840735  0.533243  0.042477  1
  Ga  Ga29  1  0.660516  0.035981  0.540458  1
  Ga  Ga30  1  0.158459  0.462783  0.960245  1
  Ga  Ga31  1  0.661044  0.035833  0.959706  1
  Ga  Ga32  1  0.337749  0.965578  0.042106  1
  Si  Si33  1  0.716014  0.124643  0.249244  1
  Si  Si34  1  0.213455  0.374644  0.248971  1
  Si  Si35  1  0.784471  0.624058  0.750114  1
