# generated using pymatgen
data_Nd6ErLuSb20
_symmetry_space_group_name_H-M   'P 1'
_cell_length_a   4.26305200
_cell_length_b   13.49130468
_cell_length_c   15.12378600
_cell_angle_alpha   77.99617475
_cell_angle_beta   90.00000000
_cell_angle_gamma   90.00000000
_symmetry_Int_Tables_number   1
_chemical_formula_structural   Nd6ErLuSb20
_chemical_formula_sum   'Nd6 Er1 Lu1 Sb20'
_cell_volume   850.81146535
_cell_formula_units_Z   1
loop_
 _symmetry_equiv_pos_site_id
 _symmetry_equiv_pos_as_xyz
  1  'x, y, z'
loop_
 _atom_site_type_symbol
 _atom_site_label
 _atom_site_symmetry_multiplicity
 _atom_site_fract_x
 _atom_site_fract_y
 _atom_site_fract_z
 _atom_site_occupancy
  Nd  Nd0  1  0.750000  0.335869  0.142728  1
  Nd  Nd1  1  0.250000  0.949381  0.361091  1
  Nd  Nd2  1  0.250000  0.664190  0.857310  1
  Nd  Nd3  1  0.250000  0.667912  0.576011  1
  Nd  Nd4  1  0.750000  0.050606  0.638919  1
  Nd  Nd5  1  0.750000  0.332166  0.423931  1
  Er  Er6  1  0.250000  0.396859  0.772422  1
  Lu  Lu7  1  0.750000  0.602473  0.227551  1
  Sb  Sb8  1  0.750000  0.850928  0.820059  1
  Sb  Sb9  1  0.250000  0.861895  0.675205  1
  Sb  Sb10  1  0.250000  0.142974  0.478157  1
  Sb  Sb11  1  0.750000  0.284892  0.933955  1
  Sb  Sb12  1  0.250000  0.147308  0.781215  1
  Sb  Sb13  1  0.750000  0.574553  0.440353  1
  Sb  Sb14  1  0.750000  0.138211  0.324748  1
  Sb  Sb15  1  0.250000  0.705754  0.349693  1
  Sb  Sb16  1  0.750000  0.294122  0.650072  1
  Sb  Sb17  1  0.750000  0.852250  0.218824  1
  Sb  Sb18  1  0.250000  0.420286  0.972113  1
  Sb  Sb19  1  0.250000  0.425469  0.559216  1
  Sb  Sb20  1  0.750000  0.571056  0.736779  1
  Sb  Sb21  1  0.250000  0.429912  0.263021  1
  Sb  Sb22  1  0.750000  0.856976  0.521890  1
  Sb  Sb23  1  0.750000  0.031558  0.891221  1
  Sb  Sb24  1  0.250000  0.715099  0.066253  1
  Sb  Sb25  1  0.250000  0.968427  0.108779  1
  Sb  Sb26  1  0.250000  0.149202  0.179975  1
  Sb  Sb27  1  0.750000  0.579669  0.028513  1
