# generated using pymatgen
data_Ho8Al2PdPt
_symmetry_space_group_name_H-M   'P 1'
_cell_length_a   9.56628074
_cell_length_b   9.56628224
_cell_length_c   9.54248100
_cell_angle_alpha   60.08226599
_cell_angle_beta   60.08226081
_cell_angle_gamma   60.12790181
_symmetry_Int_Tables_number   1
_chemical_formula_structural   Ho8Al2PdPt
_chemical_formula_sum   'Ho16 Al4 Pd2 Pt2'
_cell_volume   618.85740044
_cell_formula_units_Z   2
loop_
 _symmetry_equiv_pos_site_id
 _symmetry_equiv_pos_as_xyz
  1  'x, y, z'
loop_
 _atom_site_type_symbol
 _atom_site_label
 _atom_site_symmetry_multiplicity
 _atom_site_fract_x
 _atom_site_fract_y
 _atom_site_fract_z
 _atom_site_occupancy
  Ho  Ho0  1  0.605012  0.605012  0.602619  1
  Ho  Ho1  1  0.605012  0.605012  0.187357  1
  Ho  Ho2  1  0.607391  0.182614  0.604997  1
  Ho  Ho3  1  0.182614  0.607391  0.604997  1
  Ho  Ho4  1  0.056513  0.443580  0.442393  1
  Ho  Ho5  1  0.443580  0.056513  0.057514  1
  Ho  Ho6  1  0.443580  0.056513  0.442393  1
  Ho  Ho7  1  0.056513  0.443580  0.057514  1
  Ho  Ho8  1  0.443070  0.443070  0.056930  1
  Ho  Ho9  1  0.057340  0.057340  0.442660  1
  Ho  Ho10  1  0.185641  0.815661  0.814198  1
  Ho  Ho11  1  0.815661  0.185641  0.184499  1
  Ho  Ho12  1  0.815661  0.185641  0.814198  1
  Ho  Ho13  1  0.185641  0.815661  0.184499  1
  Ho  Ho14  1  0.815320  0.815320  0.184680  1
  Ho  Ho15  1  0.184924  0.184924  0.815076  1
  Al  Al16  1  0.827454  0.827454  0.828982  1
  Al  Al17  1  0.827454  0.827454  0.516111  1
  Al  Al18  1  0.826854  0.516579  0.828283  1
  Al  Al19  1  0.516579  0.826854  0.828283  1
  Pd  Pd20  1  0.393541  0.393541  0.396053  1
  Pd  Pd21  1  0.393541  0.393541  0.816862  1
  Pt  Pt22  1  0.391810  0.819288  0.394450  1
  Pt  Pt23  1  0.819288  0.391810  0.394450  1
