# generated using pymatgen
data_KMn(FeSb4)3
_symmetry_space_group_name_H-M   'P 1'
_cell_length_a   8.07323461
_cell_length_b   8.07323319
_cell_length_c   8.07323415
_cell_angle_alpha   109.57827830
_cell_angle_beta   109.57827677
_cell_angle_gamma   109.57828128
_symmetry_Int_Tables_number   1
_chemical_formula_structural   KMn(FeSb4)3
_chemical_formula_sum   'K1 Mn1 Fe3 Sb12'
_cell_volume   403.44774117
_cell_formula_units_Z   1
loop_
 _symmetry_equiv_pos_site_id
 _symmetry_equiv_pos_as_xyz
  1  'x, y, z'
loop_
 _atom_site_type_symbol
 _atom_site_label
 _atom_site_symmetry_multiplicity
 _atom_site_fract_x
 _atom_site_fract_y
 _atom_site_fract_z
 _atom_site_occupancy
  K  K0  1  0.000000  0.000000  0.000000  1
  Mn  Mn1  1  0.500000  0.500000  0.500000  1
  Fe  Fe2  1  0.500000  0.000000  0.000000  1
  Fe  Fe3  1  0.000000  0.500000  0.000000  1
  Fe  Fe4  1  0.000000  0.000000  0.500000  1
  Sb  Sb5  1  0.849331  0.666138  0.499620  1
  Sb  Sb6  1  0.150669  0.333862  0.500380  1
  Sb  Sb7  1  0.163399  0.667128  0.828956  1
  Sb  Sb8  1  0.836601  0.332872  0.171044  1
  Sb  Sb9  1  0.666138  0.499620  0.849331  1
  Sb  Sb10  1  0.333862  0.500380  0.150669  1
  Sb  Sb11  1  0.667128  0.828956  0.163399  1
  Sb  Sb12  1  0.332872  0.171044  0.836601  1
  Sb  Sb13  1  0.499620  0.849331  0.666138  1
  Sb  Sb14  1  0.500380  0.150669  0.333862  1
  Sb  Sb15  1  0.171044  0.836601  0.332872  1
  Sb  Sb16  1  0.828956  0.163399  0.667128  1
