# generated using pymatgen
data_Rb4Li2NdInSb4
_symmetry_space_group_name_H-M   'P 1'
_cell_length_a   11.20782752
_cell_length_b   11.20782660
_cell_length_c   7.18285300
_cell_angle_alpha   90.00000000
_cell_angle_beta   90.00000000
_cell_angle_gamma   100.91335895
_symmetry_Int_Tables_number   1
_chemical_formula_structural   Rb4Li2NdInSb4
_chemical_formula_sum   'Rb8 Li4 Nd2 In2 Sb8'
_cell_volume   885.95882216
_cell_formula_units_Z   2
loop_
 _symmetry_equiv_pos_site_id
 _symmetry_equiv_pos_as_xyz
  1  'x, y, z'
loop_
 _atom_site_type_symbol
 _atom_site_label
 _atom_site_symmetry_multiplicity
 _atom_site_fract_x
 _atom_site_fract_y
 _atom_site_fract_z
 _atom_site_occupancy
  Rb  Rb0  1  0.571131  0.928869  0.750000  1
  Rb  Rb1  1  0.928869  0.571131  0.250000  1
  Rb  Rb2  1  0.422422  0.077578  0.250000  1
  Rb  Rb3  1  0.077578  0.422422  0.750000  1
  Rb  Rb4  1  0.669482  0.322713  0.774656  1
  Rb  Rb5  1  0.830518  0.177287  0.274656  1
  Rb  Rb6  1  0.322713  0.669482  0.225344  1
  Rb  Rb7  1  0.177287  0.830518  0.725344  1
  Li  Li8  1  0.617681  0.617681  0.000000  1
  Li  Li9  1  0.882319  0.882319  0.500000  1
  Li  Li10  1  0.376490  0.376490  0.000000  1
  Li  Li11  1  0.123510  0.123510  0.500000  1
  Nd  Nd12  1  0.874635  0.874635  0.000000  1
  Nd  Nd13  1  0.625365  0.625365  0.500000  1
  In  In14  1  0.131333  0.131333  0.000000  1
  In  In15  1  0.368667  0.368667  0.500000  1
  Sb  Sb16  1  0.345216  0.154784  0.750000  1
  Sb  Sb17  1  0.154784  0.345216  0.250000  1
  Sb  Sb18  1  0.648365  0.851635  0.250000  1
  Sb  Sb19  1  0.851635  0.648365  0.750000  1
  Sb  Sb20  1  0.910270  0.104581  0.758639  1
  Sb  Sb21  1  0.589730  0.395419  0.258639  1
  Sb  Sb22  1  0.104581  0.910270  0.241361  1
  Sb  Sb23  1  0.395419  0.589730  0.741361  1
