# generated using pymatgen
data_Dy4MnRe3Tc4
_symmetry_space_group_name_H-M   'P 1'
_cell_length_a   5.33942505
_cell_length_b   5.33926223
_cell_length_c   8.97201300
_cell_angle_alpha   89.99417604
_cell_angle_beta   90.00885483
_cell_angle_gamma   119.99765437
_symmetry_Int_Tables_number   1
_chemical_formula_structural   Dy4MnRe3Tc4
_chemical_formula_sum   'Dy4 Mn1 Re3 Tc4'
_cell_volume   221.51672955
_cell_formula_units_Z   1
loop_
 _symmetry_equiv_pos_site_id
 _symmetry_equiv_pos_as_xyz
  1  'x, y, z'
loop_
 _atom_site_type_symbol
 _atom_site_label
 _atom_site_symmetry_multiplicity
 _atom_site_fract_x
 _atom_site_fract_y
 _atom_site_fract_z
 _atom_site_occupancy
  Dy  Dy0  1  0.666662  0.333347  0.564250  1
  Dy  Dy1  1  0.333319  0.666646  0.436031  1
  Dy  Dy2  1  0.333322  0.666660  0.063284  1
  Dy  Dy3  1  0.666659  0.333338  0.937147  1
  Mn  Mn4  1  0.000011  0.000008  0.999211  1
  Re  Re5  1  0.169656  0.339363  0.752503  1
  Re  Re6  1  0.169668  0.830335  0.752510  1
  Re  Re7  1  0.660585  0.830310  0.752544  1
  Tc  Tc8  1  0.999997  0.000008  0.499954  1
  Tc  Tc9  1  0.829890  0.659703  0.247531  1
  Tc  Tc10  1  0.829916  0.170124  0.247527  1
  Tc  Tc11  1  0.340317  0.170158  0.247507  1
