# generated using pymatgen
data_Cs2NaTaTe4
_symmetry_space_group_name_H-M   'P 1'
_cell_length_a   15.66767814
_cell_length_b   14.05208195
_cell_length_c   8.65869238
_cell_angle_alpha   83.63970806
_cell_angle_beta   63.04503241
_cell_angle_gamma   33.31525272
_symmetry_Int_Tables_number   1
_chemical_formula_structural   Cs2NaTaTe4
_chemical_formula_sum   'Cs4 Na2 Ta2 Te8'
_cell_volume   781.01923990
_cell_formula_units_Z   2
loop_
 _symmetry_equiv_pos_site_id
 _symmetry_equiv_pos_as_xyz
  1  'x, y, z'
loop_
 _atom_site_type_symbol
 _atom_site_label
 _atom_site_symmetry_multiplicity
 _atom_site_fract_x
 _atom_site_fract_y
 _atom_site_fract_z
 _atom_site_occupancy
  Cs  Cs0  1  0.679224  0.679224  0.320776  1
  Cs  Cs1  1  0.320776  0.320776  0.679224  1
  Cs  Cs2  1  0.570776  0.570776  0.929224  1
  Cs  Cs3  1  0.929224  0.929224  0.570776  1
  Na  Na4  1  0.000000  0.000000  0.000000  1
  Na  Na5  1  0.250000  0.250000  0.250000  1
  Ta  Ta6  1  0.500000  0.500000  0.500000  1
  Ta  Ta7  1  0.750000  0.750000  0.750000  1
  Te  Te8  1  0.255240  0.857585  0.546261  1
  Te  Te9  1  0.340914  0.546261  0.857585  1
  Te  Te10  1  0.546261  0.340914  0.255240  1
  Te  Te11  1  0.857585  0.255240  0.340914  1
  Te  Te12  1  0.392415  0.994760  0.909086  1
  Te  Te13  1  0.909086  0.703739  0.392415  1
  Te  Te14  1  0.703739  0.909086  0.994760  1
  Te  Te15  1  0.994760  0.392415  0.703739  1
