# generated using pymatgen
data_Nb4Sn3O13
_symmetry_space_group_name_H-M   'P 1'
_cell_length_a   7.67608788
_cell_length_b   7.67608719
_cell_length_c   7.67608739
_cell_angle_alpha   59.04449858
_cell_angle_beta   59.04450330
_cell_angle_gamma   59.04450459
_symmetry_Int_Tables_number   1
_chemical_formula_structural   Nb4Sn3O13
_chemical_formula_sum   'Nb4 Sn3 O13'
_cell_volume   312.85059762
_cell_formula_units_Z   1
loop_
 _symmetry_equiv_pos_site_id
 _symmetry_equiv_pos_as_xyz
  1  'x, y, z'
loop_
 _atom_site_type_symbol
 _atom_site_label
 _atom_site_symmetry_multiplicity
 _atom_site_fract_x
 _atom_site_fract_y
 _atom_site_fract_z
 _atom_site_occupancy
  Nb  Nb0  1  0.502782  0.502782  0.502782  1
  Nb  Nb1  1  0.004000  0.503554  0.503554  1
  Nb  Nb2  1  0.503554  0.503554  0.004000  1
  Nb  Nb3  1  0.503554  0.004000  0.503554  1
  Sn  Sn4  1  0.501662  0.029688  0.029688  1
  Sn  Sn5  1  0.029688  0.029688  0.501662  1
  Sn  Sn6  1  0.029688  0.501662  0.029688  1
  O  O7  1  0.814052  0.421590  0.421590  1
  O  O8  1  0.434574  0.798683  0.798683  1
  O  O9  1  0.421590  0.421590  0.814052  1
  O  O10  1  0.798683  0.798683  0.434574  1
  O  O11  1  0.798683  0.434574  0.798683  1
  O  O12  1  0.421590  0.814052  0.421590  1
  O  O13  1  0.188087  0.552627  0.552627  1
  O  O14  1  0.548346  0.179163  0.179163  1
  O  O15  1  0.552627  0.552627  0.188087  1
  O  O16  1  0.179163  0.179163  0.548346  1
  O  O17  1  0.179163  0.548346  0.179163  1
  O  O18  1  0.552627  0.188087  0.552627  1
  O  O19  1  0.160884  0.160884  0.160884  1
