# generated using pymatgen
data_Hf20Ga12O
_symmetry_space_group_name_H-M   'P 1'
_cell_length_a   5.69575440
_cell_length_b   7.97047700
_cell_length_c   13.87659700
_cell_angle_alpha   89.99993516
_cell_angle_beta   90.00003665
_cell_angle_gamma   90.02037692
_symmetry_Int_Tables_number   1
_chemical_formula_structural   Hf20Ga12O
_chemical_formula_sum   'Hf20 Ga12 O1'
_cell_volume   629.96803819
_cell_formula_units_Z   1
loop_
 _symmetry_equiv_pos_site_id
 _symmetry_equiv_pos_as_xyz
  1  'x, y, z'
loop_
 _atom_site_type_symbol
 _atom_site_label
 _atom_site_symmetry_multiplicity
 _atom_site_fract_x
 _atom_site_fract_y
 _atom_site_fract_z
 _atom_site_occupancy
  Hf  Hf0  1  0.500000  0.000000  0.334507  1
  Hf  Hf1  1  0.500001  0.500000  0.833829  1
  Hf  Hf2  1  0.500001  0.499999  0.166170  1
  Hf  Hf3  1  0.500000  0.000000  0.665494  1
  Hf  Hf4  1  0.999999  0.500000  0.165020  1
  Hf  Hf5  1  0.000000  0.999999  0.668341  1
  Hf  Hf6  1  0.000000  0.999999  0.331662  1
  Hf  Hf7  1  0.999999  0.500001  0.834978  1
  Hf  Hf8  1  0.753543  0.236088  0.999999  1
  Hf  Hf9  1  0.750794  0.740107  0.499998  1
  Hf  Hf10  1  0.750855  0.380239  0.379073  1
  Hf  Hf11  1  0.754235  0.881244  0.880658  1
  Hf  Hf12  1  0.754232  0.881248  0.119338  1
  Hf  Hf13  1  0.750856  0.380241  0.620933  1
  Hf  Hf14  1  0.246458  0.763912  0.000000  1
  Hf  Hf15  1  0.249205  0.259893  0.499999  1
  Hf  Hf16  1  0.245768  0.118752  0.119339  1
  Hf  Hf17  1  0.249144  0.619759  0.620933  1
  Hf  Hf18  1  0.249146  0.619762  0.379073  1
  Hf  Hf19  1  0.245766  0.118757  0.880658  1
  Ga  Ga20  1  0.746295  0.604124  0.999998  1
  Ga  Ga21  1  0.752411  0.106333  0.500003  1
  Ga  Ga22  1  0.745747  0.197480  0.197869  1
  Ga  Ga23  1  0.750550  0.696553  0.697560  1
  Ga  Ga24  1  0.750550  0.696553  0.302442  1
  Ga  Ga25  1  0.745744  0.197484  0.802131  1
  Ga  Ga26  1  0.253705  0.395876  0.999998  1
  Ga  Ga27  1  0.247587  0.893667  0.500003  1
  Ga  Ga28  1  0.249447  0.303446  0.302442  1
  Ga  Ga29  1  0.254258  0.802517  0.802131  1
  Ga  Ga30  1  0.254255  0.802520  0.197869  1
  Ga  Ga31  1  0.249449  0.303446  0.697560  1
  O  O32  1  0.000001  0.000000  0.999995  1
