# generated using pymatgen
data_Ag2Sn3OsS8
_symmetry_space_group_name_H-M   'P 1'
_cell_length_a   7.58983726
_cell_length_b   7.58983838
_cell_length_c   7.58983727
_cell_angle_alpha   60.21983633
_cell_angle_beta   60.21983009
_cell_angle_gamma   60.21983176
_symmetry_Int_Tables_number   1
_chemical_formula_structural   Ag2Sn3OsS8
_chemical_formula_sum   'Ag2 Sn3 Os1 S8'
_cell_volume   310.69815165
_cell_formula_units_Z   1
loop_
 _symmetry_equiv_pos_site_id
 _symmetry_equiv_pos_as_xyz
  1  'x, y, z'
loop_
 _atom_site_type_symbol
 _atom_site_label
 _atom_site_symmetry_multiplicity
 _atom_site_fract_x
 _atom_site_fract_y
 _atom_site_fract_z
 _atom_site_occupancy
  Ag  Ag0  1  0.382681  0.382681  0.382681  1
  Ag  Ag1  1  0.617319  0.617319  0.617319  1
  Sn  Sn2  1  0.000000  0.500000  0.000000  1
  Sn  Sn3  1  0.000000  0.000000  0.500000  1
  Sn  Sn4  1  0.500000  0.000000  0.000000  1
  Os  Os5  1  0.000000  0.000000  0.000000  1
  S  S6  1  0.777520  0.208010  0.777520  1
  S  S7  1  0.753602  0.753602  0.753602  1
  S  S8  1  0.791990  0.222480  0.222480  1
  S  S9  1  0.222480  0.222480  0.791990  1
  S  S10  1  0.222480  0.791990  0.222480  1
  S  S11  1  0.246398  0.246398  0.246398  1
  S  S12  1  0.208010  0.777520  0.777520  1
  S  S13  1  0.777520  0.777520  0.208010  1
