# generated using pymatgen
data_Lu5ScTcTe2
_symmetry_space_group_name_H-M   'P 1'
_cell_length_a   8.04784948
_cell_length_b   8.12349477
_cell_length_c   4.01072200
_cell_angle_alpha   90.00000000
_cell_angle_beta   90.00000000
_cell_angle_gamma   120.31141006
_symmetry_Int_Tables_number   1
_chemical_formula_structural   Lu5ScTcTe2
_chemical_formula_sum   'Lu5 Sc1 Tc1 Te2'
_cell_volume   226.36254409
_cell_formula_units_Z   1
loop_
 _symmetry_equiv_pos_site_id
 _symmetry_equiv_pos_as_xyz
  1  'x, y, z'
loop_
 _atom_site_type_symbol
 _atom_site_label
 _atom_site_symmetry_multiplicity
 _atom_site_fract_x
 _atom_site_fract_y
 _atom_site_fract_z
 _atom_site_occupancy
  Lu  Lu0  1  0.236154  0.998706  0.500000  1
  Lu  Lu1  1  0.763846  0.762552  0.500000  1
  Lu  Lu2  1  0.620192  0.002557  0.000000  1
  Lu  Lu3  1  0.379808  0.382364  0.000000  1
  Lu  Lu4  1  0.000000  0.608497  0.000000  1
  Sc  Sc5  1  0.000000  0.234662  0.500000  1
  Tc  Tc6  1  0.000000  0.014233  0.000000  1
  Te  Te7  1  0.328606  0.662518  0.500000  1
  Te  Te8  1  0.671394  0.333911  0.500000  1
