# generated using pymatgen
data_La5Pr3Sc12Si15Ge
_symmetry_space_group_name_H-M   'P 1'
_cell_length_a   7.30497724
_cell_length_b   7.58729669
_cell_length_c   14.32267741
_cell_angle_alpha   89.94859750
_cell_angle_beta   89.81289293
_cell_angle_gamma   90.03475746
_symmetry_Int_Tables_number   1
_chemical_formula_structural   La5Pr3Sc12Si15Ge
_chemical_formula_sum   'La5 Pr3 Sc12 Si15 Ge1'
_cell_volume   793.83011964
_cell_formula_units_Z   1
loop_
 _symmetry_equiv_pos_site_id
 _symmetry_equiv_pos_as_xyz
  1  'x, y, z'
loop_
 _atom_site_type_symbol
 _atom_site_label
 _atom_site_symmetry_multiplicity
 _atom_site_fract_x
 _atom_site_fract_y
 _atom_site_fract_z
 _atom_site_occupancy
  La  La0  1  0.010247  0.169960  0.401452  1
  La  La1  1  0.511135  0.328725  0.400657  1
  La  La2  1  0.488223  0.670427  0.903119  1
  La  La3  1  0.491767  0.672125  0.598574  1
  La  La4  1  0.988517  0.829964  0.598008  1
  Pr  Pr5  1  0.987796  0.828092  0.902378  1
  Pr  Pr6  1  0.511840  0.328631  0.098517  1
  Pr  Pr7  1  0.012277  0.172559  0.098008  1
  Sc  Sc8  1  0.333459  0.173018  0.626814  1
  Sc  Sc9  1  0.667864  0.824851  0.373172  1
  Sc  Sc10  1  0.659523  0.004083  0.751054  1
  Sc  Sc11  1  0.168276  0.675963  0.373193  1
  Sc  Sc12  1  0.830985  0.323316  0.875609  1
  Sc  Sc13  1  0.829842  0.324947  0.625797  1
  Sc  Sc14  1  0.840171  0.503594  0.248770  1
  Sc  Sc15  1  0.340394  0.996522  0.248880  1
  Sc  Sc16  1  0.329755  0.175543  0.875642  1
  Sc  Sc17  1  0.168396  0.676608  0.124318  1
  Sc  Sc18  1  0.670274  0.824064  0.124449  1
  Sc  Sc19  1  0.159694  0.495978  0.752490  1
  Si  Si20  1  0.288940  0.884937  0.751270  1
  Si  Si21  1  0.464328  0.627346  0.248676  1
  Si  Si22  1  0.034286  0.127511  0.750923  1
  Si  Si23  1  0.534890  0.371440  0.750973  1
  Si  Si24  1  0.965068  0.873620  0.248545  1
  Si  Si25  1  0.710582  0.114682  0.248350  1
  Si  Si26  1  0.848977  0.536181  0.040406  1
  Si  Si27  1  0.348615  0.964495  0.040221  1
  Si  Si28  1  0.150402  0.462893  0.960660  1
  Si  Si29  1  0.650692  0.038343  0.539624  1
  Si  Si30  1  0.349271  0.962131  0.459914  1
  Si  Si31  1  0.845062  0.539256  0.458450  1
  Si  Si32  1  0.791390  0.614165  0.750902  1
  Si  Si33  1  0.210049  0.385673  0.248663  1
  Si  Si34  1  0.651058  0.037907  0.960795  1
  Ge  Ge35  1  0.155952  0.460451  0.540725  1
