# generated using pymatgen
data_LaYbCe2(SnRu)4
_symmetry_space_group_name_H-M   'P 1'
_cell_length_a   6.33236552
_cell_length_b   6.33236540
_cell_length_c   10.21611749
_cell_angle_alpha   77.54348018
_cell_angle_beta   77.54348081
_cell_angle_gamma   44.97884536
_symmetry_Int_Tables_number   1
_chemical_formula_structural   LaYbCe2(SnRu)4
_chemical_formula_sum   'La1 Yb1 Ce2 Sn4 Ru4'
_cell_volume   281.56141834
_cell_formula_units_Z   1
loop_
 _symmetry_equiv_pos_site_id
 _symmetry_equiv_pos_as_xyz
  1  'x, y, z'
loop_
 _atom_site_type_symbol
 _atom_site_label
 _atom_site_symmetry_multiplicity
 _atom_site_fract_x
 _atom_site_fract_y
 _atom_site_fract_z
 _atom_site_occupancy
  La  La0  1  0.875771  0.875771  0.410793  1
  Yb  Yb1  1  0.116987  0.116987  0.595909  1
  Ce  Ce2  1  0.865969  0.865969  0.913276  1
  Ce  Ce3  1  0.140825  0.140825  0.083192  1
  Sn  Sn4  1  0.425782  0.425782  0.151413  1
  Sn  Sn5  1  0.403396  0.403396  0.650612  1
  Sn  Sn6  1  0.576742  0.576742  0.843157  1
  Sn  Sn7  1  0.593750  0.593750  0.354582  1
  Ru  Ru8  1  0.817539  0.817539  0.152490  1
  Ru  Ru9  1  0.194332  0.194332  0.293851  1
  Ru  Ru10  1  0.183151  0.183151  0.847599  1
  Ru  Ru11  1  0.805757  0.805757  0.703125  1
