# generated using pymatgen
data_Ho3TmCu3Sb8
_symmetry_space_group_name_H-M   'P 1'
_cell_length_a   10.50234488
_cell_length_b   10.50234452
_cell_length_c   10.51930606
_cell_angle_alpha   146.36320062
_cell_angle_beta   146.36319889
_cell_angle_gamma   48.29904469
_symmetry_Int_Tables_number   1
_chemical_formula_structural   Ho3TmCu3Sb8
_chemical_formula_sum   'Ho3 Tm1 Cu3 Sb8'
_cell_volume   354.53407478
_cell_formula_units_Z   1
loop_
 _symmetry_equiv_pos_site_id
 _symmetry_equiv_pos_as_xyz
  1  'x, y, z'
loop_
 _atom_site_type_symbol
 _atom_site_label
 _atom_site_symmetry_multiplicity
 _atom_site_fract_x
 _atom_site_fract_y
 _atom_site_fract_z
 _atom_site_occupancy
  Ho  Ho0  1  0.124651  0.124651  0.491605  1
  Ho  Ho1  1  0.366420  0.875658  0.999044  1
  Ho  Ho2  1  0.875658  0.366420  0.999044  1
  Tm  Tm3  1  0.634404  0.634404  0.511565  1
  Cu  Cu4  1  0.995328  0.995328  0.989395  1
  Cu  Cu5  1  0.000075  0.502827  0.504281  1
  Cu  Cu6  1  0.502827  0.000075  0.504281  1
  Sb  Sb7  1  0.332182  0.332182  0.513268  1
  Sb  Sb8  1  0.816963  0.816963  0.479540  1
  Sb  Sb9  1  0.666520  0.182665  0.003109  1
  Sb  Sb10  1  0.182665  0.666520  0.003109  1
  Sb  Sb11  1  0.251201  0.251201  0.000843  1
  Sb  Sb12  1  0.749849  0.749849  0.000040  1
  Sb  Sb13  1  0.750352  0.250906  0.500438  1
  Sb  Sb14  1  0.250906  0.750352  0.500438  1
