# generated using pymatgen
data_LaPr7(CdPd)2
_symmetry_space_group_name_H-M   'P 1'
_cell_length_a   10.14435313
_cell_length_b   10.14435315
_cell_length_c   10.15096300
_cell_angle_alpha   59.97844034
_cell_angle_beta   59.97844026
_cell_angle_gamma   59.89316659
_symmetry_Int_Tables_number   1
_chemical_formula_structural   LaPr7(CdPd)2
_chemical_formula_sum   'La2 Pr14 Cd4 Pd4'
_cell_volume   737.81540314
_cell_formula_units_Z   2
loop_
 _symmetry_equiv_pos_site_id
 _symmetry_equiv_pos_as_xyz
  1  'x, y, z'
loop_
 _atom_site_type_symbol
 _atom_site_label
 _atom_site_symmetry_multiplicity
 _atom_site_fract_x
 _atom_site_fract_y
 _atom_site_fract_z
 _atom_site_occupancy
  La  La0  1  0.349858  0.349858  0.351129  1
  La  La1  1  0.349858  0.349858  0.949156  1
  Pr  Pr2  1  0.351466  0.943370  0.352582  1
  Pr  Pr3  1  0.943370  0.351466  0.352582  1
  Pr  Pr4  1  0.808710  0.192206  0.192315  1
  Pr  Pr5  1  0.192206  0.808710  0.806769  1
  Pr  Pr6  1  0.192206  0.808710  0.192315  1
  Pr  Pr7  1  0.808710  0.192206  0.806769  1
  Pr  Pr8  1  0.192268  0.192268  0.807732  1
  Pr  Pr9  1  0.807253  0.807253  0.192747  1
  Pr  Pr10  1  0.936286  0.564141  0.565796  1
  Pr  Pr11  1  0.564141  0.936286  0.933777  1
  Pr  Pr12  1  0.564141  0.936286  0.565796  1
  Pr  Pr13  1  0.936286  0.564141  0.933777  1
  Pr  Pr14  1  0.565019  0.565019  0.934981  1
  Pr  Pr15  1  0.935104  0.935104  0.564896  1
  Cd  Cd16  1  0.580394  0.580394  0.579293  1
  Cd  Cd17  1  0.580394  0.580394  0.259917  1
  Cd  Cd18  1  0.580851  0.259602  0.579773  1
  Cd  Cd19  1  0.259602  0.580851  0.579773  1
  Pd  Pd20  1  0.144005  0.144005  0.143010  1
  Pd  Pd21  1  0.144005  0.144005  0.568979  1
  Pd  Pd22  1  0.144182  0.569684  0.143067  1
  Pd  Pd23  1  0.569684  0.144182  0.143067  1
