# generated using pymatgen
data_Tb12Y3ThCd2(InPt2)2
_symmetry_space_group_name_H-M   'P 1'
_cell_length_a   9.74410222
_cell_length_b   9.73590091
_cell_length_c   9.74108700
_cell_angle_alpha   60.20131728
_cell_angle_beta   60.20370020
_cell_angle_gamma   60.22000229
_symmetry_Int_Tables_number   1
_chemical_formula_structural   Tb12Y3ThCd2(InPt2)2
_chemical_formula_sum   'Tb12 Y3 Th1 Cd2 In2 Pt4'
_cell_volume   656.52954176
_cell_formula_units_Z   1
loop_
 _symmetry_equiv_pos_site_id
 _symmetry_equiv_pos_as_xyz
  1  'x, y, z'
loop_
 _atom_site_type_symbol
 _atom_site_label
 _atom_site_symmetry_multiplicity
 _atom_site_fract_x
 _atom_site_fract_y
 _atom_site_fract_z
 _atom_site_occupancy
  Tb  Tb0  1  0.353103  0.352960  0.940446  1
  Tb  Tb1  1  0.352766  0.940998  0.353067  1
  Tb  Tb2  1  0.940978  0.352820  0.353257  1
  Tb  Tb3  1  0.811591  0.189785  0.189522  1
  Tb  Tb4  1  0.191280  0.810301  0.810018  1
  Tb  Tb5  1  0.189702  0.811682  0.189361  1
  Tb  Tb6  1  0.810261  0.191436  0.809968  1
  Tb  Tb7  1  0.188913  0.189048  0.812237  1
  Tb  Tb8  1  0.809914  0.809934  0.191464  1
  Tb  Tb9  1  0.936881  0.566095  0.565558  1
  Tb  Tb10  1  0.564722  0.936748  0.936192  1
  Tb  Tb11  1  0.566004  0.936593  0.565824  1
  Y  Y12  1  0.937084  0.564210  0.936375  1
  Y  Y13  1  0.565248  0.565493  0.936158  1
  Y  Y14  1  0.936797  0.936707  0.564165  1
  Th  Th15  1  0.348369  0.348415  0.350238  1
  Cd  Cd16  1  0.582414  0.252632  0.582290  1
  Cd  Cd17  1  0.252362  0.582461  0.582595  1
  In  In18  1  0.582051  0.581741  0.582533  1
  In  In19  1  0.582568  0.582202  0.252436  1
  Pt  Pt20  1  0.143717  0.144113  0.143677  1
  Pt  Pt21  1  0.141172  0.141373  0.570527  1
  Pt  Pt22  1  0.141849  0.570213  0.141090  1
  Pt  Pt23  1  0.570250  0.142040  0.141000  1
