# generated using pymatgen
data_Sr4CuSi8Pt7
_symmetry_space_group_name_H-M   'P 1'
_cell_length_a   4.29702492
_cell_length_b   8.72258733
_cell_length_c   9.91673550
_cell_angle_alpha   89.93684389
_cell_angle_beta   89.97445273
_cell_angle_gamma   89.90724278
_symmetry_Int_Tables_number   1
_chemical_formula_structural   Sr4CuSi8Pt7
_chemical_formula_sum   'Sr4 Cu1 Si8 Pt7'
_cell_volume   371.69015069
_cell_formula_units_Z   1
loop_
 _symmetry_equiv_pos_site_id
 _symmetry_equiv_pos_as_xyz
  1  'x, y, z'
loop_
 _atom_site_type_symbol
 _atom_site_label
 _atom_site_symmetry_multiplicity
 _atom_site_fract_x
 _atom_site_fract_y
 _atom_site_fract_z
 _atom_site_occupancy
  Sr  Sr0  1  0.753818  0.625238  0.754420  1
  Sr  Sr1  1  0.747318  0.125532  0.749432  1
  Sr  Sr2  1  0.256353  0.877786  0.247982  1
  Sr  Sr3  1  0.243464  0.371384  0.247688  1
  Cu  Cu4  1  0.235966  0.126895  0.499845  1
  Si  Si5  1  0.741326  0.376165  0.004665  1
  Si  Si6  1  0.741228  0.123837  0.374173  1
  Si  Si7  1  0.267029  0.879085  0.625865  1
  Si  Si8  1  0.255945  0.625355  0.996723  1
  Si  Si9  1  0.759165  0.873195  0.004741  1
  Si  Si10  1  0.233605  0.373214  0.626027  1
  Si  Si11  1  0.245189  0.125200  0.993167  1
  Si  Si12  1  0.757802  0.623849  0.374588  1
  Pt  Pt13  1  0.242809  0.376604  0.879337  1
  Pt  Pt14  1  0.754995  0.624574  0.122825  1
  Pt  Pt15  1  0.773505  0.873104  0.499273  1
  Pt  Pt16  1  0.726660  0.374075  0.498570  1
  Pt  Pt17  1  0.746081  0.124430  0.118225  1
  Pt  Pt18  1  0.260107  0.626163  0.503338  1
  Pt  Pt19  1  0.257633  0.874317  0.879118  1
