# generated using pymatgen
data_Er5Tl2Os
_symmetry_space_group_name_H-M   'P 1'
_cell_length_a   7.60217400
_cell_length_b   9.08653000
_cell_length_c   12.46051800
_cell_angle_alpha   90.00000000
_cell_angle_beta   90.00000000
_cell_angle_gamma   90.00000000
_symmetry_Int_Tables_number   1
_chemical_formula_structural   Er5Tl2Os
_chemical_formula_sum   'Er20 Tl8 Os4'
_cell_volume   860.73996325
_cell_formula_units_Z   4
loop_
 _symmetry_equiv_pos_site_id
 _symmetry_equiv_pos_as_xyz
  1  'x, y, z'
loop_
 _atom_site_type_symbol
 _atom_site_label
 _atom_site_symmetry_multiplicity
 _atom_site_fract_x
 _atom_site_fract_y
 _atom_site_fract_z
 _atom_site_occupancy
  Er  Er0  1  0.154047  0.750000  0.220827  1
  Er  Er1  1  0.654047  0.250000  0.279173  1
  Er  Er2  1  0.845953  0.250000  0.779173  1
  Er  Er3  1  0.345953  0.750000  0.720827  1
  Er  Er4  1  0.454641  0.750000  0.998348  1
  Er  Er5  1  0.954641  0.250000  0.501652  1
  Er  Er6  1  0.545359  0.250000  0.001652  1
  Er  Er7  1  0.045359  0.750000  0.498348  1
  Er  Er8  1  0.616626  0.750000  0.310399  1
  Er  Er9  1  0.116626  0.250000  0.189601  1
  Er  Er10  1  0.383374  0.250000  0.689601  1
  Er  Er11  1  0.883374  0.750000  0.810399  1
  Er  Er12  1  0.827519  0.966577  0.075032  1
  Er  Er13  1  0.327519  0.033423  0.424968  1
  Er  Er14  1  0.172481  0.466577  0.924968  1
  Er  Er15  1  0.672481  0.533423  0.575032  1
  Er  Er16  1  0.172481  0.033423  0.924968  1
  Er  Er17  1  0.672481  0.966577  0.575032  1
  Er  Er18  1  0.827519  0.533423  0.075032  1
  Er  Er19  1  0.327519  0.466577  0.424968  1
  Tl  Tl20  1  0.919573  0.994640  0.334452  1
  Tl  Tl21  1  0.419573  0.005360  0.165548  1
  Tl  Tl22  1  0.080427  0.494640  0.665548  1
  Tl  Tl23  1  0.580427  0.505360  0.834452  1
  Tl  Tl24  1  0.080427  0.005360  0.665548  1
  Tl  Tl25  1  0.580427  0.994640  0.834452  1
  Tl  Tl26  1  0.919573  0.505360  0.334452  1
  Tl  Tl27  1  0.419573  0.494640  0.165548  1
  Os  Os28  1  0.423796  0.750000  0.500023  1
  Os  Os29  1  0.923796  0.250000  0.999977  1
  Os  Os30  1  0.576204  0.250000  0.499977  1
  Os  Os31  1  0.076204  0.750000  0.000023  1
