# generated using pymatgen
data_La16Nd4Ir7Ru5
_symmetry_space_group_name_H-M   'P 1'
_cell_length_a   11.35787791
_cell_length_b   11.35787796
_cell_length_c   6.67036210
_cell_angle_alpha   90.05914642
_cell_angle_beta   90.05914658
_cell_angle_gamma   90.02300627
_symmetry_Int_Tables_number   1
_chemical_formula_structural   La16Nd4Ir7Ru5
_chemical_formula_sum   'La16 Nd4 Ir7 Ru5'
_cell_volume   860.48500403
_cell_formula_units_Z   1
loop_
 _symmetry_equiv_pos_site_id
 _symmetry_equiv_pos_as_xyz
  1  'x, y, z'
loop_
 _atom_site_type_symbol
 _atom_site_label
 _atom_site_symmetry_multiplicity
 _atom_site_fract_x
 _atom_site_fract_y
 _atom_site_fract_z
 _atom_site_occupancy
  La  La0  1  0.088726  0.293290  0.115298  1
  La  La1  1  0.793386  0.411275  0.114835  1
  La  La2  1  0.206697  0.589885  0.115071  1
  La  La3  1  0.911925  0.706840  0.115808  1
  La  La4  1  0.410115  0.793303  0.384929  1
  La  La5  1  0.588725  0.206614  0.385165  1
  La  La6  1  0.293160  0.088075  0.384192  1
  La  La7  1  0.706710  0.911274  0.384702  1
  La  La8  1  0.411578  0.206463  0.885102  1
  La  La9  1  0.707621  0.088693  0.885046  1
  La  La10  1  0.292102  0.910746  0.885677  1
  La  La11  1  0.588263  0.793682  0.884604  1
  La  La12  1  0.089254  0.707898  0.614323  1
  La  La13  1  0.911307  0.292379  0.614954  1
  La  La14  1  0.206318  0.411737  0.615396  1
  La  La15  1  0.793537  0.588422  0.614898  1
  Nd  Nd16  1  0.001278  0.999132  0.000168  1
  Nd  Nd17  1  0.500062  0.500287  0.000711  1
  Nd  Nd18  1  0.499713  0.499938  0.499289  1
  Nd  Nd19  1  0.000868  0.998722  0.499832  1
  Ir  Ir20  1  0.347145  0.347345  0.249683  1
  Ir  Ir21  1  0.652655  0.652855  0.250317  1
  Ir  Ir22  1  0.847368  0.152632  0.250000  1
  Ir  Ir23  1  0.348210  0.651790  0.750000  1
  Ir  Ir24  1  0.152980  0.153333  0.749643  1
  Ir  Ir25  1  0.846667  0.847020  0.750357  1
  Ir  Ir26  1  0.652296  0.347704  0.750000  1
  Ru  Ru27  1  0.151058  0.848942  0.250000  1
  Ru  Ru28  1  0.000028  0.500263  0.379444  1
  Ru  Ru29  1  0.499737  0.999972  0.120556  1
  Ru  Ru30  1  0.500233  0.999719  0.621250  1
  Ru  Ru31  1  0.000281  0.499767  0.878750  1
