# generated using pymatgen
data_SmNb5(B2Ru5)2
_symmetry_space_group_name_H-M   'P 1'
_cell_length_a   9.55180128
_cell_length_b   9.55180128
_cell_length_c   3.05562100
_cell_angle_alpha   90.00000000
_cell_angle_beta   90.00000000
_cell_angle_gamma   90.56299060
_symmetry_Int_Tables_number   1
_chemical_formula_structural   SmNb5(B2Ru5)2
_chemical_formula_sum   'Sm1 Nb5 B4 Ru10'
_cell_volume   278.77195268
_cell_formula_units_Z   1
loop_
 _symmetry_equiv_pos_site_id
 _symmetry_equiv_pos_as_xyz
  1  'x, y, z'
loop_
 _atom_site_type_symbol
 _atom_site_label
 _atom_site_symmetry_multiplicity
 _atom_site_fract_x
 _atom_site_fract_y
 _atom_site_fract_z
 _atom_site_occupancy
  Sm  Sm0  1  0.824566  0.675434  0.000000  1
  Nb  Nb1  1  0.178607  0.321393  0.000000  1
  Nb  Nb2  1  0.324546  0.823529  0.000000  1
  Nb  Nb3  1  0.676471  0.175454  0.000000  1
  Nb  Nb4  1  0.500298  0.500339  0.000000  1
  Nb  Nb5  1  0.999661  0.999702  0.000000  1
  B  B6  1  0.616420  0.883580  0.000000  1
  B  B7  1  0.376312  0.123688  0.000000  1
  B  B8  1  0.124819  0.619269  0.000000  1
  B  B9  1  0.880731  0.375181  0.000000  1
  Ru  Ru10  1  0.555935  0.726583  0.500000  1
  Ru  Ru11  1  0.426745  0.282845  0.500000  1
  Ru  Ru12  1  0.084940  0.782168  0.500000  1
  Ru  Ru13  1  0.931283  0.215501  0.500000  1
  Ru  Ru14  1  0.284499  0.568717  0.500000  1
  Ru  Ru15  1  0.717832  0.415060  0.500000  1
  Ru  Ru16  1  0.217155  0.073255  0.500000  1
  Ru  Ru17  1  0.773417  0.944065  0.500000  1
  Ru  Ru18  1  0.494884  0.005116  0.500000  1
  Ru  Ru19  1  0.010880  0.489120  0.500000  1
