# generated using pymatgen
data_Rb4Hf6CoI18
_symmetry_space_group_name_H-M   'P 1'
_cell_length_a   11.38653393
_cell_length_b   11.69728441
_cell_length_c   11.79885600
_cell_angle_alpha   118.15911991
_cell_angle_beta   100.83678426
_cell_angle_gamma   104.07138736
_symmetry_Int_Tables_number   1
_chemical_formula_structural   Rb4Hf6CoI18
_chemical_formula_sum   'Rb4 Hf6 Co1 I18'
_cell_volume   1256.89600823
_cell_formula_units_Z   1
loop_
 _symmetry_equiv_pos_site_id
 _symmetry_equiv_pos_as_xyz
  1  'x, y, z'
loop_
 _atom_site_type_symbol
 _atom_site_label
 _atom_site_symmetry_multiplicity
 _atom_site_fract_x
 _atom_site_fract_y
 _atom_site_fract_z
 _atom_site_occupancy
  Rb  Rb0  1  0.656142  0.537095  0.229162  1
  Rb  Rb1  1  0.343858  0.462905  0.770838  1
  Rb  Rb2  1  0.690129  0.226446  0.563626  1
  Rb  Rb3  1  0.309871  0.773554  0.436374  1
  Hf  Hf4  1  0.144296  0.053570  0.217578  1
  Hf  Hf5  1  0.855704  0.946430  0.782422  1
  Hf  Hf6  1  0.868288  0.116776  0.122706  1
  Hf  Hf7  1  0.131712  0.883224  0.877294  1
  Hf  Hf8  1  0.138479  0.225196  0.043124  1
  Hf  Hf9  1  0.861521  0.774804  0.956876  1
  Co  Co10  1  0.000000  0.000000  0.000000  1
  I  I11  1  0.008028  0.400358  0.191356  1
  I  I12  1  0.991972  0.599642  0.808644  1
  I  I13  1  0.329831  0.329097  0.307917  1
  I  I14  1  0.670169  0.670903  0.692083  1
  I  I15  1  0.314387  0.507578  0.098041  1
  I  I16  1  0.685613  0.492422  0.901959  1
  I  I17  1  0.005462  0.799611  0.206589  1
  I  I18  1  0.994538  0.200389  0.793411  1
  I  I19  1  0.708513  0.261212  0.274114  1
  I  I20  1  0.291487  0.738788  0.725886  1
  I  I21  1  0.315003  0.128156  0.907872  1
  I  I22  1  0.684997  0.871844  0.092128  1
  I  I23  1  0.016521  0.199579  0.399822  1
  I  I24  1  0.983479  0.800421  0.600178  1
  I  I25  1  0.320455  0.927130  0.112014  1
  I  I26  1  0.679545  0.072870  0.887986  1
  I  I27  1  0.328268  0.120556  0.490046  1
  I  I28  1  0.671732  0.879444  0.509954  1
