# generated using pymatgen
data_Sm12Pt3RhBr12
_symmetry_space_group_name_H-M   'P 1'
_cell_length_a   10.43993068
_cell_length_b   10.37116247
_cell_length_c   10.37116152
_cell_angle_alpha   109.33650983
_cell_angle_beta   109.60559449
_cell_angle_gamma   109.60559711
_symmetry_Int_Tables_number   1
_chemical_formula_structural   Sm12Pt3RhBr12
_chemical_formula_sum   'Sm12 Pt3 Rh1 Br12'
_cell_volume   862.99377091
_cell_formula_units_Z   1
loop_
 _symmetry_equiv_pos_site_id
 _symmetry_equiv_pos_as_xyz
  1  'x, y, z'
loop_
 _atom_site_type_symbol
 _atom_site_label
 _atom_site_symmetry_multiplicity
 _atom_site_fract_x
 _atom_site_fract_y
 _atom_site_fract_z
 _atom_site_occupancy
  Sm  Sm0  1  0.469073  0.486641  0.232631  1
  Sm  Sm1  1  0.750000  0.235492  0.264508  1
  Sm  Sm2  1  0.750000  0.014829  0.485171  1
  Sm  Sm3  1  0.235171  0.470342  0.485171  1
  Sm  Sm4  1  0.263558  0.745990  0.232631  1
  Sm  Sm5  1  0.030927  0.267369  0.013359  1
  Sm  Sm6  1  0.014508  0.029017  0.264508  1
  Sm  Sm7  1  0.482431  0.745990  0.013359  1
  Sm  Sm8  1  0.485492  0.235492  0.470983  1
  Sm  Sm9  1  0.017569  0.486641  0.754010  1
  Sm  Sm10  1  0.264829  0.014829  0.029658  1
  Sm  Sm11  1  0.236442  0.267369  0.754010  1
  Pt  Pt12  1  0.250000  0.250089  0.249911  1
  Pt  Pt13  1  0.499911  0.999821  0.249911  1
  Pt  Pt14  1  0.000089  0.250089  0.500179  1
  Rh  Rh15  1  0.250000  0.500000  0.000000  1
  Br  Br16  1  0.250000  0.755207  0.744793  1
  Br  Br17  1  0.510360  0.504992  0.754901  1
  Br  Br18  1  0.989640  0.745099  0.995008  1
  Br  Br19  1  0.744540  0.249909  0.754901  1
  Br  Br20  1  0.994793  0.989588  0.744793  1
  Br  Br21  1  0.250000  0.994961  0.505039  1
  Br  Br22  1  0.755039  0.510077  0.505039  1
  Br  Br23  1  0.505369  0.249909  0.995008  1
  Br  Br24  1  0.755460  0.745099  0.250091  1
  Br  Br25  1  0.744961  0.994961  0.989923  1
  Br  Br26  1  0.994631  0.504992  0.250091  1
  Br  Br27  1  0.505207  0.755207  0.510412  1
