# generated using pymatgen
data_Gd3Be(SiPd4)5
_symmetry_space_group_name_H-M   'P 1'
_cell_length_a   8.78235082
_cell_length_b   8.73820717
_cell_length_c   8.73820600
_cell_angle_alpha   60.33450982
_cell_angle_beta   59.83274472
_cell_angle_gamma   59.83274380
_symmetry_Int_Tables_number   1
_chemical_formula_structural   Gd3Be(SiPd4)5
_chemical_formula_sum   'Gd3 Be1 Si5 Pd20'
_cell_volume   474.15257439
_cell_formula_units_Z   1
loop_
 _symmetry_equiv_pos_site_id
 _symmetry_equiv_pos_as_xyz
  1  'x, y, z'
loop_
 _atom_site_type_symbol
 _atom_site_label
 _atom_site_symmetry_multiplicity
 _atom_site_fract_x
 _atom_site_fract_y
 _atom_site_fract_z
 _atom_site_occupancy
  Gd  Gd0  1  0.248130  0.251870  0.251870  1
  Gd  Gd1  1  0.748130  0.751870  0.751870  1
  Gd  Gd2  1  0.997775  0.002225  0.002225  1
  Be  Be3  1  0.729018  0.270982  0.270982  1
  Si  Si4  1  0.266877  0.733123  0.733123  1
  Si  Si5  1  0.268411  0.731589  0.268632  1
  Si  Si6  1  0.731368  0.268632  0.731589  1
  Si  Si7  1  0.268411  0.268632  0.731589  1
  Si  Si8  1  0.731368  0.731589  0.268632  1
  Pd  Pd9  1  0.388222  0.381591  0.381591  1
  Pd  Pd10  1  0.616252  0.616161  0.616161  1
  Pd  Pd11  1  0.383839  0.383748  0.848576  1
  Pd  Pd12  1  0.383839  0.848576  0.383748  1
  Pd  Pd13  1  0.618409  0.611778  0.151402  1
  Pd  Pd14  1  0.618409  0.151402  0.611778  1
  Pd  Pd15  1  0.848598  0.381591  0.381591  1
  Pd  Pd16  1  0.151424  0.616161  0.616161  1
  Pd  Pd17  1  0.344413  0.000078  0.000078  1
  Pd  Pd18  1  0.655433  0.000078  0.000078  1
  Pd  Pd19  1  0.999922  0.344567  0.655587  1
  Pd  Pd20  1  0.999922  0.655587  0.344567  1
  Pd  Pd21  1  0.995710  0.340897  0.004290  1
  Pd  Pd22  1  0.659103  0.004290  0.340897  1
  Pd  Pd23  1  0.999977  0.653874  0.000023  1
  Pd  Pd24  1  0.346126  0.000023  0.653874  1
  Pd  Pd25  1  0.995710  0.004290  0.340897  1
  Pd  Pd26  1  0.999977  0.000023  0.653874  1
  Pd  Pd27  1  0.659103  0.340897  0.004290  1
  Pd  Pd28  1  0.346126  0.653874  0.000023  1
