# generated using pymatgen
data_Pr16Sm4PdRh15
_symmetry_space_group_name_H-M   'P 1'
_cell_length_a   7.66760489
_cell_length_b   7.75998001
_cell_length_c   15.10496000
_cell_angle_alpha   89.90109803
_cell_angle_beta   90.08724834
_cell_angle_gamma   89.96516026
_symmetry_Int_Tables_number   1
_chemical_formula_structural   Pr16Sm4PdRh15
_chemical_formula_sum   'Pr16 Sm4 Pd1 Rh15'
_cell_volume   898.74952958
_cell_formula_units_Z   1
loop_
 _symmetry_equiv_pos_site_id
 _symmetry_equiv_pos_as_xyz
  1  'x, y, z'
loop_
 _atom_site_type_symbol
 _atom_site_label
 _atom_site_symmetry_multiplicity
 _atom_site_fract_x
 _atom_site_fract_y
 _atom_site_fract_z
 _atom_site_occupancy
  Pr  Pr0  1  0.665156  0.175763  0.624787  1
  Pr  Pr1  1  0.165821  0.330454  0.878172  1
  Pr  Pr2  1  0.332998  0.830947  0.120942  1
  Pr  Pr3  1  0.837750  0.663855  0.376464  1
  Pr  Pr4  1  0.329026  0.827647  0.378016  1
  Pr  Pr5  1  0.833876  0.669666  0.121037  1
  Pr  Pr6  1  0.666607  0.170135  0.878909  1
  Pr  Pr7  1  0.163205  0.328783  0.621023  1
  Pr  Pr8  1  0.513670  0.679339  0.599011  1
  Pr  Pr9  1  0.017760  0.818572  0.904299  1
  Pr  Pr10  1  0.483268  0.318538  0.094475  1
  Pr  Pr11  1  0.988532  0.183402  0.401267  1
  Pr  Pr12  1  0.483081  0.322172  0.403657  1
  Pr  Pr13  1  0.982943  0.183513  0.094704  1
  Pr  Pr14  1  0.516839  0.682590  0.904246  1
  Pr  Pr15  1  0.017452  0.817774  0.596793  1
  Sm  Sm16  1  0.828720  0.513822  0.751008  1
  Sm  Sm17  1  0.328337  0.989599  0.750165  1
  Sm  Sm18  1  0.174222  0.487455  0.247671  1
  Sm  Sm19  1  0.671113  0.010689  0.247646  1
  Pd  Pd20  1  0.671006  0.967979  0.460079  1
  Rh  Rh21  1  0.170984  0.526915  0.044383  1
  Rh  Rh22  1  0.329294  0.027338  0.955120  1
  Rh  Rh23  1  0.826656  0.474084  0.543815  1
  Rh  Rh24  1  0.330792  0.024901  0.544661  1
  Rh  Rh25  1  0.828717  0.473851  0.955021  1
  Rh  Rh26  1  0.670517  0.974929  0.045911  1
  Rh  Rh27  1  0.169601  0.522923  0.454164  1
  Rh  Rh28  1  0.461568  0.400581  0.750475  1
  Rh  Rh29  1  0.962237  0.099607  0.749729  1
  Rh  Rh30  1  0.538406  0.601163  0.250763  1
  Rh  Rh31  1  0.036881  0.901449  0.250996  1
  Rh  Rh32  1  0.701140  0.855966  0.750365  1
  Rh  Rh33  1  0.201352  0.645674  0.749516  1
  Rh  Rh34  1  0.301816  0.144897  0.250300  1
  Rh  Rh35  1  0.798652  0.353031  0.250406  1
