# generated using pymatgen
data_Pr3NdSiBr6
_symmetry_space_group_name_H-M   'P 1'
_cell_length_a   4.24245600
_cell_length_b   13.83718101
_cell_length_c   14.64845791
_cell_angle_alpha   90.17421364
_cell_angle_beta   90.00000000
_cell_angle_gamma   90.00000000
_symmetry_Int_Tables_number   1
_chemical_formula_structural   Pr3NdSiBr6
_chemical_formula_sum   'Pr6 Nd2 Si2 Br12'
_cell_volume   859.91370148
_cell_formula_units_Z   2
loop_
 _symmetry_equiv_pos_site_id
 _symmetry_equiv_pos_as_xyz
  1  'x, y, z'
loop_
 _atom_site_type_symbol
 _atom_site_label
 _atom_site_symmetry_multiplicity
 _atom_site_fract_x
 _atom_site_fract_y
 _atom_site_fract_z
 _atom_site_occupancy
  Pr  Pr0  1  0.500000  0.119144  0.340209  1
  Pr  Pr1  1  0.500000  0.880856  0.659791  1
  Pr  Pr2  1  0.000000  0.120454  0.580072  1
  Pr  Pr3  1  0.000000  0.879546  0.419928  1
  Pr  Pr4  1  0.000000  0.620003  0.920298  1
  Pr  Pr5  1  0.000000  0.379997  0.079702  1
  Nd  Nd6  1  0.500000  0.618489  0.158912  1
  Nd  Nd7  1  0.500000  0.381511  0.841088  1
  Si  Si8  1  0.500000  0.000000  0.500000  1
  Si  Si9  1  0.500000  0.500000  0.000000  1
  Br  Br10  1  0.500000  0.243020  0.162119  1
  Br  Br11  1  0.500000  0.756980  0.837881  1
  Br  Br12  1  0.500000  0.742200  0.336618  1
  Br  Br13  1  0.500000  0.257800  0.663382  1
  Br  Br14  1  0.000000  0.254575  0.411335  1
  Br  Br15  1  0.000000  0.745425  0.588665  1
  Br  Br16  1  0.000000  0.752713  0.089973  1
  Br  Br17  1  0.000000  0.247287  0.910027  1
  Br  Br18  1  0.000000  0.001600  0.244078  1
  Br  Br19  1  0.000000  0.998400  0.755922  1
  Br  Br20  1  0.000000  0.503565  0.254764  1
  Br  Br21  1  0.000000  0.496435  0.745236  1
