# generated using pymatgen
data_Lu2U2As6Ru7
_symmetry_space_group_name_H-M   'P 1'
_cell_length_a   7.21011072
_cell_length_b   7.16260403
_cell_length_c   7.16260486
_cell_angle_alpha   109.48119913
_cell_angle_beta   109.33285999
_cell_angle_gamma   109.33284470
_symmetry_Int_Tables_number   1
_chemical_formula_structural   Lu2U2As6Ru7
_chemical_formula_sum   'Lu2 U2 As6 Ru7'
_cell_volume   285.68196179
_cell_formula_units_Z   1
loop_
 _symmetry_equiv_pos_site_id
 _symmetry_equiv_pos_as_xyz
  1  'x, y, z'
loop_
 _atom_site_type_symbol
 _atom_site_label
 _atom_site_symmetry_multiplicity
 _atom_site_fract_x
 _atom_site_fract_y
 _atom_site_fract_z
 _atom_site_occupancy
  Lu  Lu0  1  0.000000  0.000000  0.500000  1
  Lu  Lu1  1  0.000000  0.500000  0.000000  1
  U  U2  1  0.500000  0.000000  0.000000  1
  U  U3  1  0.500000  0.500000  0.500000  1
  As  As4  1  0.307236  0.994997  0.312240  1
  As  As5  1  0.000000  0.311717  0.311717  1
  As  As6  1  0.000000  0.688283  0.688283  1
  As  As7  1  0.307236  0.312240  0.994997  1
  As  As8  1  0.692764  0.687760  0.005003  1
  As  As9  1  0.692764  0.005003  0.687760  1
  Ru  Ru10  1  0.746192  0.495807  0.250385  1
  Ru  Ru11  1  0.500000  0.750000  0.250000  1
  Ru  Ru12  1  0.500000  0.250000  0.750000  1
  Ru  Ru13  1  0.746192  0.250385  0.495807  1
  Ru  Ru14  1  0.253808  0.749615  0.504193  1
  Ru  Ru15  1  0.253808  0.504193  0.749615  1
  Ru  Ru16  1  0.000000  0.000000  0.000000  1
