# generated using pymatgen
data_U4Mn2Ge4RuRh
_symmetry_space_group_name_H-M   'P 1'
_cell_length_a   4.52718900
_cell_length_b   6.63010504
_cell_length_c   7.18729282
_cell_angle_alpha   93.79135725
_cell_angle_beta   90.00000000
_cell_angle_gamma   90.00000000
_symmetry_Int_Tables_number   1
_chemical_formula_structural   U4Mn2Ge4RuRh
_chemical_formula_sum   'U4 Mn2 Ge4 Ru1 Rh1'
_cell_volume   215.25976339
_cell_formula_units_Z   1
loop_
 _symmetry_equiv_pos_site_id
 _symmetry_equiv_pos_as_xyz
  1  'x, y, z'
loop_
 _atom_site_type_symbol
 _atom_site_label
 _atom_site_symmetry_multiplicity
 _atom_site_fract_x
 _atom_site_fract_y
 _atom_site_fract_z
 _atom_site_occupancy
  U  U0  1  0.250000  0.473469  0.685913  1
  U  U1  1  0.750000  0.525049  0.312910  1
  U  U2  1  0.250000  0.982821  0.794588  1
  U  U3  1  0.750000  0.024679  0.205166  1
  Mn  Mn4  1  0.750000  0.740830  0.544631  1
  Mn  Mn5  1  0.250000  0.260083  0.453610  1
  Ge  Ge6  1  0.250000  0.316952  0.103688  1
  Ge  Ge7  1  0.750000  0.682264  0.895938  1
  Ge  Ge8  1  0.250000  0.831875  0.411650  1
  Ge  Ge9  1  0.750000  0.169007  0.588509  1
  Ru  Ru10  1  0.750000  0.272812  0.940750  1
  Rh  Rh11  1  0.250000  0.720160  0.062646  1
