# generated using pymatgen
data_Ta5Mn12Nb7N4
_symmetry_space_group_name_H-M   'P 1'
_cell_length_a   8.05287101
_cell_length_b   8.05237431
_cell_length_c   8.04899100
_cell_angle_alpha   60.01435952
_cell_angle_beta   60.01634585
_cell_angle_gamma   60.03517420
_symmetry_Int_Tables_number   1
_chemical_formula_structural   Ta5Mn12Nb7N4
_chemical_formula_sum   'Ta5 Mn12 Nb7 N4'
_cell_volume   369.24723472
_cell_formula_units_Z   1
loop_
 _symmetry_equiv_pos_site_id
 _symmetry_equiv_pos_as_xyz
  1  'x, y, z'
loop_
 _atom_site_type_symbol
 _atom_site_label
 _atom_site_symmetry_multiplicity
 _atom_site_fract_x
 _atom_site_fract_y
 _atom_site_fract_z
 _atom_site_occupancy
  Ta  Ta0  1  0.055199  0.055124  0.444835  1
  Ta  Ta1  1  0.445107  0.054784  0.444997  1
  Ta  Ta2  1  0.054843  0.445020  0.055080  1
  Ta  Ta3  1  0.054833  0.445024  0.445057  1
  Ta  Ta4  1  0.445104  0.054792  0.055105  1
  Mn  Mn5  1  0.125266  0.625163  0.624785  1
  Mn  Mn6  1  0.625140  0.125151  0.624855  1
  Mn  Mn7  1  0.625671  0.625773  0.124988  1
  Mn  Mn8  1  0.625669  0.625767  0.623566  1
  Mn  Mn9  1  0.732395  0.422460  0.422591  1
  Mn  Mn10  1  0.422497  0.732423  0.422557  1
  Mn  Mn11  1  0.422685  0.422602  0.731950  1
  Mn  Mn12  1  0.422674  0.422594  0.422791  1
  Mn  Mn13  1  0.518879  0.827443  0.826826  1
  Mn  Mn14  1  0.827324  0.518917  0.826863  1
  Mn  Mn15  1  0.826933  0.827086  0.518915  1
  Mn  Mn16  1  0.826946  0.827103  0.827052  1
  Nb  Nb17  1  0.803878  0.803868  0.196132  1
  Nb  Nb18  1  0.195703  0.195649  0.804321  1
  Nb  Nb19  1  0.803924  0.195801  0.804663  1
  Nb  Nb20  1  0.195818  0.803917  0.195585  1
  Nb  Nb21  1  0.195834  0.803909  0.804669  1
  Nb  Nb22  1  0.803930  0.195787  0.195609  1
  Nb  Nb23  1  0.445269  0.445162  0.054774  1
  N  N24  1  0.622508  0.123889  0.126804  1
  N  N25  1  0.123843  0.622590  0.126785  1
  N  N26  1  0.126063  0.126100  0.621544  1
  N  N27  1  0.126065  0.126101  0.126301  1
