# generated using pymatgen
data_Nb3V9Si10
_symmetry_space_group_name_H-M   'P 1'
_cell_length_a   4.91022686
_cell_length_b   7.61392614
_cell_length_c   9.22113858
_cell_angle_alpha   65.61201652
_cell_angle_beta   74.55887460
_cell_angle_gamma   90.00001422
_symmetry_Int_Tables_number   1
_chemical_formula_structural   Nb3V9Si10
_chemical_formula_sum   'Nb3 V9 Si10'
_cell_volume   300.26541598
_cell_formula_units_Z   1
loop_
 _symmetry_equiv_pos_site_id
 _symmetry_equiv_pos_as_xyz
  1  'x, y, z'
loop_
 _atom_site_type_symbol
 _atom_site_label
 _atom_site_symmetry_multiplicity
 _atom_site_fract_x
 _atom_site_fract_y
 _atom_site_fract_z
 _atom_site_occupancy
  Nb  Nb0  1  0.857603  0.737500  0.284794  1
  Nb  Nb1  1  0.642368  0.027432  0.715265  1
  Nb  Nb2  1  0.357303  0.974572  0.285392  1
  V  V3  1  0.439481  0.690824  0.620460  1
  V  V4  1  0.059355  0.310537  0.380267  1
  V  V5  1  0.560378  0.310537  0.380267  1
  V  V6  1  0.940059  0.690824  0.620460  1
  V  V7  1  0.436351  0.682363  0.127297  1
  V  V8  1  0.563621  0.318084  0.872760  1
  V  V9  1  0.936783  0.190315  0.126436  1
  V  V10  1  0.063086  0.808132  0.873828  1
  V  V11  1  0.143159  0.262707  0.713681  1
  Si  Si12  1  0.065009  0.475786  0.869981  1
  Si  Si13  1  0.937268  0.517184  0.125464  1
  Si  Si14  1  0.563196  0.646206  0.873608  1
  Si  Si15  1  0.436562  0.354034  0.126877  1
  Si  Si16  1  0.753479  0.002618  0.996690  1
  Si  Si17  1  0.249831  0.002618  0.996690  1
  Si  Si18  1  0.284124  0.575879  0.431753  1
  Si  Si19  1  0.712471  0.417632  0.575060  1
  Si  Si20  1  0.786522  0.991797  0.426956  1
  Si  Si21  1  0.211992  0.012417  0.576018  1
