# generated using pymatgen
data_Tb2Mo3P7Ru4Rh5
_symmetry_space_group_name_H-M   'P 1'
_cell_length_a   3.93877080
_cell_length_b   9.51941735
_cell_length_c   9.49608176
_cell_angle_alpha   119.53837351
_cell_angle_beta   90.00645914
_cell_angle_gamma   90.00570231
_symmetry_Int_Tables_number   1
_chemical_formula_structural   Tb2Mo3P7Ru4Rh5
_chemical_formula_sum   'Tb2 Mo3 P7 Ru4 Rh5'
_cell_volume   309.77587769
_cell_formula_units_Z   1
loop_
 _symmetry_equiv_pos_site_id
 _symmetry_equiv_pos_as_xyz
  1  'x, y, z'
loop_
 _atom_site_type_symbol
 _atom_site_label
 _atom_site_symmetry_multiplicity
 _atom_site_fract_x
 _atom_site_fract_y
 _atom_site_fract_z
 _atom_site_occupancy
  Tb  Tb0  1  0.261924  0.666184  0.335115  1
  Tb  Tb1  1  0.761907  0.333027  0.665670  1
  Mo  Mo2  1  0.761942  0.097118  0.878461  1
  Mo  Mo3  1  0.761931  0.121476  0.216933  1
  Mo  Mo4  1  0.761898  0.786595  0.907228  1
  P  P5  1  0.261947  0.999653  0.000006  1
  P  P6  1  0.761847  0.876542  0.598928  1
  P  P7  1  0.761917  0.402635  0.286418  1
  P  P8  1  0.761902  0.717555  0.119204  1
  P  P9  1  0.261837  0.115047  0.410167  1
  P  P10  1  0.261870  0.587593  0.697987  1
  P  P11  1  0.261907  0.297049  0.883099  1
  Ru  Ru12  1  0.261888  0.884861  0.159978  1
  Ru  Ru13  1  0.261825  0.842943  0.727143  1
  Ru  Ru14  1  0.261933  0.272077  0.112086  1
  Ru  Ru15  1  0.761849  0.609402  0.561381  1
  Rh  Rh16  1  0.762004  0.444697  0.054615  1
  Rh  Rh17  1  0.761958  0.945210  0.391321  1
  Rh  Rh18  1  0.261873  0.366095  0.433447  1
  Rh  Rh19  1  0.261963  0.563982  0.929217  1
  Rh  Rh20  1  0.261877  0.070257  0.631596  1
