# generated using pymatgen
data_Tb2Ho3(CoB3)2
_symmetry_space_group_name_H-M   'P 1'
_cell_length_a   5.38786092
_cell_length_b   5.38785976
_cell_length_c   8.33408465
_cell_angle_alpha   71.14087535
_cell_angle_beta   71.14087657
_cell_angle_gamma   59.99999244
_symmetry_Int_Tables_number   1
_chemical_formula_structural   Tb2Ho3(CoB3)2
_chemical_formula_sum   'Tb2 Ho3 Co2 B6'
_cell_volume   194.37638081
_cell_formula_units_Z   1
loop_
 _symmetry_equiv_pos_site_id
 _symmetry_equiv_pos_as_xyz
  1  'x, y, z'
loop_
 _atom_site_type_symbol
 _atom_site_label
 _atom_site_symmetry_multiplicity
 _atom_site_fract_x
 _atom_site_fract_y
 _atom_site_fract_z
 _atom_site_occupancy
  Tb  Tb0  1  0.252234  0.252234  0.243300  1
  Tb  Tb1  1  0.747766  0.747766  0.756700  1
  Ho  Ho2  1  0.000000  0.000000  0.000000  1
  Ho  Ho3  1  0.416642  0.416642  0.750071  1
  Ho  Ho4  1  0.583358  0.583358  0.249929  1
  Co  Co5  1  0.119442  0.119442  0.641673  1
  Co  Co6  1  0.880558  0.880558  0.358327  1
  B  B7  1  0.168564  0.831436  0.500000  1
  B  B8  1  0.831436  0.500000  0.500000  1
  B  B9  1  0.500000  0.168564  0.500000  1
  B  B10  1  0.168564  0.500000  0.500000  1
  B  B11  1  0.500000  0.831436  0.500000  1
  B  B12  1  0.831436  0.168564  0.500000  1
