# generated using pymatgen
data_Dy4TmGa5P7Ir19
_symmetry_space_group_name_H-M   'P 1'
_cell_length_a   12.94152145
_cell_length_b   12.92010213
_cell_length_c   3.96948600
_cell_angle_alpha   90.00000000
_cell_angle_beta   90.00000000
_cell_angle_gamma   119.94186935
_symmetry_Int_Tables_number   1
_chemical_formula_structural   Dy4TmGa5P7Ir19
_chemical_formula_sum   'Dy4 Tm1 Ga5 P7 Ir19'
_cell_volume   575.13564545
_cell_formula_units_Z   1
loop_
 _symmetry_equiv_pos_site_id
 _symmetry_equiv_pos_as_xyz
  1  'x, y, z'
loop_
 _atom_site_type_symbol
 _atom_site_label
 _atom_site_symmetry_multiplicity
 _atom_site_fract_x
 _atom_site_fract_y
 _atom_site_fract_z
 _atom_site_occupancy
  Dy  Dy0  1  0.335026  0.666014  0.500000  1
  Dy  Dy1  1  0.665080  0.333246  0.500000  1
  Dy  Dy2  1  0.182215  0.183305  0.000000  1
  Dy  Dy3  1  0.813923  0.997448  0.000000  1
  Tm  Tm4  1  0.003586  0.815972  0.000000  1
  Ga  Ga5  1  0.998490  0.638273  0.500000  1
  Ga  Ga6  1  0.360166  0.361021  0.500000  1
  Ga  Ga7  1  0.639179  0.003813  0.500000  1
  Ga  Ga8  1  0.519214  0.679394  0.000000  1
  Ga  Ga9  1  0.322001  0.836208  0.000000  1
  P  P10  1  0.166844  0.479541  0.000000  1
  P  P11  1  0.481060  0.177689  0.000000  1
  P  P12  1  0.693445  0.516475  0.000000  1
  P  P13  1  0.819989  0.304718  0.000000  1
  P  P14  1  0.996373  0.178029  0.500000  1
  P  P15  1  0.825040  0.820321  0.500000  1
  P  P16  1  0.178987  0.000562  0.500000  1
  Ir  Ir17  1  0.525806  0.875725  0.000000  1
  Ir  Ir18  1  0.131138  0.635029  0.000000  1
  Ir  Ir19  1  0.346633  0.478333  0.000000  1
  Ir  Ir20  1  0.498414  0.368811  0.000000  1
  Ir  Ir21  1  0.868005  0.499839  0.000000  1
  Ir  Ir22  1  0.630534  0.132582  0.000000  1
  Ir  Ir23  1  0.000192  0.447893  0.500000  1
  Ir  Ir24  1  0.549949  0.557610  0.500000  1
  Ir  Ir25  1  0.441577  0.995624  0.500000  1
  Ir  Ir26  1  0.995531  0.280522  0.000000  1
  Ir  Ir27  1  0.731512  0.719270  0.000000  1
  Ir  Ir28  1  0.280069  0.007991  0.000000  1
  Ir  Ir29  1  0.639351  0.809507  0.500000  1
  Ir  Ir30  1  0.192029  0.825001  0.500000  1
  Ir  Ir31  1  0.168751  0.374667  0.500000  1
  Ir  Ir32  1  0.383725  0.178818  0.500000  1
  Ir  Ir33  1  0.791882  0.611216  0.500000  1
  Ir  Ir34  1  0.823157  0.207851  0.500000  1
  Ir  Ir35  1  0.001128  0.001681  0.500000  1
