# generated using pymatgen
data_NaSr3Li2(OsN4)2
_symmetry_space_group_name_H-M   'P 1'
_cell_length_a   5.89821100
_cell_length_b   6.16593140
_cell_length_c   6.80668602
_cell_angle_alpha   73.13941588
_cell_angle_beta   90.00000000
_cell_angle_gamma   90.00000000
_symmetry_Int_Tables_number   1
_chemical_formula_structural   NaSr3Li2(OsN4)2
_chemical_formula_sum   'Na1 Sr3 Li2 Os2 N8'
_cell_volume   236.90416938
_cell_formula_units_Z   1
loop_
 _symmetry_equiv_pos_site_id
 _symmetry_equiv_pos_as_xyz
  1  'x, y, z'
loop_
 _atom_site_type_symbol
 _atom_site_label
 _atom_site_symmetry_multiplicity
 _atom_site_fract_x
 _atom_site_fract_y
 _atom_site_fract_z
 _atom_site_occupancy
  Na  Na0  1  0.250000  0.252531  0.053640  1
  Sr  Sr1  1  0.750000  0.738002  0.939877  1
  Sr  Sr2  1  0.750000  0.784068  0.429838  1
  Sr  Sr3  1  0.250000  0.221018  0.566079  1
  Li  Li4  1  0.750000  0.311202  0.304407  1
  Li  Li5  1  0.250000  0.679285  0.708295  1
  Os  Os6  1  0.250000  0.722851  0.196946  1
  Os  Os7  1  0.750000  0.279223  0.802501  1
  N  N8  1  0.507225  0.468508  0.751417  1
  N  N9  1  0.002999  0.538816  0.253164  1
  N  N10  1  0.497001  0.538816  0.253164  1
  N  N11  1  0.992775  0.468508  0.751417  1
  N  N12  1  0.750000  0.105519  0.622412  1
  N  N13  1  0.250000  0.899958  0.371341  1
  N  N14  1  0.750000  0.111350  0.069476  1
  N  N15  1  0.250000  0.880346  0.926024  1
