# generated using pymatgen
data_LuMg(ZnRu)2
_symmetry_space_group_name_H-M   'P 1'
_cell_length_a   5.24518581
_cell_length_b   5.24518458
_cell_length_c   5.24518458
_cell_angle_alpha   120.17833465
_cell_angle_beta   120.75553447
_cell_angle_gamma   89.19387222
_symmetry_Int_Tables_number   1
_chemical_formula_structural   LuMg(ZnRu)2
_chemical_formula_sum   'Lu1 Mg1 Zn2 Ru2'
_cell_volume   101.30498155
_cell_formula_units_Z   1
loop_
 _symmetry_equiv_pos_site_id
 _symmetry_equiv_pos_as_xyz
  1  'x, y, z'
loop_
 _atom_site_type_symbol
 _atom_site_label
 _atom_site_symmetry_multiplicity
 _atom_site_fract_x
 _atom_site_fract_y
 _atom_site_fract_z
 _atom_site_occupancy
  Lu  Lu0  1  0.364684  0.114684  0.250000  1
  Mg  Mg1  1  0.629703  0.879703  0.750000  1
  Zn  Zn2  1  0.500648  0.501425  0.999223  1
  Zn  Zn3  1  0.002202  0.501425  0.500777  1
  Ru  Ru4  1  0.001381  0.503482  0.002101  1
  Ru  Ru5  1  0.001381  0.999280  0.497899  1
