# generated using pymatgen
data_ErU2Sn3Ir2Rh
_symmetry_space_group_name_H-M   'P 1'
_cell_length_a   7.47226815
_cell_length_b   7.34162562
_cell_length_c   3.97572000
_cell_angle_alpha   90.00000000
_cell_angle_beta   90.00000000
_cell_angle_gamma   119.42331287
_symmetry_Int_Tables_number   1
_chemical_formula_structural   ErU2Sn3Ir2Rh
_chemical_formula_sum   'Er1 U2 Sn3 Ir2 Rh1'
_cell_volume   189.97025596
_cell_formula_units_Z   1
loop_
 _symmetry_equiv_pos_site_id
 _symmetry_equiv_pos_as_xyz
  1  'x, y, z'
loop_
 _atom_site_type_symbol
 _atom_site_label
 _atom_site_symmetry_multiplicity
 _atom_site_fract_x
 _atom_site_fract_y
 _atom_site_fract_z
 _atom_site_occupancy
  Er  Er0  1  0.000000  0.591704  0.500000  1
  U  U1  1  0.415560  0.413684  0.500000  1
  U  U2  1  0.584440  0.998125  0.500000  1
  Sn  Sn3  1  0.753991  0.744938  0.000000  1
  Sn  Sn4  1  0.246009  0.990947  0.000000  1
  Sn  Sn5  1  0.000000  0.264807  0.000000  1
  Ir  Ir6  1  0.647800  0.317107  0.000000  1
  Ir  Ir7  1  0.352200  0.669307  0.000000  1
  Rh  Rh8  1  0.000000  0.009380  0.500000  1
