# generated using pymatgen
data_Sc20Si9Se7
_symmetry_space_group_name_H-M   'P 1'
_cell_length_a   7.10976558
_cell_length_b   7.12371574
_cell_length_c   13.74115258
_cell_angle_alpha   89.73656571
_cell_angle_beta   89.52047237
_cell_angle_gamma   90.32315122
_symmetry_Int_Tables_number   1
_chemical_formula_structural   Sc20Si9Se7
_chemical_formula_sum   'Sc20 Si9 Se7'
_cell_volume   695.91824376
_cell_formula_units_Z   1
loop_
 _symmetry_equiv_pos_site_id
 _symmetry_equiv_pos_as_xyz
  1  'x, y, z'
loop_
 _atom_site_type_symbol
 _atom_site_label
 _atom_site_symmetry_multiplicity
 _atom_site_fract_x
 _atom_site_fract_y
 _atom_site_fract_z
 _atom_site_occupancy
  Sc  Sc0  1  0.231674  0.995807  0.750138  1
  Sc  Sc1  1  0.768405  0.003438  0.248968  1
  Sc  Sc2  1  0.269196  0.501089  0.246367  1
  Sc  Sc3  1  0.731598  0.498885  0.750642  1
  Sc  Sc4  1  0.067463  0.668004  0.615463  1
  Sc  Sc5  1  0.931834  0.331715  0.384908  1
  Sc  Sc6  1  0.432579  0.169960  0.383936  1
  Sc  Sc7  1  0.944525  0.338655  0.112225  1
  Sc  Sc8  1  0.568306  0.829527  0.615881  1
  Sc  Sc9  1  0.068961  0.664147  0.887160  1
  Sc  Sc10  1  0.551451  0.819742  0.888813  1
  Sc  Sc11  1  0.433893  0.179861  0.114501  1
  Sc  Sc12  1  0.404857  0.331968  0.618955  1
  Sc  Sc13  1  0.596903  0.667686  0.380930  1
  Sc  Sc14  1  0.096781  0.834844  0.380146  1
  Sc  Sc15  1  0.598105  0.664875  0.119475  1
  Sc  Sc16  1  0.901921  0.164541  0.621154  1
  Sc  Sc17  1  0.398283  0.335232  0.882386  1
  Sc  Sc18  1  0.901393  0.165812  0.879571  1
  Sc  Sc19  1  0.102129  0.830008  0.119783  1
  Si  Si20  1  0.107069  0.375232  0.748973  1
  Si  Si21  1  0.892901  0.624168  0.251280  1
  Si  Si22  1  0.394219  0.880447  0.250228  1
  Si  Si23  1  0.604804  0.118779  0.751536  1
  Si  Si24  1  0.360317  0.626000  0.748818  1
  Si  Si25  1  0.642779  0.373117  0.250453  1
  Si  Si26  1  0.139708  0.130720  0.249461  1
  Si  Si27  1  0.857956  0.867821  0.751933  1
  Si  Si28  1  0.266853  0.517061  0.045017  1
  Se  Se29  1  0.241181  0.004690  0.547162  1
  Se  Se30  1  0.758292  0.995714  0.452894  1
  Se  Se31  1  0.258773  0.505550  0.452081  1
  Se  Se32  1  0.756784  0.992734  0.045951  1
  Se  Se33  1  0.742322  0.494057  0.547341  1
  Se  Se34  1  0.234738  0.009527  0.952604  1
  Se  Se35  1  0.741047  0.488589  0.952868  1
