# generated using pymatgen
data_Sr4HoTm3Lu4O16
_symmetry_space_group_name_H-M   'P 1'
_cell_length_a   3.35923900
_cell_length_b   10.02717237
_cell_length_c   11.81477262
_cell_angle_alpha   89.94008671
_cell_angle_beta   90.00000000
_cell_angle_gamma   90.00000000
_symmetry_Int_Tables_number   1
_chemical_formula_structural   Sr4HoTm3Lu4O16
_chemical_formula_sum   'Sr4 Ho1 Tm3 Lu4 O16'
_cell_volume   397.96466643
_cell_formula_units_Z   1
loop_
 _symmetry_equiv_pos_site_id
 _symmetry_equiv_pos_as_xyz
  1  'x, y, z'
loop_
 _atom_site_type_symbol
 _atom_site_label
 _atom_site_symmetry_multiplicity
 _atom_site_fract_x
 _atom_site_fract_y
 _atom_site_fract_z
 _atom_site_occupancy
  Sr  Sr0  1  0.750000  0.253542  0.850413  1
  Sr  Sr1  1  0.250000  0.746045  0.150288  1
  Sr  Sr2  1  0.750000  0.753332  0.648739  1
  Sr  Sr3  1  0.250000  0.246462  0.350568  1
  Ho  Ho4  1  0.750000  0.923661  0.887965  1
  Tm  Tm5  1  0.250000  0.075287  0.113339  1
  Tm  Tm6  1  0.750000  0.424920  0.612314  1
  Tm  Tm7  1  0.250000  0.574673  0.387549  1
  Lu  Lu8  1  0.250000  0.576414  0.890614  1
  Lu  Lu9  1  0.750000  0.422893  0.108823  1
  Lu  Lu10  1  0.250000  0.077721  0.608468  1
  Lu  Lu11  1  0.750000  0.922922  0.391220  1
  O  O12  1  0.250000  0.574828  0.576208  1
  O  O13  1  0.750000  0.425057  0.423366  1
  O  O14  1  0.250000  0.076104  0.924686  1
  O  O15  1  0.750000  0.925185  0.078598  1
  O  O16  1  0.250000  0.483716  0.214806  1
  O  O17  1  0.750000  0.515429  0.784952  1
  O  O18  1  0.250000  0.983650  0.285532  1
  O  O19  1  0.750000  0.018333  0.714624  1
  O  O20  1  0.250000  0.879016  0.519729  1
  O  O21  1  0.750000  0.121563  0.479937  1
  O  O22  1  0.250000  0.378715  0.980539  1
  O  O23  1  0.750000  0.622016  0.019089  1
  O  O24  1  0.750000  0.711915  0.330820  1
  O  O25  1  0.250000  0.288269  0.669008  1
  O  O26  1  0.750000  0.212372  0.169864  1
  O  O27  1  0.250000  0.785957  0.827941  1
