# generated using pymatgen
data_KSr(CoO2)6
_symmetry_space_group_name_H-M   'P 1'
_cell_length_a   4.94366578
_cell_length_b   6.22605209
_cell_length_c   8.53118200
_cell_angle_alpha   89.99996319
_cell_angle_beta   89.99998841
_cell_angle_gamma   75.47636044
_symmetry_Int_Tables_number   1
_chemical_formula_structural   KSr(CoO2)6
_chemical_formula_sum   'K1 Sr1 Co6 O12'
_cell_volume   254.19457076
_cell_formula_units_Z   1
loop_
 _symmetry_equiv_pos_site_id
 _symmetry_equiv_pos_as_xyz
  1  'x, y, z'
loop_
 _atom_site_type_symbol
 _atom_site_label
 _atom_site_symmetry_multiplicity
 _atom_site_fract_x
 _atom_site_fract_y
 _atom_site_fract_z
 _atom_site_occupancy
  K  K0  1  0.000000  0.500000  0.167764  1
  Sr  Sr1  1  0.500001  0.500000  0.666918  1
  Co  Co2  1  0.000000  0.000000  0.666582  1
  Co  Co3  1  0.500000  0.000000  0.834020  1
  Co  Co4  1  0.500000  0.000000  0.499192  1
  Co  Co5  1  0.500000  0.000000  0.166563  1
  Co  Co6  1  0.000000  0.000000  0.333949  1
  Co  Co7  1  0.000000  0.000000  0.999212  1
  O  O8  1  0.779045  0.156485  0.166577  1
  O  O9  1  0.283207  0.165574  0.666598  1
  O  O10  1  0.220955  0.843515  0.166577  1
  O  O11  1  0.716793  0.834426  0.666598  1
  O  O12  1  0.286717  0.158967  0.997857  1
  O  O13  1  0.774100  0.165441  0.502199  1
  O  O14  1  0.286778  0.158820  0.335364  1
  O  O15  1  0.774134  0.165368  0.830969  1
  O  O16  1  0.713222  0.841180  0.335364  1
  O  O17  1  0.225866  0.834633  0.830970  1
  O  O18  1  0.713282  0.841033  0.997857  1
  O  O19  1  0.225900  0.834559  0.502200  1
