# generated using pymatgen
data_NaZrIrSe4
_symmetry_space_group_name_H-M   'P 1'
_cell_length_a   3.79989000
_cell_length_b   6.09636013
_cell_length_c   8.25173200
_cell_angle_alpha   66.20154547
_cell_angle_beta   90.00000000
_cell_angle_gamma   90.00000000
_symmetry_Int_Tables_number   1
_chemical_formula_structural   NaZrIrSe4
_chemical_formula_sum   'Na1 Zr1 Ir1 Se4'
_cell_volume   174.90163551
_cell_formula_units_Z   1
loop_
 _symmetry_equiv_pos_site_id
 _symmetry_equiv_pos_as_xyz
  1  'x, y, z'
loop_
 _atom_site_type_symbol
 _atom_site_label
 _atom_site_symmetry_multiplicity
 _atom_site_fract_x
 _atom_site_fract_y
 _atom_site_fract_z
 _atom_site_occupancy
  Na  Na0  1  0.500000  0.614387  0.512785  1
  Zr  Zr1  1  0.500000  0.559641  0.008522  1
  Ir  Ir2  1  0.000000  0.973411  0.990377  1
  Se  Se3  1  0.000000  0.546856  0.238067  1
  Se  Se4  1  0.500000  0.051367  0.165496  1
  Se  Se5  1  0.000000  0.429145  0.817256  1
  Se  Se6  1  0.500000  0.990292  0.772199  1
