# generated using pymatgen
data_Sc10Tl6In2CoPt3
_symmetry_space_group_name_H-M   'P 1'
_cell_length_a   3.42245600
_cell_length_b   7.78618444
_cell_length_c   17.58659411
_cell_angle_alpha   90.11729547
_cell_angle_beta   90.00000000
_cell_angle_gamma   90.00000000
_symmetry_Int_Tables_number   1
_chemical_formula_structural   Sc10Tl6In2CoPt3
_chemical_formula_sum   'Sc10 Tl6 In2 Co1 Pt3'
_cell_volume   468.64435574
_cell_formula_units_Z   1
loop_
 _symmetry_equiv_pos_site_id
 _symmetry_equiv_pos_as_xyz
  1  'x, y, z'
loop_
 _atom_site_type_symbol
 _atom_site_label
 _atom_site_symmetry_multiplicity
 _atom_site_fract_x
 _atom_site_fract_y
 _atom_site_fract_z
 _atom_site_occupancy
  Sc  Sc0  1  0.500000  0.498733  0.498036  1
  Sc  Sc1  1  0.500000  0.997209  0.001825  1
  Sc  Sc2  1  0.500000  0.876859  0.411202  1
  Sc  Sc3  1  0.500000  0.121146  0.586213  1
  Sc  Sc4  1  0.500000  0.621501  0.917160  1
  Sc  Sc5  1  0.500000  0.382630  0.091218  1
  Sc  Sc6  1  0.500000  0.260587  0.274111  1
  Sc  Sc7  1  0.500000  0.753756  0.722124  1
  Sc  Sc8  1  0.500000  0.254509  0.779708  1
  Sc  Sc9  1  0.500000  0.733095  0.219054  1
  Tl  Tl10  1  0.000000  0.201536  0.435756  1
  Tl  Tl11  1  0.000000  0.796075  0.561314  1
  Tl  Tl12  1  0.000000  0.294072  0.939162  1
  Tl  Tl13  1  0.000000  0.701493  0.068177  1
  Tl  Tl14  1  0.000000  0.568572  0.347656  1
  Tl  Tl15  1  0.000000  0.427977  0.646288  1
  In  In16  1  0.000000  0.925701  0.854500  1
  In  In17  1  0.000000  0.080840  0.147917  1
  Co  Co18  1  0.000000  0.460897  0.193350  1
  Pt  Pt19  1  0.000000  0.964250  0.300732  1
  Pt  Pt20  1  0.000000  0.036592  0.698190  1
  Pt  Pt21  1  0.000000  0.541972  0.806306  1
