# generated using pymatgen
data_Ho16MgCd3FePd3
_symmetry_space_group_name_H-M   'P 1'
_cell_length_a   9.64979018
_cell_length_b   9.64978884
_cell_length_c   9.64979140
_cell_angle_alpha   59.49077449
_cell_angle_beta   59.49078770
_cell_angle_gamma   59.49077535
_symmetry_Int_Tables_number   1
_chemical_formula_structural   Ho16MgCd3FePd3
_chemical_formula_sum   'Ho16 Mg1 Cd3 Fe1 Pd3'
_cell_volume   628.02855115
_cell_formula_units_Z   1
loop_
 _symmetry_equiv_pos_site_id
 _symmetry_equiv_pos_as_xyz
  1  'x, y, z'
loop_
 _atom_site_type_symbol
 _atom_site_label
 _atom_site_symmetry_multiplicity
 _atom_site_fract_x
 _atom_site_fract_y
 _atom_site_fract_z
 _atom_site_occupancy
  Ho  Ho0  1  0.354397  0.354397  0.354397  1
  Ho  Ho1  1  0.344645  0.344645  0.952588  1
  Ho  Ho2  1  0.344645  0.952588  0.344645  1
  Ho  Ho3  1  0.952588  0.344645  0.344645  1
  Ho  Ho4  1  0.820869  0.188925  0.188925  1
  Ho  Ho5  1  0.187263  0.811259  0.811259  1
  Ho  Ho6  1  0.188925  0.820869  0.188925  1
  Ho  Ho7  1  0.811259  0.187263  0.811259  1
  Ho  Ho8  1  0.188925  0.188925  0.820869  1
  Ho  Ho9  1  0.811259  0.811259  0.187263  1
  Ho  Ho10  1  0.934241  0.566104  0.566104  1
  Ho  Ho11  1  0.561108  0.936034  0.936034  1
  Ho  Ho12  1  0.566104  0.934241  0.566104  1
  Ho  Ho13  1  0.936034  0.561108  0.936034  1
  Ho  Ho14  1  0.566104  0.566104  0.934241  1
  Ho  Ho15  1  0.936034  0.936034  0.561108  1
  Mg  Mg16  1  0.575135  0.575135  0.575135  1
  Cd  Cd17  1  0.581997  0.581997  0.252857  1
  Cd  Cd18  1  0.581997  0.252857  0.581997  1
  Cd  Cd19  1  0.252857  0.581997  0.581997  1
  Fe  Fe20  1  0.143298  0.143298  0.143298  1
  Pd  Pd21  1  0.145124  0.145124  0.570072  1
  Pd  Pd22  1  0.145124  0.570072  0.145124  1
  Pd  Pd23  1  0.570072  0.145124  0.145124  1
