# generated using pymatgen
data_CeErRh2F14
_symmetry_space_group_name_H-M   'P 1'
_cell_length_a   5.64418189
_cell_length_b   5.96397765
_cell_length_c   8.16148888
_cell_angle_alpha   78.10127004
_cell_angle_beta   89.93254440
_cell_angle_gamma   89.98235287
_symmetry_Int_Tables_number   1
_chemical_formula_structural   CeErRh2F14
_chemical_formula_sum   'Ce1 Er1 Rh2 F14'
_cell_volume   268.82703750
_cell_formula_units_Z   1
loop_
 _symmetry_equiv_pos_site_id
 _symmetry_equiv_pos_as_xyz
  1  'x, y, z'
loop_
 _atom_site_type_symbol
 _atom_site_label
 _atom_site_symmetry_multiplicity
 _atom_site_fract_x
 _atom_site_fract_y
 _atom_site_fract_z
 _atom_site_occupancy
  Ce  Ce0  1  0.741889  0.159986  0.811454  1
  Er  Er1  1  0.244608  0.833903  0.196090  1
  Rh  Rh2  1  0.752826  0.310453  0.274409  1
  Rh  Rh3  1  0.250863  0.691229  0.725347  1
  F  F4  1  0.460847  0.427180  0.731764  1
  F  F5  1  0.042054  0.959887  0.706606  1
  F  F6  1  0.981952  0.475824  0.739173  1
  F  F7  1  0.027579  0.102413  0.288761  1
  F  F8  1  0.972763  0.566585  0.267340  1
  F  F9  1  0.437000  0.041678  0.981841  1
  F  F10  1  0.938336  0.952412  0.018812  1
  F  F11  1  0.246887  0.736724  0.480211  1
  F  F12  1  0.534368  0.887786  0.708815  1
  F  F13  1  0.533717  0.050526  0.290011  1
  F  F14  1  0.491407  0.534669  0.260481  1
  F  F15  1  0.747226  0.263586  0.518968  1
  F  F16  1  0.757928  0.369373  0.029173  1
  F  F17  1  0.257354  0.635785  0.970744  1
