# generated using pymatgen
data_Tm10Tl6As
_symmetry_space_group_name_H-M   'P 1'
_cell_length_a   8.99660800
_cell_length_b   8.99660967
_cell_length_c   6.63845800
_cell_angle_alpha   90.00000000
_cell_angle_beta   90.00000000
_cell_angle_gamma   119.99999387
_symmetry_Int_Tables_number   1
_chemical_formula_structural   Tm10Tl6As
_chemical_formula_sum   'Tm10 Tl6 As1'
_cell_volume   465.32410051
_cell_formula_units_Z   1
loop_
 _symmetry_equiv_pos_site_id
 _symmetry_equiv_pos_as_xyz
  1  'x, y, z'
loop_
 _atom_site_type_symbol
 _atom_site_label
 _atom_site_symmetry_multiplicity
 _atom_site_fract_x
 _atom_site_fract_y
 _atom_site_fract_z
 _atom_site_occupancy
  Tm  Tm0  1  0.666667  0.333333  0.500000  1
  Tm  Tm1  1  0.333333  0.666667  0.500000  1
  Tm  Tm2  1  0.333333  0.666667  0.000000  1
  Tm  Tm3  1  0.666667  0.333333  0.000000  1
  Tm  Tm4  1  0.751701  0.751701  0.244495  1
  Tm  Tm5  1  0.248299  0.000000  0.244495  1
  Tm  Tm6  1  0.000000  0.248299  0.244495  1
  Tm  Tm7  1  0.248299  0.248299  0.755505  1
  Tm  Tm8  1  0.751701  0.000000  0.755505  1
  Tm  Tm9  1  0.000000  0.751701  0.755505  1
  Tl  Tl10  1  0.397007  0.397007  0.245874  1
  Tl  Tl11  1  0.602993  0.000000  0.245874  1
  Tl  Tl12  1  0.000000  0.602993  0.245874  1
  Tl  Tl13  1  0.602993  0.602993  0.754126  1
  Tl  Tl14  1  0.397007  0.000000  0.754126  1
  Tl  Tl15  1  0.000000  0.397007  0.754126  1
  As  As16  1  0.000000  0.000000  0.500000  1
