# generated using pymatgen
data_ZrPd5Au2
_symmetry_space_group_name_H-M   'P 1'
_cell_length_a   5.76272504
_cell_length_b   5.76272530
_cell_length_c   4.02071300
_cell_angle_alpha   90.00000000
_cell_angle_beta   90.00000000
_cell_angle_gamma   91.22818631
_symmetry_Int_Tables_number   1
_chemical_formula_structural   ZrPd5Au2
_chemical_formula_sum   'Zr1 Pd5 Au2'
_cell_volume   133.49318794
_cell_formula_units_Z   1
loop_
 _symmetry_equiv_pos_site_id
 _symmetry_equiv_pos_as_xyz
  1  'x, y, z'
loop_
 _atom_site_type_symbol
 _atom_site_label
 _atom_site_symmetry_multiplicity
 _atom_site_fract_x
 _atom_site_fract_y
 _atom_site_fract_z
 _atom_site_occupancy
  Zr  Zr0  1  0.739400  0.260600  0.000000  1
  Pd  Pd1  1  0.249256  0.249070  0.000000  1
  Pd  Pd2  1  0.750931  0.750745  0.000000  1
  Pd  Pd3  1  0.504791  0.002946  0.500000  1
  Pd  Pd4  1  0.997054  0.495209  0.500000  1
  Pd  Pd5  1  0.501716  0.498284  0.500000  1
  Au  Au6  1  0.255327  0.744673  0.000000  1
  Au  Au7  1  0.001526  0.998474  0.500000  1
