# generated using pymatgen
data_TmZr3(FeB4)4
_symmetry_space_group_name_H-M   'P 1'
_cell_length_a   3.29345200
_cell_length_b   5.80448487
_cell_length_c   11.23751256
_cell_angle_alpha   90.11398213
_cell_angle_beta   90.00000000
_cell_angle_gamma   90.00000000
_symmetry_Int_Tables_number   1
_chemical_formula_structural   TmZr3(FeB4)4
_chemical_formula_sum   'Tm1 Zr3 Fe4 B16'
_cell_volume   214.82476857
_cell_formula_units_Z   1
loop_
 _symmetry_equiv_pos_site_id
 _symmetry_equiv_pos_as_xyz
  1  'x, y, z'
loop_
 _atom_site_type_symbol
 _atom_site_label
 _atom_site_symmetry_multiplicity
 _atom_site_fract_x
 _atom_site_fract_y
 _atom_site_fract_z
 _atom_site_occupancy
  Tm  Tm0  1  0.500000  0.871783  0.350111  1
  Zr  Zr1  1  0.500000  0.373146  0.148429  1
  Zr  Zr2  1  0.500000  0.627696  0.850829  1
  Zr  Zr3  1  0.500000  0.129010  0.650249  1
  Fe  Fe4  1  0.500000  0.366631  0.411390  1
  Fe  Fe5  1  0.500000  0.631409  0.592368  1
  Fe  Fe6  1  0.500000  0.133279  0.909066  1
  Fe  Fe7  1  0.500000  0.867285  0.087809  1
  B  B8  1  0.000000  0.113482  0.046188  1
  B  B9  1  0.000000  0.886508  0.952910  1
  B  B10  1  0.000000  0.386641  0.547323  1
  B  B11  1  0.000000  0.611517  0.454285  1
  B  B12  1  0.000000  0.136387  0.469164  1
  B  B13  1  0.000000  0.863775  0.532941  1
  B  B14  1  0.000000  0.365098  0.967260  1
  B  B15  1  0.000000  0.634439  0.031665  1
  B  B16  1  0.000000  0.026572  0.191430  1
  B  B17  1  0.000000  0.974213  0.807045  1
  B  B18  1  0.000000  0.474528  0.693595  1
  B  B19  1  0.000000  0.524062  0.307246  1
  B  B20  1  0.000000  0.215511  0.313782  1
  B  B21  1  0.000000  0.787035  0.686291  1
  B  B22  1  0.000000  0.287201  0.813811  1
  B  B23  1  0.000000  0.712794  0.184812  1
