# generated using pymatgen
data_Ac2Yb(AgHg)3
_symmetry_space_group_name_H-M   'P 1'
_cell_length_a   4.95250800
_cell_length_b   4.95250736
_cell_length_c   11.53583400
_cell_angle_alpha   90.00000000
_cell_angle_beta   90.00000000
_cell_angle_gamma   120.00000428
_symmetry_Int_Tables_number   1
_chemical_formula_structural   Ac2Yb(AgHg)3
_chemical_formula_sum   'Ac2 Yb1 Ag3 Hg3'
_cell_volume   245.03601793
_cell_formula_units_Z   1
loop_
 _symmetry_equiv_pos_site_id
 _symmetry_equiv_pos_as_xyz
  1  'x, y, z'
loop_
 _atom_site_type_symbol
 _atom_site_label
 _atom_site_symmetry_multiplicity
 _atom_site_fract_x
 _atom_site_fract_y
 _atom_site_fract_z
 _atom_site_occupancy
  Ac  Ac0  1  0.666667  0.333333  0.677457  1
  Ac  Ac1  1  0.666667  0.333333  0.322543  1
  Yb  Yb2  1  0.666667  0.333333  0.000000  1
  Ag  Ag3  1  0.000000  0.000000  0.855520  1
  Ag  Ag4  1  0.000000  0.000000  0.144480  1
  Ag  Ag5  1  0.333333  0.666667  0.500000  1
  Hg  Hg6  1  0.333333  0.666667  0.849131  1
  Hg  Hg7  1  0.000000  0.000000  0.500000  1
  Hg  Hg8  1  0.333333  0.666667  0.150869  1
