# generated using pymatgen
data_Tb2InSnRh2
_symmetry_space_group_name_H-M   'P 1'
_cell_length_a   7.62718500
_cell_length_b   7.61050482
_cell_length_c   7.73327404
_cell_angle_alpha   90.00990937
_cell_angle_beta   90.00000000
_cell_angle_gamma   120.07253274
_symmetry_Int_Tables_number   1
_chemical_formula_structural   Tb2InSnRh2
_chemical_formula_sum   'Tb6 In3 Sn3 Rh6'
_cell_volume   388.46677902
_cell_formula_units_Z   3
loop_
 _symmetry_equiv_pos_site_id
 _symmetry_equiv_pos_as_xyz
  1  'x, y, z'
loop_
 _atom_site_type_symbol
 _atom_site_label
 _atom_site_symmetry_multiplicity
 _atom_site_fract_x
 _atom_site_fract_y
 _atom_site_fract_z
 _atom_site_occupancy
  Tb  Tb0  1  0.593148  0.999105  0.749966  1
  Tb  Tb1  1  0.406373  0.407554  0.749346  1
  Tb  Tb2  1  0.000293  0.593177  0.749266  1
  Tb  Tb3  1  0.594042  0.000895  0.250034  1
  Tb  Tb4  1  0.407118  0.406823  0.250734  1
  Tb  Tb5  1  0.998818  0.592446  0.250654  1
  In  In6  1  0.265318  0.000000  0.000000  1
  In  In7  1  0.743712  0.742810  0.499973  1
  In  In8  1  0.000902  0.257190  0.500027  1
  Sn  Sn9  1  0.999575  0.263700  0.999951  1
  Sn  Sn10  1  0.735874  0.736300  0.000049  1
  Sn  Sn11  1  0.254784  0.000000  0.500000  1
  Rh  Rh12  1  0.669472  0.334001  0.997726  1
  Rh  Rh13  1  0.663444  0.331715  0.502146  1
  Rh  Rh14  1  0.335470  0.665999  0.002274  1
  Rh  Rh15  1  0.331727  0.668285  0.497854  1
  Rh  Rh16  1  0.999940  0.999950  0.759133  1
  Rh  Rh17  1  0.999990  0.000050  0.240867  1
