# generated using pymatgen
data_SmErMnCo16
_symmetry_space_group_name_H-M   'P 1'
_cell_length_a   6.28442200
_cell_length_b   6.28442192
_cell_length_c   6.28442185
_cell_angle_alpha   83.11098622
_cell_angle_beta   83.11098227
_cell_angle_gamma   83.11097582
_symmetry_Int_Tables_number   1
_chemical_formula_structural   SmErMnCo16
_chemical_formula_sum   'Sm1 Er1 Mn1 Co16'
_cell_volume   243.21881831
_cell_formula_units_Z   1
loop_
 _symmetry_equiv_pos_site_id
 _symmetry_equiv_pos_as_xyz
  1  'x, y, z'
loop_
 _atom_site_type_symbol
 _atom_site_label
 _atom_site_symmetry_multiplicity
 _atom_site_fract_x
 _atom_site_fract_y
 _atom_site_fract_z
 _atom_site_occupancy
  Sm  Sm0  1  0.347040  0.347040  0.347040  1
  Er  Er1  1  0.656928  0.656928  0.656928  1
  Mn  Mn2  1  0.096225  0.096225  0.096225  1
  Co  Co3  1  0.348947  0.348947  0.848949  1
  Co  Co4  1  0.348947  0.848949  0.348947  1
  Co  Co5  1  0.848949  0.348947  0.348947  1
  Co  Co6  1  0.655076  0.655076  0.151070  1
  Co  Co7  1  0.655076  0.151070  0.655076  1
  Co  Co8  1  0.151070  0.655076  0.655076  1
  Co  Co9  1  0.996557  0.996557  0.504533  1
  Co  Co10  1  0.996557  0.504533  0.996557  1
  Co  Co11  1  0.504533  0.996557  0.996557  1
  Co  Co12  1  0.288706  0.711345  0.997826  1
  Co  Co13  1  0.711345  0.997826  0.288706  1
  Co  Co14  1  0.997826  0.288706  0.711345  1
  Co  Co15  1  0.288706  0.997826  0.711345  1
  Co  Co16  1  0.997826  0.711345  0.288706  1
  Co  Co17  1  0.711345  0.288706  0.997826  1
  Co  Co18  1  0.898340  0.898340  0.898340  1
