# generated using pymatgen
data_Tb16Hg4RuPt3
_symmetry_space_group_name_H-M   'P 1'
_cell_length_a   9.69499093
_cell_length_b   9.69499065
_cell_length_c   9.69499113
_cell_angle_alpha   59.75636577
_cell_angle_beta   59.75637328
_cell_angle_gamma   59.75636551
_symmetry_Int_Tables_number   1
_chemical_formula_structural   Tb16Hg4RuPt3
_chemical_formula_sum   'Tb16 Hg4 Ru1 Pt3'
_cell_volume   640.79331011
_cell_formula_units_Z   1
loop_
 _symmetry_equiv_pos_site_id
 _symmetry_equiv_pos_as_xyz
  1  'x, y, z'
loop_
 _atom_site_type_symbol
 _atom_site_label
 _atom_site_symmetry_multiplicity
 _atom_site_fract_x
 _atom_site_fract_y
 _atom_site_fract_z
 _atom_site_occupancy
  Tb  Tb0  1  0.353434  0.353434  0.353434  1
  Tb  Tb1  1  0.350893  0.350893  0.944582  1
  Tb  Tb2  1  0.350893  0.944582  0.350893  1
  Tb  Tb3  1  0.944582  0.350893  0.350893  1
  Tb  Tb4  1  0.815237  0.189214  0.189214  1
  Tb  Tb5  1  0.189094  0.809120  0.809120  1
  Tb  Tb6  1  0.189214  0.815237  0.189214  1
  Tb  Tb7  1  0.809120  0.189094  0.809120  1
  Tb  Tb8  1  0.189214  0.189214  0.815237  1
  Tb  Tb9  1  0.809120  0.809120  0.189094  1
  Tb  Tb10  1  0.936497  0.564217  0.564217  1
  Tb  Tb11  1  0.560136  0.936572  0.936572  1
  Tb  Tb12  1  0.564217  0.936497  0.564217  1
  Tb  Tb13  1  0.936572  0.560136  0.936572  1
  Tb  Tb14  1  0.564217  0.564217  0.936497  1
  Tb  Tb15  1  0.936572  0.936572  0.560136  1
  Hg  Hg16  1  0.584459  0.584459  0.584459  1
  Hg  Hg17  1  0.585774  0.585774  0.241625  1
  Hg  Hg18  1  0.585774  0.241625  0.585774  1
  Hg  Hg19  1  0.241625  0.585774  0.585774  1
  Ru  Ru20  1  0.143385  0.143385  0.143385  1
  Pt  Pt21  1  0.144385  0.144385  0.571201  1
  Pt  Pt22  1  0.144385  0.571201  0.144385  1
  Pt  Pt23  1  0.571201  0.144385  0.144385  1
