# generated using pymatgen
data_Zr10Pb6S
_symmetry_space_group_name_H-M   'P 1'
_cell_length_a   5.94118900
_cell_length_b   8.72075283
_cell_length_c   8.72075100
_cell_angle_alpha   120.00001961
_cell_angle_beta   90.00006751
_cell_angle_gamma   89.99986113
_symmetry_Int_Tables_number   1
_chemical_formula_structural   Zr10Pb6S
_chemical_formula_sum   'Zr10 Pb6 S1'
_cell_volume   391.30173926
_cell_formula_units_Z   1
loop_
 _symmetry_equiv_pos_site_id
 _symmetry_equiv_pos_as_xyz
  1  'x, y, z'
loop_
 _atom_site_type_symbol
 _atom_site_label
 _atom_site_symmetry_multiplicity
 _atom_site_fract_x
 _atom_site_fract_y
 _atom_site_fract_z
 _atom_site_occupancy
  Zr  Zr0  1  0.500000  0.333307  0.666616  1
  Zr  Zr1  1  0.500000  0.666692  0.333384  1
  Zr  Zr2  1  0.000000  0.666639  0.333277  1
  Zr  Zr3  1  0.000000  0.333362  0.666723  1
  Zr  Zr4  1  0.754890  0.247883  0.000000  1
  Zr  Zr5  1  0.754959  0.752137  0.752150  1
  Zr  Zr6  1  0.754959  0.999985  0.247850  1
  Zr  Zr7  1  0.245110  0.752117  0.000000  1
  Zr  Zr8  1  0.245041  0.247865  0.247850  1
  Zr  Zr9  1  0.245041  0.000016  0.752150  1
  Pb  Pb10  1  0.751222  0.607045  0.000000  1
  Pb  Pb11  1  0.751211  0.393005  0.392990  1
  Pb  Pb12  1  0.751211  0.000016  0.607010  1
  Pb  Pb13  1  0.248778  0.392955  0.000000  1
  Pb  Pb14  1  0.248789  0.606995  0.607010  1
  Pb  Pb15  1  0.248789  0.999984  0.392990  1
  S  S16  1  0.499999  0.000001  0.000000  1
