# generated using pymatgen
data_Ta8TiNbN12
_symmetry_space_group_name_H-M   'P 1'
_cell_length_a   5.21562903
_cell_length_b   5.22514318
_cell_length_c   10.37442124
_cell_angle_alpha   90.02355967
_cell_angle_beta   89.99481857
_cell_angle_gamma   119.92793805
_symmetry_Int_Tables_number   1
_chemical_formula_structural   Ta8TiNbN12
_chemical_formula_sum   'Ta8 Ti1 Nb1 N12'
_cell_volume   245.02717969
_cell_formula_units_Z   1
loop_
 _symmetry_equiv_pos_site_id
 _symmetry_equiv_pos_as_xyz
  1  'x, y, z'
loop_
 _atom_site_type_symbol
 _atom_site_label
 _atom_site_symmetry_multiplicity
 _atom_site_fract_x
 _atom_site_fract_y
 _atom_site_fract_z
 _atom_site_occupancy
  Ta  Ta0  1  0.664969  0.331700  0.999828  1
  Ta  Ta1  1  0.664905  0.331656  0.500004  1
  Ta  Ta2  1  0.333248  0.668366  0.999861  1
  Ta  Ta3  1  0.676303  0.998559  0.748662  1
  Ta  Ta4  1  0.676970  0.678009  0.251560  1
  Ta  Ta5  1  0.001731  0.323649  0.251531  1
  Ta  Ta6  1  0.001340  0.677359  0.748642  1
  Ta  Ta7  1  0.322527  0.323942  0.748622  1
  Ti  Ti8  1  0.333155  0.667841  0.500016  1
  Nb  Nb9  1  0.323731  0.998823  0.251119  1
  N  N10  1  0.343663  0.348382  0.379826  1
  N  N11  1  0.661089  0.999153  0.380285  1
  N  N12  1  0.997375  0.652856  0.379692  1
  N  N13  1  0.999498  0.340023  0.878148  1
  N  N14  1  0.664950  0.000418  0.120791  1
  N  N15  1  0.659870  0.659644  0.878170  1
  N  N16  1  0.338877  0.000397  0.878012  1
  N  N17  1  0.655826  0.656885  0.620749  1
  N  N18  1  0.000710  0.343841  0.620746  1
  N  N19  1  0.996179  0.655230  0.121511  1
  N  N20  1  0.341751  0.998702  0.620716  1
  N  N21  1  0.341331  0.344567  0.121511  1
