# generated using pymatgen
data_Dy3Y(B4Mo)4
_symmetry_space_group_name_H-M   'P 1'
_cell_length_a   3.62567900
_cell_length_b   6.03330300
_cell_length_c   11.65893001
_cell_angle_alpha   90.00411495
_cell_angle_beta   90.00000000
_cell_angle_gamma   90.00000000
_symmetry_Int_Tables_number   1
_chemical_formula_structural   Dy3Y(B4Mo)4
_chemical_formula_sum   'Dy3 Y1 B16 Mo4'
_cell_volume   255.03699467
_cell_formula_units_Z   1
loop_
 _symmetry_equiv_pos_site_id
 _symmetry_equiv_pos_as_xyz
  1  'x, y, z'
loop_
 _atom_site_type_symbol
 _atom_site_label
 _atom_site_symmetry_multiplicity
 _atom_site_fract_x
 _atom_site_fract_y
 _atom_site_fract_z
 _atom_site_occupancy
  Dy  Dy0  1  0.000000  0.872913  0.850169  1
  Dy  Dy1  1  0.000000  0.627105  0.350174  1
  Dy  Dy2  1  0.000000  0.372919  0.649825  1
  Y  Y3  1  0.000000  0.126997  0.149824  1
  B  B4  1  0.500000  0.476783  0.193558  1
  B  B5  1  0.500000  0.523480  0.806484  1
  B  B6  1  0.500000  0.976363  0.306590  1
  B  B7  1  0.500000  0.023456  0.693516  1
  B  B8  1  0.500000  0.287229  0.313943  1
  B  B9  1  0.500000  0.712942  0.686175  1
  B  B10  1  0.500000  0.786836  0.186230  1
  B  B11  1  0.500000  0.212920  0.813822  1
  B  B12  1  0.500000  0.366688  0.468123  1
  B  B13  1  0.500000  0.633304  0.531912  1
  B  B14  1  0.500000  0.866578  0.031782  1
  B  B15  1  0.500000  0.133274  0.967975  1
  B  B16  1  0.500000  0.386241  0.047446  1
  B  B17  1  0.500000  0.613974  0.952451  1
  B  B18  1  0.500000  0.886036  0.452490  1
  B  B19  1  0.500000  0.113967  0.547525  1
  Mo  Mo20  1  0.000000  0.129961  0.416344  1
  Mo  Mo21  1  0.000000  0.870048  0.583745  1
  Mo  Mo22  1  0.000000  0.629864  0.083664  1
  Mo  Mo23  1  0.000000  0.370119  0.916233  1
