# generated using pymatgen
data_TbY9Hg3Ru
_symmetry_space_group_name_H-M   'P 1'
_cell_length_a   9.65093038
_cell_length_b   9.64997979
_cell_length_c   9.70933681
_cell_angle_alpha   90.00023642
_cell_angle_beta   89.93915221
_cell_angle_gamma   119.99731965
_symmetry_Int_Tables_number   1
_chemical_formula_structural   TbY9Hg3Ru
_chemical_formula_sum   'Tb2 Y18 Hg6 Ru2'
_cell_volume   783.11796865
_cell_formula_units_Z   2
loop_
 _symmetry_equiv_pos_site_id
 _symmetry_equiv_pos_as_xyz
  1  'x, y, z'
loop_
 _atom_site_type_symbol
 _atom_site_label
 _atom_site_symmetry_multiplicity
 _atom_site_fract_x
 _atom_site_fract_y
 _atom_site_fract_z
 _atom_site_occupancy
  Tb  Tb0  1  0.209829  0.790392  0.438942  1
  Tb  Tb1  1  0.209828  0.419437  0.438943  1
  Y  Y2  1  0.000234  0.000118  0.499765  1
  Y  Y3  1  0.999977  0.999989  0.000082  1
  Y  Y4  1  0.581946  0.790973  0.440084  1
  Y  Y5  1  0.790523  0.209605  0.560349  1
  Y  Y6  1  0.790525  0.580919  0.560348  1
  Y  Y7  1  0.419217  0.209608  0.560434  1
  Y  Y8  1  0.790440  0.209592  0.939592  1
  Y  Y9  1  0.790441  0.580849  0.939592  1
  Y  Y10  1  0.419137  0.209569  0.939692  1
  Y  Y11  1  0.209550  0.790700  0.060200  1
  Y  Y12  1  0.209549  0.418848  0.060202  1
  Y  Y13  1  0.580748  0.790373  0.060277  1
  Y  Y14  1  0.541241  0.458916  0.249989  1
  Y  Y15  1  0.541239  0.082322  0.249989  1
  Y  Y16  1  0.917645  0.458824  0.249957  1
  Y  Y17  1  0.458888  0.541206  0.750001  1
  Y  Y18  1  0.458887  0.917684  0.750002  1
  Y  Y19  1  0.082346  0.541172  0.749951  1
  Hg  Hg20  1  0.881018  0.118787  0.249959  1
  Hg  Hg21  1  0.881018  0.762233  0.249959  1
  Hg  Hg22  1  0.237749  0.118875  0.249759  1
  Hg  Hg23  1  0.118781  0.881125  0.750270  1
  Hg  Hg24  1  0.118782  0.237657  0.750270  1
  Hg  Hg25  1  0.762046  0.881023  0.750087  1
  Ru  Ru26  1  0.331797  0.665898  0.251482  1
  Ru  Ru27  1  0.666618  0.333307  0.749821  1
