# generated using pymatgen
data_Eu3NbTcC6
_symmetry_space_group_name_H-M   'P 1'
_cell_length_a   8.52820100
_cell_length_b   8.52819913
_cell_length_c   5.18960600
_cell_angle_alpha   90.00000000
_cell_angle_beta   90.00000000
_cell_angle_gamma   119.99998785
_symmetry_Int_Tables_number   1
_chemical_formula_structural   Eu3NbTcC6
_chemical_formula_sum   'Eu6 Nb2 Tc2 C12'
_cell_volume   326.87358934
_cell_formula_units_Z   2
loop_
 _symmetry_equiv_pos_site_id
 _symmetry_equiv_pos_as_xyz
  1  'x, y, z'
loop_
 _atom_site_type_symbol
 _atom_site_label
 _atom_site_symmetry_multiplicity
 _atom_site_fract_x
 _atom_site_fract_y
 _atom_site_fract_z
 _atom_site_occupancy
  Eu  Eu0  1  0.608904  0.684716  0.750000  1
  Eu  Eu1  1  0.924188  0.608904  0.250000  1
  Eu  Eu2  1  0.684716  0.075812  0.250000  1
  Eu  Eu3  1  0.315284  0.924188  0.750000  1
  Eu  Eu4  1  0.075812  0.391096  0.750000  1
  Eu  Eu5  1  0.391096  0.315284  0.250000  1
  Nb  Nb6  1  0.000000  0.000000  0.500000  1
  Nb  Nb7  1  0.000000  0.000000  0.000000  1
  Tc  Tc8  1  0.666667  0.333333  0.750000  1
  Tc  Tc9  1  0.333333  0.666667  0.250000  1
  C  C10  1  0.953270  0.762477  0.750000  1
  C  C11  1  0.190794  0.953270  0.250000  1
  C  C12  1  0.762477  0.809206  0.250000  1
  C  C13  1  0.237523  0.190794  0.750000  1
  C  C14  1  0.809206  0.046730  0.750000  1
  C  C15  1  0.046730  0.237523  0.250000  1
  C  C16  1  0.860844  0.579664  0.750000  1
  C  C17  1  0.281179  0.860844  0.250000  1
  C  C18  1  0.579664  0.718821  0.250000  1
  C  C19  1  0.420336  0.281179  0.750000  1
  C  C20  1  0.139156  0.420336  0.250000  1
  C  C21  1  0.718821  0.139156  0.750000  1
