# generated using pymatgen
data_TbScNi7
_symmetry_space_group_name_H-M   'P 1'
_cell_length_a   4.87132658
_cell_length_b   4.87132654
_cell_length_c   12.21010943
_cell_angle_alpha   78.49349400
_cell_angle_beta   78.49349263
_cell_angle_gamma   60.00000380
_symmetry_Int_Tables_number   1
_chemical_formula_structural   TbScNi7
_chemical_formula_sum   'Tb2 Sc2 Ni14'
_cell_volume   244.17818090
_cell_formula_units_Z   2
loop_
 _symmetry_equiv_pos_site_id
 _symmetry_equiv_pos_as_xyz
  1  'x, y, z'
loop_
 _atom_site_type_symbol
 _atom_site_label
 _atom_site_symmetry_multiplicity
 _atom_site_fract_x
 _atom_site_fract_y
 _atom_site_fract_z
 _atom_site_occupancy
  Tb  Tb0  1  0.947775  0.947775  0.156676  1
  Tb  Tb1  1  0.052225  0.052225  0.843324  1
  Sc  Sc2  1  0.851011  0.851011  0.446965  1
  Sc  Sc3  1  0.148989  0.148989  0.553035  1
  Ni  Ni4  1  0.500000  0.500000  0.500000  1
  Ni  Ni5  1  0.722711  0.722711  0.831866  1
  Ni  Ni6  1  0.277289  0.277289  0.168134  1
  Ni  Ni7  1  0.610678  0.610678  0.167966  1
  Ni  Ni8  1  0.389322  0.389322  0.832034  1
  Ni  Ni9  1  0.000000  0.500000  0.000000  1
  Ni  Ni10  1  0.500000  0.000000  0.000000  1
  Ni  Ni11  1  0.500000  0.500000  0.000000  1
  Ni  Ni12  1  0.386521  0.386521  0.335809  1
  Ni  Ni13  1  0.891148  0.386521  0.335809  1
  Ni  Ni14  1  0.386521  0.891148  0.335809  1
  Ni  Ni15  1  0.613479  0.613479  0.664191  1
  Ni  Ni16  1  0.108852  0.613479  0.664191  1
  Ni  Ni17  1  0.613479  0.108852  0.664191  1
