# generated using pymatgen
data_Tb11Yb(SiAu)12
_symmetry_space_group_name_H-M   'P 1'
_cell_length_a   4.35509300
_cell_length_b   7.52489717
_cell_length_c   22.60499384
_cell_angle_alpha   89.97204913
_cell_angle_beta   90.00000000
_cell_angle_gamma   90.00000000
_symmetry_Int_Tables_number   1
_chemical_formula_structural   Tb11Yb(SiAu)12
_chemical_formula_sum   'Tb11 Yb1 Si12 Au12'
_cell_volume   740.80233856
_cell_formula_units_Z   1
loop_
 _symmetry_equiv_pos_site_id
 _symmetry_equiv_pos_as_xyz
  1  'x, y, z'
loop_
 _atom_site_type_symbol
 _atom_site_label
 _atom_site_symmetry_multiplicity
 _atom_site_fract_x
 _atom_site_fract_y
 _atom_site_fract_z
 _atom_site_occupancy
  Tb  Tb0  1  0.750000  0.263945  0.666289  1
  Tb  Tb1  1  0.750000  0.231497  0.168172  1
  Tb  Tb2  1  0.250000  0.761369  0.834078  1
  Tb  Tb3  1  0.250000  0.767555  0.166828  1
  Tb  Tb4  1  0.750000  0.238989  0.832516  1
  Tb  Tb5  1  0.750000  0.268685  0.332433  1
  Tb  Tb6  1  0.250000  0.736969  0.665290  1
  Tb  Tb7  1  0.250000  0.728140  0.999779  1
  Tb  Tb8  1  0.750000  0.269523  0.000834  1
  Tb  Tb9  1  0.750000  0.227231  0.498599  1
  Tb  Tb10  1  0.250000  0.774307  0.497468  1
  Yb  Yb11  1  0.250000  0.728200  0.333888  1
  Si  Si12  1  0.250000  0.085781  0.087322  1
  Si  Si13  1  0.750000  0.915511  0.929371  1
  Si  Si14  1  0.750000  0.584881  0.431984  1
  Si  Si15  1  0.250000  0.414203  0.583331  1
  Si  Si16  1  0.250000  0.085149  0.258391  1
  Si  Si17  1  0.750000  0.915246  0.753491  1
  Si  Si18  1  0.750000  0.587087  0.242022  1
  Si  Si19  1  0.250000  0.416980  0.749625  1
  Si  Si20  1  0.250000  0.087476  0.405161  1
  Si  Si21  1  0.750000  0.912633  0.584629  1
  Si  Si22  1  0.750000  0.587297  0.088213  1
  Si  Si23  1  0.250000  0.412211  0.915412  1
  Au  Au24  1  0.250000  0.421261  0.244765  1
  Au  Au25  1  0.750000  0.583282  0.755070  1
  Au  Au26  1  0.750000  0.915179  0.256771  1
  Au  Au27  1  0.250000  0.081866  0.744514  1
  Au  Au28  1  0.250000  0.419905  0.421123  1
  Au  Au29  1  0.750000  0.578586  0.570456  1
  Au  Au30  1  0.750000  0.920323  0.070936  1
  Au  Au31  1  0.250000  0.080735  0.918690  1
  Au  Au32  1  0.250000  0.417511  0.088423  1
  Au  Au33  1  0.750000  0.583004  0.908993  1
  Au  Au34  1  0.750000  0.915007  0.407232  1
  Au  Au35  1  0.250000  0.082476  0.587893  1
