# generated using pymatgen
data_Mn8Mo3Os
_symmetry_space_group_name_H-M   'P 1'
_cell_length_a   4.68725400
_cell_length_b   4.68725447
_cell_length_c   7.73743700
_cell_angle_alpha   90.00000000
_cell_angle_beta   90.00000000
_cell_angle_gamma   120.00001082
_symmetry_Int_Tables_number   1
_chemical_formula_structural   Mn8Mo3Os
_chemical_formula_sum   'Mn8 Mo3 Os1'
_cell_volume   147.21929385
_cell_formula_units_Z   1
loop_
 _symmetry_equiv_pos_site_id
 _symmetry_equiv_pos_as_xyz
  1  'x, y, z'
loop_
 _atom_site_type_symbol
 _atom_site_label
 _atom_site_symmetry_multiplicity
 _atom_site_fract_x
 _atom_site_fract_y
 _atom_site_fract_z
 _atom_site_occupancy
  Mn  Mn0  1  0.000000  0.000000  0.499748  1
  Mn  Mn1  1  0.000000  0.000000  0.001025  1
  Mn  Mn2  1  0.827224  0.172776  0.251275  1
  Mn  Mn3  1  0.827224  0.654446  0.251275  1
  Mn  Mn4  1  0.345554  0.172776  0.251275  1
  Mn  Mn5  1  0.172515  0.827485  0.749206  1
  Mn  Mn6  1  0.172515  0.345030  0.749206  1
  Mn  Mn7  1  0.654970  0.827485  0.749206  1
  Mo  Mo8  1  0.666667  0.333333  0.562706  1
  Mo  Mo9  1  0.666667  0.333333  0.934517  1
  Mo  Mo10  1  0.333333  0.666667  0.069394  1
  Os  Os11  1  0.333333  0.666667  0.431169  1
