# generated using pymatgen
data_La3Pr3Ga3Sn7
_symmetry_space_group_name_H-M   'P 1'
_cell_length_a   6.58986380
_cell_length_b   6.58856947
_cell_length_c   10.41149129
_cell_angle_alpha   90.17388746
_cell_angle_beta   90.14042539
_cell_angle_gamma   102.38326521
_symmetry_Int_Tables_number   1
_chemical_formula_structural   La3Pr3Ga3Sn7
_chemical_formula_sum   'La3 Pr3 Ga3 Sn7'
_cell_volume   441.52271276
_cell_formula_units_Z   1
loop_
 _symmetry_equiv_pos_site_id
 _symmetry_equiv_pos_as_xyz
  1  'x, y, z'
loop_
 _atom_site_type_symbol
 _atom_site_label
 _atom_site_symmetry_multiplicity
 _atom_site_fract_x
 _atom_site_fract_y
 _atom_site_fract_z
 _atom_site_occupancy
  La  La0  1  0.202454  0.795372  0.001144  1
  La  La1  1  0.799936  0.205208  0.499950  1
  La  La2  1  0.795472  0.202854  0.001134  1
  Pr  Pr3  1  0.637997  0.637941  0.240537  1
  Pr  Pr4  1  0.362348  0.362220  0.750853  1
  Pr  Pr5  1  0.205029  0.801143  0.499984  1
  Ga  Ga6  1  0.312236  0.311991  0.044469  1
  Ga  Ga7  1  0.686438  0.686456  0.952662  1
  Ga  Ga8  1  0.309342  0.308907  0.456100  1
  Sn  Sn9  1  0.027606  0.027278  0.249850  1
  Sn  Sn10  1  0.974739  0.974788  0.752256  1
  Sn  Sn11  1  0.679738  0.679585  0.541907  1
  Sn  Sn12  1  0.490142  0.090190  0.250067  1
  Sn  Sn13  1  0.917978  0.507696  0.754381  1
  Sn  Sn14  1  0.507692  0.917728  0.754251  1
  Sn  Sn15  1  0.090851  0.490642  0.250454  1
