# generated using pymatgen
data_Y10In8NiIr2Pd
_symmetry_space_group_name_H-M   'P 1'
_cell_length_a   3.63883000
_cell_length_b   8.13139301
_cell_length_c   18.25069940
_cell_angle_alpha   90.11273443
_cell_angle_beta   90.00000000
_cell_angle_gamma   90.00000000
_symmetry_Int_Tables_number   1
_chemical_formula_structural   Y10In8NiIr2Pd
_chemical_formula_sum   'Y10 In8 Ni1 Ir2 Pd1'
_cell_volume   540.01446138
_cell_formula_units_Z   1
loop_
 _symmetry_equiv_pos_site_id
 _symmetry_equiv_pos_as_xyz
  1  'x, y, z'
loop_
 _atom_site_type_symbol
 _atom_site_label
 _atom_site_symmetry_multiplicity
 _atom_site_fract_x
 _atom_site_fract_y
 _atom_site_fract_z
 _atom_site_occupancy
  Y  Y0  1  0.500000  0.229362  0.778615  1
  Y  Y1  1  0.500000  0.763697  0.220986  1
  Y  Y2  1  0.500000  0.251433  0.278319  1
  Y  Y3  1  0.500000  0.753103  0.719646  1
  Y  Y4  1  0.500000  0.115673  0.586478  1
  Y  Y5  1  0.500000  0.884606  0.411915  1
  Y  Y6  1  0.500000  0.386111  0.089311  1
  Y  Y7  1  0.500000  0.616623  0.916564  1
  Y  Y8  1  0.500000  0.000177  0.000873  1
  Y  Y9  1  0.500000  0.500038  0.499152  1
  In  In10  1  0.000000  0.076774  0.149291  1
  In  In11  1  0.000000  0.922574  0.851573  1
  In  In12  1  0.000000  0.423660  0.650239  1
  In  In13  1  0.000000  0.574578  0.346791  1
  In  In14  1  0.000000  0.207940  0.430869  1
  In  In15  1  0.000000  0.792021  0.567649  1
  In  In16  1  0.000000  0.292634  0.933466  1
  In  In17  1  0.000000  0.705655  0.069560  1
  Ni  Ni18  1  0.000000  0.482734  0.195495  1
  Ir  Ir19  1  0.000000  0.020141  0.695658  1
  Ir  Ir20  1  0.000000  0.980420  0.303492  1
  Pd  Pd21  1  0.000000  0.520046  0.804058  1
