# generated using pymatgen
data_Mn3Hg5I16
_symmetry_space_group_name_H-M   'P 1'
_cell_length_a   9.05435984
_cell_length_b   9.09558868
_cell_length_c   13.59895129
_cell_angle_alpha   90.42643855
_cell_angle_beta   90.07688453
_cell_angle_gamma   89.80939851
_symmetry_Int_Tables_number   1
_chemical_formula_structural   Mn3Hg5I16
_chemical_formula_sum   'Mn3 Hg5 I16'
_cell_volume   1119.89981361
_cell_formula_units_Z   1
loop_
 _symmetry_equiv_pos_site_id
 _symmetry_equiv_pos_as_xyz
  1  'x, y, z'
loop_
 _atom_site_type_symbol
 _atom_site_label
 _atom_site_symmetry_multiplicity
 _atom_site_fract_x
 _atom_site_fract_y
 _atom_site_fract_z
 _atom_site_occupancy
  Mn  Mn0  1  0.255915  0.500436  0.883225  1
  Mn  Mn1  1  0.499444  0.745059  0.116722  1
  Mn  Mn2  1  0.755047  0.000853  0.618600  1
  Hg  Hg3  1  0.498774  0.254649  0.112412  1
  Hg  Hg4  1  0.746644  0.500303  0.887832  1
  Hg  Hg5  1  0.997589  0.754655  0.382741  1
  Hg  Hg6  1  0.997015  0.244231  0.384252  1
  Hg  Hg7  1  0.247449  0.000501  0.615088  1
  I  I8  1  0.993133  0.002497  0.740246  1
  I  I9  1  0.492638  0.990996  0.231006  1
  I  I10  1  0.254463  0.744723  0.000493  1
  I  I11  1  0.742399  0.246785  0.507756  1
  I  I12  1  0.997801  0.998924  0.251213  1
  I  I13  1  0.259786  0.261084  0.499659  1
  I  I14  1  0.260334  0.738950  0.498613  1
  I  I15  1  0.512683  0.001562  0.734580  1
  I  I16  1  0.497757  0.509348  0.238746  1
  I  I17  1  0.743251  0.754234  0.506746  1
  I  I18  1  0.492612  0.499360  0.761535  1
  I  I19  1  0.990447  0.497593  0.259044  1
  I  I20  1  0.241180  0.251861  0.991244  1
  I  I21  1  0.748905  0.758271  0.009143  1
  I  I22  1  0.763789  0.237030  0.000360  1
  I  I23  1  0.010944  0.506095  0.768747  1
