# generated using pymatgen
data_Dy11Er(Si3Ir)4
_symmetry_space_group_name_H-M   'P 1'
_cell_length_a   4.23972300
_cell_length_b   10.63710048
_cell_length_c   12.30051537
_cell_angle_alpha   89.95005778
_cell_angle_beta   90.00000000
_cell_angle_gamma   90.00000000
_symmetry_Int_Tables_number   1
_chemical_formula_structural   Dy11Er(Si3Ir)4
_chemical_formula_sum   'Dy11 Er1 Si12 Ir4'
_cell_volume   554.73285440
_cell_formula_units_Z   1
loop_
 _symmetry_equiv_pos_site_id
 _symmetry_equiv_pos_as_xyz
  1  'x, y, z'
loop_
 _atom_site_type_symbol
 _atom_site_label
 _atom_site_symmetry_multiplicity
 _atom_site_fract_x
 _atom_site_fract_y
 _atom_site_fract_z
 _atom_site_occupancy
  Dy  Dy0  1  0.250000  0.880805  0.020133  1
  Dy  Dy1  1  0.250000  0.619235  0.520242  1
  Dy  Dy2  1  0.750000  0.119661  0.978988  1
  Dy  Dy3  1  0.750000  0.379340  0.480262  1
  Dy  Dy4  1  0.250000  0.918741  0.603349  1
  Dy  Dy5  1  0.250000  0.581565  0.103636  1
  Dy  Dy6  1  0.750000  0.081042  0.397455  1
  Dy  Dy7  1  0.750000  0.418587  0.896103  1
  Dy  Dy8  1  0.250000  0.659006  0.800896  1
  Dy  Dy9  1  0.250000  0.841854  0.301093  1
  Dy  Dy10  1  0.750000  0.340164  0.199110  1
  Er  Er11  1  0.750000  0.158733  0.699734  1
  Si  Si12  1  0.250000  0.010642  0.820346  1
  Si  Si13  1  0.250000  0.489489  0.321082  1
  Si  Si14  1  0.750000  0.990947  0.179149  1
  Si  Si15  1  0.750000  0.510220  0.678779  1
  Si  Si16  1  0.250000  0.246264  0.840321  1
  Si  Si17  1  0.250000  0.253185  0.341541  1
  Si  Si18  1  0.750000  0.754385  0.159390  1
  Si  Si19  1  0.750000  0.746010  0.658887  1
  Si  Si20  1  0.250000  0.200254  0.545256  1
  Si  Si21  1  0.250000  0.298599  0.043088  1
  Si  Si22  1  0.750000  0.798216  0.456524  1
  Si  Si23  1  0.750000  0.702063  0.956191  1
  Ir  Ir24  1  0.250000  0.389042  0.681286  1
  Ir  Ir25  1  0.250000  0.111060  0.181238  1
  Ir  Ir26  1  0.750000  0.610520  0.318634  1
  Ir  Ir27  1  0.750000  0.890372  0.817287  1
