# generated using pymatgen
data_Pr8Y12Si15Hg
_symmetry_space_group_name_H-M   'P 1'
_cell_length_a   7.55675382
_cell_length_b   7.85936062
_cell_length_c   14.98946703
_cell_angle_alpha   89.97231924
_cell_angle_beta   89.45963729
_cell_angle_gamma   90.21918459
_symmetry_Int_Tables_number   1
_chemical_formula_structural   Pr8Y12Si15Hg
_chemical_formula_sum   'Pr8 Y12 Si15 Hg1'
_cell_volume   890.19700867
_cell_formula_units_Z   1
loop_
 _symmetry_equiv_pos_site_id
 _symmetry_equiv_pos_as_xyz
  1  'x, y, z'
loop_
 _atom_site_type_symbol
 _atom_site_label
 _atom_site_symmetry_multiplicity
 _atom_site_fract_x
 _atom_site_fract_y
 _atom_site_fract_z
 _atom_site_occupancy
  Pr  Pr0  1  0.013735  0.174690  0.397746  1
  Pr  Pr1  1  0.517214  0.319385  0.397976  1
  Pr  Pr2  1  0.480840  0.679984  0.902658  1
  Pr  Pr3  1  0.490299  0.685349  0.601136  1
  Pr  Pr4  1  0.982414  0.827455  0.599394  1
  Pr  Pr5  1  0.980362  0.821091  0.902997  1
  Pr  Pr6  1  0.518343  0.319502  0.098176  1
  Pr  Pr7  1  0.019272  0.180481  0.099348  1
  Y  Y8  1  0.336582  0.170645  0.626772  1
  Y  Y9  1  0.668403  0.822601  0.375185  1
  Y  Y10  1  0.663639  0.989093  0.751808  1
  Y  Y11  1  0.169895  0.679139  0.373247  1
  Y  Y12  1  0.825188  0.320114  0.878405  1
  Y  Y13  1  0.823292  0.325093  0.622792  1
  Y  Y14  1  0.838140  0.490076  0.250198  1
  Y  Y15  1  0.339566  0.008053  0.248789  1
  Y  Y16  1  0.324595  0.177408  0.878103  1
  Y  Y17  1  0.173655  0.678355  0.122708  1
  Y  Y18  1  0.674245  0.821379  0.122499  1
  Y  Y19  1  0.161732  0.509742  0.753607  1
  Si  Si20  1  0.276529  0.879069  0.751754  1
  Si  Si21  1  0.465027  0.611405  0.247934  1
  Si  Si22  1  0.035190  0.115935  0.751548  1
  Si  Si23  1  0.535462  0.389792  0.752330  1
  Si  Si24  1  0.964922  0.888022  0.248255  1
  Si  Si25  1  0.720416  0.121300  0.247711  1
  Si  Si26  1  0.851302  0.532178  0.038390  1
  Si  Si27  1  0.351347  0.967694  0.039015  1
  Si  Si28  1  0.147492  0.467021  0.962486  1
  Si  Si29  1  0.652642  0.034764  0.536647  1
  Si  Si30  1  0.345783  0.966560  0.460776  1
  Si  Si31  1  0.837505  0.535403  0.458172  1
  Si  Si32  1  0.780189  0.620375  0.752690  1
  Si  Si33  1  0.221575  0.377164  0.248431  1
  Si  Si34  1  0.647419  0.031578  0.961670  1
  Hg  Hg35  1  0.165788  0.462102  0.538647  1
