# generated using pymatgen
data_Li3LuAs6Rh7
_symmetry_space_group_name_H-M   'P 1'
_cell_length_a   7.05944566
_cell_length_b   7.05944596
_cell_length_c   6.94376400
_cell_angle_alpha   109.13960808
_cell_angle_beta   109.13960893
_cell_angle_gamma   109.80078196
_symmetry_Int_Tables_number   1
_chemical_formula_structural   Li3LuAs6Rh7
_chemical_formula_sum   'Li3 Lu1 As6 Rh7'
_cell_volume   267.47015531
_cell_formula_units_Z   1
loop_
 _symmetry_equiv_pos_site_id
 _symmetry_equiv_pos_as_xyz
  1  'x, y, z'
loop_
 _atom_site_type_symbol
 _atom_site_label
 _atom_site_symmetry_multiplicity
 _atom_site_fract_x
 _atom_site_fract_y
 _atom_site_fract_z
 _atom_site_occupancy
  Li  Li0  1  0.500000  0.000000  0.000000  1
  Li  Li1  1  0.000000  0.500000  0.000000  1
  Li  Li2  1  0.500000  0.500000  0.500000  1
  Lu  Lu3  1  0.000000  0.000000  0.500000  1
  As  As4  1  0.680887  0.680887  0.987406  1
  As  As5  1  0.319113  0.319113  0.012594  1
  As  As6  1  0.000000  0.680887  0.693482  1
  As  As7  1  0.000000  0.319113  0.306518  1
  As  As8  1  0.680887  0.000000  0.693482  1
  As  As9  1  0.319113  0.000000  0.306518  1
  Rh  Rh10  1  0.000000  0.000000  0.000000  1
  Rh  Rh11  1  0.251069  0.502137  0.751069  1
  Rh  Rh12  1  0.748931  0.251069  0.500000  1
  Rh  Rh13  1  0.502137  0.251069  0.751069  1
  Rh  Rh14  1  0.497863  0.748931  0.248931  1
  Rh  Rh15  1  0.748931  0.497863  0.248931  1
  Rh  Rh16  1  0.251069  0.748931  0.500000  1
