# generated using pymatgen
data_EuAg(WO4)2
_symmetry_space_group_name_H-M   'P 1'
_cell_length_a   6.07185200
_cell_length_b   5.21386538
_cell_length_c   11.51708690
_cell_angle_alpha   66.35803251
_cell_angle_beta   90.00000000
_cell_angle_gamma   90.00000000
_symmetry_Int_Tables_number   1
_chemical_formula_structural   EuAg(WO4)2
_chemical_formula_sum   'Eu2 Ag2 W4 O16'
_cell_volume   334.00420511
_cell_formula_units_Z   2
loop_
 _symmetry_equiv_pos_site_id
 _symmetry_equiv_pos_as_xyz
  1  'x, y, z'
loop_
 _atom_site_type_symbol
 _atom_site_label
 _atom_site_symmetry_multiplicity
 _atom_site_fract_x
 _atom_site_fract_y
 _atom_site_fract_z
 _atom_site_occupancy
  Eu  Eu0  1  0.680375  0.500000  0.250000  1
  Eu  Eu1  1  0.319625  0.500000  0.750000  1
  Ag  Ag2  1  0.299878  0.000000  0.250000  1
  Ag  Ag3  1  0.700122  0.000000  0.750000  1
  W  W4  1  0.165285  0.744225  0.005756  1
  W  W5  1  0.165285  0.255775  0.494244  1
  W  W6  1  0.834715  0.255775  0.994244  1
  W  W7  1  0.834715  0.744225  0.505756  1
  O  O8  1  0.360680  0.243433  0.374475  1
  O  O9  1  0.360680  0.756567  0.125525  1
  O  O10  1  0.639320  0.756567  0.625525  1
  O  O11  1  0.639320  0.243433  0.874475  1
  O  O12  1  0.915972  0.644193  0.897840  1
  O  O13  1  0.915972  0.355807  0.602160  1
  O  O14  1  0.084028  0.355807  0.102160  1
  O  O15  1  0.084028  0.644193  0.397840  1
  O  O16  1  0.638863  0.726281  0.388493  1
  O  O17  1  0.638863  0.273719  0.111507  1
  O  O18  1  0.361137  0.273719  0.611507  1
  O  O19  1  0.361137  0.726281  0.888493  1
  O  O20  1  0.894571  0.147359  0.406706  1
  O  O21  1  0.105429  0.852641  0.593294  1
  O  O22  1  0.894571  0.852641  0.093294  1
  O  O23  1  0.105429  0.147359  0.906706  1
