# generated using pymatgen
data_Dy4LuSi3
_symmetry_space_group_name_H-M   'P 1'
_cell_length_a   8.40511600
_cell_length_b   8.40511429
_cell_length_c   6.30571800
_cell_angle_alpha   90.00000000
_cell_angle_beta   90.00000000
_cell_angle_gamma   120.00000674
_symmetry_Int_Tables_number   1
_chemical_formula_structural   Dy4LuSi3
_chemical_formula_sum   'Dy8 Lu2 Si6'
_cell_volume   385.79134604
_cell_formula_units_Z   2
loop_
 _symmetry_equiv_pos_site_id
 _symmetry_equiv_pos_as_xyz
  1  'x, y, z'
loop_
 _atom_site_type_symbol
 _atom_site_label
 _atom_site_symmetry_multiplicity
 _atom_site_fract_x
 _atom_site_fract_y
 _atom_site_fract_z
 _atom_site_occupancy
  Dy  Dy0  1  0.666667  0.333333  0.500000  1
  Dy  Dy1  1  0.333333  0.666667  0.500000  1
  Dy  Dy2  1  0.756069  0.756069  0.248235  1
  Dy  Dy3  1  0.243931  0.000000  0.248235  1
  Dy  Dy4  1  0.000000  0.243931  0.248235  1
  Dy  Dy5  1  0.243931  0.243931  0.751765  1
  Dy  Dy6  1  0.756069  0.000000  0.751765  1
  Dy  Dy7  1  0.000000  0.756069  0.751765  1
  Lu  Lu8  1  0.333333  0.666667  0.000000  1
  Lu  Lu9  1  0.666667  0.333333  0.000000  1
  Si  Si10  1  0.394803  0.394803  0.244522  1
  Si  Si11  1  0.605197  0.000000  0.244522  1
  Si  Si12  1  0.000000  0.605197  0.244522  1
  Si  Si13  1  0.605197  0.605197  0.755478  1
  Si  Si14  1  0.394803  0.000000  0.755478  1
  Si  Si15  1  0.000000  0.394803  0.755478  1
