# generated using pymatgen
data_Tb4MoW3N8
_symmetry_space_group_name_H-M   'P 1'
_cell_length_a   3.22561500
_cell_length_b   5.74241600
_cell_length_c   10.60262385
_cell_angle_alpha   89.93230190
_cell_angle_beta   90.00000000
_cell_angle_gamma   90.00000000
_symmetry_Int_Tables_number   1
_chemical_formula_structural   Tb4MoW3N8
_chemical_formula_sum   'Tb4 Mo1 W3 N8'
_cell_volume   196.39038987
_cell_formula_units_Z   1
loop_
 _symmetry_equiv_pos_site_id
 _symmetry_equiv_pos_as_xyz
  1  'x, y, z'
loop_
 _atom_site_type_symbol
 _atom_site_label
 _atom_site_symmetry_multiplicity
 _atom_site_fract_x
 _atom_site_fract_y
 _atom_site_fract_z
 _atom_site_occupancy
  Tb  Tb0  1  0.250000  0.079330  0.853806  1
  Tb  Tb1  1  0.250000  0.579093  0.645192  1
  Tb  Tb2  1  0.750000  0.920328  0.144864  1
  Tb  Tb3  1  0.750000  0.420605  0.354592  1
  Mo  Mo4  1  0.750000  0.065992  0.594074  1
  W  W5  1  0.250000  0.433384  0.095157  1
  W  W6  1  0.250000  0.934638  0.405515  1
  W  W7  1  0.750000  0.566951  0.905077  1
  N  N8  1  0.250000  0.164540  0.249696  1
  N  N9  1  0.250000  0.666056  0.250753  1
  N  N10  1  0.750000  0.832516  0.751504  1
  N  N11  1  0.750000  0.337774  0.751750  1
  N  N12  1  0.250000  0.759080  0.992441  1
  N  N13  1  0.250000  0.256495  0.506317  1
  N  N14  1  0.750000  0.241350  0.008143  1
  N  N15  1  0.750000  0.741868  0.491117  1
