# generated using pymatgen
data_HoEr3(Fe2Cl)2
_symmetry_space_group_name_H-M   'P 1'
_cell_length_a   3.87038800
_cell_length_b   3.87038908
_cell_length_c   15.90914100
_cell_angle_alpha   90.00000000
_cell_angle_beta   90.00000000
_cell_angle_gamma   120.00000786
_symmetry_Int_Tables_number   1
_chemical_formula_structural   HoEr3(Fe2Cl)2
_chemical_formula_sum   'Ho1 Er3 Fe4 Cl2'
_cell_volume   206.38895798
_cell_formula_units_Z   1
loop_
 _symmetry_equiv_pos_site_id
 _symmetry_equiv_pos_as_xyz
  1  'x, y, z'
loop_
 _atom_site_type_symbol
 _atom_site_label
 _atom_site_symmetry_multiplicity
 _atom_site_fract_x
 _atom_site_fract_y
 _atom_site_fract_z
 _atom_site_occupancy
  Ho  Ho0  1  0.000000  0.000000  0.387122  1
  Er  Er1  1  0.000000  0.000000  0.112501  1
  Er  Er2  1  0.000000  0.000000  0.612505  1
  Er  Er3  1  0.000000  0.000000  0.887472  1
  Fe  Fe4  1  0.666667  0.333333  0.992690  1
  Fe  Fe5  1  0.333333  0.666667  0.492970  1
  Fe  Fe6  1  0.666667  0.333333  0.507584  1
  Fe  Fe7  1  0.333333  0.666667  0.007278  1
  Cl  Cl8  1  0.666667  0.333333  0.249855  1
  Cl  Cl9  1  0.333333  0.666667  0.750021  1
