# generated using pymatgen
data_Ti3Co4Si3PW
_symmetry_space_group_name_H-M   'P 1'
_cell_length_a   3.60853100
_cell_length_b   6.09645266
_cell_length_c   6.90735507
_cell_angle_alpha   89.70854023
_cell_angle_beta   90.00000000
_cell_angle_gamma   90.00000000
_symmetry_Int_Tables_number   1
_chemical_formula_structural   Ti3Co4Si3PW
_chemical_formula_sum   'Ti3 Co4 Si3 P1 W1'
_cell_volume   151.95458477
_cell_formula_units_Z   1
loop_
 _symmetry_equiv_pos_site_id
 _symmetry_equiv_pos_as_xyz
  1  'x, y, z'
loop_
 _atom_site_type_symbol
 _atom_site_label
 _atom_site_symmetry_multiplicity
 _atom_site_fract_x
 _atom_site_fract_y
 _atom_site_fract_z
 _atom_site_occupancy
  Ti  Ti0  1  0.750000  0.481808  0.317583  1
  Ti  Ti1  1  0.250000  0.523811  0.681486  1
  Ti  Ti2  1  0.750000  0.977198  0.182315  1
  Co  Co3  1  0.250000  0.646729  0.069160  1
  Co  Co4  1  0.750000  0.361011  0.937036  1
  Co  Co5  1  0.250000  0.136007  0.435882  1
  Co  Co6  1  0.750000  0.852955  0.556186  1
  Si  Si7  1  0.750000  0.730215  0.879853  1
  Si  Si8  1  0.750000  0.226372  0.619630  1
  Si  Si9  1  0.250000  0.271231  0.117914  1
  P  P10  1  0.250000  0.768716  0.380704  1
  W  W11  1  0.250000  0.023947  0.822251  1
