# generated using pymatgen
data_Cs3Rb(Sc3Se5)4
_symmetry_space_group_name_H-M   'P 1'
_cell_length_a   3.94253900
_cell_length_b   11.98197943
_cell_length_c   21.14643659
_cell_angle_alpha   90.22694105
_cell_angle_beta   90.00000000
_cell_angle_gamma   90.00000000
_symmetry_Int_Tables_number   1
_chemical_formula_structural   Cs3Rb(Sc3Se5)4
_chemical_formula_sum   'Cs3 Rb1 Sc12 Se20'
_cell_volume   998.93758893
_cell_formula_units_Z   1
loop_
 _symmetry_equiv_pos_site_id
 _symmetry_equiv_pos_as_xyz
  1  'x, y, z'
loop_
 _atom_site_type_symbol
 _atom_site_label
 _atom_site_symmetry_multiplicity
 _atom_site_fract_x
 _atom_site_fract_y
 _atom_site_fract_z
 _atom_site_occupancy
  Cs  Cs0  1  0.750000  0.142007  0.912095  1
  Cs  Cs1  1  0.750000  0.357924  0.411720  1
  Cs  Cs2  1  0.250000  0.642054  0.588100  1
  Rb  Rb3  1  0.250000  0.851916  0.091381  1
  Sc  Sc4  1  0.750000  0.794606  0.824620  1
  Sc  Sc5  1  0.250000  0.203882  0.175332  1
  Sc  Sc6  1  0.250000  0.294426  0.676150  1
  Sc  Sc7  1  0.750000  0.706140  0.323200  1
  Sc  Sc8  1  0.250000  0.956143  0.698059  1
  Sc  Sc9  1  0.750000  0.043130  0.301354  1
  Sc  Sc10  1  0.750000  0.456143  0.802170  1
  Sc  Sc11  1  0.250000  0.545310  0.197307  1
  Sc  Sc12  1  0.750000  0.394655  0.056216  1
  Sc  Sc13  1  0.250000  0.607120  0.944570  1
  Sc  Sc14  1  0.250000  0.894144  0.443865  1
  Sc  Sc15  1  0.750000  0.105720  0.556030  1
  Se  Se16  1  0.250000  0.947717  0.568533  1
  Se  Se17  1  0.750000  0.052213  0.431153  1
  Se  Se18  1  0.750000  0.448675  0.931629  1
  Se  Se19  1  0.250000  0.553276  0.068679  1
  Se  Se20  1  0.750000  0.763771  0.952365  1
  Se  Se21  1  0.250000  0.238941  0.049369  1
  Se  Se22  1  0.250000  0.261654  0.549639  1
  Se  Se23  1  0.750000  0.738205  0.449868  1
  Se  Se24  1  0.250000  0.945172  0.825165  1
  Se  Se25  1  0.750000  0.051488  0.173371  1
  Se  Se26  1  0.750000  0.445215  0.675088  1
  Se  Se27  1  0.250000  0.555674  0.324099  1
  Se  Se28  1  0.750000  0.124118  0.686723  1
  Se  Se29  1  0.250000  0.875989  0.313195  1
  Se  Se30  1  0.250000  0.624610  0.813955  1
  Se  Se31  1  0.750000  0.376019  0.186474  1
  Se  Se32  1  0.750000  0.695806  0.196235  1
  Se  Se33  1  0.250000  0.306850  0.802739  1
  Se  Se34  1  0.250000  0.192558  0.301994  1
  Se  Se35  1  0.750000  0.806726  0.697557  1
