# generated using pymatgen
data_U4Mn6VAs6
_symmetry_space_group_name_H-M   'P 1'
_cell_length_a   7.01868003
_cell_length_b   7.01868006
_cell_length_c   7.01868000
_cell_angle_alpha   109.47122045
_cell_angle_beta   109.47122054
_cell_angle_gamma   109.47122473
_symmetry_Int_Tables_number   1
_chemical_formula_structural   U4Mn6VAs6
_chemical_formula_sum   'U4 Mn6 V1 As6'
_cell_volume   266.16100117
_cell_formula_units_Z   1
loop_
 _symmetry_equiv_pos_site_id
 _symmetry_equiv_pos_as_xyz
  1  'x, y, z'
loop_
 _atom_site_type_symbol
 _atom_site_label
 _atom_site_symmetry_multiplicity
 _atom_site_fract_x
 _atom_site_fract_y
 _atom_site_fract_z
 _atom_site_occupancy
  U  U0  1  0.000000  0.000000  0.500000  1
  U  U1  1  0.500000  0.000000  0.000000  1
  U  U2  1  0.000000  0.500000  0.000000  1
  U  U3  1  0.500000  0.500000  0.500000  1
  Mn  Mn4  1  0.750000  0.500000  0.250000  1
  Mn  Mn5  1  0.500000  0.750000  0.250000  1
  Mn  Mn6  1  0.500000  0.250000  0.750000  1
  Mn  Mn7  1  0.750000  0.250000  0.500000  1
  Mn  Mn8  1  0.250000  0.750000  0.500000  1
  Mn  Mn9  1  0.250000  0.500000  0.750000  1
  V  V10  1  0.000000  0.000000  0.000000  1
  As  As11  1  0.317079  0.000000  0.317079  1
  As  As12  1  0.000000  0.317079  0.317079  1
  As  As13  1  0.000000  0.682921  0.682921  1
  As  As14  1  0.317079  0.317079  0.000000  1
  As  As15  1  0.682921  0.682921  0.000000  1
  As  As16  1  0.682921  0.000000  0.682921  1
