# generated using pymatgen
data_CaNi3(BrO3)8
_symmetry_space_group_name_H-M   'P 1'
_cell_length_a   5.76127667
_cell_length_b   10.61347509
_cell_length_c   10.67030776
_cell_angle_alpha   119.08182510
_cell_angle_beta   90.08306450
_cell_angle_gamma   88.92120717
_symmetry_Int_Tables_number   1
_chemical_formula_structural   CaNi3(BrO3)8
_chemical_formula_sum   'Ca1 Ni3 Br8 O24'
_cell_volume   570.07803792
_cell_formula_units_Z   1
loop_
 _symmetry_equiv_pos_site_id
 _symmetry_equiv_pos_as_xyz
  1  'x, y, z'
loop_
 _atom_site_type_symbol
 _atom_site_label
 _atom_site_symmetry_multiplicity
 _atom_site_fract_x
 _atom_site_fract_y
 _atom_site_fract_z
 _atom_site_occupancy
  Ca  Ca0  1  0.125676  0.767653  0.507144  1
  Ni  Ni1  1  0.644886  0.235760  0.492282  1
  Ni  Ni2  1  0.140115  0.260955  0.005300  1
  Ni  Ni3  1  0.643019  0.739628  0.991844  1
  Br  Br4  1  0.269240  0.404184  0.342137  1
  Br  Br5  1  0.746865  0.574875  0.652830  1
  Br  Br6  1  0.264345  0.919334  0.862913  1
  Br  Br7  1  0.769985  0.084516  0.152276  1
  Br  Br8  1  0.775596  0.108097  0.706935  1
  Br  Br9  1  0.304458  0.923055  0.300860  1
  Br  Br10  1  0.287530  0.415996  0.814554  1
  Br  Br11  1  0.781201  0.577887  0.170550  1
  O  O12  1  0.432752  0.895645  0.980041  1
  O  O13  1  0.937273  0.117891  0.042006  1
  O  O14  1  0.372736  0.802481  0.699735  1
  O  O15  1  0.878253  0.189970  0.319517  1
  O  O16  1  0.366428  0.288708  0.173937  1
  O  O17  1  0.854720  0.690510  0.816788  1
  O  O18  1  0.935220  0.241874  0.834284  1
  O  O19  1  0.450706  0.777280  0.171559  1
  O  O20  1  0.901942  0.953939  0.683105  1
  O  O21  1  0.449539  0.071747  0.329694  1
  O  O22  1  0.350017  0.081251  0.883897  1
  O  O23  1  0.863030  0.915663  0.112145  1
  O  O24  1  0.429197  0.277947  0.673881  1
  O  O25  1  0.906703  0.719714  0.307333  1
  O  O26  1  0.357774  0.388896  0.954752  1
  O  O27  1  0.851513  0.595574  0.025495  1
  O  O28  1  0.423981  0.568817  0.846927  1
  O  O29  1  0.935927  0.432383  0.152244  1
  O  O30  1  0.361974  0.565278  0.370296  1
  O  O31  1  0.846584  0.410920  0.623693  1
  O  O32  1  0.440207  0.376433  0.455729  1
  O  O33  1  0.912420  0.604701  0.541349  1
  O  O34  1  0.844130  0.110153  0.552807  1
  O  O35  1  0.353659  0.910286  0.449157  1
