# generated using pymatgen
data_Ho4Al4PtRh3
_symmetry_space_group_name_H-M   'P 1'
_cell_length_a   4.26799700
_cell_length_b   6.83893512
_cell_length_c   7.91831013
_cell_angle_alpha   90.02107783
_cell_angle_beta   90.00000000
_cell_angle_gamma   90.00000000
_symmetry_Int_Tables_number   1
_chemical_formula_structural   Ho4Al4PtRh3
_chemical_formula_sum   'Ho4 Al4 Pt1 Rh3'
_cell_volume   231.12401170
_cell_formula_units_Z   1
loop_
 _symmetry_equiv_pos_site_id
 _symmetry_equiv_pos_as_xyz
  1  'x, y, z'
loop_
 _atom_site_type_symbol
 _atom_site_label
 _atom_site_symmetry_multiplicity
 _atom_site_fract_x
 _atom_site_fract_y
 _atom_site_fract_z
 _atom_site_occupancy
  Ho  Ho0  1  0.250000  0.532657  0.181807  1
  Ho  Ho1  1  0.750000  0.463375  0.820007  1
  Ho  Ho2  1  0.750000  0.967512  0.677627  1
  Ho  Ho3  1  0.250000  0.034102  0.320925  1
  Al  Al4  1  0.250000  0.636203  0.560890  1
  Al  Al5  1  0.750000  0.362994  0.439048  1
  Al  Al6  1  0.750000  0.863497  0.062920  1
  Al  Al7  1  0.250000  0.139436  0.938890  1
  Pt  Pt8  1  0.250000  0.766134  0.878016  1
  Rh  Rh9  1  0.750000  0.235651  0.119538  1
  Rh  Rh10  1  0.750000  0.735202  0.380364  1
  Rh  Rh11  1  0.250000  0.263236  0.619968  1
