# generated using pymatgen
data_Zr9Nb11Ga16
_symmetry_space_group_name_H-M   'P 1'
_cell_length_a   6.94273363
_cell_length_b   7.04316433
_cell_length_c   13.50827392
_cell_angle_alpha   90.04185708
_cell_angle_beta   90.00797413
_cell_angle_gamma   89.89218731
_symmetry_Int_Tables_number   1
_chemical_formula_structural   Zr9Nb11Ga16
_chemical_formula_sum   'Zr9 Nb11 Ga16'
_cell_volume   660.53721984
_cell_formula_units_Z   1
loop_
 _symmetry_equiv_pos_site_id
 _symmetry_equiv_pos_as_xyz
  1  'x, y, z'
loop_
 _atom_site_type_symbol
 _atom_site_label
 _atom_site_symmetry_multiplicity
 _atom_site_fract_x
 _atom_site_fract_y
 _atom_site_fract_z
 _atom_site_occupancy
  Zr  Zr0  1  0.003658  0.324998  0.903967  1
  Zr  Zr1  1  0.503892  0.174614  0.594271  1
  Zr  Zr2  1  0.496907  0.825314  0.095804  1
  Zr  Zr3  1  0.996343  0.674522  0.404614  1
  Zr  Zr4  1  0.003952  0.325774  0.593651  1
  Zr  Zr5  1  0.502524  0.177000  0.903970  1
  Zr  Zr6  1  0.495374  0.826631  0.405127  1
  Zr  Zr7  1  0.997292  0.672948  0.098522  1
  Zr  Zr8  1  0.846152  0.826505  0.875063  1
  Nb  Nb9  1  0.346364  0.674364  0.626232  1
  Nb  Nb10  1  0.650727  0.326583  0.129555  1
  Nb  Nb11  1  0.153435  0.174096  0.372279  1
  Nb  Nb12  1  0.154751  0.174519  0.128144  1
  Nb  Nb13  1  0.653153  0.324452  0.372642  1
  Nb  Nb14  1  0.348062  0.675363  0.871106  1
  Nb  Nb15  1  0.847416  0.825181  0.627987  1
  Nb  Nb16  1  0.167204  0.987240  0.747785  1
  Nb  Nb17  1  0.661689  0.512333  0.748465  1
  Nb  Nb18  1  0.335427  0.485385  0.249685  1
  Nb  Nb19  1  0.835945  0.013996  0.251486  1
  Ga  Ga20  1  0.672457  0.530020  0.962721  1
  Ga  Ga21  1  0.177297  0.964323  0.537811  1
  Ga  Ga22  1  0.822477  0.040061  0.043379  1
  Ga  Ga23  1  0.322503  0.463952  0.460832  1
  Ga  Ga24  1  0.320964  0.463741  0.037378  1
  Ga  Ga25  1  0.821553  0.035534  0.461961  1
  Ga  Ga26  1  0.184983  0.964594  0.962741  1
  Ga  Ga27  1  0.678335  0.536828  0.537572  1
  Ga  Ga28  1  0.302521  0.352566  0.748796  1
  Ga  Ga29  1  0.803378  0.149160  0.748048  1
  Ga  Ga30  1  0.197781  0.852951  0.250592  1
  Ga  Ga31  1  0.696598  0.647719  0.251207  1
  Ga  Ga32  1  0.045533  0.605656  0.748056  1
  Ga  Ga33  1  0.543018  0.892903  0.747420  1
  Ga  Ga34  1  0.455482  0.106724  0.250640  1
  Ga  Ga35  1  0.954854  0.391449  0.250491  1
