# generated using pymatgen
data_NdGa3NiHg
_symmetry_space_group_name_H-M   'P 1'
_cell_length_a   4.26861881
_cell_length_b   6.63021800
_cell_length_c   8.30491781
_cell_angle_alpha   90.00000000
_cell_angle_beta   104.89174532
_cell_angle_gamma   90.00000000
_symmetry_Int_Tables_number   1
_chemical_formula_structural   NdGa3NiHg
_chemical_formula_sum   'Nd2 Ga6 Ni2 Hg2'
_cell_volume   227.15031076
_cell_formula_units_Z   2
loop_
 _symmetry_equiv_pos_site_id
 _symmetry_equiv_pos_as_xyz
  1  'x, y, z'
loop_
 _atom_site_type_symbol
 _atom_site_label
 _atom_site_symmetry_multiplicity
 _atom_site_fract_x
 _atom_site_fract_y
 _atom_site_fract_z
 _atom_site_occupancy
  Nd  Nd0  1  0.877127  0.750000  0.754253  1
  Nd  Nd1  1  0.122873  0.250000  0.245747  1
  Ga  Ga2  1  0.075459  0.750000  0.150918  1
  Ga  Ga3  1  0.924541  0.250000  0.849082  1
  Ga  Ga4  1  0.690322  0.552221  0.380644  1
  Ga  Ga5  1  0.309678  0.447779  0.619356  1
  Ga  Ga6  1  0.690322  0.947779  0.380644  1
  Ga  Ga7  1  0.309678  0.052221  0.619356  1
  Ni  Ni8  1  0.222055  0.750000  0.444110  1
  Ni  Ni9  1  0.777945  0.250000  0.555890  1
  Hg  Hg10  1  0.500000  0.500000  0.000000  1
  Hg  Hg11  1  0.500000  0.000000  0.000000  1
