# generated using pymatgen
data_Hf3ZrBr16
_symmetry_space_group_name_H-M   'P 1'
_cell_length_a   8.55359679
_cell_length_b   8.57017791
_cell_length_c   12.30483854
_cell_angle_alpha   72.51926506
_cell_angle_beta   72.57256908
_cell_angle_gamma   89.02337403
_symmetry_Int_Tables_number   1
_chemical_formula_structural   Hf3ZrBr16
_chemical_formula_sum   'Hf3 Zr1 Br16'
_cell_volume   818.22714122
_cell_formula_units_Z   1
loop_
 _symmetry_equiv_pos_site_id
 _symmetry_equiv_pos_as_xyz
  1  'x, y, z'
loop_
 _atom_site_type_symbol
 _atom_site_label
 _atom_site_symmetry_multiplicity
 _atom_site_fract_x
 _atom_site_fract_y
 _atom_site_fract_z
 _atom_site_occupancy
  Hf  Hf0  1  0.799115  0.059916  0.623059  1
  Hf  Hf1  1  0.939930  0.202156  0.877371  1
  Hf  Hf2  1  0.201383  0.940444  0.376654  1
  Zr  Zr3  1  0.060104  0.796141  0.123022  1
  Br  Br4  1  0.049517  0.840402  0.610772  1
  Br  Br5  1  0.043638  0.257928  0.642099  1
  Br  Br6  1  0.740768  0.957307  0.858206  1
  Br  Br7  1  0.605402  0.840362  0.633491  1
  Br  Br8  1  0.158787  0.396058  0.867743  1
  Br  Br9  1  0.955642  0.742221  0.360043  1
  Br  Br10  1  0.709013  0.380615  0.890739  1
  Br  Br11  1  0.161150  0.954042  0.887545  1
  Br  Br12  1  0.395476  0.159165  0.366720  1
  Br  Br13  1  0.836856  0.600565  0.136146  1
  Br  Br14  1  0.378558  0.708694  0.392222  1
  Br  Br15  1  0.620457  0.290598  0.606250  1
  Br  Br16  1  0.950624  0.160127  0.389339  1
  Br  Br17  1  0.294938  0.618595  0.106217  1
  Br  Br18  1  0.838558  0.050270  0.110049  1
  Br  Br19  1  0.260082  0.044391  0.142315  1
