# generated using pymatgen
data_Ce2PrSn3Hg2
_symmetry_space_group_name_H-M   'P 1'
_cell_length_a   6.58204000
_cell_length_b   6.58203910
_cell_length_c   10.34035900
_cell_angle_alpha   90.00000000
_cell_angle_beta   90.00000000
_cell_angle_gamma   103.28778742
_symmetry_Int_Tables_number   1
_chemical_formula_structural   Ce2PrSn3Hg2
_chemical_formula_sum   'Ce4 Pr2 Sn6 Hg4'
_cell_volume   435.98458720
_cell_formula_units_Z   2
loop_
 _symmetry_equiv_pos_site_id
 _symmetry_equiv_pos_as_xyz
  1  'x, y, z'
loop_
 _atom_site_type_symbol
 _atom_site_label
 _atom_site_symmetry_multiplicity
 _atom_site_fract_x
 _atom_site_fract_y
 _atom_site_fract_z
 _atom_site_occupancy
  Ce  Ce0  1  0.796365  0.203635  0.000000  1
  Ce  Ce1  1  0.203635  0.796365  0.000000  1
  Ce  Ce2  1  0.203635  0.796365  0.500000  1
  Ce  Ce3  1  0.796365  0.203635  0.500000  1
  Pr  Pr4  1  0.621819  0.621819  0.250000  1
  Pr  Pr5  1  0.378181  0.378181  0.750000  1
  Sn  Sn6  1  0.066463  0.492665  0.250000  1
  Sn  Sn7  1  0.933537  0.507335  0.750000  1
  Sn  Sn8  1  0.492665  0.066463  0.250000  1
  Sn  Sn9  1  0.507335  0.933537  0.750000  1
  Sn  Sn10  1  0.014684  0.014684  0.250000  1
  Sn  Sn11  1  0.985316  0.985316  0.750000  1
  Hg  Hg12  1  0.307710  0.307710  0.042619  1
  Hg  Hg13  1  0.692290  0.692290  0.957381  1
  Hg  Hg14  1  0.692290  0.692290  0.542619  1
  Hg  Hg15  1  0.307710  0.307710  0.457381  1
