# generated using pymatgen
data_Ho16CdIn3IrRh3
_symmetry_space_group_name_H-M   'P 1'
_cell_length_a   9.61440168
_cell_length_b   9.61004319
_cell_length_c   9.62359952
_cell_angle_alpha   60.06021969
_cell_angle_beta   60.03161148
_cell_angle_gamma   59.98500134
_symmetry_Int_Tables_number   1
_chemical_formula_structural   Ho16CdIn3IrRh3
_chemical_formula_sum   'Ho16 Cd1 In3 Ir1 Rh3'
_cell_volume   629.10310503
_cell_formula_units_Z   1
loop_
 _symmetry_equiv_pos_site_id
 _symmetry_equiv_pos_as_xyz
  1  'x, y, z'
loop_
 _atom_site_type_symbol
 _atom_site_label
 _atom_site_symmetry_multiplicity
 _atom_site_fract_x
 _atom_site_fract_y
 _atom_site_fract_z
 _atom_site_occupancy
  Ho  Ho0  1  0.937544  0.936123  0.562957  1
  Ho  Ho1  1  0.564240  0.559961  0.936801  1
  Ho  Ho2  1  0.689739  0.690967  0.310431  1
  Ho  Ho3  1  0.150911  0.549843  0.148334  1
  Ho  Ho4  1  0.688282  0.311983  0.689794  1
  Ho  Ho5  1  0.153337  0.150235  0.150572  1
  Ho  Ho6  1  0.545854  0.150235  0.150572  1
  Ho  Ho7  1  0.689016  0.311035  0.310932  1
  Ho  Ho8  1  0.150913  0.148415  0.549758  1
  Ho  Ho9  1  0.308864  0.690967  0.310431  1
  Ho  Ho10  1  0.309162  0.690472  0.691205  1
  Ho  Ho11  1  0.938404  0.560178  0.563013  1
  Ho  Ho12  1  0.938997  0.559961  0.936801  1
  Ho  Ho13  1  0.563376  0.936123  0.562957  1
  Ho  Ho14  1  0.563230  0.936592  0.936948  1
  Ho  Ho15  1  0.309940  0.311983  0.689794  1
  Cd  Cd16  1  0.917389  0.247435  0.917788  1
  In  In17  1  0.916450  0.919386  0.247714  1
  In  In18  1  0.248130  0.918898  0.916766  1
  In  In19  1  0.916207  0.918898  0.916766  1
  Ir  Ir20  1  0.357827  0.358634  0.925712  1
  Rh  Rh21  1  0.358008  0.925343  0.358641  1
  Rh  Rh22  1  0.926904  0.358163  0.357656  1
  Rh  Rh23  1  0.357277  0.358163  0.357656  1
