# generated using pymatgen
data_LiMg2(Ni10P3)2
_symmetry_space_group_name_H-M   'P 1'
_cell_length_a   7.83917415
_cell_length_b   7.83917430
_cell_length_c   7.83917400
_cell_angle_alpha   60.00000127
_cell_angle_beta   60.00000063
_cell_angle_gamma   59.99999863
_symmetry_Int_Tables_number   1
_chemical_formula_structural   LiMg2(Ni10P3)2
_chemical_formula_sum   'Li1 Mg2 Ni20 P6'
_cell_volume   340.64023334
_cell_formula_units_Z   1
loop_
 _symmetry_equiv_pos_site_id
 _symmetry_equiv_pos_as_xyz
  1  'x, y, z'
loop_
 _atom_site_type_symbol
 _atom_site_label
 _atom_site_symmetry_multiplicity
 _atom_site_fract_x
 _atom_site_fract_y
 _atom_site_fract_z
 _atom_site_occupancy
  Li  Li0  1  0.000000  0.000000  0.000000  1
  Mg  Mg1  1  0.250000  0.250000  0.250000  1
  Mg  Mg2  1  0.750000  0.750000  0.750000  1
  Ni  Ni3  1  0.384134  0.384134  0.847599  1
  Ni  Ni4  1  0.615867  0.615867  0.615866  1
  Ni  Ni5  1  0.000000  0.348928  0.000000  1
  Ni  Ni6  1  0.348928  0.000000  0.000000  1
  Ni  Ni7  1  0.000000  0.348928  0.651072  1
  Ni  Ni8  1  0.847599  0.384134  0.384133  1
  Ni  Ni9  1  0.348928  0.000000  0.651072  1
  Ni  Ni10  1  0.000000  0.000000  0.348928  1
  Ni  Ni11  1  0.651072  0.348928  0.000000  1
  Ni  Ni12  1  0.000000  0.651072  0.348928  1
  Ni  Ni13  1  0.000000  0.000000  0.651072  1
  Ni  Ni14  1  0.348928  0.651072  0.000000  1
  Ni  Ni15  1  0.651072  0.000000  0.000000  1
  Ni  Ni16  1  0.000000  0.651072  0.000000  1
  Ni  Ni17  1  0.384134  0.847600  0.384134  1
  Ni  Ni18  1  0.615866  0.615867  0.152400  1
  Ni  Ni19  1  0.615866  0.152401  0.615866  1
  Ni  Ni20  1  0.152401  0.615867  0.615867  1
  Ni  Ni21  1  0.384133  0.384134  0.384133  1
  Ni  Ni22  1  0.651072  0.000000  0.348928  1
  P  P23  1  0.263183  0.263183  0.736817  1
  P  P24  1  0.736817  0.736817  0.263183  1
  P  P25  1  0.736817  0.263183  0.263183  1
  P  P26  1  0.263183  0.736817  0.736817  1
  P  P27  1  0.263183  0.736817  0.263183  1
  P  P28  1  0.736817  0.263183  0.736817  1
