# generated using pymatgen
data_Cs6PrTmBr12
_symmetry_space_group_name_H-M   'P 1'
_cell_length_a   10.06791208
_cell_length_b   10.06161811
_cell_length_c   8.36111900
_cell_angle_alpha   90.00000000
_cell_angle_beta   90.00000000
_cell_angle_gamma   89.98417961
_symmetry_Int_Tables_number   1
_chemical_formula_structural   Cs6PrTmBr12
_chemical_formula_sum   'Cs6 Pr1 Tm1 Br12'
_cell_volume   846.97702933
_cell_formula_units_Z   1
loop_
 _symmetry_equiv_pos_site_id
 _symmetry_equiv_pos_as_xyz
  1  'x, y, z'
loop_
 _atom_site_type_symbol
 _atom_site_label
 _atom_site_symmetry_multiplicity
 _atom_site_fract_x
 _atom_site_fract_y
 _atom_site_fract_z
 _atom_site_occupancy
  Cs  Cs0  1  0.000000  0.000000  0.500000  1
  Cs  Cs1  1  0.000000  0.000000  0.000000  1
  Cs  Cs2  1  0.238487  0.584386  0.500000  1
  Cs  Cs3  1  0.761513  0.415614  0.500000  1
  Cs  Cs4  1  0.416506  0.231920  0.000000  1
  Cs  Cs5  1  0.583494  0.768080  0.000000  1
  Pr  Pr6  1  0.000000  0.500000  0.000000  1
  Tm  Tm7  1  0.500000  0.000000  0.500000  1
  Br  Br8  1  0.688793  0.056270  0.736438  1
  Br  Br9  1  0.311207  0.943730  0.736438  1
  Br  Br10  1  0.940565  0.698156  0.247206  1
  Br  Br11  1  0.059435  0.301844  0.247206  1
  Br  Br12  1  0.311207  0.943730  0.263562  1
  Br  Br13  1  0.688793  0.056270  0.263562  1
  Br  Br14  1  0.059435  0.301844  0.752794  1
  Br  Br15  1  0.940565  0.698156  0.752794  1
  Br  Br16  1  0.568940  0.733616  0.500000  1
  Br  Br17  1  0.431060  0.266384  0.500000  1
  Br  Br18  1  0.280883  0.570984  0.000000  1
  Br  Br19  1  0.719117  0.429016  0.000000  1
