# generated using pymatgen
data_Pr3Al12Ir2RuRh
_symmetry_space_group_name_H-M   'P 1'
_cell_length_a   8.94630609
_cell_length_b   8.93148397
_cell_length_c   9.67706300
_cell_angle_alpha   90.00000000
_cell_angle_beta   90.00000000
_cell_angle_gamma   119.94521042
_symmetry_Int_Tables_number   1
_chemical_formula_structural   Pr3Al12Ir2RuRh
_chemical_formula_sum   'Pr6 Al24 Ir4 Ru2 Rh2'
_cell_volume   670.00969025
_cell_formula_units_Z   2
loop_
 _symmetry_equiv_pos_site_id
 _symmetry_equiv_pos_as_xyz
  1  'x, y, z'
loop_
 _atom_site_type_symbol
 _atom_site_label
 _atom_site_symmetry_multiplicity
 _atom_site_fract_x
 _atom_site_fract_y
 _atom_site_fract_z
 _atom_site_occupancy
  Pr  Pr0  1  0.191122  0.379918  0.250000  1
  Pr  Pr1  1  0.808878  0.620082  0.750000  1
  Pr  Pr2  1  0.617857  0.808928  0.250000  1
  Pr  Pr3  1  0.382143  0.191072  0.750000  1
  Pr  Pr4  1  0.191122  0.811203  0.250000  1
  Pr  Pr5  1  0.808878  0.188797  0.750000  1
  Al  Al6  1  0.332026  0.666014  0.021651  1
  Al  Al7  1  0.667974  0.333986  0.978349  1
  Al  Al8  1  0.667974  0.333986  0.521651  1
  Al  Al9  1  0.332026  0.666014  0.478349  1
  Al  Al10  1  0.164152  0.326724  0.576458  1
  Al  Al11  1  0.835848  0.673276  0.423542  1
  Al  Al12  1  0.672909  0.836454  0.574535  1
  Al  Al13  1  0.835848  0.673276  0.076458  1
  Al  Al14  1  0.327091  0.163546  0.425465  1
  Al  Al15  1  0.164152  0.326724  0.923542  1
  Al  Al16  1  0.164152  0.837426  0.576458  1
  Al  Al17  1  0.327091  0.163546  0.074535  1
  Al  Al18  1  0.835848  0.162574  0.423542  1
  Al  Al19  1  0.672909  0.836454  0.925465  1
  Al  Al20  1  0.835848  0.162574  0.076458  1
  Al  Al21  1  0.164152  0.837426  0.923542  1
  Al  Al22  1  0.563045  0.127071  0.250000  1
  Al  Al23  1  0.436955  0.872929  0.750000  1
  Al  Al24  1  0.874334  0.437167  0.250000  1
  Al  Al25  1  0.125666  0.562833  0.750000  1
  Al  Al26  1  0.563045  0.435974  0.250000  1
  Al  Al27  1  0.436955  0.564026  0.750000  1
  Al  Al28  1  0.998942  0.999471  0.250000  1
  Al  Al29  1  0.001058  0.000529  0.750000  1
  Ir  Ir30  1  0.500000  0.000000  0.000000  1
  Ir  Ir31  1  0.500000  0.000000  0.500000  1
  Ir  Ir32  1  0.500000  0.500000  0.000000  1
  Ir  Ir33  1  0.500000  0.500000  0.500000  1
  Ru  Ru34  1  0.000000  0.000000  0.000000  1
  Ru  Ru35  1  0.000000  0.000000  0.500000  1
  Rh  Rh36  1  0.000000  0.500000  0.000000  1
  Rh  Rh37  1  0.000000  0.500000  0.500000  1
