# generated using pymatgen
data_CeReSb12Os2Rh
_symmetry_space_group_name_H-M   'P 1'
_cell_length_a   8.21526082
_cell_length_b   8.17196092
_cell_length_c   8.17871500
_cell_angle_alpha   109.51510253
_cell_angle_beta   109.63885605
_cell_angle_gamma   109.58768100
_symmetry_Int_Tables_number   1
_chemical_formula_structural   CeReSb12Os2Rh
_chemical_formula_sum   'Ce1 Re1 Sb12 Os2 Rh1'
_cell_volume   420.95921206
_cell_formula_units_Z   1
loop_
 _symmetry_equiv_pos_site_id
 _symmetry_equiv_pos_as_xyz
  1  'x, y, z'
loop_
 _atom_site_type_symbol
 _atom_site_label
 _atom_site_symmetry_multiplicity
 _atom_site_fract_x
 _atom_site_fract_y
 _atom_site_fract_z
 _atom_site_occupancy
  Ce  Ce0  1  0.000000  0.000000  0.000000  1
  Re  Re1  1  0.500000  0.500000  0.500000  1
  Sb  Sb2  1  0.338453  0.182878  0.843790  1
  Sb  Sb3  1  0.661547  0.817122  0.156210  1
  Sb  Sb4  1  0.663146  0.504059  0.843045  1
  Sb  Sb5  1  0.336854  0.495941  0.156955  1
  Sb  Sb6  1  0.180047  0.843420  0.338467  1
  Sb  Sb7  1  0.819953  0.156580  0.661533  1
  Sb  Sb8  1  0.504468  0.843923  0.660363  1
  Sb  Sb9  1  0.495532  0.156077  0.339637  1
  Sb  Sb10  1  0.844972  0.339443  0.182514  1
  Sb  Sb11  1  0.155028  0.660557  0.817486  1
  Sb  Sb12  1  0.841897  0.662036  0.504263  1
  Sb  Sb13  1  0.158103  0.337964  0.495737  1
  Os  Os14  1  0.000000  0.000000  0.500000  1
  Os  Os15  1  0.000000  0.500000  0.000000  1
  Rh  Rh16  1  0.500000  0.000000  0.000000  1
