# generated using pymatgen
data_Tb3Tm9Tc3Ni
_symmetry_space_group_name_H-M   'P 1'
_cell_length_a   6.24657246
_cell_length_b   7.27764008
_cell_length_c   9.11318400
_cell_angle_alpha   90.00000000
_cell_angle_beta   90.00000000
_cell_angle_gamma   90.29505501
_symmetry_Int_Tables_number   1
_chemical_formula_structural   Tb3Tm9Tc3Ni
_chemical_formula_sum   'Tb3 Tm9 Tc3 Ni1'
_cell_volume   414.28264082
_cell_formula_units_Z   1
loop_
 _symmetry_equiv_pos_site_id
 _symmetry_equiv_pos_as_xyz
  1  'x, y, z'
loop_
 _atom_site_type_symbol
 _atom_site_label
 _atom_site_symmetry_multiplicity
 _atom_site_fract_x
 _atom_site_fract_y
 _atom_site_fract_z
 _atom_site_occupancy
  Tb  Tb0  1  0.624952  0.040214  0.250000  1
  Tb  Tb1  1  0.140205  0.457212  0.750000  1
  Tb  Tb2  1  0.373238  0.955889  0.750000  1
  Tm  Tm3  1  0.327687  0.677505  0.067562  1
  Tm  Tm4  1  0.162639  0.177440  0.437048  1
  Tm  Tm5  1  0.666394  0.324428  0.562079  1
  Tm  Tm6  1  0.834684  0.822639  0.938730  1
  Tm  Tm7  1  0.666394  0.324428  0.937921  1
  Tm  Tm8  1  0.834684  0.822639  0.561270  1
  Tm  Tm9  1  0.327687  0.677505  0.432438  1
  Tm  Tm10  1  0.162639  0.177440  0.062952  1
  Tm  Tm11  1  0.871579  0.540968  0.250000  1
  Tc  Tc12  1  0.040054  0.886196  0.250000  1
  Tc  Tc13  1  0.459817  0.389472  0.250000  1
  Tc  Tc14  1  0.956821  0.112839  0.750000  1
  Ni  Ni15  1  0.550525  0.613185  0.750000  1
