# generated using pymatgen
data_Ho5Mg2Cr(Co4P3)4
_symmetry_space_group_name_H-M   'P 1'
_cell_length_a   12.12541606
_cell_length_b   12.14061503
_cell_length_c   3.70512800
_cell_angle_alpha   90.00000000
_cell_angle_beta   90.00000000
_cell_angle_gamma   120.04146956
_symmetry_Int_Tables_number   1
_chemical_formula_structural   Ho5Mg2Cr(Co4P3)4
_chemical_formula_sum   'Ho5 Mg2 Cr1 Co16 P12'
_cell_volume   472.16039219
_cell_formula_units_Z   1
loop_
 _symmetry_equiv_pos_site_id
 _symmetry_equiv_pos_as_xyz
  1  'x, y, z'
loop_
 _atom_site_type_symbol
 _atom_site_label
 _atom_site_symmetry_multiplicity
 _atom_site_fract_x
 _atom_site_fract_y
 _atom_site_fract_z
 _atom_site_occupancy
  Ho  Ho0  1  0.669343  0.335474  0.000000  1
  Ho  Ho1  1  0.330657  0.666132  0.000000  1
  Ho  Ho2  1  0.815492  0.813620  0.500000  1
  Ho  Ho3  1  0.184508  0.998128  0.500000  1
  Ho  Ho4  1  0.000000  0.188317  0.500000  1
  Mg  Mg5  1  0.440027  0.440166  0.000000  1
  Mg  Mg6  1  0.559973  0.000141  0.000000  1
  Cr  Cr7  1  0.000000  0.557767  0.000000  1
  Co  Co8  1  0.877444  0.360932  0.500000  1
  Co  Co9  1  0.646484  0.516222  0.500000  1
  Co  Co10  1  0.481277  0.123171  0.500000  1
  Co  Co11  1  0.353516  0.869738  0.500000  1
  Co  Co12  1  0.518723  0.641893  0.500000  1
  Co  Co13  1  0.122556  0.483487  0.500000  1
  Co  Co14  1  0.804028  0.181837  0.000000  1
  Co  Co15  1  0.825780  0.625238  0.000000  1
  Co  Co16  1  0.374558  0.196489  0.000000  1
  Co  Co17  1  0.174220  0.799459  0.000000  1
  Co  Co18  1  0.625442  0.821932  0.000000  1
  Co  Co19  1  0.195972  0.377810  0.000000  1
  Co  Co20  1  0.279549  0.281417  0.500000  1
  Co  Co21  1  0.720451  0.001868  0.500000  1
  Co  Co22  1  0.000000  0.716948  0.500000  1
  Co  Co23  1  0.000000  0.001168  0.000000  1
  P  P24  1  0.691476  0.172856  0.500000  1
  P  P25  1  0.836317  0.521713  0.500000  1
  P  P26  1  0.479857  0.306786  0.500000  1
  P  P27  1  0.163683  0.685395  0.500000  1
  P  P28  1  0.520143  0.826928  0.500000  1
  P  P29  1  0.308524  0.481379  0.500000  1
  P  P30  1  0.178576  0.180221  0.000000  1
  P  P31  1  0.821424  0.001645  0.000000  1
  P  P32  1  0.000000  0.820981  0.000000  1
  P  P33  1  0.642202  0.639346  0.000000  1
  P  P34  1  0.357798  0.997143  0.000000  1
  P  P35  1  0.000000  0.366247  0.000000  1
