# generated using pymatgen
data_LaU(Al3Ir)3
_symmetry_space_group_name_H-M   'P 1'
_cell_length_a   7.62481783
_cell_length_b   7.65966432
_cell_length_c   9.50580500
_cell_angle_alpha   90.00000000
_cell_angle_beta   90.00000000
_cell_angle_gamma   119.53483732
_symmetry_Int_Tables_number   1
_chemical_formula_structural   LaU(Al3Ir)3
_chemical_formula_sum   'La2 U2 Al18 Ir6'
_cell_volume   483.03141969
_cell_formula_units_Z   2
loop_
 _symmetry_equiv_pos_site_id
 _symmetry_equiv_pos_as_xyz
  1  'x, y, z'
loop_
 _atom_site_type_symbol
 _atom_site_label
 _atom_site_symmetry_multiplicity
 _atom_site_fract_x
 _atom_site_fract_y
 _atom_site_fract_z
 _atom_site_occupancy
  La  La0  1  0.996302  0.670624  0.750000  1
  La  La1  1  0.003698  0.329376  0.250000  1
  U  U2  1  0.670301  0.997099  0.750000  1
  U  U3  1  0.329699  0.002901  0.250000  1
  Al  Al4  1  0.129229  0.131098  0.750000  1
  Al  Al5  1  0.870771  0.868902  0.250000  1
  Al  Al6  1  0.002876  0.334084  0.576204  1
  Al  Al7  1  0.997124  0.665916  0.423796  1
  Al  Al8  1  0.997124  0.665916  0.076204  1
  Al  Al9  1  0.336882  0.003368  0.927727  1
  Al  Al10  1  0.002876  0.334084  0.923796  1
  Al  Al11  1  0.663118  0.996632  0.072273  1
  Al  Al12  1  0.663118  0.996632  0.427727  1
  Al  Al13  1  0.336882  0.003368  0.572273  1
  Al  Al14  1  0.335620  0.334578  0.051766  1
  Al  Al15  1  0.664380  0.665422  0.948234  1
  Al  Al16  1  0.664380  0.665422  0.551766  1
  Al  Al17  1  0.335620  0.334578  0.448234  1
  Al  Al18  1  0.344931  0.548230  0.750000  1
  Al  Al19  1  0.655069  0.451770  0.250000  1
  Al  Al20  1  0.544555  0.335389  0.750000  1
  Al  Al21  1  0.455445  0.664611  0.250000  1
  Ir  Ir22  1  0.670611  0.327542  0.500110  1
  Ir  Ir23  1  0.329389  0.672458  0.499890  1
  Ir  Ir24  1  0.329389  0.672458  0.000110  1
  Ir  Ir25  1  0.670611  0.327542  0.999890  1
  Ir  Ir26  1  0.000000  0.000000  0.500000  1
  Ir  Ir27  1  0.000000  0.000000  0.000000  1
