# generated using pymatgen
data_Dy17Tm3(Bi2As)4
_symmetry_space_group_name_H-M   'P 1'
_cell_length_a   8.05087335
_cell_length_b   9.11496430
_cell_length_c   12.13513300
_cell_angle_alpha   90.00162583
_cell_angle_beta   90.06245432
_cell_angle_gamma   89.98287296
_symmetry_Int_Tables_number   1
_chemical_formula_structural   Dy17Tm3(Bi2As)4
_chemical_formula_sum   'Dy17 Tm3 Bi8 As4'
_cell_volume   890.51703108
_cell_formula_units_Z   1
loop_
 _symmetry_equiv_pos_site_id
 _symmetry_equiv_pos_as_xyz
  1  'x, y, z'
loop_
 _atom_site_type_symbol
 _atom_site_label
 _atom_site_symmetry_multiplicity
 _atom_site_fract_x
 _atom_site_fract_y
 _atom_site_fract_z
 _atom_site_occupancy
  Dy  Dy0  1  0.847557  0.750271  0.788784  1
  Dy  Dy1  1  0.152060  0.250474  0.210995  1
  Dy  Dy2  1  0.347660  0.250161  0.710990  1
  Dy  Dy3  1  0.651544  0.750125  0.289644  1
  Dy  Dy4  1  0.368317  0.750077  0.706043  1
  Dy  Dy5  1  0.631243  0.250756  0.294700  1
  Dy  Dy6  1  0.868544  0.250331  0.793675  1
  Dy  Dy7  1  0.131735  0.750043  0.206020  1
  Dy  Dy8  1  0.961982  0.750518  0.501419  1
  Dy  Dy9  1  0.038127  0.249979  0.498717  1
  Dy  Dy10  1  0.461099  0.249793  0.998285  1
  Dy  Dy11  1  0.538076  0.750316  0.001268  1
  Dy  Dy12  1  0.316990  0.555368  0.436779  1
  Dy  Dy13  1  0.814712  0.053907  0.064441  1
  Dy  Dy14  1  0.682972  0.445148  0.563441  1
  Dy  Dy15  1  0.816462  0.445085  0.063567  1
  Dy  Dy16  1  0.184259  0.554101  0.936279  1
  Tm  Tm17  1  0.684088  0.056837  0.564419  1
  Tm  Tm18  1  0.315898  0.943424  0.435734  1
  Tm  Tm19  1  0.184029  0.943445  0.935397  1
  Bi  Bi20  1  0.577172  0.491149  0.827338  1
  Bi  Bi21  1  0.422874  0.509151  0.172544  1
  Bi  Bi22  1  0.077204  0.509285  0.672518  1
  Bi  Bi23  1  0.422598  0.991288  0.172871  1
  Bi  Bi24  1  0.922743  0.491362  0.327512  1
  Bi  Bi25  1  0.577238  0.009271  0.826986  1
  Bi  Bi26  1  0.923173  0.009300  0.327475  1
  Bi  Bi27  1  0.077093  0.991065  0.672706  1
  As  As28  1  0.584141  0.754449  0.519351  1
  As  As29  1  0.415773  0.245808  0.481414  1
  As  As30  1  0.084035  0.246518  0.981106  1
  As  As31  1  0.918606  0.751197  0.017580  1
