# generated using pymatgen
data_Gd2LuGaSi
_symmetry_space_group_name_H-M   'P 1'
_cell_length_a   7.48959100
_cell_length_b   7.50583900
_cell_length_c   4.29746400
_cell_angle_alpha   90.00000000
_cell_angle_beta   90.00000000
_cell_angle_gamma   90.00000000
_symmetry_Int_Tables_number   1
_chemical_formula_structural   Gd2LuGaSi
_chemical_formula_sum   'Gd4 Lu2 Ga2 Si2'
_cell_volume   241.58479323
_cell_formula_units_Z   2
loop_
 _symmetry_equiv_pos_site_id
 _symmetry_equiv_pos_as_xyz
  1  'x, y, z'
loop_
 _atom_site_type_symbol
 _atom_site_label
 _atom_site_symmetry_multiplicity
 _atom_site_fract_x
 _atom_site_fract_y
 _atom_site_fract_z
 _atom_site_occupancy
  Gd  Gd0  1  0.325062  0.176974  0.500000  1
  Gd  Gd1  1  0.825062  0.323025  0.500000  1
  Gd  Gd2  1  0.174399  0.672907  0.500000  1
  Gd  Gd3  1  0.674400  0.827093  0.500000  1
  Lu  Lu4  1  0.997288  0.002358  0.000000  1
  Lu  Lu5  1  0.497288  0.497642  0.000000  1
  Ga  Ga6  1  0.881855  0.619062  0.000000  1
  Ga  Ga7  1  0.381854  0.880938  0.000000  1
  Si  Si8  1  0.621394  0.121687  0.000000  1
  Si  Si9  1  0.121395  0.378313  0.000000  1
