# generated using pymatgen
data_Sm2CuPPt7
_symmetry_space_group_name_H-M   'P 1'
_cell_length_a   9.13704058
_cell_length_b   9.13926446
_cell_length_c   4.23104600
_cell_angle_alpha   90.00000000
_cell_angle_beta   90.00000000
_cell_angle_gamma   145.56734110
_symmetry_Int_Tables_number   1
_chemical_formula_structural   Sm2CuPPt7
_chemical_formula_sum   'Sm2 Cu1 P1 Pt7'
_cell_volume   199.77859111
_cell_formula_units_Z   1
loop_
 _symmetry_equiv_pos_site_id
 _symmetry_equiv_pos_as_xyz
  1  'x, y, z'
loop_
 _atom_site_type_symbol
 _atom_site_label
 _atom_site_symmetry_multiplicity
 _atom_site_fract_x
 _atom_site_fract_y
 _atom_site_fract_z
 _atom_site_occupancy
  Sm  Sm0  1  0.621055  0.375178  0.500000  1
  Sm  Sm1  1  0.374095  0.619774  0.500000  1
  Cu  Cu2  1  0.195061  0.792539  0.500000  1
  P  P3  1  0.226478  0.223674  0.000000  1
  Pt  Pt4  1  0.110810  0.884974  0.000000  1
  Pt  Pt5  1  0.890783  0.111620  0.000000  1
  Pt  Pt6  1  0.482529  0.981329  0.000000  1
  Pt  Pt7  1  0.983606  0.493424  0.000000  1
  Pt  Pt8  1  0.789917  0.194733  0.500000  1
  Pt  Pt9  1  0.003205  0.001716  0.500000  1
  Pt  Pt10  1  0.636062  0.634641  0.000000  1
