# generated using pymatgen
data_Rb3LiV2Br9
_symmetry_space_group_name_H-M   'P 1'
_cell_length_a   13.09916200
_cell_length_b   13.09916322
_cell_length_c   6.42411800
_cell_angle_alpha   90.00000000
_cell_angle_beta   90.00000000
_cell_angle_gamma   120.00000099
_symmetry_Int_Tables_number   1
_chemical_formula_structural   Rb3LiV2Br9
_chemical_formula_sum   'Rb6 Li2 V4 Br18'
_cell_volume   954.62148306
_cell_formula_units_Z   2
loop_
 _symmetry_equiv_pos_site_id
 _symmetry_equiv_pos_as_xyz
  1  'x, y, z'
loop_
 _atom_site_type_symbol
 _atom_site_label
 _atom_site_symmetry_multiplicity
 _atom_site_fract_x
 _atom_site_fract_y
 _atom_site_fract_z
 _atom_site_occupancy
  Rb  Rb0  1  0.018426  0.333599  0.750690  1
  Rb  Rb1  1  0.315166  0.332556  0.251247  1
  Rb  Rb2  1  0.666401  0.684827  0.750690  1
  Rb  Rb3  1  0.017390  0.684834  0.251247  1
  Rb  Rb4  1  0.315173  0.981574  0.750690  1
  Rb  Rb5  1  0.667444  0.982610  0.251247  1
  Li  Li6  1  0.333333  0.666667  0.526108  1
  Li  Li7  1  0.000000  0.000000  0.999887  1
  V  V8  1  0.666667  0.333333  0.472633  1
  V  V9  1  0.000000  0.000000  0.499799  1
  V  V10  1  0.666667  0.333333  0.972433  1
  V  V11  1  0.333333  0.666667  0.027597  1
  Br  Br12  1  0.823259  0.489422  0.722154  1
  Br  Br13  1  0.335373  0.506941  0.792901  1
  Br  Br14  1  0.171568  0.664627  0.792901  1
  Br  Br15  1  0.822858  0.333242  0.222110  1
  Br  Br16  1  0.171061  0.506882  0.261892  1
  Br  Br17  1  0.163003  0.002942  0.264654  1
  Br  Br18  1  0.335821  0.828939  0.261892  1
  Br  Br19  1  0.493059  0.828432  0.792901  1
  Br  Br20  1  0.666164  0.176741  0.722154  1
  Br  Br21  1  0.666758  0.489616  0.222110  1
  Br  Br22  1  0.997058  0.160061  0.264654  1
  Br  Br23  1  0.162536  0.160611  0.734865  1
  Br  Br24  1  0.839389  0.001925  0.734865  1
  Br  Br25  1  0.998075  0.837464  0.734865  1
  Br  Br26  1  0.839939  0.836997  0.264654  1
  Br  Br27  1  0.510384  0.177142  0.222110  1
  Br  Br28  1  0.493118  0.664179  0.261892  1
  Br  Br29  1  0.510578  0.333836  0.722154  1
