# generated using pymatgen
data_Y4Ti(ReN4)3
_symmetry_space_group_name_H-M   'P 1'
_cell_length_a   7.35679774
_cell_length_b   7.43765728
_cell_length_c   6.29960610
_cell_angle_alpha   72.63865068
_cell_angle_beta   73.84979402
_cell_angle_gamma   82.24014714
_symmetry_Int_Tables_number   1
_chemical_formula_structural   Y4Ti(ReN4)3
_chemical_formula_sum   'Y4 Ti1 Re3 N12'
_cell_volume   315.50126779
_cell_formula_units_Z   1
loop_
 _symmetry_equiv_pos_site_id
 _symmetry_equiv_pos_as_xyz
  1  'x, y, z'
loop_
 _atom_site_type_symbol
 _atom_site_label
 _atom_site_symmetry_multiplicity
 _atom_site_fract_x
 _atom_site_fract_y
 _atom_site_fract_z
 _atom_site_occupancy
  Y  Y0  1  0.905777  0.084569  0.766385  1
  Y  Y1  1  0.092405  0.903881  0.261315  1
  Y  Y2  1  0.707884  0.278198  0.242229  1
  Y  Y3  1  0.300767  0.719360  0.738190  1
  Ti  Ti4  1  0.619457  0.800757  0.275812  1
  Re  Re5  1  0.201217  0.377699  0.215677  1
  Re  Re6  1  0.378166  0.206188  0.719069  1
  Re  Re7  1  0.793445  0.618589  0.783659  1
  N  N8  1  0.659974  0.622721  0.073508  1
  N  N9  1  0.370840  0.876849  0.354179  1
  N  N10  1  0.360427  0.331214  0.419554  1
  N  N11  1  0.127524  0.621077  0.161036  1
  N  N12  1  0.004138  0.224707  0.336271  1
  N  N13  1  0.790637  0.999747  0.150139  1
  N  N14  1  0.226263  0.007954  0.841374  1
  N  N15  1  0.624388  0.133396  0.659513  1
  N  N16  1  0.332656  0.366264  0.915542  1
  N  N17  1  0.882356  0.378058  0.828766  1
  N  N18  1  0.632839  0.666392  0.591516  1
  N  N19  1  0.988840  0.782381  0.666267  1
