# generated using pymatgen
data_NbTl2V(PO5)2
_symmetry_space_group_name_H-M   'P 1'
_cell_length_a   6.55366600
_cell_length_b   10.94595500
_cell_length_c   13.15462500
_cell_angle_alpha   90.00000000
_cell_angle_beta   90.00000000
_cell_angle_gamma   90.00000000
_symmetry_Int_Tables_number   1
_chemical_formula_structural   NbTl2V(PO5)2
_chemical_formula_sum   'Nb4 Tl8 V4 P8 O40'
_cell_volume   943.66193016
_cell_formula_units_Z   4
loop_
 _symmetry_equiv_pos_site_id
 _symmetry_equiv_pos_as_xyz
  1  'x, y, z'
loop_
 _atom_site_type_symbol
 _atom_site_label
 _atom_site_symmetry_multiplicity
 _atom_site_fract_x
 _atom_site_fract_y
 _atom_site_fract_z
 _atom_site_occupancy
  Nb  Nb0  1  0.006713  0.002422  0.870343  1
  Nb  Nb1  1  0.993287  0.502422  0.129657  1
  Nb  Nb2  1  0.506713  0.502422  0.629657  1
  Nb  Nb3  1  0.493287  0.002422  0.370343  1
  Tl  Tl4  1  0.717290  0.310871  0.878154  1
  Tl  Tl5  1  0.282710  0.810871  0.121846  1
  Tl  Tl6  1  0.217290  0.810871  0.621846  1
  Tl  Tl7  1  0.782710  0.310871  0.378154  1
  Tl  Tl8  1  0.818828  0.068255  0.603354  1
  Tl  Tl9  1  0.181172  0.568255  0.396646  1
  Tl  Tl10  1  0.318828  0.568255  0.896646  1
  Tl  Tl11  1  0.681172  0.068255  0.103354  1
  V  V12  1  0.248033  0.250954  0.746079  1
  V  V13  1  0.751967  0.750954  0.253921  1
  V  V14  1  0.748033  0.750954  0.753921  1
  V  V15  1  0.251967  0.250954  0.246079  1
  P  P16  1  0.000984  0.503895  0.683999  1
  P  P17  1  0.999016  0.003895  0.316001  1
  P  P18  1  0.500984  0.003895  0.816001  1
  P  P19  1  0.499016  0.503895  0.183999  1
  P  P20  1  0.164721  0.254084  0.998964  1
  P  P21  1  0.835279  0.754084  0.001036  1
  P  P22  1  0.664721  0.754084  0.501036  1
  P  P23  1  0.335279  0.254084  0.498964  1
  O  O24  1  0.459344  0.379812  0.723861  1
  O  O25  1  0.540656  0.879812  0.276139  1
  O  O26  1  0.959344  0.879812  0.776139  1
  O  O27  1  0.040656  0.379812  0.223861  1
  O  O28  1  0.033439  0.373154  0.010803  1
  O  O29  1  0.966561  0.873154  0.989197  1
  O  O30  1  0.533439  0.873154  0.489197  1
  O  O31  1  0.466561  0.373154  0.510803  1
  O  O32  1  0.301270  0.234344  0.092862  1
  O  O33  1  0.698730  0.734344  0.907138  1
  O  O34  1  0.801270  0.734344  0.407138  1
  O  O35  1  0.198730  0.234344  0.592862  1
  O  O36  1  0.036320  0.389622  0.750123  1
  O  O37  1  0.963680  0.889622  0.249877  1
  O  O38  1  0.536320  0.889622  0.749877  1
  O  O39  1  0.463680  0.389622  0.250123  1
  O  O40  1  0.533962  0.627945  0.724539  1
  O  O41  1  0.466038  0.127945  0.275461  1
  O  O42  1  0.033962  0.127945  0.775461  1
  O  O43  1  0.966038  0.627945  0.224539  1
  O  O44  1  0.965411  0.615417  0.753537  1
  O  O45  1  0.034589  0.115417  0.246463  1
  O  O46  1  0.465411  0.115417  0.746463  1
  O  O47  1  0.534589  0.615417  0.253537  1
  O  O48  1  0.813851  0.481474  0.612323  1
  O  O49  1  0.186149  0.981474  0.387677  1
  O  O50  1  0.313851  0.981474  0.887677  1
  O  O51  1  0.686149  0.481474  0.112323  1
  O  O52  1  0.295706  0.269172  0.902009  1
  O  O53  1  0.704294  0.769172  0.097991  1
  O  O54  1  0.795706  0.769172  0.597991  1
  O  O55  1  0.204294  0.269172  0.402009  1
  O  O56  1  0.188957  0.530089  0.614324  1
  O  O57  1  0.811043  0.030089  0.385676  1
  O  O58  1  0.688957  0.030089  0.885676  1
  O  O59  1  0.311043  0.530089  0.114324  1
  O  O60  1  0.014220  0.143891  0.986818  1
  O  O61  1  0.985780  0.643891  0.013182  1
  O  O62  1  0.514220  0.643891  0.513182  1
  O  O63  1  0.485780  0.143891  0.486818  1
