# generated using pymatgen
data_Sc20TcAg5
_symmetry_space_group_name_H-M   'P 1'
_cell_length_a   8.76540900
_cell_length_b   8.84248816
_cell_length_c   8.68421500
_cell_angle_alpha   90.00000000
_cell_angle_beta   90.00000000
_cell_angle_gamma   119.71206722
_symmetry_Int_Tables_number   1
_chemical_formula_structural   Sc20TcAg5
_chemical_formula_sum   'Sc20 Tc1 Ag5'
_cell_volume   584.60245661
_cell_formula_units_Z   1
loop_
 _symmetry_equiv_pos_site_id
 _symmetry_equiv_pos_as_xyz
  1  'x, y, z'
loop_
 _atom_site_type_symbol
 _atom_site_label
 _atom_site_symmetry_multiplicity
 _atom_site_fract_x
 _atom_site_fract_y
 _atom_site_fract_z
 _atom_site_occupancy
  Sc  Sc0  1  0.997665  0.995330  0.992391  1
  Sc  Sc1  1  0.421062  0.210081  0.063837  1
  Sc  Sc2  1  0.789020  0.210081  0.063837  1
  Sc  Sc3  1  0.794596  0.589193  0.044316  1
  Sc  Sc4  1  0.091353  0.547166  0.250000  1
  Sc  Sc5  1  0.455814  0.547166  0.250000  1
  Sc  Sc6  1  0.452853  0.905707  0.250000  1
  Sc  Sc7  1  0.421062  0.210081  0.436163  1
  Sc  Sc8  1  0.789020  0.210081  0.436163  1
  Sc  Sc9  1  0.794596  0.589193  0.455684  1
  Sc  Sc10  1  0.997665  0.995330  0.507609  1
  Sc  Sc11  1  0.208482  0.416966  0.562464  1
  Sc  Sc12  1  0.205852  0.787531  0.567919  1
  Sc  Sc13  1  0.581678  0.787531  0.567919  1
  Sc  Sc14  1  0.546995  0.093990  0.750001  1
  Sc  Sc15  1  0.553008  0.460412  0.750001  1
  Sc  Sc16  1  0.907405  0.460412  0.750001  1
  Sc  Sc17  1  0.208482  0.416966  0.937536  1
  Sc  Sc18  1  0.205852  0.787531  0.932081  1
  Sc  Sc19  1  0.581678  0.787531  0.932081  1
  Tc  Tc20  1  0.878622  0.757247  0.750001  1
  Ag  Ag21  1  0.117525  0.235050  0.250000  1
  Ag  Ag22  1  0.118162  0.882281  0.250000  1
  Ag  Ag23  1  0.764119  0.882281  0.250000  1
  Ag  Ag24  1  0.236640  0.117430  0.750001  1
  Ag  Ag25  1  0.880790  0.117430  0.750001  1
