# generated using pymatgen
data_Tb12Dy3Th(CdCo)4
_symmetry_space_group_name_H-M   'P 1'
_cell_length_a   9.53146804
_cell_length_b   9.56251778
_cell_length_c   9.52070572
_cell_angle_alpha   60.18807496
_cell_angle_beta   60.05988638
_cell_angle_gamma   60.19438182
_symmetry_Int_Tables_number   1
_chemical_formula_structural   Tb12Dy3Th(CdCo)4
_chemical_formula_sum   'Tb12 Dy3 Th1 Cd4 Co4'
_cell_volume   615.64840223
_cell_formula_units_Z   1
loop_
 _symmetry_equiv_pos_site_id
 _symmetry_equiv_pos_as_xyz
  1  'x, y, z'
loop_
 _atom_site_type_symbol
 _atom_site_label
 _atom_site_symmetry_multiplicity
 _atom_site_fract_x
 _atom_site_fract_y
 _atom_site_fract_z
 _atom_site_occupancy
  Tb  Tb0  1  0.688257  0.313146  0.688146  1
  Tb  Tb1  1  0.688777  0.312733  0.310419  1
  Tb  Tb2  1  0.937731  0.562486  0.562563  1
  Tb  Tb3  1  0.542377  0.150631  0.153441  1
  Tb  Tb4  1  0.153492  0.150996  0.541265  1
  Tb  Tb5  1  0.937729  0.938745  0.561820  1
  Tb  Tb6  1  0.312440  0.689591  0.311337  1
  Tb  Tb7  1  0.560795  0.939491  0.937674  1
  Tb  Tb8  1  0.560903  0.939260  0.562168  1
  Tb  Tb9  1  0.686893  0.689230  0.312147  1
  Tb  Tb10  1  0.562038  0.562982  0.937352  1
  Tb  Tb11  1  0.937961  0.562459  0.937178  1
  Dy  Dy12  1  0.312599  0.689273  0.687027  1
  Dy  Dy13  1  0.153407  0.151687  0.154038  1
  Dy  Dy14  1  0.310825  0.312050  0.688905  1
  Th  Th15  1  0.156494  0.529034  0.156783  1
  Cd  Cd16  1  0.919953  0.241210  0.919593  1
  Cd  Cd17  1  0.919276  0.919651  0.918719  1
  Cd  Cd18  1  0.919199  0.919871  0.242270  1
  Cd  Cd19  1  0.243194  0.919716  0.918549  1
  Co  Co20  1  0.354914  0.361016  0.927621  1
  Co  Co21  1  0.358031  0.922777  0.359334  1
  Co  Co22  1  0.927551  0.360828  0.355533  1
  Co  Co23  1  0.355168  0.361137  0.356122  1
