# generated using pymatgen
data_TbPr2ThS6
_symmetry_space_group_name_H-M   'P 1'
_cell_length_a   4.03806200
_cell_length_b   10.59520243
_cell_length_c   10.92773780
_cell_angle_alpha   89.43863829
_cell_angle_beta   90.00000000
_cell_angle_gamma   90.00000000
_symmetry_Int_Tables_number   1
_chemical_formula_structural   TbPr2ThS6
_chemical_formula_sum   'Tb2 Pr4 Th2 S12'
_cell_volume   467.51081526
_cell_formula_units_Z   2
loop_
 _symmetry_equiv_pos_site_id
 _symmetry_equiv_pos_as_xyz
  1  'x, y, z'
loop_
 _atom_site_type_symbol
 _atom_site_label
 _atom_site_symmetry_multiplicity
 _atom_site_fract_x
 _atom_site_fract_y
 _atom_site_fract_z
 _atom_site_occupancy
  Tb  Tb0  1  0.250000  0.685913  0.490253  1
  Tb  Tb1  1  0.750000  0.314087  0.509747  1
  Pr  Pr2  1  0.250000  0.005634  0.309770  1
  Pr  Pr3  1  0.750000  0.994366  0.690230  1
  Pr  Pr4  1  0.750000  0.502226  0.196020  1
  Pr  Pr5  1  0.250000  0.497773  0.803980  1
  Th  Th6  1  0.750000  0.188071  0.011715  1
  Th  Th7  1  0.250000  0.811929  0.988285  1
  S  S8  1  0.250000  0.055585  0.880011  1
  S  S9  1  0.750000  0.944415  0.119989  1
  S  S10  1  0.750000  0.553193  0.613984  1
  S  S11  1  0.250000  0.446807  0.386016  1
  S  S12  1  0.250000  0.134926  0.544968  1
  S  S13  1  0.750000  0.865074  0.455032  1
  S  S14  1  0.750000  0.627485  0.951957  1
  S  S15  1  0.250000  0.372515  0.048043  1
  S  S16  1  0.250000  0.705479  0.229081  1
  S  S17  1  0.750000  0.294521  0.770919  1
  S  S18  1  0.750000  0.205570  0.271579  1
  S  S19  1  0.250000  0.794430  0.728421  1
