# generated using pymatgen
data_Tb3VTcC6
_symmetry_space_group_name_H-M   'P 1'
_cell_length_a   8.35514600
_cell_length_b   8.35514564
_cell_length_c   5.01930200
_cell_angle_alpha   90.00000000
_cell_angle_beta   90.00000000
_cell_angle_gamma   119.99999826
_symmetry_Int_Tables_number   1
_chemical_formula_structural   Tb3VTcC6
_chemical_formula_sum   'Tb6 V2 Tc2 C12'
_cell_volume   303.44643102
_cell_formula_units_Z   2
loop_
 _symmetry_equiv_pos_site_id
 _symmetry_equiv_pos_as_xyz
  1  'x, y, z'
loop_
 _atom_site_type_symbol
 _atom_site_label
 _atom_site_symmetry_multiplicity
 _atom_site_fract_x
 _atom_site_fract_y
 _atom_site_fract_z
 _atom_site_occupancy
  Tb  Tb0  1  0.625678  0.687907  0.750000  1
  Tb  Tb1  1  0.937771  0.625678  0.250000  1
  Tb  Tb2  1  0.687907  0.062229  0.250000  1
  Tb  Tb3  1  0.312093  0.937771  0.750000  1
  Tb  Tb4  1  0.062229  0.374322  0.750000  1
  Tb  Tb5  1  0.374322  0.312093  0.250000  1
  V  V6  1  0.000000  0.000000  0.500000  1
  V  V7  1  0.000000  0.000000  0.000000  1
  Tc  Tc8  1  0.666667  0.333333  0.750000  1
  Tc  Tc9  1  0.333333  0.666667  0.250000  1
  C  C10  1  0.964096  0.773897  0.750000  1
  C  C11  1  0.190200  0.964096  0.250000  1
  C  C12  1  0.773897  0.809800  0.250000  1
  C  C13  1  0.226103  0.190200  0.750000  1
  C  C14  1  0.809800  0.035904  0.750000  1
  C  C15  1  0.035904  0.226103  0.250000  1
  C  C16  1  0.871267  0.584940  0.750000  1
  C  C17  1  0.286327  0.871267  0.250000  1
  C  C18  1  0.584940  0.713673  0.250000  1
  C  C19  1  0.415060  0.286327  0.750000  1
  C  C20  1  0.128733  0.415060  0.250000  1
  C  C21  1  0.713673  0.128733  0.750000  1
