# generated using pymatgen
data_Ce8Zn7InIrRh7
_symmetry_space_group_name_H-M   'P 1'
_cell_length_a   3.89833400
_cell_length_b   7.51462435
_cell_length_c   16.41895439
_cell_angle_alpha   90.10465384
_cell_angle_beta   90.00000000
_cell_angle_gamma   90.00000000
_symmetry_Int_Tables_number   1
_chemical_formula_structural   Ce8Zn7InIrRh7
_chemical_formula_sum   'Ce8 Zn7 In1 Ir1 Rh7'
_cell_volume   480.98451319
_cell_formula_units_Z   1
loop_
 _symmetry_equiv_pos_site_id
 _symmetry_equiv_pos_as_xyz
  1  'x, y, z'
loop_
 _atom_site_type_symbol
 _atom_site_label
 _atom_site_symmetry_multiplicity
 _atom_site_fract_x
 _atom_site_fract_y
 _atom_site_fract_z
 _atom_site_occupancy
  Ce  Ce0  1  0.750000  0.323336  0.443005  1
  Ce  Ce1  1  0.250000  0.057311  0.716374  1
  Ce  Ce2  1  0.250000  0.553854  0.781918  1
  Ce  Ce3  1  0.250000  0.675591  0.559776  1
  Ce  Ce4  1  0.750000  0.817119  0.055000  1
  Ce  Ce5  1  0.250000  0.177500  0.938237  1
  Ce  Ce6  1  0.750000  0.452757  0.218620  1
  Ce  Ce7  1  0.750000  0.934681  0.290747  1
  Zn  Zn8  1  0.250000  0.997908  0.442240  1
  Zn  Zn9  1  0.750000  0.885954  0.845485  1
  Zn  Zn10  1  0.750000  0.003091  0.561791  1
  Zn  Zn11  1  0.250000  0.499462  0.059455  1
  Zn  Zn12  1  0.750000  0.386605  0.652417  1
  Zn  Zn13  1  0.750000  0.504402  0.935344  1
  Zn  Zn14  1  0.250000  0.609965  0.350090  1
  In  In15  1  0.250000  0.113279  0.153920  1
  Ir  Ir16  1  0.750000  0.256098  0.812603  1
  Rh  Rh17  1  0.250000  0.245222  0.318350  1
  Rh  Rh18  1  0.250000  0.752004  0.935832  1
  Rh  Rh19  1  0.250000  0.253162  0.562362  1
  Rh  Rh20  1  0.250000  0.738972  0.186004  1
  Rh  Rh21  1  0.750000  0.748261  0.440076  1
  Rh  Rh22  1  0.750000  0.257406  0.056045  1
  Rh  Rh23  1  0.750000  0.756066  0.684307  1
