# generated using pymatgen
data_Zr3Nb3Re5Si6W
_symmetry_space_group_name_H-M   'P 1'
_cell_length_a   7.70850718
_cell_length_b   7.72963365
_cell_length_c   7.71044877
_cell_angle_alpha   126.38955070
_cell_angle_beta   127.58580281
_cell_angle_gamma   78.22643277
_symmetry_Int_Tables_number   1
_chemical_formula_structural   Zr3Nb3Re5Si6W
_chemical_formula_sum   'Zr3 Nb3 Re5 Si6 W1'
_cell_volume   283.96022046
_cell_formula_units_Z   1
loop_
 _symmetry_equiv_pos_site_id
 _symmetry_equiv_pos_as_xyz
  1  'x, y, z'
loop_
 _atom_site_type_symbol
 _atom_site_label
 _atom_site_symmetry_multiplicity
 _atom_site_fract_x
 _atom_site_fract_y
 _atom_site_fract_z
 _atom_site_occupancy
  Zr  Zr0  1  0.548535  0.090684  0.042184  1
  Zr  Zr1  1  0.452558  0.494181  0.542593  1
  Zr  Zr2  1  0.949720  0.494620  0.044305  1
  Nb  Nb3  1  0.052072  0.094070  0.545013  1
  Nb  Nb4  1  0.747211  0.902103  0.651896  1
  Nb  Nb5  1  0.252872  0.902583  0.151923  1
  Re  Re6  1  0.000374  0.240953  0.243570  1
  Re  Re7  1  0.120448  0.753532  0.621722  1
  Re  Re8  1  0.878378  0.498744  0.629203  1
  Re  Re9  1  0.631829  0.754498  0.133986  1
  Re  Re10  1  0.369011  0.499626  0.121358  1
  Si  Si11  1  0.748334  0.498171  0.250736  1
  Si  Si12  1  0.250517  0.501613  0.749051  1
  Si  Si13  1  0.331250  0.829766  0.491408  1
  Si  Si14  1  0.670126  0.157622  0.495824  1
  Si  Si15  1  0.839929  0.832896  0.000792  1
  Si  Si16  1  0.161229  0.157801  0.989230  1
  W  W17  1  0.495607  0.238739  0.737406  1
