# generated using pymatgen
data_Ho9Tm8Lu3Sn16
_symmetry_space_group_name_H-M   'P 1'
_cell_length_a   7.97986310
_cell_length_b   8.11055762
_cell_length_c   15.34290400
_cell_angle_alpha   90.02697874
_cell_angle_beta   90.00928380
_cell_angle_gamma   90.07374741
_symmetry_Int_Tables_number   1
_chemical_formula_structural   Ho9Tm8Lu3Sn16
_chemical_formula_sum   'Ho9 Tm8 Lu3 Sn16'
_cell_volume   993.00928430
_cell_formula_units_Z   1
loop_
 _symmetry_equiv_pos_site_id
 _symmetry_equiv_pos_as_xyz
  1  'x, y, z'
loop_
 _atom_site_type_symbol
 _atom_site_label
 _atom_site_symmetry_multiplicity
 _atom_site_fract_x
 _atom_site_fract_y
 _atom_site_fract_z
 _atom_site_occupancy
  Ho  Ho0  1  0.865792  0.663264  0.877639  1
  Ho  Ho1  1  0.520001  0.320927  0.904133  1
  Ho  Ho2  1  0.019790  0.178704  0.595767  1
  Ho  Ho3  1  0.479975  0.678550  0.403782  1
  Ho  Ho4  1  0.979349  0.822153  0.097231  1
  Ho  Ho5  1  0.481003  0.678166  0.096424  1
  Ho  Ho6  1  0.980096  0.821443  0.403500  1
  Ho  Ho7  1  0.519162  0.321024  0.595584  1
  Ho  Ho8  1  0.019751  0.178383  0.903842  1
  Tm  Tm9  1  0.364754  0.837767  0.876449  1
  Tm  Tm10  1  0.864915  0.661985  0.622874  1
  Tm  Tm11  1  0.634973  0.161524  0.376658  1
  Tm  Tm12  1  0.135145  0.337995  0.123657  1
  Tm  Tm13  1  0.634007  0.161985  0.124386  1
  Tm  Tm14  1  0.134706  0.337752  0.376511  1
  Tm  Tm15  1  0.365801  0.838239  0.622688  1
  Tm  Tm16  1  0.196680  0.504265  0.749763  1
  Lu  Lu17  1  0.696268  0.995966  0.749429  1
  Lu  Lu18  1  0.803610  0.495370  0.250330  1
  Lu  Lu19  1  0.303272  0.004261  0.249980  1
  Sn  Sn20  1  0.295214  0.038517  0.041602  1
  Sn  Sn21  1  0.795381  0.461334  0.458191  1
  Sn  Sn22  1  0.705268  0.961269  0.541289  1
  Sn  Sn23  1  0.206657  0.537572  0.958590  1
  Sn  Sn24  1  0.703138  0.963366  0.958674  1
  Sn  Sn25  1  0.204364  0.538901  0.541222  1
  Sn  Sn26  1  0.295071  0.038733  0.458041  1
  Sn  Sn27  1  0.795677  0.460585  0.042484  1
  Sn  Sn28  1  0.562497  0.619110  0.749489  1
  Sn  Sn29  1  0.061897  0.881908  0.749398  1
  Sn  Sn30  1  0.438191  0.381197  0.250523  1
  Sn  Sn31  1  0.938149  0.118799  0.250063  1
  Sn  Sn32  1  0.330627  0.149842  0.749717  1
  Sn  Sn33  1  0.830265  0.349594  0.749671  1
  Sn  Sn34  1  0.669134  0.849123  0.250294  1
  Sn  Sn35  1  0.169421  0.650427  0.250125  1
