# generated using pymatgen
data_Yb2TmPa(Pt2Pb)2
_symmetry_space_group_name_H-M   'P 1'
_cell_length_a   7.93500008
_cell_length_b   7.93500025
_cell_length_c   7.27141000
_cell_angle_alpha   90.00000000
_cell_angle_beta   90.00000000
_cell_angle_gamma   91.57073352
_symmetry_Int_Tables_number   1
_chemical_formula_structural   Yb2TmPa(Pt2Pb)2
_chemical_formula_sum   'Yb4 Tm2 Pa2 Pt8 Pb4'
_cell_volume   457.66667995
_cell_formula_units_Z   2
loop_
 _symmetry_equiv_pos_site_id
 _symmetry_equiv_pos_as_xyz
  1  'x, y, z'
loop_
 _atom_site_type_symbol
 _atom_site_label
 _atom_site_symmetry_multiplicity
 _atom_site_fract_x
 _atom_site_fract_y
 _atom_site_fract_z
 _atom_site_occupancy
  Yb  Yb0  1  0.664363  0.664363  0.000000  1
  Yb  Yb1  1  0.335637  0.335637  0.000000  1
  Yb  Yb2  1  0.830938  0.169062  0.000000  1
  Yb  Yb3  1  0.169062  0.830938  0.000000  1
  Tm  Tm4  1  0.833515  0.166485  0.500000  1
  Tm  Tm5  1  0.166485  0.833515  0.500000  1
  Pa  Pa6  1  0.328347  0.328347  0.500000  1
  Pa  Pa7  1  0.671653  0.671653  0.500000  1
  Pt  Pt8  1  0.868530  0.868530  0.734376  1
  Pt  Pt9  1  0.131470  0.131470  0.734376  1
  Pt  Pt10  1  0.626446  0.373554  0.726394  1
  Pt  Pt11  1  0.626446  0.373554  0.273606  1
  Pt  Pt12  1  0.373554  0.626446  0.273606  1
  Pt  Pt13  1  0.131470  0.131470  0.265624  1
  Pt  Pt14  1  0.868530  0.868530  0.265624  1
  Pt  Pt15  1  0.373554  0.626446  0.726394  1
  Pb  Pb16  1  0.500000  0.000000  0.757105  1
  Pb  Pb17  1  0.500000  0.000000  0.242895  1
  Pb  Pb18  1  0.000000  0.500000  0.757105  1
  Pb  Pb19  1  0.000000  0.500000  0.242895  1
