# generated using pymatgen
data_Tb2CuPRh5
_symmetry_space_group_name_H-M   'P 1'
_cell_length_a   6.00420333
_cell_length_b   5.92791045
_cell_length_c   5.92791039
_cell_angle_alpha   60.85333714
_cell_angle_beta   59.57334518
_cell_angle_gamma   59.57334027
_symmetry_Int_Tables_number   1
_chemical_formula_structural   Tb2CuPRh5
_chemical_formula_sum   'Tb2 Cu1 P1 Rh5'
_cell_volume   149.14130877
_cell_formula_units_Z   1
loop_
 _symmetry_equiv_pos_site_id
 _symmetry_equiv_pos_as_xyz
  1  'x, y, z'
loop_
 _atom_site_type_symbol
 _atom_site_label
 _atom_site_symmetry_multiplicity
 _atom_site_fract_x
 _atom_site_fract_y
 _atom_site_fract_z
 _atom_site_occupancy
  Tb  Tb0  1  0.251145  0.248855  0.248855  1
  Tb  Tb1  1  0.751145  0.748855  0.748855  1
  Cu  Cu2  1  0.719371  0.280630  0.280630  1
  P  P3  1  0.997846  0.002154  0.002154  1
  Rh  Rh4  1  0.266828  0.733173  0.261398  1
  Rh  Rh5  1  0.738602  0.733172  0.261399  1
  Rh  Rh6  1  0.266828  0.261398  0.733173  1
  Rh  Rh7  1  0.738602  0.261399  0.733172  1
  Rh  Rh8  1  0.269635  0.730366  0.730366  1
