# generated using pymatgen
data_SmSb3(AuCl6)4
_symmetry_space_group_name_H-M   'P 1'
_cell_length_a   7.96388943
_cell_length_b   10.10402208
_cell_length_c   14.29333646
_cell_angle_alpha   102.90721895
_cell_angle_beta   97.29420230
_cell_angle_gamma   112.51242938
_symmetry_Int_Tables_number   1
_chemical_formula_structural   SmSb3(AuCl6)4
_chemical_formula_sum   'Sm1 Sb3 Au4 Cl24'
_cell_volume   1006.40578384
_cell_formula_units_Z   1
loop_
 _symmetry_equiv_pos_site_id
 _symmetry_equiv_pos_as_xyz
  1  'x, y, z'
loop_
 _atom_site_type_symbol
 _atom_site_label
 _atom_site_symmetry_multiplicity
 _atom_site_fract_x
 _atom_site_fract_y
 _atom_site_fract_z
 _atom_site_occupancy
  Sm  Sm0  1  0.973118  0.307586  0.866572  1
  Sb  Sb1  1  0.616026  0.937956  0.617602  1
  Sb  Sb2  1  0.030035  0.662059  0.120075  1
  Sb  Sb3  1  0.366307  0.057562  0.375144  1
  Au  Au4  1  0.289669  0.630670  0.769646  1
  Au  Au5  1  0.502738  0.502373  0.501639  1
  Au  Au6  1  0.710746  0.370150  0.231301  1
  Au  Au7  1  0.997555  0.000472  0.998620  1
  Cl  Cl8  1  0.784766  0.101267  0.967649  1
  Cl  Cl9  1  0.727912  0.156553  0.252921  1
  Cl  Cl10  1  0.272728  0.842408  0.745236  1
  Cl  Cl11  1  0.775107  0.804883  0.034792  1
  Cl  Cl12  1  0.628533  0.186450  0.736313  1
  Cl  Cl13  1  0.301893  0.412220  0.795721  1
  Cl  Cl14  1  0.703337  0.590281  0.209529  1
  Cl  Cl15  1  0.298455  0.614485  0.493532  1
  Cl  Cl16  1  0.220383  0.202402  0.962892  1
  Cl  Cl17  1  0.752204  0.732865  0.527363  1
  Cl  Cl18  1  0.210131  0.901322  0.028130  1
  Cl  Cl19  1  0.743822  0.060254  0.498779  1
  Cl  Cl20  1  0.595870  0.719643  0.756703  1
  Cl  Cl21  1  0.947623  0.048475  0.725321  1
  Cl  Cl22  1  0.252067  0.273514  0.476643  1
  Cl  Cl23  1  0.366010  0.813154  0.263838  1
  Cl  Cl24  1  0.978461  0.535926  0.780965  1
  Cl  Cl25  1  0.774182  0.437946  0.975397  1
  Cl  Cl26  1  0.235487  0.564012  0.031399  1
  Cl  Cl27  1  0.021670  0.461617  0.217234  1
  Cl  Cl28  1  0.404276  0.279954  0.242990  1
  Cl  Cl29  1  0.266624  0.940767  0.504941  1
  Cl  Cl30  1  0.707010  0.390946  0.507823  1
  Cl  Cl31  1  0.045254  0.959828  0.283291  1
