# generated using pymatgen
data_Tb8HfZr11Si15Sn
_symmetry_space_group_name_H-M   'P 1'
_cell_length_a   7.37145915
_cell_length_b   7.39990538
_cell_length_c   13.57578361
_cell_angle_alpha   89.75324929
_cell_angle_beta   89.97401824
_cell_angle_gamma   89.84343303
_symmetry_Int_Tables_number   1
_chemical_formula_structural   Tb8HfZr11Si15Sn
_chemical_formula_sum   'Tb8 Hf1 Zr11 Si15 Sn1'
_cell_volume   740.52350043
_cell_formula_units_Z   1
loop_
 _symmetry_equiv_pos_site_id
 _symmetry_equiv_pos_as_xyz
  1  'x, y, z'
loop_
 _atom_site_type_symbol
 _atom_site_label
 _atom_site_symmetry_multiplicity
 _atom_site_fract_x
 _atom_site_fract_y
 _atom_site_fract_z
 _atom_site_occupancy
  Tb  Tb0  1  0.989145  0.345875  0.211333  1
  Tb  Tb1  1  0.004127  0.654141  0.715108  1
  Tb  Tb2  1  0.147274  0.505654  0.469418  1
  Tb  Tb3  1  0.505350  0.844119  0.033840  1
  Tb  Tb4  1  0.846254  0.503144  0.963134  1
  Tb  Tb5  1  0.498438  0.152342  0.539892  1
  Tb  Tb6  1  0.345652  0.996291  0.786108  1
  Tb  Tb7  1  0.660397  0.997290  0.284152  1
  Hf  Hf8  1  0.003718  0.850596  0.123915  1
  Zr  Zr9  1  0.174791  0.175107  0.999236  1
  Zr  Zr10  1  0.825047  0.826403  0.501020  1
  Zr  Zr11  1  0.325580  0.681660  0.248019  1
  Zr  Zr12  1  0.675472  0.324537  0.750407  1
  Zr  Zr13  1  0.140496  0.988127  0.373822  1
  Zr  Zr14  1  0.853130  0.003659  0.874308  1
  Zr  Zr15  1  0.503683  0.648802  0.625004  1
  Zr  Zr16  1  0.352013  0.495547  0.875558  1
  Zr  Zr17  1  0.496236  0.352221  0.119353  1
  Zr  Zr18  1  0.658644  0.515342  0.378922  1
  Zr  Zr19  1  0.994723  0.147839  0.626326  1
  Si  Si20  1  0.638416  0.706164  0.816333  1
  Si  Si21  1  0.206092  0.863131  0.567086  1
  Si  Si22  1  0.138463  0.793844  0.933800  1
  Si  Si23  1  0.795329  0.136115  0.065235  1
  Si  Si24  1  0.860466  0.206235  0.434245  1
  Si  Si25  1  0.293830  0.361904  0.684400  1
  Si  Si26  1  0.705854  0.638754  0.182572  1
  Si  Si27  1  0.293623  0.042918  0.181543  1
  Si  Si28  1  0.705522  0.947855  0.687861  1
  Si  Si29  1  0.448217  0.797337  0.436913  1
  Si  Si30  1  0.203520  0.551673  0.063451  1
  Si  Si31  1  0.550653  0.203326  0.935222  1
  Si  Si32  1  0.793597  0.448698  0.565366  1
  Si  Si33  1  0.051174  0.294938  0.813300  1
  Si  Si34  1  0.951385  0.702918  0.310961  1
  Sn  Sn35  1  0.363685  0.295497  0.322838  1
