# generated using pymatgen
data_Ta15Nb9As8
_symmetry_space_group_name_H-M   'P 1'
_cell_length_a   7.84752215
_cell_length_b   7.84680739
_cell_length_c   14.68576229
_cell_angle_alpha   89.44035552
_cell_angle_beta   89.43965819
_cell_angle_gamma   38.24783700
_symmetry_Int_Tables_number   1
_chemical_formula_structural   Ta15Nb9As8
_chemical_formula_sum   'Ta15 Nb9 As8'
_cell_volume   559.80214781
_cell_formula_units_Z   1
loop_
 _symmetry_equiv_pos_site_id
 _symmetry_equiv_pos_as_xyz
  1  'x, y, z'
loop_
 _atom_site_type_symbol
 _atom_site_label
 _atom_site_symmetry_multiplicity
 _atom_site_fract_x
 _atom_site_fract_y
 _atom_site_fract_z
 _atom_site_occupancy
  Ta  Ta0  1  0.017230  0.498002  0.298013  1
  Ta  Ta1  1  0.498950  0.016306  0.797902  1
  Ta  Ta2  1  0.983730  0.501073  0.702113  1
  Ta  Ta3  1  0.798880  0.298967  0.994439  1
  Ta  Ta4  1  0.701111  0.201143  0.505608  1
  Ta  Ta5  1  0.200990  0.701168  0.005641  1
  Ta  Ta6  1  0.298912  0.798844  0.494416  1
  Ta  Ta7  1  0.905138  0.412310  0.495728  1
  Ta  Ta8  1  0.587898  0.094885  0.004116  1
  Ta  Ta9  1  0.094899  0.587661  0.504291  1
  Ta  Ta10  1  0.412512  0.904756  0.995571  1
  Ta  Ta11  1  0.023995  0.481323  0.909267  1
  Ta  Ta12  1  0.518548  0.976083  0.590776  1
  Ta  Ta13  1  0.975639  0.519001  0.090630  1
  Ta  Ta14  1  0.481146  0.024222  0.409552  1
  Nb  Nb15  1  0.567151  0.566364  0.170554  1
  Nb  Nb16  1  0.433294  0.432727  0.329358  1
  Nb  Nb17  1  0.432805  0.433339  0.829324  1
  Nb  Nb18  1  0.566647  0.567164  0.670663  1
  Nb  Nb19  1  0.063358  0.085375  0.322955  1
  Nb  Nb20  1  0.915068  0.936441  0.177075  1
  Nb  Nb21  1  0.936548  0.914656  0.677168  1
  Nb  Nb22  1  0.085268  0.063503  0.822844  1
  Nb  Nb23  1  0.500148  0.984646  0.202339  1
  As  As24  1  0.101769  0.099196  0.641066  1
  As  As25  1  0.900927  0.898136  0.858909  1
  As  As26  1  0.898054  0.900794  0.358831  1
  As  As27  1  0.099204  0.101838  0.141061  1
  As  As28  1  0.400593  0.372246  0.655898  1
  As  As29  1  0.627805  0.599334  0.844072  1
  As  As30  1  0.599479  0.627922  0.343974  1
  As  As31  1  0.372304  0.400577  0.155847  1
