# generated using pymatgen
data_Ce3Th(B4Mo)4
_symmetry_space_group_name_H-M   'P 1'
_cell_length_a   3.72729900
_cell_length_b   6.07622964
_cell_length_c   11.75346368
_cell_angle_alpha   89.98090241
_cell_angle_beta   90.00000000
_cell_angle_gamma   90.00000000
_symmetry_Int_Tables_number   1
_chemical_formula_structural   Ce3Th(B4Mo)4
_chemical_formula_sum   'Ce3 Th1 B16 Mo4'
_cell_volume   266.19154492
_cell_formula_units_Z   1
loop_
 _symmetry_equiv_pos_site_id
 _symmetry_equiv_pos_as_xyz
  1  'x, y, z'
loop_
 _atom_site_type_symbol
 _atom_site_label
 _atom_site_symmetry_multiplicity
 _atom_site_fract_x
 _atom_site_fract_y
 _atom_site_fract_z
 _atom_site_occupancy
  Ce  Ce0  1  0.000000  0.124518  0.151028  1
  Ce  Ce1  1  0.000000  0.875456  0.850097  1
  Ce  Ce2  1  0.000000  0.625123  0.348384  1
  Th  Th3  1  0.000000  0.375584  0.651255  1
  B  B4  1  0.500000  0.023221  0.691544  1
  B  B5  1  0.500000  0.974983  0.307669  1
  B  B6  1  0.500000  0.526384  0.810048  1
  B  B7  1  0.500000  0.475182  0.191809  1
  B  B8  1  0.500000  0.111296  0.545174  1
  B  B9  1  0.500000  0.885754  0.452492  1
  B  B10  1  0.500000  0.613497  0.954158  1
  B  B11  1  0.500000  0.386441  0.047031  1
  B  B12  1  0.500000  0.285998  0.314567  1
  B  B13  1  0.500000  0.717415  0.685257  1
  B  B14  1  0.500000  0.785598  0.184817  1
  B  B15  1  0.500000  0.213614  0.816667  1
  B  B16  1  0.500000  0.363031  0.466386  1
  B  B17  1  0.500000  0.637525  0.531017  1
  B  B18  1  0.500000  0.863743  0.032411  1
  B  B19  1  0.500000  0.135846  0.968511  1
  Mo  Mo20  1  0.000000  0.129505  0.413280  1
  Mo  Mo21  1  0.000000  0.870019  0.584784  1
  Mo  Mo22  1  0.000000  0.630213  0.085731  1
  Mo  Mo23  1  0.000000  0.370054  0.915883  1
