# generated using pymatgen
data_HfTiH2C
_symmetry_space_group_name_H-M   'P 1'
_cell_length_a   3.21749200
_cell_length_b   3.21749130
_cell_length_c   5.23257100
_cell_angle_alpha   90.00000000
_cell_angle_beta   90.00000000
_cell_angle_gamma   120.00000720
_symmetry_Int_Tables_number   1
_chemical_formula_structural   HfTiH2C
_chemical_formula_sum   'Hf1 Ti1 H2 C1'
_cell_volume   46.91163689
_cell_formula_units_Z   1
loop_
 _symmetry_equiv_pos_site_id
 _symmetry_equiv_pos_as_xyz
  1  'x, y, z'
loop_
 _atom_site_type_symbol
 _atom_site_label
 _atom_site_symmetry_multiplicity
 _atom_site_fract_x
 _atom_site_fract_y
 _atom_site_fract_z
 _atom_site_occupancy
  Hf  Hf0  1  0.333334  0.666668  0.230738  1
  Ti  Ti1  1  0.666667  0.333334  0.766154  1
  H  H2  1  0.666667  0.333334  0.396231  1
  H  H3  1  0.333334  0.666668  0.622193  1
  C  C4  1  0.000000  0.000000  0.984685  1
