# generated using pymatgen
data_Rb4Ba2HfAs4
_symmetry_space_group_name_H-M   'P 1'
_cell_length_a   10.90923185
_cell_length_b   10.90923336
_cell_length_c   8.23462577
_cell_angle_alpha   88.17624444
_cell_angle_beta   88.17623796
_cell_angle_gamma   119.76398722
_symmetry_Int_Tables_number   1
_chemical_formula_structural   Rb4Ba2HfAs4
_chemical_formula_sum   'Rb8 Ba4 Hf2 As8'
_cell_volume   849.01542034
_cell_formula_units_Z   2
loop_
 _symmetry_equiv_pos_site_id
 _symmetry_equiv_pos_as_xyz
  1  'x, y, z'
loop_
 _atom_site_type_symbol
 _atom_site_label
 _atom_site_symmetry_multiplicity
 _atom_site_fract_x
 _atom_site_fract_y
 _atom_site_fract_z
 _atom_site_occupancy
  Rb  Rb0  1  0.474273  0.940671  0.386983  1
  Rb  Rb1  1  0.940671  0.474273  0.886983  1
  Rb  Rb2  1  0.867458  0.721381  0.164741  1
  Rb  Rb3  1  0.263094  0.124957  0.240289  1
  Rb  Rb4  1  0.855409  0.143076  0.196948  1
  Rb  Rb5  1  0.124957  0.263094  0.740289  1
  Rb  Rb6  1  0.721381  0.867458  0.664741  1
  Rb  Rb7  1  0.143076  0.855409  0.696948  1
  Ba  Ba8  1  0.069739  0.533445  0.398077  1
  Ba  Ba9  1  0.476844  0.532234  0.377363  1
  Ba  Ba10  1  0.533445  0.069739  0.898077  1
  Ba  Ba11  1  0.532234  0.476844  0.877363  1
  Hf  Hf12  1  0.664206  0.335279  0.489505  1
  Hf  Hf13  1  0.335279  0.664206  0.989505  1
  As  As14  1  0.638620  0.329396  0.170971  1
  As  As15  1  0.329396  0.638620  0.670971  1
  As  As16  1  0.211833  0.408100  0.128396  1
  As  As17  1  0.600225  0.795935  0.070805  1
  As  As18  1  0.212213  0.801421  0.093589  1
  As  As19  1  0.795935  0.600225  0.570805  1
  As  As20  1  0.408100  0.211833  0.628396  1
  As  As21  1  0.801421  0.212213  0.593589  1
