# generated using pymatgen
data_Be8Tc3Os
_symmetry_space_group_name_H-M   'P 1'
_cell_length_a   4.36155000
_cell_length_b   4.36155078
_cell_length_c   7.12584400
_cell_angle_alpha   90.00000000
_cell_angle_beta   90.00000000
_cell_angle_gamma   119.99999409
_symmetry_Int_Tables_number   1
_chemical_formula_structural   Be8Tc3Os
_chemical_formula_sum   'Be8 Tc3 Os1'
_cell_volume   117.39477200
_cell_formula_units_Z   1
loop_
 _symmetry_equiv_pos_site_id
 _symmetry_equiv_pos_as_xyz
  1  'x, y, z'
loop_
 _atom_site_type_symbol
 _atom_site_label
 _atom_site_symmetry_multiplicity
 _atom_site_fract_x
 _atom_site_fract_y
 _atom_site_fract_z
 _atom_site_occupancy
  Be  Be0  1  0.000000  0.000000  0.498907  1
  Be  Be1  1  0.000000  0.000000  0.000003  1
  Be  Be2  1  0.831484  0.168516  0.248185  1
  Be  Be3  1  0.831484  0.662967  0.248185  1
  Be  Be4  1  0.337033  0.168516  0.248185  1
  Be  Be5  1  0.169052  0.830948  0.751979  1
  Be  Be6  1  0.169052  0.338104  0.751979  1
  Be  Be7  1  0.661896  0.830948  0.751979  1
  Tc  Tc8  1  0.333333  0.666667  0.441961  1
  Tc  Tc9  1  0.666667  0.333333  0.562319  1
  Tc  Tc10  1  0.666667  0.333333  0.935697  1
  Os  Os11  1  0.333333  0.666667  0.060621  1
