# generated using pymatgen
data_Ho8Er8Cd4NiRu3
_symmetry_space_group_name_H-M   'P 1'
_cell_length_a   9.51135361
_cell_length_b   9.56902833
_cell_length_c   9.60942300
_cell_angle_alpha   59.86025530
_cell_angle_beta   59.65832876
_cell_angle_gamma   59.58204659
_symmetry_Int_Tables_number   1
_chemical_formula_structural   Ho8Er8Cd4NiRu3
_chemical_formula_sum   'Ho8 Er8 Cd4 Ni1 Ru3'
_cell_volume   614.21360683
_cell_formula_units_Z   1
loop_
 _symmetry_equiv_pos_site_id
 _symmetry_equiv_pos_as_xyz
  1  'x, y, z'
loop_
 _atom_site_type_symbol
 _atom_site_label
 _atom_site_symmetry_multiplicity
 _atom_site_fract_x
 _atom_site_fract_y
 _atom_site_fract_z
 _atom_site_occupancy
  Ho  Ho0  1  0.187722  0.188118  0.812079  1
  Ho  Ho1  1  0.809543  0.811138  0.189660  1
  Ho  Ho2  1  0.939435  0.559532  0.560734  1
  Ho  Ho3  1  0.558594  0.937177  0.937136  1
  Ho  Ho4  1  0.558594  0.937177  0.567093  1
  Ho  Ho5  1  0.939435  0.559532  0.940299  1
  Ho  Ho6  1  0.557767  0.566475  0.937879  1
  Ho  Ho7  1  0.940297  0.939340  0.560181  1
  Er  Er8  1  0.351009  0.346138  0.344419  1
  Er  Er9  1  0.351009  0.346138  0.958432  1
  Er  Er10  1  0.351286  0.961487  0.343613  1
  Er  Er11  1  0.959969  0.346671  0.346680  1
  Er  Er12  1  0.810369  0.188376  0.189614  1
  Er  Er13  1  0.186239  0.810962  0.812111  1
  Er  Er14  1  0.186239  0.810962  0.190687  1
  Er  Er15  1  0.810369  0.188376  0.811640  1
  Cd  Cd16  1  0.578435  0.580406  0.581968  1
  Cd  Cd17  1  0.578435  0.580406  0.259192  1
  Cd  Cd18  1  0.579627  0.256856  0.581759  1
  Cd  Cd19  1  0.256730  0.580002  0.581635  1
  Ni  Ni20  1  0.579092  0.145568  0.137670  1
  Ru  Ru21  1  0.143075  0.140553  0.138281  1
  Ru  Ru22  1  0.143075  0.140553  0.578092  1
  Ru  Ru23  1  0.143654  0.578056  0.139145  1
