# generated using pymatgen
data_Y3Tm13CdIn3Rh4
_symmetry_space_group_name_H-M   'P 1'
_cell_length_a   9.54634107
_cell_length_b   9.53488728
_cell_length_c   9.54050200
_cell_angle_alpha   60.07311634
_cell_angle_beta   60.03805834
_cell_angle_gamma   60.06491509
_symmetry_Int_Tables_number   1
_chemical_formula_structural   Y3Tm13CdIn3Rh4
_chemical_formula_sum   'Y3 Tm13 Cd1 In3 Rh4'
_cell_volume   614.87383180
_cell_formula_units_Z   1
loop_
 _symmetry_equiv_pos_site_id
 _symmetry_equiv_pos_as_xyz
  1  'x, y, z'
loop_
 _atom_site_type_symbol
 _atom_site_label
 _atom_site_symmetry_multiplicity
 _atom_site_fract_x
 _atom_site_fract_y
 _atom_site_fract_z
 _atom_site_occupancy
  Y  Y0  1  0.060848  0.060908  0.438836  1
  Y  Y1  1  0.436273  0.065994  0.435013  1
  Y  Y2  1  0.062217  0.438507  0.061324  1
  Tm  Tm3  1  0.050147  0.648532  0.648958  1
  Tm  Tm4  1  0.437212  0.436963  0.063864  1
  Tm  Tm5  1  0.648587  0.049744  0.649300  1
  Tm  Tm6  1  0.188381  0.812621  0.187931  1
  Tm  Tm7  1  0.187923  0.187948  0.813426  1
  Tm  Tm8  1  0.810514  0.810464  0.190375  1
  Tm  Tm9  1  0.440230  0.060402  0.059490  1
  Tm  Tm10  1  0.812878  0.188155  0.187684  1
  Tm  Tm11  1  0.063534  0.438283  0.437267  1
  Tm  Tm12  1  0.809845  0.190461  0.811151  1
  Tm  Tm13  1  0.190492  0.809923  0.811282  1
  Tm  Tm14  1  0.648591  0.648927  0.049962  1
  Tm  Tm15  1  0.651923  0.651816  0.652132  1
  Cd  Cd16  1  0.417399  0.418273  0.417569  1
  In  In17  1  0.747158  0.418098  0.417789  1
  In  In18  1  0.418222  0.746980  0.417314  1
  In  In19  1  0.417924  0.417189  0.747998  1
  Rh  Rh20  1  0.858897  0.857512  0.426801  1
  Rh  Rh21  1  0.855974  0.857156  0.857213  1
  Rh  Rh22  1  0.426918  0.857984  0.859422  1
  Rh  Rh23  1  0.857913  0.427161  0.857899  1
