# generated using pymatgen
data_KTa8NiS16
_symmetry_space_group_name_H-M   'P 1'
_cell_length_a   6.71101802
_cell_length_b   6.71102201
_cell_length_c   14.27406500
_cell_angle_alpha   89.98485436
_cell_angle_beta   90.00392728
_cell_angle_gamma   120.00354025
_symmetry_Int_Tables_number   1
_chemical_formula_structural   KTa8NiS16
_chemical_formula_sum   'K1 Ta8 Ni1 S16'
_cell_volume   556.72389184
_cell_formula_units_Z   1
loop_
 _symmetry_equiv_pos_site_id
 _symmetry_equiv_pos_as_xyz
  1  'x, y, z'
loop_
 _atom_site_type_symbol
 _atom_site_label
 _atom_site_symmetry_multiplicity
 _atom_site_fract_x
 _atom_site_fract_y
 _atom_site_fract_z
 _atom_site_occupancy
  K  K0  1  0.000000  0.000000  0.500000  1
  Ta  Ta1  1  0.503725  0.495709  0.790843  1
  Ta  Ta2  1  0.007870  0.504254  0.209173  1
  Ta  Ta3  1  0.495853  0.991772  0.209174  1
  Ta  Ta4  1  0.504147  0.008228  0.790826  1
  Ta  Ta5  1  0.992130  0.495746  0.790827  1
  Ta  Ta6  1  0.496275  0.504291  0.209157  1
  Ta  Ta7  1  0.000328  0.000513  0.788523  1
  Ta  Ta8  1  0.999672  0.999487  0.211477  1
  Ni  Ni9  1  0.000000  0.000000  0.000000  1
  S  S10  1  0.832232  0.167789  0.318329  1
  S  S11  1  0.832048  0.664120  0.318509  1
  S  S12  1  0.335622  0.167824  0.318348  1
  S  S13  1  0.667025  0.833599  0.898220  1
  S  S14  1  0.167952  0.335880  0.681491  1
  S  S15  1  0.166592  0.833632  0.898210  1
  S  S16  1  0.166791  0.333521  0.898344  1
  S  S17  1  0.833408  0.166368  0.101790  1
  S  S18  1  0.332975  0.166401  0.101780  1
  S  S19  1  0.664378  0.832176  0.681652  1
  S  S20  1  0.333135  0.666345  0.099177  1
  S  S21  1  0.666684  0.333229  0.678203  1
  S  S22  1  0.666865  0.333655  0.900823  1
  S  S23  1  0.333316  0.666771  0.321797  1
  S  S24  1  0.833209  0.666479  0.101656  1
  S  S25  1  0.167768  0.832211  0.681671  1
