# generated using pymatgen
data_Er5TmGa2(SiRh3)4
_symmetry_space_group_name_H-M   'P 1'
_cell_length_a   5.56488700
_cell_length_b   5.56488494
_cell_length_c   15.22058200
_cell_angle_alpha   90.00000000
_cell_angle_beta   90.00000000
_cell_angle_gamma   119.99999440
_symmetry_Int_Tables_number   1
_chemical_formula_structural   Er5TmGa2(SiRh3)4
_chemical_formula_sum   'Er5 Tm1 Ga2 Si4 Rh12'
_cell_volume   408.20136697
_cell_formula_units_Z   1
loop_
 _symmetry_equiv_pos_site_id
 _symmetry_equiv_pos_as_xyz
  1  'x, y, z'
loop_
 _atom_site_type_symbol
 _atom_site_label
 _atom_site_symmetry_multiplicity
 _atom_site_fract_x
 _atom_site_fract_y
 _atom_site_fract_z
 _atom_site_occupancy
  Er  Er0  1  0.666667  0.333333  0.462203  1
  Er  Er1  1  0.666667  0.333333  0.038121  1
  Er  Er2  1  0.333333  0.666667  0.962118  1
  Er  Er3  1  0.333333  0.666667  0.749543  1
  Er  Er4  1  0.666667  0.333333  0.250323  1
  Tm  Tm5  1  0.333333  0.666667  0.537389  1
  Ga  Ga6  1  0.000000  0.000000  0.000162  1
  Ga  Ga7  1  0.000000  0.000000  0.499888  1
  Si  Si8  1  0.000000  0.000000  0.250290  1
  Si  Si9  1  0.000000  0.000000  0.749758  1
  Si  Si10  1  0.333333  0.666667  0.250193  1
  Si  Si11  1  0.666667  0.333333  0.749835  1
  Rh  Rh12  1  0.167770  0.335539  0.133432  1
  Rh  Rh13  1  0.832129  0.664257  0.866778  1
  Rh  Rh14  1  0.664461  0.832230  0.133432  1
  Rh  Rh15  1  0.832164  0.664328  0.632845  1
  Rh  Rh16  1  0.335743  0.167871  0.866778  1
  Rh  Rh17  1  0.167889  0.335778  0.367004  1
  Rh  Rh18  1  0.167770  0.832230  0.133432  1
  Rh  Rh19  1  0.335672  0.167836  0.632845  1
  Rh  Rh20  1  0.832129  0.167871  0.866778  1
  Rh  Rh21  1  0.664222  0.832111  0.367004  1
  Rh  Rh22  1  0.832164  0.167836  0.632845  1
  Rh  Rh23  1  0.167889  0.832111  0.367004  1
