# generated using pymatgen
data_Yb3ThAgPt3
_symmetry_space_group_name_H-M   'P 1'
_cell_length_a   4.42362900
_cell_length_b   5.73534452
_cell_length_c   7.40473755
_cell_angle_alpha   90.19019162
_cell_angle_beta   90.00000000
_cell_angle_gamma   90.00000000
_symmetry_Int_Tables_number   1
_chemical_formula_structural   Yb3ThAgPt3
_chemical_formula_sum   'Yb3 Th1 Ag1 Pt3'
_cell_volume   187.86483026
_cell_formula_units_Z   1
loop_
 _symmetry_equiv_pos_site_id
 _symmetry_equiv_pos_as_xyz
  1  'x, y, z'
loop_
 _atom_site_type_symbol
 _atom_site_label
 _atom_site_symmetry_multiplicity
 _atom_site_fract_x
 _atom_site_fract_y
 _atom_site_fract_z
 _atom_site_occupancy
  Yb  Yb0  1  0.750000  0.637185  0.306203  1
  Yb  Yb1  1  0.750000  0.857073  0.830731  1
  Yb  Yb2  1  0.250000  0.354248  0.687901  1
  Th  Th3  1  0.250000  0.150492  0.177035  1
  Ag  Ag4  1  0.250000  0.852414  0.548162  1
  Pt  Pt5  1  0.750000  0.142670  0.445033  1
  Pt  Pt6  1  0.250000  0.667480  0.045268  1
  Pt  Pt7  1  0.750000  0.338439  0.959666  1
