# generated using pymatgen
data_Zr6Zn21GeAu2
_symmetry_space_group_name_H-M   'P 1'
_cell_length_a   8.82886232
_cell_length_b   8.82886078
_cell_length_c   8.84909500
_cell_angle_alpha   59.92416174
_cell_angle_beta   59.92416751
_cell_angle_gamma   60.22059728
_symmetry_Int_Tables_number   1
_chemical_formula_structural   Zr6Zn21GeAu2
_chemical_formula_sum   'Zr6 Zn21 Ge1 Au2'
_cell_volume   487.99081790
_cell_formula_units_Z   1
loop_
 _symmetry_equiv_pos_site_id
 _symmetry_equiv_pos_as_xyz
  1  'x, y, z'
loop_
 _atom_site_type_symbol
 _atom_site_label
 _atom_site_symmetry_multiplicity
 _atom_site_fract_x
 _atom_site_fract_y
 _atom_site_fract_z
 _atom_site_occupancy
  Zr  Zr0  1  0.712248  0.287752  0.283644  1
  Zr  Zr1  1  0.287752  0.712248  0.716356  1
  Zr  Zr2  1  0.287752  0.712248  0.283644  1
  Zr  Zr3  1  0.712248  0.287752  0.716356  1
  Zr  Zr4  1  0.282261  0.282261  0.717739  1
  Zr  Zr5  1  0.717739  0.717739  0.282261  1
  Zn  Zn6  1  0.125810  0.125810  0.124316  1
  Zn  Zn7  1  0.874190  0.874190  0.875684  1
  Zn  Zn8  1  0.125810  0.125810  0.624067  1
  Zn  Zn9  1  0.127948  0.623535  0.124259  1
  Zn  Zn10  1  0.874190  0.874190  0.375933  1
  Zn  Zn11  1  0.872052  0.376465  0.875741  1
  Zn  Zn12  1  0.623535  0.127948  0.124259  1
  Zn  Zn13  1  0.376465  0.872052  0.875741  1
  Zn  Zn14  1  0.500000  0.000000  0.000000  1
  Zn  Zn15  1  0.000000  0.500000  0.500000  1
  Zn  Zn16  1  0.000000  0.500000  0.000000  1
  Zn  Zn17  1  0.500000  0.000000  0.500000  1
  Zn  Zn18  1  0.500000  0.500000  0.000000  1
  Zn  Zn19  1  0.338909  0.338909  0.341568  1
  Zn  Zn20  1  0.661091  0.661091  0.658432  1
  Zn  Zn21  1  0.338909  0.338909  0.980615  1
  Zn  Zn22  1  0.347283  0.975588  0.338565  1
  Zn  Zn23  1  0.661091  0.661091  0.019385  1
  Zn  Zn24  1  0.652717  0.024412  0.661435  1
  Zn  Zn25  1  0.975588  0.347283  0.338565  1
  Zn  Zn26  1  0.024412  0.652717  0.661435  1
  Ge  Ge27  1  0.500000  0.500000  0.500000  1
  Au  Au28  1  0.000000  0.000000  0.500000  1
  Au  Au29  1  0.000000  0.000000  0.000000  1
