# generated using pymatgen
data_Th10Sn6BiAu
_symmetry_space_group_name_H-M   'P 1'
_cell_length_a   9.65710878
_cell_length_b   9.65710736
_cell_length_c   6.64215524
_cell_angle_alpha   90.01551511
_cell_angle_beta   90.01551395
_cell_angle_gamma   120.13490817
_symmetry_Int_Tables_number   1
_chemical_formula_structural   Th10Sn6BiAu
_chemical_formula_sum   'Th10 Sn6 Bi1 Au1'
_cell_volume   535.72482979
_cell_formula_units_Z   1
loop_
 _symmetry_equiv_pos_site_id
 _symmetry_equiv_pos_as_xyz
  1  'x, y, z'
loop_
 _atom_site_type_symbol
 _atom_site_label
 _atom_site_symmetry_multiplicity
 _atom_site_fract_x
 _atom_site_fract_y
 _atom_site_fract_z
 _atom_site_occupancy
  Th  Th0  1  0.003303  0.726660  0.751201  1
  Th  Th1  1  0.272640  0.272640  0.751924  1
  Th  Th2  1  0.331482  0.666715  0.498400  1
  Th  Th3  1  0.666715  0.331482  0.498400  1
  Th  Th4  1  0.726229  0.726229  0.248558  1
  Th  Th5  1  0.726660  0.003303  0.751201  1
  Th  Th6  1  0.999969  0.274700  0.248643  1
  Th  Th7  1  0.274700  0.999969  0.248643  1
  Th  Th8  1  0.331331  0.666853  0.001508  1
  Th  Th9  1  0.666853  0.331331  0.001508  1
  Sn  Sn10  1  0.000258  0.380104  0.749775  1
  Sn  Sn11  1  0.380104  0.000258  0.749775  1
  Sn  Sn12  1  0.620228  0.000019  0.250061  1
  Sn  Sn13  1  0.379776  0.379776  0.250243  1
  Sn  Sn14  1  0.000019  0.620228  0.250061  1
  Sn  Sn15  1  0.999808  0.999808  0.499840  1
  Bi  Bi16  1  0.619778  0.619778  0.749656  1
  Au  Au17  1  0.000146  0.000146  0.000603  1
