# generated using pymatgen
data_RbBa2(BeAs)6
_symmetry_space_group_name_H-M   'P 1'
_cell_length_a   5.39877336
_cell_length_b   7.41678128
_cell_length_c   8.55957816
_cell_angle_alpha   110.26363566
_cell_angle_beta   108.38281173
_cell_angle_gamma   90.00000333
_symmetry_Int_Tables_number   1
_chemical_formula_structural   RbBa2(BeAs)6
_chemical_formula_sum   'Rb1 Ba2 Be6 As6'
_cell_volume   302.81364835
_cell_formula_units_Z   1
loop_
 _symmetry_equiv_pos_site_id
 _symmetry_equiv_pos_as_xyz
  1  'x, y, z'
loop_
 _atom_site_type_symbol
 _atom_site_label
 _atom_site_symmetry_multiplicity
 _atom_site_fract_x
 _atom_site_fract_y
 _atom_site_fract_z
 _atom_site_occupancy
  Rb  Rb0  1  0.000000  0.000000  0.000000  1
  Ba  Ba1  1  0.660151  0.000858  0.320300  1
  Ba  Ba2  1  0.339849  0.999142  0.679700  1
  Be  Be3  1  0.416124  0.499038  0.333359  1
  Be  Be4  1  0.082763  0.500962  0.666641  1
  Be  Be5  1  0.750921  0.500000  0.000000  1
  Be  Be6  1  0.583876  0.500962  0.666641  1
  Be  Be7  1  0.249079  0.500000  0.000000  1
  Be  Be8  1  0.917237  0.499038  0.333359  1
  As  As9  1  0.218726  0.303381  0.437451  1
  As  As10  1  0.882832  0.304575  0.765662  1
  As  As11  1  0.551035  0.307452  0.102074  1
  As  As12  1  0.781274  0.696619  0.562549  1
  As  As13  1  0.448965  0.692548  0.897926  1
  As  As14  1  0.117168  0.695425  0.234338  1
