# generated using pymatgen
data_Tm2Pa(ZnNi)3
_symmetry_space_group_name_H-M   'P 1'
_cell_length_a   7.11350700
_cell_length_b   7.02437921
_cell_length_c   3.63642200
_cell_angle_alpha   90.00000000
_cell_angle_beta   90.00000000
_cell_angle_gamma   120.42062720
_symmetry_Int_Tables_number   1
_chemical_formula_structural   Tm2Pa(ZnNi)3
_chemical_formula_sum   'Tm2 Pa1 Zn3 Ni3'
_cell_volume   156.68961240
_cell_formula_units_Z   1
loop_
 _symmetry_equiv_pos_site_id
 _symmetry_equiv_pos_as_xyz
  1  'x, y, z'
loop_
 _atom_site_type_symbol
 _atom_site_label
 _atom_site_symmetry_multiplicity
 _atom_site_fract_x
 _atom_site_fract_y
 _atom_site_fract_z
 _atom_site_occupancy
  Tm  Tm0  1  0.995778  0.405918  0.000000  1
  Tm  Tm1  1  0.589860  0.594082  0.000000  1
  Pa  Pa2  1  0.415641  0.000000  0.000000  1
  Zn  Zn3  1  0.766354  0.000000  0.499999  1
  Zn  Zn4  1  0.248489  0.257964  0.499999  1
  Zn  Zn5  1  0.990525  0.742037  0.499999  1
  Ni  Ni6  1  0.013439  0.000000  0.000000  1
  Ni  Ni7  1  0.644485  0.309055  0.499999  1
  Ni  Ni8  1  0.335431  0.690945  0.499999  1
