# generated using pymatgen
data_KRb3MnSe4
_symmetry_space_group_name_H-M   'P 1'
_cell_length_a   8.60527900
_cell_length_b   10.27121500
_cell_length_c   15.25771500
_cell_angle_alpha   90.00000000
_cell_angle_beta   90.00000000
_cell_angle_gamma   90.00000000
_symmetry_Int_Tables_number   1
_chemical_formula_structural   KRb3MnSe4
_chemical_formula_sum   'K4 Rb12 Mn4 Se16'
_cell_volume   1348.57863201
_cell_formula_units_Z   4
loop_
 _symmetry_equiv_pos_site_id
 _symmetry_equiv_pos_as_xyz
  1  'x, y, z'
loop_
 _atom_site_type_symbol
 _atom_site_label
 _atom_site_symmetry_multiplicity
 _atom_site_fract_x
 _atom_site_fract_y
 _atom_site_fract_z
 _atom_site_occupancy
  K  K0  1  0.156580  0.952125  0.726668  1
  K  K1  1  0.656580  0.047875  0.773332  1
  K  K2  1  0.843420  0.452125  0.273332  1
  K  K3  1  0.343420  0.547875  0.226668  1
  Rb  Rb4  1  0.000253  0.998488  0.998110  1
  Rb  Rb5  1  0.500253  0.001512  0.501890  1
  Rb  Rb6  1  0.999747  0.498488  0.001890  1
  Rb  Rb7  1  0.499747  0.501512  0.498110  1
  Rb  Rb8  1  0.989273  0.751952  0.425083  1
  Rb  Rb9  1  0.489273  0.248048  0.074917  1
  Rb  Rb10  1  0.010727  0.251952  0.574917  1
  Rb  Rb11  1  0.510727  0.748048  0.925083  1
  Rb  Rb12  1  0.836741  0.054420  0.277002  1
  Rb  Rb13  1  0.336741  0.945580  0.222998  1
  Rb  Rb14  1  0.163259  0.554420  0.722998  1
  Rb  Rb15  1  0.663259  0.445580  0.777002  1
  Mn  Mn16  1  0.760732  0.753731  0.667631  1
  Mn  Mn17  1  0.239268  0.253731  0.332369  1
  Mn  Mn18  1  0.739268  0.746269  0.167631  1
  Mn  Mn19  1  0.260732  0.246269  0.832369  1
  Se  Se20  1  0.986021  0.243731  0.823240  1
  Se  Se21  1  0.513979  0.256269  0.323240  1
  Se  Se22  1  0.486021  0.756269  0.676760  1
  Se  Se23  1  0.013979  0.743731  0.176760  1
  Se  Se24  1  0.648006  0.560047  0.095670  1
  Se  Se25  1  0.148006  0.439953  0.404330  1
  Se  Se26  1  0.351994  0.060047  0.904330  1
  Se  Se27  1  0.851994  0.939953  0.595670  1
  Se  Se28  1  0.345759  0.431853  0.907134  1
  Se  Se29  1  0.845759  0.568147  0.592866  1
  Se  Se30  1  0.654241  0.931853  0.092866  1
  Se  Se31  1  0.154241  0.068147  0.407134  1
  Se  Se32  1  0.631098  0.744204  0.309885  1
  Se  Se33  1  0.131098  0.255796  0.190115  1
  Se  Se34  1  0.368902  0.244204  0.690115  1
  Se  Se35  1  0.868902  0.755796  0.809885  1
