# generated using pymatgen
data_K4ScCr3P4(O4F)4
_symmetry_space_group_name_H-M   'P 1'
_cell_length_a   6.43128300
_cell_length_b   10.71823100
_cell_length_c   12.95030400
_cell_angle_alpha   90.00000000
_cell_angle_beta   90.00000000
_cell_angle_gamma   90.00000000
_symmetry_Int_Tables_number   1
_chemical_formula_structural   K4ScCr3P4(O4F)4
_chemical_formula_sum   'K8 Sc2 Cr6 P8 O32 F8'
_cell_volume   892.69005514
_cell_formula_units_Z   2
loop_
 _symmetry_equiv_pos_site_id
 _symmetry_equiv_pos_as_xyz
  1  'x, y, z'
loop_
 _atom_site_type_symbol
 _atom_site_label
 _atom_site_symmetry_multiplicity
 _atom_site_fract_x
 _atom_site_fract_y
 _atom_site_fract_z
 _atom_site_occupancy
  K  K0  1  0.200201  0.692506  0.397259  1
  K  K1  1  0.799799  0.192506  0.602741  1
  K  K2  1  0.299852  0.689764  0.894686  1
  K  K3  1  0.700148  0.189764  0.105314  1
  K  K4  1  0.777208  0.947319  0.383730  1
  K  K5  1  0.222792  0.447319  0.616270  1
  K  K6  1  0.728657  0.947949  0.878638  1
  K  K7  1  0.271343  0.447949  0.121362  1
  Sc  Sc8  1  0.993104  0.749126  0.113201  1
  Sc  Sc9  1  0.006896  0.249126  0.886799  1
  Cr  Cr10  1  0.501566  0.748281  0.614801  1
  Cr  Cr11  1  0.498434  0.248281  0.385199  1
  Cr  Cr12  1  0.750552  0.499323  0.255042  1
  Cr  Cr13  1  0.249448  0.999323  0.744958  1
  Cr  Cr14  1  0.747260  0.500811  0.751408  1
  Cr  Cr15  1  0.252740  0.000811  0.248592  1
  P  P16  1  0.669577  0.497867  0.500853  1
  P  P17  1  0.330423  0.997867  0.499147  1
  P  P18  1  0.819828  0.497517  0.001431  1
  P  P19  1  0.180172  0.997517  0.998569  1
  P  P20  1  0.498865  0.747827  0.186688  1
  P  P21  1  0.501135  0.247827  0.813312  1
  P  P22  1  0.998108  0.748132  0.681713  1
  P  P23  1  0.001892  0.248132  0.318287  1
  O  O24  1  0.045775  0.877497  0.004207  1
  O  O25  1  0.316675  0.279806  0.884160  1
  O  O26  1  0.809096  0.775210  0.611571  1
  O  O27  1  0.190904  0.275210  0.388429  1
  O  O28  1  0.311099  0.713420  0.118199  1
  O  O29  1  0.688901  0.213420  0.881801  1
  O  O30  1  0.189533  0.718482  0.612262  1
  O  O31  1  0.810467  0.218482  0.387738  1
  O  O32  1  0.514377  0.608133  0.515196  1
  O  O33  1  0.485623  0.108133  0.484804  1
  O  O34  1  0.977787  0.606019  0.010701  1
  O  O35  1  0.022213  0.106019  0.989299  1
  O  O36  1  0.532150  0.378726  0.489889  1
  O  O37  1  0.467850  0.878726  0.510111  1
  O  O38  1  0.954225  0.377497  0.995793  1
  O  O39  1  0.683325  0.779806  0.115840  1
  O  O40  1  0.811198  0.517869  0.406202  1
  O  O41  1  0.188802  0.017869  0.593798  1
  O  O42  1  0.681793  0.515072  0.904935  1
  O  O43  1  0.450377  0.859575  0.259530  1
  O  O44  1  0.807668  0.482142  0.598155  1
  O  O45  1  0.192332  0.982142  0.401845  1
  O  O46  1  0.683138  0.486444  0.099810  1
  O  O47  1  0.316862  0.986444  0.900190  1
  O  O48  1  0.041754  0.135811  0.244396  1
  O  O49  1  0.958246  0.635811  0.755604  1
  O  O50  1  0.455014  0.136701  0.739318  1
  O  O51  1  0.544986  0.636701  0.260682  1
  O  O52  1  0.953211  0.359811  0.245170  1
  O  O53  1  0.046789  0.859811  0.754830  1
  O  O54  1  0.549623  0.359575  0.740470  1
  O  O55  1  0.318207  0.015072  0.095065  1
  F  F56  1  0.027185  0.878088  0.232933  1
  F  F57  1  0.972815  0.378088  0.767067  1
  F  F58  1  0.474785  0.874073  0.727681  1
  F  F59  1  0.525215  0.374073  0.272319  1
  F  F60  1  0.480895  0.121388  0.271517  1
  F  F61  1  0.519105  0.621388  0.728483  1
  F  F62  1  0.019673  0.116311  0.766439  1
  F  F63  1  0.980327  0.616311  0.233561  1
