# generated using pymatgen
data_Tb18Y2Ir11Ru
_symmetry_space_group_name_H-M   'P 1'
_cell_length_a   10.93016306
_cell_length_b   10.92928400
_cell_length_c   6.42489904
_cell_angle_alpha   90.00009179
_cell_angle_beta   89.98771729
_cell_angle_gamma   90.00037744
_symmetry_Int_Tables_number   1
_chemical_formula_structural   Tb18Y2Ir11Ru
_chemical_formula_sum   'Tb18 Y2 Ir11 Ru1'
_cell_volume   767.51107302
_cell_formula_units_Z   1
loop_
 _symmetry_equiv_pos_site_id
 _symmetry_equiv_pos_as_xyz
  1  'x, y, z'
loop_
 _atom_site_type_symbol
 _atom_site_label
 _atom_site_symmetry_multiplicity
 _atom_site_fract_x
 _atom_site_fract_y
 _atom_site_fract_z
 _atom_site_occupancy
  Tb  Tb0  1  0.292400  0.087279  0.377442  1
  Tb  Tb1  1  0.292746  0.912650  0.880166  1
  Tb  Tb2  1  0.707282  0.087349  0.880223  1
  Tb  Tb3  1  0.707637  0.912722  0.377506  1
  Tb  Tb4  1  0.587331  0.792717  0.880220  1
  Tb  Tb5  1  0.587256  0.207631  0.377504  1
  Tb  Tb6  1  0.412723  0.792361  0.377515  1
  Tb  Tb7  1  0.412645  0.207283  0.880239  1
  Tb  Tb8  1  0.208928  0.411670  0.621324  1
  Tb  Tb9  1  0.208915  0.588204  0.121047  1
  Tb  Tb10  1  0.791060  0.411777  0.121103  1
  Tb  Tb11  1  0.791049  0.588350  0.621379  1
  Tb  Tb12  1  0.911815  0.708923  0.121031  1
  Tb  Tb13  1  0.911689  0.291065  0.621305  1
  Tb  Tb14  1  0.000018  0.999972  0.499271  1
  Tb  Tb15  1  0.000019  0.000027  0.999231  1
  Tb  Tb16  1  0.499990  0.499968  0.999254  1
  Tb  Tb17  1  0.499992  0.500031  0.499298  1
  Y  Y18  1  0.088363  0.708996  0.621406  1
  Y  Y19  1  0.088240  0.291017  0.121127  1
  Ir  Ir20  1  0.846929  0.153815  0.250003  1
  Ir  Ir21  1  0.846994  0.846536  0.749788  1
  Ir  Ir22  1  0.152972  0.153445  0.749692  1
  Ir  Ir23  1  0.153034  0.846204  0.249908  1
  Ir  Ir24  1  0.653479  0.347014  0.749763  1
  Ir  Ir25  1  0.653826  0.653052  0.249973  1
  Ir  Ir26  1  0.346221  0.346964  0.250030  1
  Ir  Ir27  1  0.346575  0.652976  0.749823  1
  Ir  Ir28  1  0.500002  0.000005  0.624602  1
  Ir  Ir29  1  0.999938  0.500004  0.876527  1
  Ir  Ir30  1  0.999937  0.499993  0.376653  1
  Ru  Ru31  1  0.499996  0.999997  0.125643  1
