# generated using pymatgen
data_TbDy3TmIr3
_symmetry_space_group_name_H-M   'P 1'
_cell_length_a   10.88407500
_cell_length_b   10.88197200
_cell_length_c   6.35958000
_cell_angle_alpha   90.00000000
_cell_angle_beta   90.00000000
_cell_angle_gamma   90.00000000
_symmetry_Int_Tables_number   1
_chemical_formula_structural   TbDy3TmIr3
_chemical_formula_sum   'Tb4 Dy12 Tm4 Ir12'
_cell_volume   753.22992327
_cell_formula_units_Z   4
loop_
 _symmetry_equiv_pos_site_id
 _symmetry_equiv_pos_as_xyz
  1  'x, y, z'
loop_
 _atom_site_type_symbol
 _atom_site_label
 _atom_site_symmetry_multiplicity
 _atom_site_fract_x
 _atom_site_fract_y
 _atom_site_fract_z
 _atom_site_occupancy
  Tb  Tb0  1  0.290459  0.087790  0.377303  1
  Tb  Tb1  1  0.290459  0.912210  0.877303  1
  Tb  Tb2  1  0.709541  0.087790  0.877303  1
  Tb  Tb3  1  0.709541  0.912210  0.377303  1
  Dy  Dy4  1  0.587652  0.790462  0.877463  1
  Dy  Dy5  1  0.587652  0.209538  0.377463  1
  Dy  Dy6  1  0.412348  0.790462  0.377463  1
  Dy  Dy7  1  0.412348  0.209538  0.877463  1
  Dy  Dy8  1  0.209347  0.412413  0.622516  1
  Dy  Dy9  1  0.209347  0.587587  0.122516  1
  Dy  Dy10  1  0.790653  0.412413  0.122516  1
  Dy  Dy11  1  0.790653  0.587587  0.622516  1
  Dy  Dy12  1  0.912463  0.709296  0.122390  1
  Dy  Dy13  1  0.912463  0.290704  0.622390  1
  Dy  Dy14  1  0.087537  0.709296  0.622390  1
  Dy  Dy15  1  0.087537  0.290704  0.122390  1
  Tm  Tm16  1  0.000000  0.000000  0.500125  1
  Tm  Tm17  1  0.000000  0.000000  0.000125  1
  Tm  Tm18  1  0.500000  0.500000  0.000095  1
  Tm  Tm19  1  0.500000  0.500000  0.500095  1
  Ir  Ir20  1  0.847814  0.152572  0.250260  1
  Ir  Ir21  1  0.847814  0.847428  0.750260  1
  Ir  Ir22  1  0.152186  0.152572  0.750260  1
  Ir  Ir23  1  0.152186  0.847428  0.250260  1
  Ir  Ir24  1  0.652296  0.347817  0.749899  1
  Ir  Ir25  1  0.652296  0.652183  0.249899  1
  Ir  Ir26  1  0.347704  0.347817  0.249899  1
  Ir  Ir27  1  0.347704  0.652183  0.749899  1
  Ir  Ir28  1  0.500000  0.000000  0.121878  1
  Ir  Ir29  1  0.500000  0.000000  0.621878  1
  Ir  Ir30  1  0.000000  0.500000  0.878242  1
  Ir  Ir31  1  0.000000  0.500000  0.378242  1
