# generated using pymatgen
data_DyHo11Co4SnOs
_symmetry_space_group_name_H-M   'P 1'
_cell_length_a   8.24692678
_cell_length_b   8.24692659
_cell_length_c   8.24529335
_cell_angle_alpha   106.29885006
_cell_angle_beta   110.55974227
_cell_angle_gamma   111.61043079
_symmetry_Int_Tables_number   1
_chemical_formula_structural   DyHo11Co4SnOs
_chemical_formula_sum   'Dy1 Ho11 Co4 Sn1 Os1'
_cell_volume   430.62045353
_cell_formula_units_Z   1
loop_
 _symmetry_equiv_pos_site_id
 _symmetry_equiv_pos_as_xyz
  1  'x, y, z'
loop_
 _atom_site_type_symbol
 _atom_site_label
 _atom_site_symmetry_multiplicity
 _atom_site_fract_x
 _atom_site_fract_y
 _atom_site_fract_z
 _atom_site_occupancy
  Dy  Dy0  1  0.805492  0.216571  0.022064  1
  Ho  Ho1  1  0.466717  0.284126  0.182812  1
  Ho  Ho2  1  0.101587  0.284279  0.817091  1
  Ho  Ho3  1  0.898686  0.716095  0.182812  1
  Ho  Ho4  1  0.532811  0.715504  0.817091  1
  Ho  Ho5  1  0.306268  0.619590  0.313706  1
  Ho  Ho6  1  0.305569  0.992317  0.686313  1
  Ho  Ho7  1  0.693997  0.380743  0.686313  1
  Ho  Ho8  1  0.694115  0.007437  0.313706  1
  Ho  Ho9  1  0.194733  0.216519  0.411252  1
  Ho  Ho10  1  0.805609  0.783480  0.589089  1
  Ho  Ho11  1  0.194517  0.783497  0.978012  1
  Co  Co12  1  0.500009  0.611711  0.111719  1
  Co  Co13  1  0.499636  0.388439  0.888075  1
  Co  Co14  1  0.377717  0.000114  0.377831  1
  Co  Co15  1  0.622002  0.999809  0.621811  1
  Sn  Sn16  1  0.000163  0.500065  0.500228  1
  Os  Os17  1  0.000372  0.999705  0.000077  1
