# generated using pymatgen
data_TbTm2Pa(ReB6)2
_symmetry_space_group_name_H-M   'P 1'
_cell_length_a   3.68618200
_cell_length_b   9.13393385
_cell_length_c   11.51218704
_cell_angle_alpha   90.30286344
_cell_angle_beta   90.00000000
_cell_angle_gamma   90.00000000
_symmetry_Int_Tables_number   1
_chemical_formula_structural   TbTm2Pa(ReB6)2
_chemical_formula_sum   'Tb2 Tm4 Pa2 Re4 B24'
_cell_volume   387.60235401
_cell_formula_units_Z   2
loop_
 _symmetry_equiv_pos_site_id
 _symmetry_equiv_pos_as_xyz
  1  'x, y, z'
loop_
 _atom_site_type_symbol
 _atom_site_label
 _atom_site_symmetry_multiplicity
 _atom_site_fract_x
 _atom_site_fract_y
 _atom_site_fract_z
 _atom_site_occupancy
  Tb  Tb0  1  0.000000  0.823379  0.085763  1
  Tb  Tb1  1  0.000000  0.176621  0.914237  1
  Tm  Tm2  1  0.000000  0.944807  0.372586  1
  Tm  Tm3  1  0.000000  0.055193  0.627414  1
  Tm  Tm4  1  0.000000  0.443868  0.126648  1
  Tm  Tm5  1  0.000000  0.556132  0.873352  1
  Pa  Pa6  1  0.000000  0.321076  0.413255  1
  Pa  Pa7  1  0.000000  0.678924  0.586745  1
  Re  Re8  1  0.000000  0.635583  0.324245  1
  Re  Re9  1  0.000000  0.364417  0.675755  1
  Re  Re10  1  0.000000  0.140997  0.182343  1
  Re  Re11  1  0.000000  0.859003  0.817657  1
  B  B12  1  0.500000  0.553707  0.432944  1
  B  B13  1  0.500000  0.446293  0.567056  1
  B  B14  1  0.500000  0.053771  0.067771  1
  B  B15  1  0.500000  0.946229  0.932229  1
  B  B16  1  0.500000  0.749301  0.419473  1
  B  B17  1  0.500000  0.250699  0.580527  1
  B  B18  1  0.500000  0.249062  0.080828  1
  B  B19  1  0.500000  0.750938  0.919172  1
  B  B20  1  0.500000  0.791734  0.265788  1
  B  B21  1  0.500000  0.208266  0.734212  1
  B  B22  1  0.500000  0.292575  0.234181  1
  B  B23  1  0.500000  0.707425  0.765819  1
  B  B24  1  0.500000  0.630654  0.185231  1
  B  B25  1  0.500000  0.369346  0.814769  1
  B  B26  1  0.500000  0.131587  0.314762  1
  B  B27  1  0.500000  0.868413  0.685238  1
  B  B28  1  0.500000  0.982176  0.212903  1
  B  B29  1  0.500000  0.017824  0.787097  1
  B  B30  1  0.500000  0.482539  0.286402  1
  B  B31  1  0.500000  0.517461  0.713598  1
  B  B32  1  0.500000  0.602321  0.028564  1
  B  B33  1  0.500000  0.397679  0.971436  1
  B  B34  1  0.500000  0.107711  0.470298  1
  B  B35  1  0.500000  0.892289  0.529702  1
