# generated using pymatgen
data_YbCe(CuSe)6
_symmetry_space_group_name_H-M   'P 1'
_cell_length_a   7.83688789
_cell_length_b   7.83688704
_cell_length_c   7.83688595
_cell_angle_alpha   53.28399813
_cell_angle_beta   53.28400090
_cell_angle_gamma   53.28400593
_symmetry_Int_Tables_number   1
_chemical_formula_structural   YbCe(CuSe)6
_chemical_formula_sum   'Yb1 Ce1 Cu6 Se6'
_cell_volume   286.81786898
_cell_formula_units_Z   1
loop_
 _symmetry_equiv_pos_site_id
 _symmetry_equiv_pos_as_xyz
  1  'x, y, z'
loop_
 _atom_site_type_symbol
 _atom_site_label
 _atom_site_symmetry_multiplicity
 _atom_site_fract_x
 _atom_site_fract_y
 _atom_site_fract_z
 _atom_site_occupancy
  Yb  Yb0  1  0.333671  0.333671  0.333671  1
  Ce  Ce1  1  0.666594  0.666594  0.666594  1
  Cu  Cu2  1  0.872118  0.532798  0.221668  1
  Cu  Cu3  1  0.532798  0.221668  0.872118  1
  Cu  Cu4  1  0.221668  0.872118  0.532798  1
  Cu  Cu5  1  0.780635  0.123880  0.468707  1
  Cu  Cu6  1  0.468707  0.780635  0.123880  1
  Cu  Cu7  1  0.123880  0.468707  0.780635  1
  Se  Se8  1  0.081753  0.757717  0.412533  1
  Se  Se9  1  0.412533  0.081753  0.757717  1
  Se  Se10  1  0.757717  0.412533  0.081753  1
  Se  Se11  1  0.243792  0.588236  0.915899  1
  Se  Se12  1  0.588236  0.915899  0.243792  1
  Se  Se13  1  0.915899  0.243792  0.588236  1
