# generated using pymatgen
data_CaYb4MoN5
_symmetry_space_group_name_H-M   'P 1'
_cell_length_a   6.85164451
_cell_length_b   6.84543902
_cell_length_c   8.83994797
_cell_angle_alpha   79.92315632
_cell_angle_beta   79.82721250
_cell_angle_gamma   59.55166231
_symmetry_Int_Tables_number   1
_chemical_formula_structural   CaYb4MoN5
_chemical_formula_sum   'Ca2 Yb8 Mo2 N10'
_cell_volume   350.02651887
_cell_formula_units_Z   2
loop_
 _symmetry_equiv_pos_site_id
 _symmetry_equiv_pos_as_xyz
  1  'x, y, z'
loop_
 _atom_site_type_symbol
 _atom_site_label
 _atom_site_symmetry_multiplicity
 _atom_site_fract_x
 _atom_site_fract_y
 _atom_site_fract_z
 _atom_site_occupancy
  Ca  Ca0  1  0.138679  0.139355  0.161379  1
  Ca  Ca1  1  0.133812  0.637008  0.156630  1
  Yb  Yb2  1  0.872824  0.349618  0.833824  1
  Yb  Yb3  1  0.871098  0.872616  0.827863  1
  Yb  Yb4  1  0.739224  0.739294  0.520152  1
  Yb  Yb5  1  0.757354  0.246099  0.505750  1
  Yb  Yb6  1  0.632251  0.136420  0.156309  1
  Yb  Yb7  1  0.349378  0.873707  0.833569  1
  Yb  Yb8  1  0.247000  0.756784  0.506197  1
  Yb  Yb9  1  0.246128  0.245983  0.492595  1
  Mo  Mo10  1  0.631645  0.630729  0.221277  1
  Mo  Mo11  1  0.368707  0.368105  0.776031  1
  N  N12  1  0.909201  0.469882  0.321632  1
  N  N13  1  0.996248  0.999862  0.011195  1
  N  N14  1  0.677255  0.677198  0.006348  1
  N  N15  1  0.530885  0.531087  0.691865  1
  N  N16  1  0.471537  0.909565  0.320858  1
  N  N17  1  0.532441  0.089726  0.682009  1
  N  N18  1  0.472497  0.468181  0.299216  1
  N  N19  1  0.328792  0.323697  0.991749  1
  N  N20  1  0.065152  0.065050  0.646669  1
  N  N21  1  0.090177  0.532320  0.682690  1
