# generated using pymatgen
data_Sm2DyY(B6Ru)2
_symmetry_space_group_name_H-M   'P 1'
_cell_length_a   3.69762200
_cell_length_b   9.20187800
_cell_length_c   11.59802900
_cell_angle_alpha   89.99871022
_cell_angle_beta   90.00000000
_cell_angle_gamma   90.00000000
_symmetry_Int_Tables_number   1
_chemical_formula_structural   Sm2DyY(B6Ru)2
_chemical_formula_sum   'Sm4 Dy2 Y2 B24 Ru4'
_cell_volume   394.62370834
_cell_formula_units_Z   2
loop_
 _symmetry_equiv_pos_site_id
 _symmetry_equiv_pos_as_xyz
  1  'x, y, z'
loop_
 _atom_site_type_symbol
 _atom_site_label
 _atom_site_symmetry_multiplicity
 _atom_site_fract_x
 _atom_site_fract_y
 _atom_site_fract_z
 _atom_site_occupancy
  Sm  Sm0  1  0.000000  0.323303  0.414019  1
  Sm  Sm1  1  0.000000  0.676697  0.585981  1
  Sm  Sm2  1  0.000000  0.823151  0.085901  1
  Sm  Sm3  1  0.000000  0.176849  0.914099  1
  Dy  Dy4  1  0.000000  0.443932  0.128145  1
  Dy  Dy5  1  0.000000  0.556068  0.871855  1
  Y  Y6  1  0.000000  0.944007  0.372004  1
  Y  Y7  1  0.000000  0.055993  0.627996  1
  B  B8  1  0.500000  0.555368  0.431650  1
  B  B9  1  0.500000  0.444632  0.568350  1
  B  B10  1  0.500000  0.055374  0.068344  1
  B  B11  1  0.500000  0.944626  0.931656  1
  B  B12  1  0.500000  0.748541  0.418507  1
  B  B13  1  0.500000  0.251459  0.581493  1
  B  B14  1  0.500000  0.248720  0.081491  1
  B  B15  1  0.500000  0.751280  0.918509  1
  B  B16  1  0.500000  0.790544  0.266585  1
  B  B17  1  0.500000  0.209456  0.733415  1
  B  B18  1  0.500000  0.290624  0.233291  1
  B  B19  1  0.500000  0.709376  0.766709  1
  B  B20  1  0.500000  0.631489  0.185204  1
  B  B21  1  0.500000  0.368511  0.814796  1
  B  B22  1  0.500000  0.131645  0.314684  1
  B  B23  1  0.500000  0.868355  0.685316  1
  B  B24  1  0.500000  0.985273  0.213260  1
  B  B25  1  0.500000  0.014727  0.786740  1
  B  B26  1  0.500000  0.485282  0.286599  1
  B  B27  1  0.500000  0.514718  0.713401  1
  B  B28  1  0.500000  0.606109  0.029133  1
  B  B29  1  0.500000  0.393891  0.970867  1
  B  B30  1  0.500000  0.106352  0.470817  1
  B  B31  1  0.500000  0.893648  0.529183  1
  Ru  Ru32  1  0.000000  0.638807  0.320366  1
  Ru  Ru33  1  0.000000  0.361193  0.679634  1
  Ru  Ru34  1  0.000000  0.139004  0.179564  1
  Ru  Ru35  1  0.000000  0.860996  0.820436  1
