# generated using pymatgen
data_Dy13Tm3InAg3Rh4
_symmetry_space_group_name_H-M   'P 1'
_cell_length_a   9.50005833
_cell_length_b   9.50005879
_cell_length_c   9.50733818
_cell_angle_alpha   60.39170047
_cell_angle_beta   60.39170151
_cell_angle_gamma   60.41311633
_symmetry_Int_Tables_number   1
_chemical_formula_structural   Dy13Tm3InAg3Rh4
_chemical_formula_sum   'Dy13 Tm3 In1 Ag3 Rh4'
_cell_volume   612.20390941
_cell_formula_units_Z   1
loop_
 _symmetry_equiv_pos_site_id
 _symmetry_equiv_pos_as_xyz
  1  'x, y, z'
loop_
 _atom_site_type_symbol
 _atom_site_label
 _atom_site_symmetry_multiplicity
 _atom_site_fract_x
 _atom_site_fract_y
 _atom_site_fract_z
 _atom_site_occupancy
  Dy  Dy0  1  0.935526  0.935526  0.559730  1
  Dy  Dy1  1  0.148300  0.148300  0.554373  1
  Dy  Dy2  1  0.563724  0.936068  0.562178  1
  Dy  Dy3  1  0.147113  0.147113  0.148331  1
  Dy  Dy4  1  0.313370  0.313370  0.687354  1
  Dy  Dy5  1  0.936068  0.563724  0.562178  1
  Dy  Dy6  1  0.562579  0.562579  0.937533  1
  Dy  Dy7  1  0.560293  0.934701  0.936528  1
  Dy  Dy8  1  0.934701  0.560293  0.936528  1
  Dy  Dy9  1  0.147198  0.556017  0.148830  1
  Dy  Dy10  1  0.311216  0.689481  0.688638  1
  Dy  Dy11  1  0.689481  0.311216  0.688638  1
  Dy  Dy12  1  0.556017  0.147198  0.148830  1
  Tm  Tm13  1  0.687216  0.314646  0.312914  1
  Tm  Tm14  1  0.688676  0.688676  0.310292  1
  Tm  Tm15  1  0.314646  0.687216  0.312914  1
  In  In16  1  0.920954  0.920954  0.920887  1
  Ag  Ag17  1  0.917228  0.917228  0.248937  1
  Ag  Ag18  1  0.248864  0.917116  0.917488  1
  Ag  Ag19  1  0.917116  0.248864  0.917488  1
  Rh  Rh20  1  0.358088  0.358088  0.356845  1
  Rh  Rh21  1  0.928478  0.357216  0.355824  1
  Rh  Rh22  1  0.355934  0.355934  0.930921  1
  Rh  Rh23  1  0.357216  0.928478  0.355824  1
