# generated using pymatgen
data_Er10Tm2InCo4Ir
_symmetry_space_group_name_H-M   'P 1'
_cell_length_a   8.20848767
_cell_length_b   8.21169540
_cell_length_c   8.20848733
_cell_angle_alpha   111.24495665
_cell_angle_beta   110.79826814
_cell_angle_gamma   106.39831707
_symmetry_Int_Tables_number   1
_chemical_formula_structural   Er10Tm2InCo4Ir
_chemical_formula_sum   'Er10 Tm2 In1 Co4 Ir1'
_cell_volume   425.09308592
_cell_formula_units_Z   1
loop_
 _symmetry_equiv_pos_site_id
 _symmetry_equiv_pos_as_xyz
  1  'x, y, z'
loop_
 _atom_site_type_symbol
 _atom_site_label
 _atom_site_symmetry_multiplicity
 _atom_site_fract_x
 _atom_site_fract_y
 _atom_site_fract_z
 _atom_site_occupancy
  Er  Er0  1  0.413072  0.218258  0.194032  1
  Er  Er1  1  0.586928  0.781742  0.805968  1
  Er  Er2  1  0.024227  0.218258  0.805186  1
  Er  Er3  1  0.975773  0.781742  0.194814  1
  Er  Er4  1  0.182998  0.284341  0.468276  1
  Er  Er5  1  0.817002  0.715659  0.531724  1
  Er  Er6  1  0.183936  0.715659  0.898658  1
  Er  Er7  1  0.816064  0.284341  0.101342  1
  Er  Er8  1  0.315097  0.620862  0.305765  1
  Er  Er9  1  0.684903  0.379138  0.694235  1
  Tm  Tm10  1  0.315598  0.009140  0.693541  1
  Tm  Tm11  1  0.684402  0.990860  0.306459  1
  In  In12  1  0.500000  0.500000  0.000000  1
  Co  Co13  1  0.376742  0.000000  0.376742  1
  Co  Co14  1  0.623258  0.000000  0.623258  1
  Co  Co15  1  0.112219  0.612430  0.500211  1
  Co  Co16  1  0.887781  0.387570  0.499789  1
  Ir  Ir17  1  0.000000  0.000000  0.000000  1
