# generated using pymatgen
data_Sr2Mn2NiN3
_symmetry_space_group_name_H-M   'P 1'
_cell_length_a   6.50091589
_cell_length_b   6.50091599
_cell_length_c   6.41234181
_cell_angle_alpha   87.74266596
_cell_angle_beta   87.74266044
_cell_angle_gamma   117.21700205
_symmetry_Int_Tables_number   1
_chemical_formula_structural   Sr2Mn2NiN3
_chemical_formula_sum   'Sr4 Mn4 Ni2 N6'
_cell_volume   240.30312760
_cell_formula_units_Z   2
loop_
 _symmetry_equiv_pos_site_id
 _symmetry_equiv_pos_as_xyz
  1  'x, y, z'
loop_
 _atom_site_type_symbol
 _atom_site_label
 _atom_site_symmetry_multiplicity
 _atom_site_fract_x
 _atom_site_fract_y
 _atom_site_fract_z
 _atom_site_occupancy
  Sr  Sr0  1  0.838853  0.678278  0.898576  1
  Sr  Sr1  1  0.321722  0.161147  0.601424  1
  Sr  Sr2  1  0.161147  0.321722  0.101424  1
  Sr  Sr3  1  0.678278  0.838853  0.398576  1
  Mn  Mn4  1  0.554821  0.161993  0.103715  1
  Mn  Mn5  1  0.445179  0.838007  0.896285  1
  Mn  Mn6  1  0.838007  0.445179  0.396285  1
  Mn  Mn7  1  0.161993  0.554821  0.603715  1
  Ni  Ni8  1  0.807667  0.192333  0.750000  1
  Ni  Ni9  1  0.192333  0.807667  0.250000  1
  N  N10  1  0.402597  0.597403  0.750000  1
  N  N11  1  0.597403  0.402597  0.250000  1
  N  N12  1  0.016211  0.726786  0.506545  1
  N  N13  1  0.726786  0.016211  0.006545  1
  N  N14  1  0.983789  0.273214  0.493455  1
  N  N15  1  0.273214  0.983789  0.993455  1
