# generated using pymatgen
data_Sr3Ca(GaP)8
_symmetry_space_group_name_H-M   'P 1'
_cell_length_a   3.93533800
_cell_length_b   9.45636965
_cell_length_c   12.22731400
_cell_angle_alpha   95.81632971
_cell_angle_beta   90.00000000
_cell_angle_gamma   90.00000000
_symmetry_Int_Tables_number   1
_chemical_formula_structural   Sr3Ca(GaP)8
_chemical_formula_sum   'Sr3 Ca1 Ga8 P8'
_cell_volume   452.68485395
_cell_formula_units_Z   1
loop_
 _symmetry_equiv_pos_site_id
 _symmetry_equiv_pos_as_xyz
  1  'x, y, z'
loop_
 _atom_site_type_symbol
 _atom_site_label
 _atom_site_symmetry_multiplicity
 _atom_site_fract_x
 _atom_site_fract_y
 _atom_site_fract_z
 _atom_site_occupancy
  Sr  Sr0  1  0.000000  0.196532  0.280285  1
  Sr  Sr1  1  0.000000  0.803468  0.719715  1
  Sr  Sr2  1  0.500000  0.000000  0.000000  1
  Ca  Ca3  1  0.500000  0.500000  0.500000  1
  Ga  Ga4  1  0.500000  0.396574  0.056308  1
  Ga  Ga5  1  0.500000  0.603426  0.943692  1
  Ga  Ga6  1  0.500000  0.885892  0.435084  1
  Ga  Ga7  1  0.500000  0.114108  0.564916  1
  Ga  Ga8  1  0.000000  0.598036  0.280439  1
  Ga  Ga9  1  0.000000  0.401964  0.719561  1
  Ga  Ga10  1  0.000000  0.800936  0.173312  1
  Ga  Ga11  1  0.000000  0.199064  0.826688  1
  P  P12  1  0.500000  0.444546  0.258474  1
  P  P13  1  0.500000  0.555454  0.741526  1
  P  P14  1  0.000000  0.268365  0.536278  1
  P  P15  1  0.000000  0.731635  0.463722  1
  P  P16  1  0.500000  0.941701  0.241244  1
  P  P17  1  0.500000  0.058299  0.758756  1
  P  P18  1  0.000000  0.242682  0.026133  1
  P  P19  1  0.000000  0.757318  0.973867  1
