# generated using pymatgen
data_Zr(Nb3N4)3
_symmetry_space_group_name_H-M   'P 1'
_cell_length_a   5.28671600
_cell_length_b   5.28671482
_cell_length_c   10.50974500
_cell_angle_alpha   90.00000000
_cell_angle_beta   90.00000000
_cell_angle_gamma   120.00000736
_symmetry_Int_Tables_number   1
_chemical_formula_structural   Zr(Nb3N4)3
_chemical_formula_sum   'Zr1 Nb9 N12'
_cell_volume   254.38684172
_cell_formula_units_Z   1
loop_
 _symmetry_equiv_pos_site_id
 _symmetry_equiv_pos_as_xyz
  1  'x, y, z'
loop_
 _atom_site_type_symbol
 _atom_site_label
 _atom_site_symmetry_multiplicity
 _atom_site_fract_x
 _atom_site_fract_y
 _atom_site_fract_z
 _atom_site_occupancy
  Zr  Zr0  1  0.333333  0.666667  0.500000  1
  Nb  Nb1  1  0.666667  0.333333  0.000000  1
  Nb  Nb2  1  0.666667  0.333333  0.500000  1
  Nb  Nb3  1  0.333333  0.666667  0.000000  1
  Nb  Nb4  1  0.675363  0.999394  0.752024  1
  Nb  Nb5  1  0.675363  0.675968  0.247976  1
  Nb  Nb6  1  0.000606  0.324637  0.247976  1
  Nb  Nb7  1  0.000606  0.675968  0.752024  1
  Nb  Nb8  1  0.324032  0.324637  0.752024  1
  Nb  Nb9  1  0.324032  0.999394  0.247976  1
  N  N10  1  0.343962  0.337448  0.374941  1
  N  N11  1  0.662552  0.006514  0.374941  1
  N  N12  1  0.993486  0.656038  0.374941  1
  N  N13  1  0.999901  0.339419  0.878624  1
  N  N14  1  0.660581  0.000099  0.121376  1
  N  N15  1  0.660581  0.660482  0.878624  1
  N  N16  1  0.339518  0.000099  0.878624  1
  N  N17  1  0.662552  0.656038  0.625059  1
  N  N18  1  0.993486  0.337448  0.625059  1
  N  N19  1  0.999901  0.660482  0.121376  1
  N  N20  1  0.343962  0.006514  0.625059  1
  N  N21  1  0.339518  0.339419  0.121376  1
