# generated using pymatgen
data_Ce2ReMoC3
_symmetry_space_group_name_H-M   'P 1'
_cell_length_a   6.28191080
_cell_length_b   6.28191251
_cell_length_c   5.74505470
_cell_angle_alpha   65.76991949
_cell_angle_beta   65.76991514
_cell_angle_gamma   30.89756293
_symmetry_Int_Tables_number   1
_chemical_formula_structural   Ce2ReMoC3
_chemical_formula_sum   'Ce2 Re1 Mo1 C3'
_cell_volume   105.33831187
_cell_formula_units_Z   1
loop_
 _symmetry_equiv_pos_site_id
 _symmetry_equiv_pos_as_xyz
  1  'x, y, z'
loop_
 _atom_site_type_symbol
 _atom_site_label
 _atom_site_symmetry_multiplicity
 _atom_site_fract_x
 _atom_site_fract_y
 _atom_site_fract_z
 _atom_site_occupancy
  Ce  Ce0  1  0.397323  0.397323  0.802278  1
  Ce  Ce1  1  0.603634  0.603634  0.196576  1
  Re  Re2  1  0.840166  0.840166  0.324198  1
  Mo  Mo3  1  0.158108  0.158108  0.676634  1
  C  C4  1  0.997864  0.997864  0.003453  1
  C  C5  1  0.253465  0.253465  0.260102  1
  C  C6  1  0.749441  0.749441  0.736759  1
