# generated using pymatgen
data_NdSmFe4(CoB2)4
_symmetry_space_group_name_H-M   'P 1'
_cell_length_a   7.03396203
_cell_length_b   7.02898503
_cell_length_c   3.80263600
_cell_angle_alpha   90.00000000
_cell_angle_beta   90.00000000
_cell_angle_gamma   90.01057672
_symmetry_Int_Tables_number   1
_chemical_formula_structural   NdSmFe4(CoB2)4
_chemical_formula_sum   'Nd1 Sm1 Fe4 Co4 B8'
_cell_volume   188.00845737
_cell_formula_units_Z   1
loop_
 _symmetry_equiv_pos_site_id
 _symmetry_equiv_pos_as_xyz
  1  'x, y, z'
loop_
 _atom_site_type_symbol
 _atom_site_label
 _atom_site_symmetry_multiplicity
 _atom_site_fract_x
 _atom_site_fract_y
 _atom_site_fract_z
 _atom_site_occupancy
  Nd  Nd0  1  0.000000  0.000000  0.999491  1
  Sm  Sm1  1  0.500000  0.500000  0.499405  1
  Fe  Fe2  1  0.386637  0.133740  0.894347  1
  Fe  Fe3  1  0.613363  0.866260  0.894347  1
  Fe  Fe4  1  0.367379  0.886001  0.394167  1
  Fe  Fe5  1  0.632621  0.113999  0.394167  1
  Co  Co6  1  0.115409  0.362006  0.608190  1
  Co  Co7  1  0.884591  0.637994  0.608190  1
  Co  Co8  1  0.139425  0.614666  0.108144  1
  Co  Co9  1  0.860575  0.385334  0.108144  1
  B  B10  1  0.795678  0.662979  0.104362  1
  B  B11  1  0.204322  0.337021  0.104362  1
  B  B12  1  0.835739  0.297574  0.603590  1
  B  B13  1  0.164261  0.702426  0.603590  1
  B  B14  1  0.699164  0.834951  0.394262  1
  B  B15  1  0.300836  0.165049  0.394262  1
  B  B16  1  0.663865  0.201001  0.893492  1
  B  B17  1  0.336135  0.798999  0.893492  1
