# generated using pymatgen
data_LaYNi9Ge
_symmetry_space_group_name_H-M   'P 1'
_cell_length_a   3.98623800
_cell_length_b   5.05620000
_cell_length_c   8.41088000
_cell_angle_alpha   90.00000000
_cell_angle_beta   90.00000000
_cell_angle_gamma   90.00000000
_symmetry_Int_Tables_number   1
_chemical_formula_structural   LaYNi9Ge
_chemical_formula_sum   'La1 Y1 Ni9 Ge1'
_cell_volume   169.52310799
_cell_formula_units_Z   1
loop_
 _symmetry_equiv_pos_site_id
 _symmetry_equiv_pos_as_xyz
  1  'x, y, z'
loop_
 _atom_site_type_symbol
 _atom_site_label
 _atom_site_symmetry_multiplicity
 _atom_site_fract_x
 _atom_site_fract_y
 _atom_site_fract_z
 _atom_site_occupancy
  La  La0  1  0.000000  0.500000  0.000000  1
  Y  Y1  1  0.000000  0.000000  0.500000  1
  Ni  Ni2  1  0.000000  0.500000  0.335873  1
  Ni  Ni3  1  0.000000  0.000000  0.832224  1
  Ni  Ni4  1  0.000000  0.000000  0.167776  1
  Ni  Ni5  1  0.000000  0.500000  0.664127  1
  Ni  Ni6  1  0.500000  0.000000  0.000000  1
  Ni  Ni7  1  0.500000  0.761977  0.258982  1
  Ni  Ni8  1  0.500000  0.238023  0.741018  1
  Ni  Ni9  1  0.500000  0.238023  0.258982  1
  Ni  Ni10  1  0.500000  0.761977  0.741018  1
  Ge  Ge11  1  0.500000  0.500000  0.500000  1
