# generated using pymatgen
data_Nb2VAsC
_symmetry_space_group_name_H-M   'P 1'
_cell_length_a   5.79669225
_cell_length_b   5.79669323
_cell_length_c   7.83704200
_cell_angle_alpha   90.00000000
_cell_angle_beta   90.00000000
_cell_angle_gamma   147.24908951
_symmetry_Int_Tables_number   1
_chemical_formula_structural   Nb2VAsC
_chemical_formula_sum   'Nb4 V2 As2 C2'
_cell_volume   142.46239316
_cell_formula_units_Z   2
loop_
 _symmetry_equiv_pos_site_id
 _symmetry_equiv_pos_as_xyz
  1  'x, y, z'
loop_
 _atom_site_type_symbol
 _atom_site_label
 _atom_site_symmetry_multiplicity
 _atom_site_fract_x
 _atom_site_fract_y
 _atom_site_fract_z
 _atom_site_occupancy
  Nb  Nb0  1  0.874715  0.125285  0.558389  1
  Nb  Nb1  1  0.874715  0.125285  0.941611  1
  Nb  Nb2  1  0.125285  0.874715  0.058389  1
  Nb  Nb3  1  0.125285  0.874715  0.441611  1
  V  V4  1  0.450749  0.549251  0.250000  1
  V  V5  1  0.549251  0.450749  0.750000  1
  As  As6  1  0.770581  0.229419  0.250000  1
  As  As7  1  0.229419  0.770581  0.750000  1
  C  C8  1  0.500000  0.500000  0.500000  1
  C  C9  1  0.500000  0.500000  0.000000  1
