# generated using pymatgen
data_Ho8Mg2ZnSi3B16
_symmetry_space_group_name_H-M   'P 1'
_cell_length_a   7.15832146
_cell_length_b   7.15832146
_cell_length_c   7.82883800
_cell_angle_alpha   90.00000000
_cell_angle_beta   90.00000000
_cell_angle_gamma   89.71942469
_symmetry_Int_Tables_number   1
_chemical_formula_structural   Ho8Mg2ZnSi3B16
_chemical_formula_sum   'Ho8 Mg2 Zn1 Si3 B16'
_cell_volume   401.15710978
_cell_formula_units_Z   1
loop_
 _symmetry_equiv_pos_site_id
 _symmetry_equiv_pos_as_xyz
  1  'x, y, z'
loop_
 _atom_site_type_symbol
 _atom_site_label
 _atom_site_symmetry_multiplicity
 _atom_site_fract_x
 _atom_site_fract_y
 _atom_site_fract_z
 _atom_site_occupancy
  Ho  Ho0  1  0.682847  0.182847  0.233198  1
  Ho  Ho1  1  0.320034  0.820034  0.768879  1
  Ho  Ho2  1  0.320034  0.820034  0.231121  1
  Ho  Ho3  1  0.814304  0.682895  0.231499  1
  Ho  Ho4  1  0.814304  0.682895  0.768501  1
  Ho  Ho5  1  0.682847  0.182847  0.766802  1
  Ho  Ho6  1  0.182895  0.314304  0.768501  1
  Ho  Ho7  1  0.182895  0.314304  0.231499  1
  Mg  Mg8  1  0.000117  0.000401  0.500000  1
  Mg  Mg9  1  0.500401  0.500117  0.500000  1
  Zn  Zn10  1  0.118456  0.618456  0.500000  1
  Si  Si11  1  0.883021  0.383021  0.500000  1
  Si  Si12  1  0.383283  0.116349  0.500000  1
  Si  Si13  1  0.616349  0.883283  0.500000  1
  B  B14  1  0.172876  0.039623  0.000000  1
  B  B15  1  0.826461  0.960555  0.000000  1
  B  B16  1  0.959290  0.173782  0.000000  1
  B  B17  1  0.326906  0.540534  0.000000  1
  B  B18  1  0.040534  0.826906  0.000000  1
  B  B19  1  0.673782  0.459290  0.000000  1
  B  B20  1  0.539623  0.672876  0.000000  1
  B  B21  1  0.460555  0.326461  0.000000  1
  B  B22  1  0.089328  0.589328  0.000000  1
  B  B23  1  0.910805  0.410805  0.000000  1
  B  B24  1  0.410380  0.089485  0.000000  1
  B  B25  1  0.589485  0.910380  0.000000  1
  B  B26  1  0.999655  0.999440  0.163629  1
  B  B27  1  0.999655  0.999440  0.836371  1
  B  B28  1  0.499440  0.499655  0.836371  1
  B  B29  1  0.499440  0.499655  0.163629  1
