# generated using pymatgen
data_Tb5Nd(Ir7Rh2)2
_symmetry_space_group_name_H-M   'P 1'
_cell_length_a   5.32049802
_cell_length_b   5.32037203
_cell_length_c   17.50362200
_cell_angle_alpha   90.00000000
_cell_angle_beta   90.00000000
_cell_angle_gamma   119.99958710
_symmetry_Int_Tables_number   1
_chemical_formula_structural   Tb5Nd(Ir7Rh2)2
_chemical_formula_sum   'Tb5 Nd1 Ir14 Rh4'
_cell_volume   429.09618347
_cell_formula_units_Z   1
loop_
 _symmetry_equiv_pos_site_id
 _symmetry_equiv_pos_as_xyz
  1  'x, y, z'
loop_
 _atom_site_type_symbol
 _atom_site_label
 _atom_site_symmetry_multiplicity
 _atom_site_fract_x
 _atom_site_fract_y
 _atom_site_fract_z
 _atom_site_occupancy
  Tb  Tb0  1  0.333292  0.666608  0.541221  1
  Tb  Tb1  1  0.666644  0.333295  0.040224  1
  Tb  Tb2  1  0.666644  0.333295  0.459776  1
  Tb  Tb3  1  0.333292  0.666608  0.958779  1
  Tb  Tb4  1  0.333295  0.666635  0.750000  1
  Nd  Nd5  1  0.666779  0.333516  0.250000  1
  Ir  Ir6  1  0.167616  0.335212  0.125168  1
  Ir  Ir7  1  0.832463  0.664946  0.626027  1
  Ir  Ir8  1  0.664991  0.832488  0.125275  1
  Ir  Ir9  1  0.167540  0.832473  0.125228  1
  Ir  Ir10  1  0.832438  0.167427  0.626047  1
  Ir  Ir11  1  0.334929  0.167419  0.626049  1
  Ir  Ir12  1  0.832463  0.664946  0.873973  1
  Ir  Ir13  1  0.832438  0.167427  0.873953  1
  Ir  Ir14  1  0.334929  0.167419  0.873951  1
  Ir  Ir15  1  0.664991  0.832488  0.374725  1
  Ir  Ir16  1  0.167540  0.832473  0.374772  1
  Ir  Ir17  1  0.167616  0.335212  0.374832  1
  Ir  Ir18  1  0.999927  0.999926  0.999682  1
  Ir  Ir19  1  0.999927  0.999926  0.500318  1
  Rh  Rh20  1  0.000525  0.000496  0.250000  1
  Rh  Rh21  1  0.999816  0.999800  0.750000  1
  Rh  Rh22  1  0.333295  0.666532  0.250000  1
  Rh  Rh23  1  0.666614  0.333433  0.750000  1
