# generated using pymatgen
data_AcNd2(GaNi2)2
_symmetry_space_group_name_H-M   'P 1'
_cell_length_a   4.20846900
_cell_length_b   5.58393667
_cell_length_c   8.22735043
_cell_angle_alpha   98.39269588
_cell_angle_beta   90.00000000
_cell_angle_gamma   112.13790796
_symmetry_Int_Tables_number   1
_chemical_formula_structural   AcNd2(GaNi2)2
_chemical_formula_sum   'Ac1 Nd2 Ga2 Ni4'
_cell_volume   176.85078117
_cell_formula_units_Z   1
loop_
 _symmetry_equiv_pos_site_id
 _symmetry_equiv_pos_as_xyz
  1  'x, y, z'
loop_
 _atom_site_type_symbol
 _atom_site_label
 _atom_site_symmetry_multiplicity
 _atom_site_fract_x
 _atom_site_fract_y
 _atom_site_fract_z
 _atom_site_occupancy
  Ac  Ac0  1  0.000000  0.000000  0.500000  1
  Nd  Nd1  1  0.623276  0.246551  0.885572  1
  Nd  Nd2  1  0.376724  0.753449  0.114428  1
  Ga  Ga3  1  0.321754  0.643507  0.721024  1
  Ga  Ga4  1  0.678246  0.356493  0.278976  1
  Ni  Ni5  1  0.914721  0.829443  0.866521  1
  Ni  Ni6  1  0.085279  0.170557  0.133479  1
  Ni  Ni7  1  0.739744  0.479488  0.587546  1
  Ni  Ni8  1  0.260256  0.520512  0.412454  1
