# generated using pymatgen
data_Tb3Er13(InNi)4
_symmetry_space_group_name_H-M   'P 1'
_cell_length_a   9.51216228
_cell_length_b   9.51755078
_cell_length_c   9.51755200
_cell_angle_alpha   60.00000271
_cell_angle_beta   59.98126177
_cell_angle_gamma   59.98126373
_symmetry_Int_Tables_number   1
_chemical_formula_structural   Tb3Er13(InNi)4
_chemical_formula_sum   'Tb3 Er13 In4 Ni4'
_cell_volume   609.10430204
_cell_formula_units_Z   1
loop_
 _symmetry_equiv_pos_site_id
 _symmetry_equiv_pos_as_xyz
  1  'x, y, z'
loop_
 _atom_site_type_symbol
 _atom_site_label
 _atom_site_symmetry_multiplicity
 _atom_site_fract_x
 _atom_site_fract_y
 _atom_site_fract_z
 _atom_site_occupancy
  Tb  Tb0  1  0.347788  0.348274  0.348274  1
  Tb  Tb1  1  0.347788  0.348274  0.955667  1
  Tb  Tb2  1  0.347788  0.955667  0.348274  1
  Er  Er3  1  0.956239  0.347921  0.347921  1
  Er  Er4  1  0.812563  0.187707  0.187707  1
  Er  Er5  1  0.187772  0.812384  0.812384  1
  Er  Er6  1  0.187772  0.812384  0.187461  1
  Er  Er7  1  0.812563  0.187707  0.812022  1
  Er  Er8  1  0.187772  0.187461  0.812384  1
  Er  Er9  1  0.812563  0.812022  0.187707  1
  Er  Er10  1  0.937711  0.562121  0.562121  1
  Er  Er11  1  0.562197  0.937807  0.937807  1
  Er  Er12  1  0.562197  0.937807  0.562189  1
  Er  Er13  1  0.937711  0.562121  0.938046  1
  Er  Er14  1  0.562197  0.562189  0.937807  1
  Er  Er15  1  0.937711  0.938046  0.562121  1
  In  In16  1  0.582946  0.582604  0.582604  1
  In  In17  1  0.582946  0.582604  0.251846  1
  In  In18  1  0.582946  0.251846  0.582604  1
  In  In19  1  0.251936  0.582688  0.582688  1
  Ni  Ni20  1  0.141645  0.142422  0.142422  1
  Ni  Ni21  1  0.141645  0.142422  0.573511  1
  Ni  Ni22  1  0.141645  0.573511  0.142422  1
  Ni  Ni23  1  0.573960  0.142013  0.142013  1
