# generated using pymatgen
data_Zr12Al7Cu5O4
_symmetry_space_group_name_H-M   'P 1'
_cell_length_a   8.59204408
_cell_length_b   8.56730018
_cell_length_c   8.59204300
_cell_angle_alpha   59.90421949
_cell_angle_beta   59.99989408
_cell_angle_gamma   59.90419415
_symmetry_Int_Tables_number   1
_chemical_formula_structural   Zr12Al7Cu5O4
_chemical_formula_sum   'Zr12 Al7 Cu5 O4'
_cell_volume   446.57174044
_cell_formula_units_Z   1
loop_
 _symmetry_equiv_pos_site_id
 _symmetry_equiv_pos_as_xyz
  1  'x, y, z'
loop_
 _atom_site_type_symbol
 _atom_site_label
 _atom_site_symmetry_multiplicity
 _atom_site_fract_x
 _atom_site_fract_y
 _atom_site_fract_z
 _atom_site_occupancy
  Zr  Zr0  1  0.936737  0.562291  0.564235  1
  Zr  Zr1  1  0.685773  0.315134  0.685773  1
  Zr  Zr2  1  0.936738  0.562291  0.936738  1
  Zr  Zr3  1  0.559605  0.940331  0.940461  1
  Zr  Zr4  1  0.310184  0.686949  0.310184  1
  Zr  Zr5  1  0.559605  0.940331  0.559605  1
  Zr  Zr6  1  0.692684  0.686950  0.310184  1
  Zr  Zr7  1  0.940461  0.940331  0.559604  1
  Zr  Zr8  1  0.313321  0.315134  0.685774  1
  Zr  Zr9  1  0.685774  0.315134  0.313321  1
  Zr  Zr10  1  0.564235  0.562291  0.936737  1
  Zr  Zr11  1  0.310184  0.686949  0.692683  1
  Al  Al12  1  0.244607  0.918656  0.918368  1
  Al  Al13  1  0.332765  0.323859  0.332765  1
  Al  Al14  1  0.332765  0.323859  0.010611  1
  Al  Al15  1  0.917920  0.246240  0.917918  1
  Al  Al16  1  0.918370  0.918655  0.918370  1
  Al  Al17  1  0.010611  0.323859  0.332765  1
  Al  Al18  1  0.918368  0.918656  0.244607  1
  Cu  Cu19  1  0.331196  0.006413  0.331194  1
  Cu  Cu20  1  0.125850  0.622452  0.125851  1
  Cu  Cu21  1  0.123587  0.124073  0.628758  1
  Cu  Cu22  1  0.628755  0.124069  0.123590  1
  Cu  Cu23  1  0.123575  0.124080  0.123574  1
  O  O24  1  0.625632  0.123104  0.625632  1
  O  O25  1  0.622370  0.629304  0.125957  1
  O  O26  1  0.125957  0.629304  0.622370  1
  O  O27  1  0.622370  0.629304  0.622370  1
