# generated using pymatgen
data_LiHoB14
_symmetry_space_group_name_H-M   'P 1'
_cell_length_a   7.24930001
_cell_length_b   7.24929833
_cell_length_c   7.24929974
_cell_angle_alpha   132.19581898
_cell_angle_beta   110.92902241
_cell_angle_gamma   88.34520072
_symmetry_Int_Tables_number   1
_chemical_formula_structural   LiHoB14
_chemical_formula_sum   'Li2 Ho2 B28'
_cell_volume   251.05953277
_cell_formula_units_Z   2
loop_
 _symmetry_equiv_pos_site_id
 _symmetry_equiv_pos_as_xyz
  1  'x, y, z'
loop_
 _atom_site_type_symbol
 _atom_site_label
 _atom_site_symmetry_multiplicity
 _atom_site_fract_x
 _atom_site_fract_y
 _atom_site_fract_z
 _atom_site_occupancy
  Li  Li0  1  0.000000  0.500000  0.000000  1
  Li  Li1  1  0.000000  0.000000  0.500000  1
  Ho  Ho2  1  0.379268  0.750000  0.629268  1
  Ho  Ho3  1  0.620732  0.250000  0.370732  1
  B  B4  1  0.978396  0.350444  0.627953  1
  B  B5  1  0.626606  0.330129  0.796374  1
  B  B6  1  0.806469  0.834032  0.972436  1
  B  B7  1  0.638403  0.665968  0.972436  1
  B  B8  1  0.193531  0.165968  0.027564  1
  B  B9  1  0.780625  0.782718  0.681435  1
  B  B10  1  0.966245  0.669767  0.796374  1
  B  B11  1  0.021604  0.649556  0.372047  1
  B  B12  1  0.966245  0.169871  0.296478  1
  B  B13  1  0.033755  0.830129  0.703522  1
  B  B14  1  0.361597  0.334032  0.027564  1
  B  B15  1  0.084244  0.910831  0.173413  1
  B  B16  1  0.626606  0.830233  0.296478  1
  B  B17  1  0.398717  0.717282  0.997907  1
  B  B18  1  0.237418  0.410831  0.826587  1
  B  B19  1  0.219375  0.217282  0.318565  1
  B  B20  1  0.222490  0.850444  0.372047  1
  B  B21  1  0.915756  0.089169  0.826587  1
  B  B22  1  0.398717  0.400810  0.681435  1
  B  B23  1  0.219375  0.900810  0.002093  1
  B  B24  1  0.780625  0.099190  0.997907  1
  B  B25  1  0.601283  0.282718  0.002093  1
  B  B26  1  0.601283  0.599190  0.318565  1
  B  B27  1  0.033755  0.330233  0.203626  1
  B  B28  1  0.762582  0.589169  0.173413  1
  B  B29  1  0.777510  0.149556  0.627953  1
  B  B30  1  0.373394  0.169767  0.703522  1
  B  B31  1  0.373394  0.669871  0.203626  1
