# generated using pymatgen
data_Th3Ag3PtAu2
_symmetry_space_group_name_H-M   'P 1'
_cell_length_a   7.92516700
_cell_length_b   7.92516593
_cell_length_c   3.83697400
_cell_angle_alpha   90.00000000
_cell_angle_beta   90.00000000
_cell_angle_gamma   120.00000031
_symmetry_Int_Tables_number   1
_chemical_formula_structural   Th3Ag3PtAu2
_chemical_formula_sum   'Th3 Ag3 Pt1 Au2'
_cell_volume   208.70664311
_cell_formula_units_Z   1
loop_
 _symmetry_equiv_pos_site_id
 _symmetry_equiv_pos_as_xyz
  1  'x, y, z'
loop_
 _atom_site_type_symbol
 _atom_site_label
 _atom_site_symmetry_multiplicity
 _atom_site_fract_x
 _atom_site_fract_y
 _atom_site_fract_z
 _atom_site_occupancy
  Th  Th0  1  0.393451  0.405998  0.500000  1
  Th  Th1  1  0.594002  0.987452  0.500000  1
  Th  Th2  1  0.012548  0.606549  0.500000  1
  Ag  Ag3  1  0.734371  0.730567  0.000000  1
  Ag  Ag4  1  0.269433  0.003803  0.000000  1
  Ag  Ag5  1  0.996197  0.265629  0.000000  1
  Pt  Pt6  1  0.333333  0.666667  0.000000  1
  Au  Au7  1  0.666667  0.333333  0.000000  1
  Au  Au8  1  0.000000  0.000000  0.500000  1
