# generated using pymatgen
data_Tb5Nd2Y(WO6)4
_symmetry_space_group_name_H-M   'P 1'
_cell_length_a   5.46613701
_cell_length_b   7.79455461
_cell_length_c   11.58970204
_cell_angle_alpha   75.57903404
_cell_angle_beta   90.00263543
_cell_angle_gamma   90.00788295
_symmetry_Int_Tables_number   1
_chemical_formula_structural   Tb5Nd2Y(WO6)4
_chemical_formula_sum   'Tb5 Nd2 Y1 W4 O24'
_cell_volume   478.23368674
_cell_formula_units_Z   1
loop_
 _symmetry_equiv_pos_site_id
 _symmetry_equiv_pos_as_xyz
  1  'x, y, z'
loop_
 _atom_site_type_symbol
 _atom_site_label
 _atom_site_symmetry_multiplicity
 _atom_site_fract_x
 _atom_site_fract_y
 _atom_site_fract_z
 _atom_site_occupancy
  Tb  Tb0  1  0.186714  0.796591  0.076922  1
  Tb  Tb1  1  0.259009  0.999971  0.749937  1
  Tb  Tb2  1  0.740971  0.999980  0.250059  1
  Tb  Tb3  1  0.186687  0.203345  0.423106  1
  Tb  Tb4  1  0.813269  0.203416  0.923080  1
  Nd  Nd5  1  0.315122  0.500072  0.749941  1
  Nd  Nd6  1  0.684891  0.499998  0.250008  1
  Y  Y7  1  0.813187  0.796387  0.577108  1
  W  W8  1  0.746175  0.726715  0.884602  1
  W  W9  1  0.253904  0.726735  0.384685  1
  W  W10  1  0.746094  0.273340  0.615351  1
  W  W11  1  0.253876  0.273293  0.115374  1
  O  O12  1  0.852389  0.359814  0.454460  1
  O  O13  1  0.469291  0.846612  0.930306  1
  O  O14  1  0.852374  0.640185  0.045532  1
  O  O15  1  0.013703  0.283460  0.729046  1
  O  O16  1  0.986309  0.283513  0.229084  1
  O  O17  1  0.147632  0.359831  0.954449  1
  O  O18  1  0.647868  0.493679  0.887493  1
  O  O19  1  0.530712  0.153338  0.069628  1
  O  O20  1  0.147282  0.640329  0.545550  1
  O  O21  1  0.013662  0.716528  0.770831  1
  O  O22  1  0.455869  0.207079  0.271915  1
  O  O23  1  0.043173  0.939994  0.395675  1
  O  O24  1  0.469209  0.153445  0.569630  1
  O  O25  1  0.986358  0.716492  0.270906  1
  O  O26  1  0.956534  0.059679  0.604335  1
  O  O27  1  0.544109  0.207111  0.771904  1
  O  O28  1  0.544356  0.793026  0.727866  1
  O  O29  1  0.043222  0.059971  0.104364  1
  O  O30  1  0.648058  0.506511  0.612467  1
  O  O31  1  0.352122  0.506349  0.112512  1
  O  O32  1  0.455869  0.792943  0.228120  1
  O  O33  1  0.352071  0.493703  0.387531  1
  O  O34  1  0.531127  0.846559  0.430573  1
  O  O35  1  0.956804  0.940006  0.895649  1
