# generated using pymatgen
data_Sc2TaBe2Rh5
_symmetry_space_group_name_H-M   'P 1'
_cell_length_a   9.55679000
_cell_length_b   9.55679000
_cell_length_c   3.17952500
_cell_angle_alpha   90.00000000
_cell_angle_beta   90.00000000
_cell_angle_gamma   90.00000000
_symmetry_Int_Tables_number   1
_chemical_formula_structural   Sc2TaBe2Rh5
_chemical_formula_sum   'Sc4 Ta2 Be4 Rh10'
_cell_volume   290.39312482
_cell_formula_units_Z   2
loop_
 _symmetry_equiv_pos_site_id
 _symmetry_equiv_pos_as_xyz
  1  'x, y, z'
loop_
 _atom_site_type_symbol
 _atom_site_label
 _atom_site_symmetry_multiplicity
 _atom_site_fract_x
 _atom_site_fract_y
 _atom_site_fract_z
 _atom_site_occupancy
  Sc  Sc0  1  0.826053  0.326053  0.000000  1
  Sc  Sc1  1  0.326053  0.173947  0.000000  1
  Sc  Sc2  1  0.673947  0.826053  0.000000  1
  Sc  Sc3  1  0.173947  0.673947  0.000000  1
  Ta  Ta4  1  0.000000  0.000000  0.000000  1
  Ta  Ta5  1  0.500000  0.500000  0.000000  1
  Be  Be6  1  0.621573  0.121573  0.000000  1
  Be  Be7  1  0.121573  0.378427  0.000000  1
  Be  Be8  1  0.878427  0.621573  0.000000  1
  Be  Be9  1  0.378427  0.878427  0.000000  1
  Rh  Rh10  1  0.070373  0.211514  0.500000  1
  Rh  Rh11  1  0.211514  0.929627  0.500000  1
  Rh  Rh12  1  0.788486  0.070373  0.500000  1
  Rh  Rh13  1  0.929627  0.788486  0.500000  1
  Rh  Rh14  1  0.429627  0.711514  0.500000  1
  Rh  Rh15  1  0.570373  0.288486  0.500000  1
  Rh  Rh16  1  0.711514  0.570373  0.500000  1
  Rh  Rh17  1  0.288486  0.429627  0.500000  1
  Rh  Rh18  1  0.500000  0.000000  0.500000  1
  Rh  Rh19  1  0.000000  0.500000  0.500000  1
