# generated using pymatgen
data_Ce3Er13Zn3GaCo4
_symmetry_space_group_name_H-M   'P 1'
_cell_length_a   9.26293511
_cell_length_b   9.29943948
_cell_length_c   9.29943900
_cell_angle_alpha   60.00000527
_cell_angle_beta   59.86955528
_cell_angle_gamma   59.86955377
_symmetry_Int_Tables_number   1
_chemical_formula_structural   Ce3Er13Zn3GaCo4
_chemical_formula_sum   'Ce3 Er13 Zn3 Ga1 Co4'
_cell_volume   565.31180281
_cell_formula_units_Z   1
loop_
 _symmetry_equiv_pos_site_id
 _symmetry_equiv_pos_as_xyz
  1  'x, y, z'
loop_
 _atom_site_type_symbol
 _atom_site_label
 _atom_site_symmetry_multiplicity
 _atom_site_fract_x
 _atom_site_fract_y
 _atom_site_fract_z
 _atom_site_occupancy
  Ce  Ce0  1  0.592250  0.598575  0.598575  1
  Ce  Ce1  1  0.592250  0.598575  0.210598  1
  Ce  Ce2  1  0.592250  0.210598  0.598575  1
  Er  Er3  1  0.192645  0.602452  0.602452  1
  Er  Er4  1  0.061039  0.439614  0.439614  1
  Er  Er5  1  0.441267  0.059384  0.059384  1
  Er  Er6  1  0.441267  0.059384  0.439966  1
  Er  Er7  1  0.061039  0.439614  0.059730  1
  Er  Er8  1  0.441267  0.439966  0.059384  1
  Er  Er9  1  0.061039  0.059730  0.439614  1
  Er  Er10  1  0.184909  0.814847  0.814847  1
  Er  Er11  1  0.810746  0.188114  0.188114  1
  Er  Er12  1  0.810746  0.188114  0.813028  1
  Er  Er13  1  0.184909  0.814847  0.185400  1
  Er  Er14  1  0.810746  0.813028  0.188114  1
  Er  Er15  1  0.184909  0.185400  0.814847  1
  Zn  Zn16  1  0.830883  0.828591  0.828591  1
  Zn  Zn17  1  0.830883  0.828591  0.511934  1
  Zn  Zn18  1  0.830883  0.511934  0.828591  1
  Ga  Ga19  1  0.515366  0.828211  0.828211  1
  Co  Co20  1  0.404848  0.389605  0.389605  1
  Co  Co21  1  0.404848  0.389605  0.815943  1
  Co  Co22  1  0.404848  0.815943  0.389605  1
  Co  Co23  1  0.814161  0.395280  0.395280  1
