# generated using pymatgen
data_Hf8In4OsAu7
_symmetry_space_group_name_H-M   'P 1'
_cell_length_a   7.59373529
_cell_length_b   7.59373637
_cell_length_c   7.03233600
_cell_angle_alpha   90.31447949
_cell_angle_beta   90.31447467
_cell_angle_gamma   90.16135481
_symmetry_Int_Tables_number   1
_chemical_formula_structural   Hf8In4OsAu7
_chemical_formula_sum   'Hf8 In4 Os1 Au7'
_cell_volume   405.50455743
_cell_formula_units_Z   1
loop_
 _symmetry_equiv_pos_site_id
 _symmetry_equiv_pos_as_xyz
  1  'x, y, z'
loop_
 _atom_site_type_symbol
 _atom_site_label
 _atom_site_symmetry_multiplicity
 _atom_site_fract_x
 _atom_site_fract_y
 _atom_site_fract_z
 _atom_site_occupancy
  Hf  Hf0  1  0.156152  0.156152  0.013073  1
  Hf  Hf1  1  0.858595  0.858595  0.995018  1
  Hf  Hf2  1  0.632485  0.345575  0.485904  1
  Hf  Hf3  1  0.345575  0.632485  0.485904  1
  Hf  Hf4  1  0.677485  0.308065  0.009181  1
  Hf  Hf5  1  0.308065  0.677485  0.009181  1
  Hf  Hf6  1  0.809552  0.809552  0.499469  1
  Hf  Hf7  1  0.199519  0.199519  0.491248  1
  In  In8  1  0.499675  0.002576  0.246934  1
  In  In9  1  0.498875  0.996145  0.749359  1
  In  In10  1  0.002576  0.499675  0.246934  1
  In  In11  1  0.996145  0.498875  0.749359  1
  Os  Os12  1  0.372122  0.372122  0.222988  1
  Au  Au13  1  0.630935  0.630935  0.784610  1
  Au  Au14  1  0.637130  0.637130  0.203543  1
  Au  Au15  1  0.870047  0.133884  0.712159  1
  Au  Au16  1  0.871036  0.130786  0.293122  1
  Au  Au17  1  0.369358  0.369358  0.796734  1
  Au  Au18  1  0.130786  0.871036  0.293122  1
  Au  Au19  1  0.133884  0.870047  0.712159  1
