# generated using pymatgen
data_YTm15MgIn3Pd4
_symmetry_space_group_name_H-M   'P 1'
_cell_length_a   9.67548387
_cell_length_b   9.65209133
_cell_length_c   9.65877400
_cell_angle_alpha   59.97709445
_cell_angle_beta   60.05711334
_cell_angle_gamma   60.05833931
_symmetry_Int_Tables_number   1
_chemical_formula_structural   YTm15MgIn3Pd4
_chemical_formula_sum   'Y1 Tm15 Mg1 In3 Pd4'
_cell_volume   638.26957172
_cell_formula_units_Z   1
loop_
 _symmetry_equiv_pos_site_id
 _symmetry_equiv_pos_as_xyz
  1  'x, y, z'
loop_
 _atom_site_type_symbol
 _atom_site_label
 _atom_site_symmetry_multiplicity
 _atom_site_fract_x
 _atom_site_fract_y
 _atom_site_fract_z
 _atom_site_occupancy
  Y  Y0  1  0.935154  0.934113  0.565366  1
  Tm  Tm1  1  0.351859  0.351017  0.351257  1
  Tm  Tm2  1  0.351859  0.351017  0.945868  1
  Tm  Tm3  1  0.352434  0.945378  0.351095  1
  Tm  Tm4  1  0.942728  0.352646  0.352313  1
  Tm  Tm5  1  0.809266  0.190592  0.189596  1
  Tm  Tm6  1  0.187510  0.812142  0.812407  1
  Tm  Tm7  1  0.187510  0.812142  0.187943  1
  Tm  Tm8  1  0.809266  0.190592  0.810546  1
  Tm  Tm9  1  0.187034  0.188321  0.812323  1
  Tm  Tm10  1  0.809580  0.810356  0.190032  1
  Tm  Tm11  1  0.935168  0.564633  0.565289  1
  Tm  Tm12  1  0.564319  0.935514  0.936010  1
  Tm  Tm13  1  0.564319  0.935514  0.564157  1
  Tm  Tm14  1  0.935168  0.564633  0.934910  1
  Tm  Tm15  1  0.564964  0.564339  0.935347  1
  Mg  Mg16  1  0.265155  0.578335  0.578255  1
  In  In17  1  0.582826  0.583872  0.583941  1
  In  In18  1  0.582826  0.583872  0.249360  1
  In  In19  1  0.582301  0.249942  0.583877  1
  Pd  Pd20  1  0.143533  0.144564  0.143824  1
  Pd  Pd21  1  0.143533  0.144564  0.568080  1
  Pd  Pd22  1  0.143316  0.568102  0.144292  1
  Pd  Pd23  1  0.568370  0.143798  0.143916  1
