# generated using pymatgen
data_DyLu11Co4
_symmetry_space_group_name_H-M   'P 1'
_cell_length_a   6.09517101
_cell_length_b   6.85439810
_cell_length_c   9.14489200
_cell_angle_alpha   90.00000000
_cell_angle_beta   90.00000000
_cell_angle_gamma   89.93454844
_symmetry_Int_Tables_number   1
_chemical_formula_structural   DyLu11Co4
_chemical_formula_sum   'Dy1 Lu11 Co4'
_cell_volume   382.06171160
_cell_formula_units_Z   1
loop_
 _symmetry_equiv_pos_site_id
 _symmetry_equiv_pos_as_xyz
  1  'x, y, z'
loop_
 _atom_site_type_symbol
 _atom_site_label
 _atom_site_symmetry_multiplicity
 _atom_site_fract_x
 _atom_site_fract_y
 _atom_site_fract_z
 _atom_site_occupancy
  Dy  Dy0  1  0.635376  0.042035  0.250000  1
  Lu  Lu1  1  0.137523  0.458483  0.750000  1
  Lu  Lu2  1  0.676468  0.325639  0.932834  1
  Lu  Lu3  1  0.363110  0.956819  0.750000  1
  Lu  Lu4  1  0.865485  0.540372  0.250000  1
  Lu  Lu5  1  0.174907  0.175658  0.434773  1
  Lu  Lu6  1  0.824309  0.823305  0.567137  1
  Lu  Lu7  1  0.174907  0.175658  0.065227  1
  Lu  Lu8  1  0.824309  0.823305  0.932863  1
  Lu  Lu9  1  0.676468  0.325639  0.567166  1
  Lu  Lu10  1  0.323651  0.674785  0.066334  1
  Lu  Lu11  1  0.323651  0.674785  0.433666  1
  Co  Co12  1  0.542840  0.613502  0.750000  1
  Co  Co13  1  0.956937  0.113815  0.750000  1
  Co  Co14  1  0.046113  0.886974  0.250000  1
  Co  Co15  1  0.453946  0.389226  0.250000  1
