# generated using pymatgen
data_Nd5Dy5(ThIn10)2
_symmetry_space_group_name_H-M   'P 1'
_cell_length_a   6.67874350
_cell_length_b   10.48619601
_cell_length_c   12.44394200
_cell_angle_alpha   90.26336753
_cell_angle_beta   90.02209048
_cell_angle_gamma   90.08740323
_symmetry_Int_Tables_number   1
_chemical_formula_structural   Nd5Dy5(ThIn10)2
_chemical_formula_sum   'Nd5 Dy5 Th2 In20'
_cell_volume   871.49637907
_cell_formula_units_Z   1
loop_
 _symmetry_equiv_pos_site_id
 _symmetry_equiv_pos_as_xyz
  1  'x, y, z'
loop_
 _atom_site_type_symbol
 _atom_site_label
 _atom_site_symmetry_multiplicity
 _atom_site_fract_x
 _atom_site_fract_y
 _atom_site_fract_z
 _atom_site_occupancy
  Nd  Nd0  1  0.886549  0.488641  0.145516  1
  Nd  Nd1  1  0.613085  0.011180  0.645734  1
  Nd  Nd2  1  0.111833  0.989570  0.853809  1
  Nd  Nd3  1  0.387347  0.511837  0.355837  1
  Nd  Nd4  1  0.111737  0.509972  0.855605  1
  Dy  Dy5  1  0.352542  0.752169  0.059140  1
  Dy  Dy6  1  0.149764  0.753399  0.559137  1
  Dy  Dy7  1  0.648306  0.248248  0.940856  1
  Dy  Dy8  1  0.853511  0.247658  0.441211  1
  Dy  Dy9  1  0.612478  0.488891  0.643034  1
  Th  Th10  1  0.387335  0.989406  0.354624  1
  Th  Th11  1  0.886317  0.009140  0.146304  1
  In  In12  1  0.614292  0.747820  0.508794  1
  In  In13  1  0.883759  0.747684  0.004229  1
  In  In14  1  0.387447  0.252457  0.495084  1
  In  In15  1  0.112434  0.249611  0.995012  1
  In  In16  1  0.653884  0.747275  0.245739  1
  In  In17  1  0.843646  0.745191  0.743174  1
  In  In18  1  0.346244  0.254176  0.754625  1
  In  In19  1  0.154366  0.251617  0.254695  1
  In  In20  1  0.109559  0.748982  0.281246  1
  In  In21  1  0.388200  0.748023  0.782223  1
  In  In22  1  0.885629  0.255415  0.716069  1
  In  In23  1  0.610197  0.250728  0.219128  1
  In  In24  1  0.873143  0.545316  0.406601  1
  In  In25  1  0.628749  0.951407  0.904288  1
  In  In26  1  0.129022  0.050209  0.595862  1
  In  In27  1  0.374051  0.454276  0.094840  1
  In  In28  1  0.131001  0.456599  0.596291  1
  In  In29  1  0.374211  0.047905  0.093838  1
  In  In30  1  0.873641  0.951290  0.406858  1
  In  In31  1  0.625720  0.543906  0.900597  1
