# generated using pymatgen
data_Ce4Si10Tc5Os
_symmetry_space_group_name_H-M   'P 1'
_cell_length_a   8.36766581
_cell_length_b   8.36766577
_cell_length_c   5.74318049
_cell_angle_alpha   69.94603415
_cell_angle_beta   69.94604839
_cell_angle_gamma   95.33673513
_symmetry_Int_Tables_number   1
_chemical_formula_structural   Ce4Si10Tc5Os
_chemical_formula_sum   'Ce4 Si10 Tc5 Os1'
_cell_volume   344.58831527
_cell_formula_units_Z   1
loop_
 _symmetry_equiv_pos_site_id
 _symmetry_equiv_pos_as_xyz
  1  'x, y, z'
loop_
 _atom_site_type_symbol
 _atom_site_label
 _atom_site_symmetry_multiplicity
 _atom_site_fract_x
 _atom_site_fract_y
 _atom_site_fract_z
 _atom_site_occupancy
  Ce  Ce0  1  0.868281  0.601215  0.766490  1
  Ce  Ce1  1  0.398785  0.131719  0.733510  1
  Ce  Ce2  1  0.131717  0.398797  0.235689  1
  Ce  Ce3  1  0.601203  0.868283  0.264311  1
  Si  Si4  1  0.074438  0.265136  0.829898  1
  Si  Si5  1  0.734864  0.925562  0.670102  1
  Si  Si6  1  0.925503  0.734831  0.170057  1
  Si  Si7  1  0.265169  0.074497  0.329943  1
  Si  Si8  1  0.205526  0.794474  0.750000  1
  Si  Si9  1  0.794507  0.205493  0.250000  1
  Si  Si10  1  0.499915  0.500085  0.750000  1
  Si  Si11  1  0.500082  0.499918  0.250000  1
  Si  Si12  1  0.794708  0.205292  0.750000  1
  Si  Si13  1  0.205259  0.794741  0.250000  1
  Tc  Tc14  1  0.261210  0.559915  0.589439  1
  Tc  Tc15  1  0.440085  0.738790  0.910561  1
  Tc  Tc16  1  0.738704  0.439996  0.411271  1
  Tc  Tc17  1  0.560004  0.261296  0.088729  1
  Tc  Tc18  1  0.000336  0.999664  0.750000  1
  Os  Os19  1  0.999704  0.000296  0.250000  1
