# generated using pymatgen
data_Dy8Ti3Re6Si16W3
_symmetry_space_group_name_H-M   'P 1'
_cell_length_a   6.83596989
_cell_length_b   6.83172589
_cell_length_c   12.88091253
_cell_angle_alpha   90.83395613
_cell_angle_beta   89.26142129
_cell_angle_gamma   89.70467122
_symmetry_Int_Tables_number   1
_chemical_formula_structural   Dy8Ti3Re6Si16W3
_chemical_formula_sum   'Dy8 Ti3 Re6 Si16 W3'
_cell_volume   601.43530190
_cell_formula_units_Z   1
loop_
 _symmetry_equiv_pos_site_id
 _symmetry_equiv_pos_as_xyz
  1  'x, y, z'
loop_
 _atom_site_type_symbol
 _atom_site_label
 _atom_site_symmetry_multiplicity
 _atom_site_fract_x
 _atom_site_fract_y
 _atom_site_fract_z
 _atom_site_occupancy
  Dy  Dy0  1  0.998852  0.664205  0.030807  1
  Dy  Dy1  1  0.998220  0.339572  0.528317  1
  Dy  Dy2  1  0.664512  0.999392  0.969938  1
  Dy  Dy3  1  0.170055  0.496824  0.780482  1
  Dy  Dy4  1  0.830276  0.509284  0.283663  1
  Dy  Dy5  1  0.495590  0.169522  0.220046  1
  Dy  Dy6  1  0.508297  0.829205  0.715932  1
  Dy  Dy7  1  0.338983  0.999127  0.471278  1
  Ti  Ti8  1  0.836229  0.160270  0.746727  1
  Ti  Ti9  1  0.161360  0.835576  0.253722  1
  Ti  Ti10  1  0.332999  0.332536  0.000091  1
  Re  Re11  1  0.307563  0.523391  0.366366  1
  Re  Re12  1  0.820572  0.018768  0.364106  1
  Re  Re13  1  0.005487  0.168522  0.122356  1
  Re  Re14  1  0.017441  0.820944  0.636340  1
  Re  Re15  1  0.524292  0.308731  0.632377  1
  Re  Re16  1  0.665384  0.664593  0.499600  1
  Si  Si17  1  0.014959  0.736973  0.444892  1
  Si  Si18  1  0.962969  0.291264  0.935685  1
  Si  Si19  1  0.736344  0.014859  0.555409  1
  Si  Si20  1  0.202689  0.466113  0.183307  1
  Si  Si21  1  0.794811  0.533204  0.686848  1
  Si  Si22  1  0.466964  0.202136  0.815913  1
  Si  Si23  1  0.535254  0.794024  0.314055  1
  Si  Si24  1  0.289777  0.963624  0.064093  1
  Si  Si25  1  0.797798  0.879263  0.181543  1
  Si  Si26  1  0.316059  0.601316  0.560738  1
  Si  Si27  1  0.702522  0.373691  0.067283  1
  Si  Si28  1  0.601316  0.316654  0.438484  1
  Si  Si29  1  0.373928  0.701729  0.933767  1
  Si  Si30  1  0.120408  0.206346  0.315980  1
  Si  Si31  1  0.208328  0.120564  0.683521  1
  Si  Si32  1  0.875041  0.794525  0.818900  1
  W  W33  1  0.164951  0.003962  0.876082  1
  W  W34  1  0.494946  0.665586  0.123873  1
  W  W35  1  0.664826  0.493707  0.877482  1
