# generated using pymatgen
data_ErTmOsC2
_symmetry_space_group_name_H-M   'P 1'
_cell_length_a   5.06242200
_cell_length_b   6.41078100
_cell_length_c   9.67811200
_cell_angle_alpha   90.00000000
_cell_angle_beta   90.00000000
_cell_angle_gamma   90.00000000
_symmetry_Int_Tables_number   1
_chemical_formula_structural   ErTmOsC2
_chemical_formula_sum   'Er4 Tm4 Os4 C8'
_cell_volume   314.09420921
_cell_formula_units_Z   4
loop_
 _symmetry_equiv_pos_site_id
 _symmetry_equiv_pos_as_xyz
  1  'x, y, z'
loop_
 _atom_site_type_symbol
 _atom_site_label
 _atom_site_symmetry_multiplicity
 _atom_site_fract_x
 _atom_site_fract_y
 _atom_site_fract_z
 _atom_site_occupancy
  Er  Er0  1  0.250000  0.528139  0.218200  1
  Er  Er1  1  0.750000  0.471861  0.781800  1
  Er  Er2  1  0.750000  0.971861  0.718200  1
  Er  Er3  1  0.250000  0.028139  0.281800  1
  Tm  Tm4  1  0.250000  0.679774  0.553848  1
  Tm  Tm5  1  0.750000  0.320226  0.446152  1
  Tm  Tm6  1  0.750000  0.820226  0.053848  1
  Tm  Tm7  1  0.250000  0.179774  0.946152  1
  Os  Os8  1  0.250000  0.723126  0.867274  1
  Os  Os9  1  0.750000  0.276874  0.132726  1
  Os  Os10  1  0.750000  0.776874  0.367274  1
  Os  Os11  1  0.250000  0.223126  0.632726  1
  C  C12  1  0.250000  0.458108  0.758508  1
  C  C13  1  0.750000  0.541892  0.241492  1
  C  C14  1  0.750000  0.041892  0.258508  1
  C  C15  1  0.250000  0.958108  0.741492  1
  C  C16  1  0.250000  0.828939  0.056272  1
  C  C17  1  0.750000  0.171061  0.943728  1
  C  C18  1  0.750000  0.671061  0.556272  1
  C  C19  1  0.250000  0.328939  0.443728  1
