# generated using pymatgen
data_YbU3(TcB6)2
_symmetry_space_group_name_H-M   'P 1'
_cell_length_a   3.64392900
_cell_length_b   9.27138797
_cell_length_c   11.37127601
_cell_angle_alpha   89.88684015
_cell_angle_beta   90.00000000
_cell_angle_gamma   90.00000000
_symmetry_Int_Tables_number   1
_chemical_formula_structural   YbU3(TcB6)2
_chemical_formula_sum   'Yb2 U6 Tc4 B24'
_cell_volume   384.16961758
_cell_formula_units_Z   2
loop_
 _symmetry_equiv_pos_site_id
 _symmetry_equiv_pos_as_xyz
  1  'x, y, z'
loop_
 _atom_site_type_symbol
 _atom_site_label
 _atom_site_symmetry_multiplicity
 _atom_site_fract_x
 _atom_site_fract_y
 _atom_site_fract_z
 _atom_site_occupancy
  Yb  Yb0  1  0.000000  0.337902  0.408977  1
  Yb  Yb1  1  0.000000  0.662098  0.591023  1
  U  U2  1  0.000000  0.836626  0.093100  1
  U  U3  1  0.000000  0.163374  0.906900  1
  U  U4  1  0.000000  0.955828  0.396847  1
  U  U5  1  0.000000  0.044172  0.603153  1
  U  U6  1  0.000000  0.457309  0.104571  1
  U  U7  1  0.000000  0.542691  0.895429  1
  Tc  Tc8  1  0.000000  0.648415  0.314523  1
  Tc  Tc9  1  0.000000  0.351585  0.685477  1
  Tc  Tc10  1  0.000000  0.142906  0.177019  1
  Tc  Tc11  1  0.000000  0.857094  0.822981  1
  B  B12  1  0.500000  0.552623  0.430480  1
  B  B13  1  0.500000  0.447377  0.569520  1
  B  B14  1  0.500000  0.049781  0.067441  1
  B  B15  1  0.500000  0.950219  0.932559  1
  B  B16  1  0.500000  0.742398  0.422614  1
  B  B17  1  0.500000  0.257602  0.577386  1
  B  B18  1  0.500000  0.242389  0.076621  1
  B  B19  1  0.500000  0.757611  0.923379  1
  B  B20  1  0.500000  0.803554  0.273442  1
  B  B21  1  0.500000  0.196446  0.726558  1
  B  B22  1  0.500000  0.301356  0.225309  1
  B  B23  1  0.500000  0.698644  0.774691  1
  B  B24  1  0.500000  0.645378  0.187871  1
  B  B25  1  0.500000  0.354622  0.812129  1
  B  B26  1  0.500000  0.144024  0.311128  1
  B  B27  1  0.500000  0.855976  0.688872  1
  B  B28  1  0.500000  0.987444  0.219009  1
  B  B29  1  0.500000  0.012556  0.780991  1
  B  B30  1  0.500000  0.489295  0.281443  1
  B  B31  1  0.500000  0.510705  0.718557  1
  B  B32  1  0.500000  0.643418  0.039165  1
  B  B33  1  0.500000  0.356582  0.960835  1
  B  B34  1  0.500000  0.138369  0.461301  1
  B  B35  1  0.500000  0.861631  0.538699  1
