# generated using pymatgen
data_PdPtCl8
_symmetry_space_group_name_H-M   'P 1'
_cell_length_a   7.50706700
_cell_length_b   6.13941226
_cell_length_c   6.48984890
_cell_angle_alpha   73.06206288
_cell_angle_beta   90.00000000
_cell_angle_gamma   90.00000000
_symmetry_Int_Tables_number   1
_chemical_formula_structural   PdPtCl8
_chemical_formula_sum   'Pd1 Pt1 Cl8'
_cell_volume   286.13536413
_cell_formula_units_Z   1
loop_
 _symmetry_equiv_pos_site_id
 _symmetry_equiv_pos_as_xyz
  1  'x, y, z'
loop_
 _atom_site_type_symbol
 _atom_site_label
 _atom_site_symmetry_multiplicity
 _atom_site_fract_x
 _atom_site_fract_y
 _atom_site_fract_z
 _atom_site_occupancy
  Pd  Pd0  1  0.383301  0.250000  0.500000  1
  Pt  Pt1  1  0.615129  0.750000  0.500000  1
  Cl  Cl2  1  0.613824  0.497277  0.288627  1
  Cl  Cl3  1  0.613824  0.002723  0.711373  1
  Cl  Cl4  1  0.830585  0.963459  0.279404  1
  Cl  Cl5  1  0.830585  0.536541  0.720596  1
  Cl  Cl6  1  0.168936  0.040485  0.722744  1
  Cl  Cl7  1  0.168936  0.459515  0.277256  1
  Cl  Cl8  1  0.387439  0.992280  0.291108  1
  Cl  Cl9  1  0.387439  0.507720  0.708892  1
