# generated using pymatgen
data_Tb2Al4CoGe2
_symmetry_space_group_name_H-M   'P 1'
_cell_length_a   4.14003379
_cell_length_b   4.14005083
_cell_length_c   10.20878964
_cell_angle_alpha   101.80303412
_cell_angle_beta   101.80706436
_cell_angle_gamma   90.02584002
_symmetry_Int_Tables_number   1
_chemical_formula_structural   Tb2Al4CoGe2
_chemical_formula_sum   'Tb2 Al4 Co1 Ge2'
_cell_volume   167.49112570
_cell_formula_units_Z   1
loop_
 _symmetry_equiv_pos_site_id
 _symmetry_equiv_pos_as_xyz
  1  'x, y, z'
loop_
 _atom_site_type_symbol
 _atom_site_label
 _atom_site_symmetry_multiplicity
 _atom_site_fract_x
 _atom_site_fract_y
 _atom_site_fract_z
 _atom_site_occupancy
  Tb  Tb0  1  0.183739  0.183745  0.367554  1
  Tb  Tb1  1  0.816263  0.816255  0.632447  1
  Al  Al2  1  0.566122  0.065173  0.131080  1
  Al  Al3  1  0.065177  0.566125  0.131085  1
  Al  Al4  1  0.934824  0.433877  0.868915  1
  Al  Al5  1  0.433879  0.934828  0.868920  1
  Co  Co6  1  0.000000  0.000000  0.000000  1
  Ge  Ge7  1  0.663416  0.663408  0.326964  1
  Ge  Ge8  1  0.336585  0.336593  0.673035  1
