# generated using pymatgen
data_NdHSO
_symmetry_space_group_name_H-M   'P 1'
_cell_length_a   4.11363800
_cell_length_b   5.63324458
_cell_length_c   6.57996686
_cell_angle_alpha   66.97862494
_cell_angle_beta   90.00000000
_cell_angle_gamma   90.00000000
_symmetry_Int_Tables_number   1
_chemical_formula_structural   NdHSO
_chemical_formula_sum   'Nd2 H2 S2 O2'
_cell_volume   140.33488994
_cell_formula_units_Z   2
loop_
 _symmetry_equiv_pos_site_id
 _symmetry_equiv_pos_as_xyz
  1  'x, y, z'
loop_
 _atom_site_type_symbol
 _atom_site_label
 _atom_site_symmetry_multiplicity
 _atom_site_fract_x
 _atom_site_fract_y
 _atom_site_fract_z
 _atom_site_occupancy
  Nd  Nd0  1  0.205914  0.345531  0.287957  1
  Nd  Nd1  1  0.705914  0.654469  0.712043  1
  H  H2  1  0.703080  0.139752  0.085641  1
  H  H3  1  0.203080  0.860248  0.914359  1
  S  S4  1  0.706266  0.198386  0.625218  1
  S  S5  1  0.206266  0.801614  0.374782  1
  O  O6  1  0.705352  0.314481  0.083394  1
  O  O7  1  0.205352  0.685519  0.916606  1
