# generated using pymatgen
data_Tb2SmFe2Co7P6
_symmetry_space_group_name_H-M   'P 1'
_cell_length_a   3.71246900
_cell_length_b   10.57831200
_cell_length_c   12.15503000
_cell_angle_alpha   90.00000000
_cell_angle_beta   90.00000000
_cell_angle_gamma   90.00000000
_symmetry_Int_Tables_number   1
_chemical_formula_structural   Tb2SmFe2Co7P6
_chemical_formula_sum   'Tb4 Sm2 Fe4 Co14 P12'
_cell_volume   477.34814920
_cell_formula_units_Z   2
loop_
 _symmetry_equiv_pos_site_id
 _symmetry_equiv_pos_as_xyz
  1  'x, y, z'
loop_
 _atom_site_type_symbol
 _atom_site_label
 _atom_site_symmetry_multiplicity
 _atom_site_fract_x
 _atom_site_fract_y
 _atom_site_fract_z
 _atom_site_occupancy
  Tb  Tb0  1  0.500000  0.819138  0.203773  1
  Tb  Tb1  1  0.500000  0.180862  0.203773  1
  Tb  Tb2  1  0.000000  0.680862  0.796227  1
  Tb  Tb3  1  0.000000  0.319138  0.796227  1
  Sm  Sm4  1  0.000000  0.500000  0.522208  1
  Sm  Sm5  1  0.500000  0.000000  0.477792  1
  Fe  Fe6  1  0.500000  0.500000  0.154232  1
  Fe  Fe7  1  0.000000  0.000000  0.845768  1
  Fe  Fe8  1  0.000000  0.500000  0.988876  1
  Fe  Fe9  1  0.500000  0.000000  0.011124  1
  Co  Co10  1  0.500000  0.500000  0.702927  1
  Co  Co11  1  0.000000  0.000000  0.297073  1
  Co  Co12  1  0.500000  0.331783  0.994810  1
  Co  Co13  1  0.500000  0.668217  0.994810  1
  Co  Co14  1  0.000000  0.168217  0.005190  1
  Co  Co15  1  0.000000  0.831783  0.005190  1
  Co  Co16  1  0.500000  0.296203  0.429733  1
  Co  Co17  1  0.500000  0.703797  0.429733  1
  Co  Co18  1  0.000000  0.203797  0.570267  1
  Co  Co19  1  0.000000  0.796203  0.570267  1
  Co  Co20  1  0.500000  0.879425  0.710763  1
  Co  Co21  1  0.500000  0.120575  0.710763  1
  Co  Co22  1  0.000000  0.620575  0.289237  1
  Co  Co23  1  0.000000  0.379425  0.289237  1
  P  P24  1  0.500000  0.500000  0.885591  1
  P  P25  1  0.000000  0.000000  0.114409  1
  P  P26  1  0.500000  0.500000  0.339078  1
  P  P27  1  0.000000  0.000000  0.660922  1
  P  P28  1  0.500000  0.308158  0.616936  1
  P  P29  1  0.500000  0.691842  0.616936  1
  P  P30  1  0.000000  0.191842  0.383064  1
  P  P31  1  0.000000  0.808158  0.383064  1
  P  P32  1  0.500000  0.847434  0.894161  1
  P  P33  1  0.500000  0.152566  0.894161  1
  P  P34  1  0.000000  0.652566  0.105839  1
  P  P35  1  0.000000  0.347434  0.105839  1
