# generated using pymatgen
data_Ba2BeMoN4
_symmetry_space_group_name_H-M   'P 1'
_cell_length_a   5.85334000
_cell_length_b   6.55396963
_cell_length_c   7.78716700
_cell_angle_alpha   65.86257205
_cell_angle_beta   90.00000000
_cell_angle_gamma   90.00000000
_symmetry_Int_Tables_number   1
_chemical_formula_structural   Ba2BeMoN4
_chemical_formula_sum   'Ba4 Be2 Mo2 N8'
_cell_volume   272.61675272
_cell_formula_units_Z   2
loop_
 _symmetry_equiv_pos_site_id
 _symmetry_equiv_pos_as_xyz
  1  'x, y, z'
loop_
 _atom_site_type_symbol
 _atom_site_label
 _atom_site_symmetry_multiplicity
 _atom_site_fract_x
 _atom_site_fract_y
 _atom_site_fract_z
 _atom_site_occupancy
  Ba  Ba0  1  0.250000  0.262836  0.047171  1
  Ba  Ba1  1  0.750000  0.737164  0.952829  1
  Ba  Ba2  1  0.750000  0.855640  0.406371  1
  Ba  Ba3  1  0.250000  0.144360  0.593629  1
  Be  Be4  1  0.750000  0.374139  0.391993  1
  Be  Be5  1  0.250000  0.625861  0.608007  1
  Mo  Mo6  1  0.250000  0.673964  0.234560  1
  Mo  Mo7  1  0.750000  0.326036  0.765440  1
  N  N8  1  0.489071  0.510874  0.712714  1
  N  N9  1  0.989071  0.489126  0.287286  1
  N  N10  1  0.510929  0.489126  0.287286  1
  N  N11  1  0.010929  0.510874  0.712714  1
  N  N12  1  0.750000  0.158551  0.610648  1
  N  N13  1  0.250000  0.841449  0.389352  1
  N  N14  1  0.750000  0.137476  0.014530  1
  N  N15  1  0.250000  0.862524  0.985470  1
