# generated using pymatgen
data_Dy9Y7(TlRh)4
_symmetry_space_group_name_H-M   'P 1'
_cell_length_a   9.77911838
_cell_length_b   9.77749620
_cell_length_c   9.73119400
_cell_angle_alpha   60.16657426
_cell_angle_beta   60.15108598
_cell_angle_gamma   60.41181926
_symmetry_Int_Tables_number   1
_chemical_formula_structural   Dy9Y7(TlRh)4
_chemical_formula_sum   'Dy9 Y7 Tl4 Rh4'
_cell_volume   661.54119603
_cell_formula_units_Z   1
loop_
 _symmetry_equiv_pos_site_id
 _symmetry_equiv_pos_as_xyz
  1  'x, y, z'
loop_
 _atom_site_type_symbol
 _atom_site_label
 _atom_site_symmetry_multiplicity
 _atom_site_fract_x
 _atom_site_fract_y
 _atom_site_fract_z
 _atom_site_occupancy
  Dy  Dy0  1  0.598949  0.598894  0.597423  1
  Dy  Dy1  1  0.598891  0.598952  0.204739  1
  Dy  Dy2  1  0.600658  0.202324  0.598543  1
  Dy  Dy3  1  0.202325  0.600654  0.598487  1
  Dy  Dy4  1  0.060799  0.438095  0.438668  1
  Dy  Dy5  1  0.438094  0.060798  0.062431  1
  Dy  Dy6  1  0.438058  0.060827  0.438649  1
  Dy  Dy7  1  0.060825  0.438062  0.062466  1
  Dy  Dy8  1  0.438335  0.438323  0.061671  1
  Y  Y9  1  0.061360  0.061350  0.438647  1
  Y  Y10  1  0.190567  0.810698  0.809581  1
  Y  Y11  1  0.810694  0.190548  0.189174  1
  Y  Y12  1  0.810797  0.190488  0.809652  1
  Y  Y13  1  0.190471  0.810781  0.189074  1
  Y  Y14  1  0.810923  0.810930  0.189080  1
  Y  Y15  1  0.191185  0.191182  0.808808  1
  Tl  Tl16  1  0.836143  0.836123  0.836113  1
  Tl  Tl17  1  0.836105  0.836157  0.491625  1
  Tl  Tl18  1  0.836024  0.491513  0.836224  1
  Tl  Tl19  1  0.491519  0.836020  0.836201  1
  Rh  Rh20  1  0.391310  0.391229  0.394346  1
  Rh  Rh21  1  0.391256  0.391322  0.823109  1
  Rh  Rh22  1  0.393094  0.821620  0.392680  1
  Rh  Rh23  1  0.821620  0.393109  0.392613  1
