# generated using pymatgen
data_La8Y12Si15Ge
_symmetry_space_group_name_H-M   'P 1'
_cell_length_a   7.61304831
_cell_length_b   7.90265670
_cell_length_c   15.08080657
_cell_angle_alpha   89.92692906
_cell_angle_beta   89.43322724
_cell_angle_gamma   90.18363283
_symmetry_Int_Tables_number   1
_chemical_formula_structural   La8Y12Si15Ge
_chemical_formula_sum   'La8 Y12 Si15 Ge1'
_cell_volume   907.26137370
_cell_formula_units_Z   1
loop_
 _symmetry_equiv_pos_site_id
 _symmetry_equiv_pos_as_xyz
  1  'x, y, z'
loop_
 _atom_site_type_symbol
 _atom_site_label
 _atom_site_symmetry_multiplicity
 _atom_site_fract_x
 _atom_site_fract_y
 _atom_site_fract_z
 _atom_site_occupancy
  La  La0  1  0.021691  0.178820  0.098454  1
  La  La1  1  0.978338  0.821630  0.901812  1
  La  La2  1  0.478381  0.678762  0.901475  1
  La  La3  1  0.980078  0.822441  0.598469  1
  La  La4  1  0.521189  0.321376  0.098270  1
  La  La5  1  0.018968  0.177499  0.401070  1
  La  La6  1  0.519805  0.321284  0.401018  1
  La  La7  1  0.482349  0.680116  0.599326  1
  Y  Y8  1  0.155507  0.509604  0.751128  1
  Y  Y9  1  0.844003  0.490099  0.250214  1
  Y  Y10  1  0.345030  0.009360  0.249951  1
  Y  Y11  1  0.655454  0.990801  0.750285  1
  Y  Y12  1  0.325653  0.175508  0.624465  1
  Y  Y13  1  0.675512  0.822430  0.376270  1
  Y  Y14  1  0.175041  0.678472  0.376157  1
  Y  Y15  1  0.678321  0.822181  0.122606  1
  Y  Y16  1  0.823268  0.323198  0.623170  1
  Y  Y17  1  0.320993  0.177363  0.877277  1
  Y  Y18  1  0.821050  0.322300  0.877367  1
  Y  Y19  1  0.178089  0.677563  0.122795  1
  Si  Si20  1  0.028443  0.115476  0.750494  1
  Si  Si21  1  0.970994  0.885401  0.249144  1
  Si  Si22  1  0.470122  0.614629  0.249225  1
  Si  Si23  1  0.529272  0.385476  0.750717  1
  Si  Si24  1  0.273322  0.879765  0.750487  1
  Si  Si25  1  0.726384  0.119398  0.249473  1
  Si  Si26  1  0.226170  0.380572  0.249858  1
  Si  Si27  1  0.774305  0.619637  0.750136  1
  Si  Si28  1  0.849045  0.531951  0.459439  1
  Si  Si29  1  0.353962  0.968597  0.461086  1
  Si  Si30  1  0.856601  0.530017  0.039838  1
  Si  Si31  1  0.646556  0.032033  0.538720  1
  Si  Si32  1  0.143040  0.469772  0.960348  1
  Si  Si33  1  0.642631  0.030302  0.960338  1
  Si  Si34  1  0.356535  0.969544  0.039767  1
  Ge  Ge35  1  0.153899  0.466626  0.539347  1
