# generated using pymatgen
data_LaTb7GaPd24
_symmetry_space_group_name_H-M   'P 1'
_cell_length_a   8.39191316
_cell_length_b   8.39191307
_cell_length_c   8.39191327
_cell_angle_alpha   90.07973858
_cell_angle_beta   89.92025656
_cell_angle_gamma   89.92026207
_symmetry_Int_Tables_number   1
_chemical_formula_structural   LaTb7GaPd24
_chemical_formula_sum   'La1 Tb7 Ga1 Pd24'
_cell_volume   590.99210729
_cell_formula_units_Z   1
loop_
 _symmetry_equiv_pos_site_id
 _symmetry_equiv_pos_as_xyz
  1  'x, y, z'
loop_
 _atom_site_type_symbol
 _atom_site_label
 _atom_site_symmetry_multiplicity
 _atom_site_fract_x
 _atom_site_fract_y
 _atom_site_fract_z
 _atom_site_occupancy
  La  La0  1  0.746751  0.253249  0.253249  1
  Tb  Tb1  1  0.252635  0.251840  0.251840  1
  Tb  Tb2  1  0.747427  0.748336  0.748336  1
  Tb  Tb3  1  0.748160  0.747365  0.251840  1
  Tb  Tb4  1  0.748160  0.251840  0.747365  1
  Tb  Tb5  1  0.251664  0.252573  0.748336  1
  Tb  Tb6  1  0.251664  0.748336  0.252573  1
  Tb  Tb7  1  0.252652  0.747348  0.747348  1
  Ga  Ga8  1  0.999971  0.000029  0.000029  1
  Pd  Pd9  1  0.260217  0.500532  0.000315  1
  Pd  Pd10  1  0.740191  0.502309  0.995842  1
  Pd  Pd11  1  0.004158  0.259809  0.502309  1
  Pd  Pd12  1  0.497691  0.259809  0.995842  1
  Pd  Pd13  1  0.999685  0.739783  0.500532  1
  Pd  Pd14  1  0.499468  0.739783  0.000315  1
  Pd  Pd15  1  0.497691  0.995842  0.259809  1
  Pd  Pd16  1  0.260217  0.000315  0.500532  1
  Pd  Pd17  1  0.499468  0.000315  0.739783  1
  Pd  Pd18  1  0.740191  0.995842  0.502309  1
  Pd  Pd19  1  0.004158  0.502309  0.259809  1
  Pd  Pd20  1  0.999685  0.500532  0.739783  1
  Pd  Pd21  1  0.252962  0.499788  0.499788  1
  Pd  Pd22  1  0.747134  0.503601  0.503601  1
  Pd  Pd23  1  0.496399  0.252866  0.503601  1
  Pd  Pd24  1  0.500212  0.747038  0.499788  1
  Pd  Pd25  1  0.496399  0.503601  0.252866  1
  Pd  Pd26  1  0.500212  0.499788  0.747038  1
  Pd  Pd27  1  0.291015  0.000080  0.000080  1
  Pd  Pd28  1  0.707862  0.996970  0.996970  1
  Pd  Pd29  1  0.003030  0.292138  0.996970  1
  Pd  Pd30  1  0.999920  0.708985  0.000080  1
  Pd  Pd31  1  0.003030  0.996970  0.292138  1
  Pd  Pd32  1  0.999920  0.000080  0.708985  1
