# generated using pymatgen
data_LiHo4Sc5Si8
_symmetry_space_group_name_H-M   'P 1'
_cell_length_a   6.99509052
_cell_length_b   7.39578453
_cell_length_c   14.00114500
_cell_angle_alpha   90.00000000
_cell_angle_beta   90.00000000
_cell_angle_gamma   89.95617513
_symmetry_Int_Tables_number   1
_chemical_formula_structural   LiHo4Sc5Si8
_chemical_formula_sum   'Li2 Ho8 Sc10 Si16'
_cell_volume   724.33757551
_cell_formula_units_Z   2
loop_
 _symmetry_equiv_pos_site_id
 _symmetry_equiv_pos_as_xyz
  1  'x, y, z'
loop_
 _atom_site_type_symbol
 _atom_site_label
 _atom_site_symmetry_multiplicity
 _atom_site_fract_x
 _atom_site_fract_y
 _atom_site_fract_z
 _atom_site_occupancy
  Li  Li0  1  0.159781  0.506482  0.750000  1
  Li  Li1  1  0.840219  0.493518  0.250000  1
  Ho  Ho2  1  0.010305  0.184016  0.098392  1
  Ho  Ho3  1  0.989695  0.815984  0.901608  1
  Ho  Ho4  1  0.484691  0.674328  0.902500  1
  Ho  Ho5  1  0.989695  0.815984  0.598392  1
  Ho  Ho6  1  0.515309  0.325672  0.097500  1
  Ho  Ho7  1  0.010305  0.184016  0.401608  1
  Ho  Ho8  1  0.515309  0.325672  0.402500  1
  Ho  Ho9  1  0.484691  0.674328  0.597500  1
  Sc  Sc10  1  0.341758  0.003102  0.250000  1
  Sc  Sc11  1  0.658242  0.996898  0.750000  1
  Sc  Sc12  1  0.325801  0.181734  0.626045  1
  Sc  Sc13  1  0.674199  0.818266  0.373955  1
  Sc  Sc14  1  0.165252  0.675069  0.373084  1
  Sc  Sc15  1  0.674199  0.818266  0.126045  1
  Sc  Sc16  1  0.834748  0.324931  0.626916  1
  Sc  Sc17  1  0.325801  0.181734  0.873955  1
  Sc  Sc18  1  0.834748  0.324931  0.873084  1
  Sc  Sc19  1  0.165252  0.675069  0.126916  1
  Si  Si20  1  0.029140  0.101295  0.750000  1
  Si  Si21  1  0.970860  0.898705  0.250000  1
  Si  Si22  1  0.465403  0.613130  0.250000  1
  Si  Si23  1  0.534597  0.386870  0.750000  1
  Si  Si24  1  0.287226  0.879466  0.750000  1
  Si  Si25  1  0.712774  0.120534  0.250000  1
  Si  Si26  1  0.220721  0.372752  0.250000  1
  Si  Si27  1  0.779279  0.627248  0.750000  1
  Si  Si28  1  0.160177  0.461407  0.533164  1
  Si  Si29  1  0.839823  0.538593  0.466836  1
  Si  Si30  1  0.343137  0.966785  0.461237  1
  Si  Si31  1  0.839823  0.538593  0.033164  1
  Si  Si32  1  0.656863  0.033215  0.538763  1
  Si  Si33  1  0.160177  0.461407  0.966836  1
  Si  Si34  1  0.656863  0.033215  0.961237  1
  Si  Si35  1  0.343137  0.966785  0.038763  1
