# generated using pymatgen
data_TbY3Er4(OsC2)4
_symmetry_space_group_name_H-M   'P 1'
_cell_length_a   5.11871600
_cell_length_b   6.45078931
_cell_length_c   9.74326046
_cell_angle_alpha   90.03530768
_cell_angle_beta   90.00000000
_cell_angle_gamma   90.00000000
_symmetry_Int_Tables_number   1
_chemical_formula_structural   TbY3Er4(OsC2)4
_chemical_formula_sum   'Tb1 Y3 Er4 Os4 C8'
_cell_volume   321.72004575
_cell_formula_units_Z   1
loop_
 _symmetry_equiv_pos_site_id
 _symmetry_equiv_pos_as_xyz
  1  'x, y, z'
loop_
 _atom_site_type_symbol
 _atom_site_label
 _atom_site_symmetry_multiplicity
 _atom_site_fract_x
 _atom_site_fract_y
 _atom_site_fract_z
 _atom_site_occupancy
  Tb  Tb0  1  0.250000  0.526986  0.217445  1
  Y  Y1  1  0.750000  0.472484  0.782308  1
  Y  Y2  1  0.750000  0.972464  0.717766  1
  Y  Y3  1  0.250000  0.027464  0.282271  1
  Er  Er4  1  0.250000  0.680450  0.553165  1
  Er  Er5  1  0.750000  0.319102  0.446706  1
  Er  Er6  1  0.750000  0.819545  0.053440  1
  Er  Er7  1  0.250000  0.181044  0.946624  1
  Os  Os8  1  0.250000  0.725724  0.865600  1
  Os  Os9  1  0.750000  0.274373  0.134380  1
  Os  Os10  1  0.750000  0.774578  0.365864  1
  Os  Os11  1  0.250000  0.225320  0.634361  1
  C  C12  1  0.250000  0.460556  0.758540  1
  C  C13  1  0.750000  0.539564  0.241617  1
  C  C14  1  0.750000  0.039508  0.258421  1
  C  C15  1  0.250000  0.960419  0.741472  1
  C  C16  1  0.250000  0.828933  0.053083  1
  C  C17  1  0.750000  0.171472  0.946747  1
  C  C18  1  0.750000  0.671654  0.553175  1
  C  C19  1  0.250000  0.328358  0.447016  1
