# generated using pymatgen
data_Li3Sm2Ni9As7
_symmetry_space_group_name_H-M   'P 1'
_cell_length_a   3.89915300
_cell_length_b   9.49481475
_cell_length_c   9.49481300
_cell_angle_alpha   119.99999737
_cell_angle_beta   90.00000000
_cell_angle_gamma   90.00000000
_symmetry_Int_Tables_number   1
_chemical_formula_structural   Li3Sm2Ni9As7
_chemical_formula_sum   'Li3 Sm2 Ni9 As7'
_cell_volume   304.42045581
_cell_formula_units_Z   1
loop_
 _symmetry_equiv_pos_site_id
 _symmetry_equiv_pos_as_xyz
  1  'x, y, z'
loop_
 _atom_site_type_symbol
 _atom_site_label
 _atom_site_symmetry_multiplicity
 _atom_site_fract_x
 _atom_site_fract_y
 _atom_site_fract_z
 _atom_site_occupancy
  Li  Li0  1  0.500000  0.790267  0.891253  1
  Li  Li1  1  0.500000  0.100987  0.209733  1
  Li  Li2  1  0.500000  0.108747  0.899013  1
  Sm  Sm3  1  0.000000  0.666667  0.333333  1
  Sm  Sm4  1  0.500000  0.333333  0.666667  1
  Ni  Ni5  1  0.000000  0.570681  0.944507  1
  Ni  Ni6  1  0.000000  0.373825  0.429319  1
  Ni  Ni7  1  0.000000  0.055493  0.626175  1
  Ni  Ni8  1  0.000000  0.873780  0.158845  1
  Ni  Ni9  1  0.000000  0.285066  0.126220  1
  Ni  Ni10  1  0.000000  0.841155  0.714934  1
  Ni  Ni11  1  0.500000  0.954477  0.389708  1
  Ni  Ni12  1  0.500000  0.435230  0.045523  1
  Ni  Ni13  1  0.500000  0.610292  0.564770  1
  As  As14  1  0.500000  0.711010  0.116276  1
  As  As15  1  0.500000  0.405267  0.288990  1
  As  As16  1  0.500000  0.883724  0.594733  1
  As  As17  1  0.000000  0.000000  0.000000  1
  As  As18  1  0.000000  0.590478  0.701534  1
  As  As19  1  0.000000  0.111055  0.409522  1
  As  As20  1  0.000000  0.298466  0.888945  1
