# generated using pymatgen
data_Sc4Ti2Be4Ir3Rh7
_symmetry_space_group_name_H-M   'P 1'
_cell_length_a   9.48437939
_cell_length_b   9.50856739
_cell_length_c   3.14942900
_cell_angle_alpha   90.00000000
_cell_angle_beta   90.00000000
_cell_angle_gamma   89.96717235
_symmetry_Int_Tables_number   1
_chemical_formula_structural   Sc4Ti2Be4Ir3Rh7
_chemical_formula_sum   'Sc4 Ti2 Be4 Ir3 Rh7'
_cell_volume   284.02446978
_cell_formula_units_Z   1
loop_
 _symmetry_equiv_pos_site_id
 _symmetry_equiv_pos_as_xyz
  1  'x, y, z'
loop_
 _atom_site_type_symbol
 _atom_site_label
 _atom_site_symmetry_multiplicity
 _atom_site_fract_x
 _atom_site_fract_y
 _atom_site_fract_z
 _atom_site_occupancy
  Sc  Sc0  1  0.672085  0.175668  0.000000  1
  Sc  Sc1  1  0.325771  0.826075  0.000000  1
  Sc  Sc2  1  0.176015  0.326628  0.000000  1
  Sc  Sc3  1  0.826080  0.674169  0.000000  1
  Ti  Ti4  1  0.999554  0.000096  0.000000  1
  Ti  Ti5  1  0.500308  0.500497  0.000000  1
  Be  Be6  1  0.123484  0.623749  0.000000  1
  Be  Be7  1  0.876663  0.375420  0.000000  1
  Be  Be8  1  0.624123  0.876221  0.000000  1
  Be  Be9  1  0.375497  0.122775  0.000000  1
  Ir  Ir10  1  0.429722  0.290148  0.500000  1
  Ir  Ir11  1  0.500074  0.999384  0.500000  1
  Ir  Ir12  1  0.999642  0.500020  0.500000  1
  Rh  Rh13  1  0.208746  0.069690  0.500000  1
  Rh  Rh14  1  0.790851  0.929743  0.500000  1
  Rh  Rh15  1  0.070589  0.790534  0.500000  1
  Rh  Rh16  1  0.709735  0.429580  0.500000  1
  Rh  Rh17  1  0.929668  0.209077  0.500000  1
  Rh  Rh18  1  0.290513  0.570669  0.500000  1
  Rh  Rh19  1  0.570880  0.709857  0.500000  1
