# generated using pymatgen
data_Ac3B(CBr)2
_symmetry_space_group_name_H-M   'P 1'
_cell_length_a   16.08130800
_cell_length_b   4.13362800
_cell_length_c   11.90087900
_cell_angle_alpha   90.00000000
_cell_angle_beta   90.00000000
_cell_angle_gamma   90.00000000
_symmetry_Int_Tables_number   1
_chemical_formula_structural   Ac3B(CBr)2
_chemical_formula_sum   'Ac12 B4 C8 Br8'
_cell_volume   791.10075658
_cell_formula_units_Z   4
loop_
 _symmetry_equiv_pos_site_id
 _symmetry_equiv_pos_as_xyz
  1  'x, y, z'
loop_
 _atom_site_type_symbol
 _atom_site_label
 _atom_site_symmetry_multiplicity
 _atom_site_fract_x
 _atom_site_fract_y
 _atom_site_fract_z
 _atom_site_occupancy
  Ac  Ac0  1  0.331830  0.250001  0.696743  1
  Ac  Ac1  1  0.168170  0.750000  0.196743  1
  Ac  Ac2  1  0.831831  0.250001  0.803256  1
  Ac  Ac3  1  0.668169  0.750000  0.303257  1
  Ac  Ac4  1  0.138301  0.250001  0.877101  1
  Ac  Ac5  1  0.361699  0.750000  0.377102  1
  Ac  Ac6  1  0.638301  0.250001  0.622899  1
  Ac  Ac7  1  0.861699  0.750000  0.122899  1
  Ac  Ac8  1  0.340502  0.250001  0.054457  1
  Ac  Ac9  1  0.159498  0.750000  0.554457  1
  Ac  Ac10  1  0.840503  0.250001  0.445543  1
  Ac  Ac11  1  0.659497  0.750000  0.945543  1
  B  B12  1  0.253012  0.750000  0.874508  1
  B  B13  1  0.246988  0.250001  0.374509  1
  B  B14  1  0.753012  0.750000  0.625491  1
  B  B15  1  0.746988  0.250001  0.125492  1
  C  C16  1  0.273840  0.250001  0.254474  1
  C  C17  1  0.226160  0.750000  0.754474  1
  C  C18  1  0.773840  0.250001  0.245526  1
  C  C19  1  0.726160  0.750000  0.745525  1
  C  C20  1  0.266758  0.250001  0.496731  1
  C  C21  1  0.233242  0.750000  0.996732  1
  C  C22  1  0.766758  0.250001  0.003268  1
  C  C23  1  0.733242  0.750000  0.503269  1
  Br  Br24  1  0.009667  0.250001  0.634432  1
  Br  Br25  1  0.490333  0.750000  0.134431  1
  Br  Br26  1  0.509667  0.250001  0.865569  1
  Br  Br27  1  0.990333  0.750000  0.365569  1
  Br  Br28  1  0.024797  0.250001  0.116014  1
  Br  Br29  1  0.475204  0.750000  0.616015  1
  Br  Br30  1  0.524797  0.250001  0.383986  1
  Br  Br31  1  0.975203  0.750000  0.883985  1
