# generated using pymatgen
data_Pr4Ho2CoCl10
_symmetry_space_group_name_H-M   'P 1'
_cell_length_a   7.31650741
_cell_length_b   9.09417698
_cell_length_c   9.15595860
_cell_angle_alpha   109.00834634
_cell_angle_beta   107.40395219
_cell_angle_gamma   95.88819638
_symmetry_Int_Tables_number   1
_chemical_formula_structural   Pr4Ho2CoCl10
_chemical_formula_sum   'Pr4 Ho2 Co1 Cl10'
_cell_volume   535.94993784
_cell_formula_units_Z   1
loop_
 _symmetry_equiv_pos_site_id
 _symmetry_equiv_pos_as_xyz
  1  'x, y, z'
loop_
 _atom_site_type_symbol
 _atom_site_label
 _atom_site_symmetry_multiplicity
 _atom_site_fract_x
 _atom_site_fract_y
 _atom_site_fract_z
 _atom_site_occupancy
  Pr  Pr0  1  0.134779  0.760095  0.054913  1
  Pr  Pr1  1  0.625583  0.805166  0.847636  1
  Pr  Pr2  1  0.869167  0.240994  0.951257  1
  Pr  Pr3  1  0.981379  0.108710  0.315659  1
  Ho  Ho4  1  0.363055  0.182628  0.136107  1
  Ho  Ho5  1  0.027305  0.901860  0.700070  1
  Co  Co6  1  0.999352  0.998653  0.001566  1
  Cl  Cl7  1  0.438699  0.077659  0.830408  1
  Cl  Cl8  1  0.754851  0.548226  0.922630  1
  Cl  Cl9  1  0.255878  0.442548  0.083675  1
  Cl  Cl10  1  0.918547  0.157950  0.637536  1
  Cl  Cl11  1  0.663045  0.733522  0.539375  1
  Cl  Cl12  1  0.547766  0.930782  0.170049  1
  Cl  Cl13  1  0.088301  0.837035  0.380611  1
  Cl  Cl14  1  0.770622  0.341036  0.248556  1
  Cl  Cl15  1  0.188047  0.655301  0.735903  1
  Cl  Cl16  1  0.373622  0.277833  0.444049  1
