# generated using pymatgen
data_YbCdRu2O7
_symmetry_space_group_name_H-M   'P 1'
_cell_length_a   7.33669950
_cell_length_b   7.23551871
_cell_length_c   7.23551847
_cell_angle_alpha   59.15619813
_cell_angle_beta   59.53632305
_cell_angle_gamma   59.53632593
_symmetry_Int_Tables_number   1
_chemical_formula_structural   YbCdRu2O7
_chemical_formula_sum   'Yb2 Cd2 Ru4 O14'
_cell_volume   267.94036730
_cell_formula_units_Z   2
loop_
 _symmetry_equiv_pos_site_id
 _symmetry_equiv_pos_as_xyz
  1  'x, y, z'
loop_
 _atom_site_type_symbol
 _atom_site_label
 _atom_site_symmetry_multiplicity
 _atom_site_fract_x
 _atom_site_fract_y
 _atom_site_fract_z
 _atom_site_occupancy
  Yb  Yb0  1  0.625000  0.125000  0.125000  1
  Yb  Yb1  1  0.125000  0.125000  0.125000  1
  Cd  Cd2  1  0.125000  0.625000  0.125000  1
  Cd  Cd3  1  0.125000  0.125000  0.625000  1
  Ru  Ru4  1  0.625000  0.125000  0.625000  1
  Ru  Ru5  1  0.625000  0.625000  0.125000  1
  Ru  Ru6  1  0.125000  0.625000  0.625000  1
  Ru  Ru7  1  0.625000  0.625000  0.625000  1
  O  O8  1  0.693095  0.697529  0.303497  1
  O  O9  1  0.940273  0.559727  0.559727  1
  O  O10  1  0.546917  0.953083  0.953083  1
  O  O11  1  0.944121  0.946503  0.552471  1
  O  O12  1  0.944121  0.552471  0.946503  1
  O  O13  1  0.556905  0.946503  0.552471  1
  O  O14  1  0.305879  0.697529  0.303497  1
  O  O15  1  0.309727  0.690273  0.690273  1
  O  O16  1  0.703083  0.296917  0.296917  1
  O  O17  1  0.693095  0.303497  0.697529  1
  O  O18  1  0.556905  0.552471  0.946503  1
  O  O19  1  0.305879  0.303497  0.697529  1
  O  O20  1  0.241549  0.258451  0.258451  1
  O  O21  1  0.008451  0.991549  0.991549  1
