# generated using pymatgen
data_Sc8Cu4PtAu3
_symmetry_space_group_name_H-M   'P 1'
_cell_length_a   6.75580300
_cell_length_b   4.67565400
_cell_length_c   9.37407600
_cell_angle_alpha   90.00000000
_cell_angle_beta   89.99978271
_cell_angle_gamma   90.00000000
_symmetry_Int_Tables_number   1
_chemical_formula_structural   Sc8Cu4PtAu3
_chemical_formula_sum   'Sc8 Cu4 Pt1 Au3'
_cell_volume   296.10641275
_cell_formula_units_Z   1
loop_
 _symmetry_equiv_pos_site_id
 _symmetry_equiv_pos_as_xyz
  1  'x, y, z'
loop_
 _atom_site_type_symbol
 _atom_site_label
 _atom_site_symmetry_multiplicity
 _atom_site_fract_x
 _atom_site_fract_y
 _atom_site_fract_z
 _atom_site_occupancy
  Sc  Sc0  1  0.006201  0.749999  0.127171  1
  Sc  Sc1  1  0.493814  0.749999  0.127169  1
  Sc  Sc2  1  0.002750  0.250000  0.368525  1
  Sc  Sc3  1  0.497233  0.250000  0.368514  1
  Sc  Sc4  1  0.500295  0.749999  0.627740  1
  Sc  Sc5  1  0.999722  0.749999  0.627739  1
  Sc  Sc6  1  0.496586  0.250000  0.876550  1
  Sc  Sc7  1  0.003416  0.250000  0.876548  1
  Cu  Cu8  1  0.749997  0.250000  0.118377  1
  Cu  Cu9  1  0.250000  0.749999  0.383968  1
  Cu  Cu10  1  0.749993  0.250000  0.617971  1
  Cu  Cu11  1  0.249996  0.749999  0.880560  1
  Pt  Pt12  1  0.250000  0.250000  0.120507  1
  Au  Au13  1  0.749996  0.749999  0.378750  1
  Au  Au14  1  0.250000  0.250000  0.617840  1
  Au  Au15  1  0.750001  0.749999  0.882071  1
