# generated using pymatgen
data_SnSe27
_symmetry_space_group_name_H-M   'P 1'
_cell_length_a   15.12866903
_cell_length_b   15.12866861
_cell_length_c   15.12866967
_cell_angle_alpha   118.68988551
_cell_angle_beta   118.68988625
_cell_angle_gamma   118.68988739
_symmetry_Int_Tables_number   1
_chemical_formula_structural   SnSe27
_chemical_formula_sum   'Sn1 Se27'
_cell_volume   1023.21591028
_cell_formula_units_Z   1
loop_
 _symmetry_equiv_pos_site_id
 _symmetry_equiv_pos_as_xyz
  1  'x, y, z'
loop_
 _atom_site_type_symbol
 _atom_site_label
 _atom_site_symmetry_multiplicity
 _atom_site_fract_x
 _atom_site_fract_y
 _atom_site_fract_z
 _atom_site_occupancy
  Sn  Sn0  1  0.158091  0.158091  0.158091  1
  Se  Se1  1  0.019690  0.639828  0.639828  1
  Se  Se2  1  0.639828  0.639828  0.019690  1
  Se  Se3  1  0.639828  0.019690  0.639828  1
  Se  Se4  1  0.264706  0.891224  0.747863  1
  Se  Se5  1  0.891224  0.747863  0.264706  1
  Se  Se6  1  0.747863  0.264706  0.891224  1
  Se  Se7  1  0.891224  0.264706  0.747863  1
  Se  Se8  1  0.264706  0.747863  0.891224  1
  Se  Se9  1  0.747863  0.891224  0.264706  1
  Se  Se10  1  0.068011  0.606167  0.406553  1
  Se  Se11  1  0.606167  0.406553  0.068011  1
  Se  Se12  1  0.406553  0.068011  0.606167  1
  Se  Se13  1  0.606167  0.068011  0.406553  1
  Se  Se14  1  0.068011  0.406553  0.606167  1
  Se  Se15  1  0.406553  0.606167  0.068011  1
  Se  Se16  1  0.340122  0.715537  0.569696  1
  Se  Se17  1  0.715537  0.569696  0.340122  1
  Se  Se18  1  0.569696  0.340122  0.715537  1
  Se  Se19  1  0.715537  0.340122  0.569696  1
  Se  Se20  1  0.340122  0.569696  0.715537  1
  Se  Se21  1  0.569696  0.715537  0.340122  1
  Se  Se22  1  0.133863  0.385042  0.385042  1
  Se  Se23  1  0.385042  0.385042  0.133863  1
  Se  Se24  1  0.385042  0.133863  0.385042  1
  Se  Se25  1  0.264441  0.100759  0.100759  1
  Se  Se26  1  0.100759  0.100759  0.264441  1
  Se  Se27  1  0.100759  0.264441  0.100759  1
