# generated using pymatgen
data_La2Th(ZnPt)3
_symmetry_space_group_name_H-M   'P 1'
_cell_length_a   7.55252413
_cell_length_b   7.54292970
_cell_length_c   4.01271800
_cell_angle_alpha   90.00000000
_cell_angle_beta   90.00000000
_cell_angle_gamma   119.95799557
_symmetry_Int_Tables_number   1
_chemical_formula_structural   La2Th(ZnPt)3
_chemical_formula_sum   'La2 Th1 Zn3 Pt3'
_cell_volume   198.05468476
_cell_formula_units_Z   1
loop_
 _symmetry_equiv_pos_site_id
 _symmetry_equiv_pos_as_xyz
  1  'x, y, z'
loop_
 _atom_site_type_symbol
 _atom_site_label
 _atom_site_symmetry_multiplicity
 _atom_site_fract_x
 _atom_site_fract_y
 _atom_site_fract_z
 _atom_site_occupancy
  La  La0  1  0.411193  0.411631  0.500000  1
  La  La1  1  0.588807  0.000438  0.500000  1
  Th  Th2  1  0.000000  0.588712  0.500000  1
  Zn  Zn3  1  0.760151  0.761250  0.000000  1
  Zn  Zn4  1  0.239849  0.001099  0.000000  1
  Zn  Zn5  1  0.000000  0.234992  0.000000  1
  Pt  Pt6  1  0.682435  0.346871  0.000000  1
  Pt  Pt7  1  0.317565  0.664436  0.000000  1
  Pt  Pt8  1  0.000000  0.990571  0.500000  1
