# generated using pymatgen
data_DyY3Re5Os3
_symmetry_space_group_name_H-M   'P 1'
_cell_length_a   5.36587130
_cell_length_b   5.29380224
_cell_length_c   9.05278801
_cell_angle_alpha   89.99999732
_cell_angle_beta   90.00532790
_cell_angle_gamma   119.55669139
_symmetry_Int_Tables_number   1
_chemical_formula_structural   DyY3Re5Os3
_chemical_formula_sum   'Dy1 Y3 Re5 Os3'
_cell_volume   223.68851634
_cell_formula_units_Z   1
loop_
 _symmetry_equiv_pos_site_id
 _symmetry_equiv_pos_as_xyz
  1  'x, y, z'
loop_
 _atom_site_type_symbol
 _atom_site_label
 _atom_site_symmetry_multiplicity
 _atom_site_fract_x
 _atom_site_fract_y
 _atom_site_fract_z
 _atom_site_occupancy
  Dy  Dy0  1  0.332024  0.666013  0.062762  1
  Y  Y1  1  0.332132  0.666067  0.437081  1
  Y  Y2  1  0.669600  0.334800  0.564280  1
  Y  Y3  1  0.669557  0.334778  0.935830  1
  Re  Re4  1  0.828685  0.168958  0.249917  1
  Re  Re5  1  0.828685  0.659726  0.249917  1
  Re  Re6  1  0.343421  0.171710  0.249879  1
  Re  Re7  1  0.166078  0.830331  0.750063  1
  Re  Re8  1  0.166078  0.335749  0.750063  1
  Os  Os9  1  0.007666  0.003833  0.500394  1
  Os  Os10  1  0.007752  0.003876  0.999765  1
  Os  Os11  1  0.648319  0.824159  0.750050  1
