# generated using pymatgen
data_DyEr6Sn23(IrOs2)2
_symmetry_space_group_name_H-M   'P 1'
_cell_length_a   9.83327154
_cell_length_b   9.83187293
_cell_length_c   10.12390489
_cell_angle_alpha   89.99999892
_cell_angle_beta   89.89484526
_cell_angle_gamma   119.99529869
_symmetry_Int_Tables_number   1
_chemical_formula_structural   DyEr6Sn23(IrOs2)2
_chemical_formula_sum   'Dy1 Er6 Sn23 Ir2 Os4'
_cell_volume   847.68124437
_cell_formula_units_Z   1
loop_
 _symmetry_equiv_pos_site_id
 _symmetry_equiv_pos_as_xyz
  1  'x, y, z'
loop_
 _atom_site_type_symbol
 _atom_site_label
 _atom_site_symmetry_multiplicity
 _atom_site_fract_x
 _atom_site_fract_y
 _atom_site_fract_z
 _atom_site_occupancy
  Dy  Dy0  1  0.000000  0.000000  0.000000  1
  Er  Er1  1  0.485359  0.517785  0.305410  1
  Er  Er2  1  0.514641  0.482215  0.694590  1
  Er  Er3  1  0.485359  0.967574  0.305410  1
  Er  Er4  1  0.514641  0.032426  0.694590  1
  Er  Er5  1  0.032216  0.516109  0.303499  1
  Er  Er6  1  0.967784  0.483891  0.696501  1
  Sn  Sn7  1  0.350538  0.997991  0.999777  1
  Sn  Sn8  1  0.649462  0.002009  0.000223  1
  Sn  Sn9  1  0.000000  0.350269  0.000000  1
  Sn  Sn10  1  0.000000  0.649731  0.000000  1
  Sn  Sn11  1  0.649462  0.647452  0.000223  1
  Sn  Sn12  1  0.350538  0.352548  0.999777  1
  Sn  Sn13  1  0.330998  0.665500  0.822552  1
  Sn  Sn14  1  0.669002  0.334500  0.177448  1
  Sn  Sn15  1  0.000000  0.000000  0.500000  1
  Sn  Sn16  1  0.780017  0.220228  0.460648  1
  Sn  Sn17  1  0.219983  0.779772  0.539352  1
  Sn  Sn18  1  0.780017  0.559790  0.460648  1
  Sn  Sn19  1  0.219983  0.440210  0.539352  1
  Sn  Sn20  1  0.440689  0.220344  0.459652  1
  Sn  Sn21  1  0.559311  0.779656  0.540348  1
  Sn  Sn22  1  0.334296  0.667148  0.128210  1
  Sn  Sn23  1  0.665704  0.332852  0.871790  1
  Sn  Sn24  1  0.117326  0.881966  0.278304  1
  Sn  Sn25  1  0.882674  0.118034  0.721696  1
  Sn  Sn26  1  0.117326  0.235360  0.278304  1
  Sn  Sn27  1  0.882674  0.764640  0.721696  1
  Sn  Sn28  1  0.763166  0.881582  0.275831  1
  Sn  Sn29  1  0.236834  0.118418  0.724169  1
  Ir  Ir30  1  0.341006  0.170503  0.199525  1
  Ir  Ir31  1  0.658994  0.829497  0.800475  1
  Os  Os32  1  0.829717  0.169301  0.200937  1
  Os  Os33  1  0.170283  0.830699  0.799063  1
  Os  Os34  1  0.829717  0.660416  0.200937  1
  Os  Os35  1  0.170283  0.339584  0.799063  1
