# generated using pymatgen
data_Er(ThPd4)3
_symmetry_space_group_name_H-M   'P 1'
_cell_length_a   5.91872100
_cell_length_b   5.91872011
_cell_length_c   9.71980200
_cell_angle_alpha   90.00000000
_cell_angle_beta   90.00000000
_cell_angle_gamma   119.99999941
_symmetry_Int_Tables_number   1
_chemical_formula_structural   Er(ThPd4)3
_chemical_formula_sum   'Er1 Th3 Pd12'
_cell_volume   294.87891754
_cell_formula_units_Z   1
loop_
 _symmetry_equiv_pos_site_id
 _symmetry_equiv_pos_as_xyz
  1  'x, y, z'
loop_
 _atom_site_type_symbol
 _atom_site_label
 _atom_site_symmetry_multiplicity
 _atom_site_fract_x
 _atom_site_fract_y
 _atom_site_fract_z
 _atom_site_occupancy
  Er  Er0  1  0.333333  0.666667  0.250000  1
  Th  Th1  1  0.000000  0.000000  0.494775  1
  Th  Th2  1  0.000000  0.000000  0.005225  1
  Th  Th3  1  0.666667  0.333333  0.750000  1
  Pd  Pd4  1  0.499474  0.500526  0.498548  1
  Pd  Pd5  1  0.499474  0.998947  0.498548  1
  Pd  Pd6  1  0.001053  0.500526  0.498548  1
  Pd  Pd7  1  0.499474  0.500526  0.001452  1
  Pd  Pd8  1  0.499474  0.998947  0.001452  1
  Pd  Pd9  1  0.001053  0.500526  0.001452  1
  Pd  Pd10  1  0.825479  0.650958  0.250000  1
  Pd  Pd11  1  0.349042  0.174521  0.250000  1
  Pd  Pd12  1  0.825479  0.174521  0.250000  1
  Pd  Pd13  1  0.173916  0.347831  0.750000  1
  Pd  Pd14  1  0.652169  0.826084  0.750000  1
  Pd  Pd15  1  0.173916  0.826084  0.750000  1
