# generated using pymatgen
data_La4Tm2FeBr10
_symmetry_space_group_name_H-M   'P 1'
_cell_length_a   7.66674981
_cell_length_b   9.33931595
_cell_length_c   9.58464409
_cell_angle_alpha   107.93477388
_cell_angle_beta   107.24820545
_cell_angle_gamma   94.98936964
_symmetry_Int_Tables_number   1
_chemical_formula_structural   La4Tm2FeBr10
_chemical_formula_sum   'La4 Tm2 Fe1 Br10'
_cell_volume   611.45014803
_cell_formula_units_Z   1
loop_
 _symmetry_equiv_pos_site_id
 _symmetry_equiv_pos_as_xyz
  1  'x, y, z'
loop_
 _atom_site_type_symbol
 _atom_site_label
 _atom_site_symmetry_multiplicity
 _atom_site_fract_x
 _atom_site_fract_y
 _atom_site_fract_z
 _atom_site_occupancy
  La  La0  1  0.122472  0.778052  0.050923  1
  La  La1  1  0.626170  0.807822  0.848497  1
  La  La2  1  0.881416  0.224380  0.957595  1
  La  La3  1  0.981008  0.107244  0.314280  1
  Tm  Tm4  1  0.354197  0.173322  0.127350  1
  Tm  Tm5  1  0.031022  0.909397  0.712562  1
  Fe  Fe6  1  0.000582  0.998371  0.001953  1
  Br  Br7  1  0.437105  0.084811  0.825426  1
  Br  Br8  1  0.752542  0.541832  0.920265  1
  Br  Br9  1  0.259795  0.443814  0.085533  1
  Br  Br10  1  0.916165  0.163082  0.636371  1
  Br  Br11  1  0.672740  0.735184  0.540740  1
  Br  Br12  1  0.547028  0.925836  0.172472  1
  Br  Br13  1  0.091947  0.832164  0.385554  1
  Br  Br14  1  0.759949  0.343039  0.247877  1
  Br  Br15  1  0.190976  0.654142  0.734095  1
  Br  Br16  1  0.374887  0.277508  0.438505  1
