# generated using pymatgen
data_Pr4Tm5LuSn8
_symmetry_space_group_name_H-M   'P 1'
_cell_length_a   8.04574900
_cell_length_b   8.25902100
_cell_length_c   15.51542700
_cell_angle_alpha   90.00000000
_cell_angle_beta   90.00000000
_cell_angle_gamma   90.00000000
_symmetry_Int_Tables_number   1
_chemical_formula_structural   Pr4Tm5LuSn8
_chemical_formula_sum   'Pr8 Tm10 Lu2 Sn16'
_cell_volume   1031.00027856
_cell_formula_units_Z   2
loop_
 _symmetry_equiv_pos_site_id
 _symmetry_equiv_pos_as_xyz
  1  'x, y, z'
loop_
 _atom_site_type_symbol
 _atom_site_label
 _atom_site_symmetry_multiplicity
 _atom_site_fract_x
 _atom_site_fract_y
 _atom_site_fract_z
 _atom_site_occupancy
  Pr  Pr0  1  0.509714  0.324425  0.903915  1
  Pr  Pr1  1  0.009714  0.175575  0.596085  1
  Pr  Pr2  1  0.490345  0.675555  0.403857  1
  Pr  Pr3  1  0.990345  0.824445  0.096143  1
  Pr  Pr4  1  0.490345  0.675555  0.096143  1
  Pr  Pr5  1  0.990345  0.824445  0.403857  1
  Pr  Pr6  1  0.509714  0.324425  0.596085  1
  Pr  Pr7  1  0.009714  0.175575  0.903915  1
  Tm  Tm8  1  0.349170  0.835806  0.875079  1
  Tm  Tm9  1  0.849170  0.664194  0.624921  1
  Tm  Tm10  1  0.650813  0.164222  0.375074  1
  Tm  Tm11  1  0.150813  0.335778  0.124926  1
  Tm  Tm12  1  0.650813  0.164222  0.124926  1
  Tm  Tm13  1  0.150813  0.335778  0.375074  1
  Tm  Tm14  1  0.349170  0.835806  0.624921  1
  Tm  Tm15  1  0.849170  0.664194  0.875079  1
  Tm  Tm16  1  0.181828  0.502908  0.750000  1
  Tm  Tm17  1  0.681828  0.997092  0.750000  1
  Lu  Lu18  1  0.818113  0.497064  0.250000  1
  Lu  Lu19  1  0.318113  0.002936  0.250000  1
  Sn  Sn20  1  0.314392  0.041966  0.042065  1
  Sn  Sn21  1  0.814392  0.458034  0.457935  1
  Sn  Sn22  1  0.685563  0.958008  0.541953  1
  Sn  Sn23  1  0.185563  0.541992  0.958047  1
  Sn  Sn24  1  0.685563  0.958008  0.958047  1
  Sn  Sn25  1  0.185563  0.541992  0.541953  1
  Sn  Sn26  1  0.314392  0.041966  0.457935  1
  Sn  Sn27  1  0.814392  0.458034  0.042065  1
  Sn  Sn28  1  0.546196  0.625955  0.750000  1
  Sn  Sn29  1  0.046196  0.874045  0.750000  1
  Sn  Sn30  1  0.454015  0.374037  0.250000  1
  Sn  Sn31  1  0.954015  0.125963  0.250000  1
  Sn  Sn32  1  0.316954  0.143845  0.750000  1
  Sn  Sn33  1  0.816954  0.356155  0.750000  1
  Sn  Sn34  1  0.682901  0.855945  0.250000  1
  Sn  Sn35  1  0.182901  0.644055  0.250000  1
