# generated using pymatgen
data_TbY(ScSb5)2
_symmetry_space_group_name_H-M   'P 1'
_cell_length_a   4.20491700
_cell_length_b   13.07358843
_cell_length_c   14.25581600
_cell_angle_alpha   78.77099891
_cell_angle_beta   90.00000000
_cell_angle_gamma   90.00000000
_symmetry_Int_Tables_number   1
_chemical_formula_structural   TbY(ScSb5)2
_chemical_formula_sum   'Tb2 Y2 Sc4 Sb20'
_cell_volume   768.68762145
_cell_formula_units_Z   2
loop_
 _symmetry_equiv_pos_site_id
 _symmetry_equiv_pos_as_xyz
  1  'x, y, z'
loop_
 _atom_site_type_symbol
 _atom_site_label
 _atom_site_symmetry_multiplicity
 _atom_site_fract_x
 _atom_site_fract_y
 _atom_site_fract_z
 _atom_site_occupancy
  Tb  Tb0  1  0.250000  0.669899  0.576117  1
  Tb  Tb1  1  0.750000  0.330101  0.423883  1
  Y  Y2  1  0.250000  0.953621  0.354948  1
  Y  Y3  1  0.750000  0.046379  0.645052  1
  Sc  Sc4  1  0.250000  0.396804  0.772669  1
  Sc  Sc5  1  0.750000  0.603196  0.227331  1
  Sc  Sc6  1  0.250000  0.657420  0.858752  1
  Sc  Sc7  1  0.750000  0.342580  0.141248  1
  Sb  Sb8  1  0.250000  0.148047  0.780619  1
  Sb  Sb9  1  0.750000  0.851953  0.219381  1
  Sb  Sb10  1  0.250000  0.141934  0.482859  1
  Sb  Sb11  1  0.750000  0.858066  0.517141  1
  Sb  Sb12  1  0.250000  0.162671  0.160785  1
  Sb  Sb13  1  0.750000  0.837329  0.839215  1
  Sb  Sb14  1  0.250000  0.422088  0.974747  1
  Sb  Sb15  1  0.750000  0.577912  0.025253  1
  Sb  Sb16  1  0.750000  0.028512  0.913396  1
  Sb  Sb17  1  0.250000  0.971488  0.086604  1
  Sb  Sb18  1  0.750000  0.142509  0.315155  1
  Sb  Sb19  1  0.250000  0.857491  0.684845  1
  Sb  Sb20  1  0.750000  0.280483  0.936340  1
  Sb  Sb21  1  0.250000  0.719517  0.063660  1
  Sb  Sb22  1  0.750000  0.289443  0.659220  1
  Sb  Sb23  1  0.250000  0.710557  0.340780  1
  Sb  Sb24  1  0.750000  0.573014  0.742146  1
  Sb  Sb25  1  0.250000  0.426986  0.257854  1
  Sb  Sb26  1  0.750000  0.570348  0.443553  1
  Sb  Sb27  1  0.250000  0.429652  0.556447  1
