# generated using pymatgen
data_Zr6Zn19Cu2SiNi2
_symmetry_space_group_name_H-M   'P 1'
_cell_length_a   8.72315404
_cell_length_b   8.71527118
_cell_length_c   8.68395517
_cell_angle_alpha   60.04965436
_cell_angle_beta   59.86260670
_cell_angle_gamma   59.72020280
_symmetry_Int_Tables_number   1
_chemical_formula_structural   Zr6Zn19Cu2SiNi2
_chemical_formula_sum   'Zr6 Zn19 Cu2 Si1 Ni2'
_cell_volume   465.52267554
_cell_formula_units_Z   1
loop_
 _symmetry_equiv_pos_site_id
 _symmetry_equiv_pos_as_xyz
  1  'x, y, z'
loop_
 _atom_site_type_symbol
 _atom_site_label
 _atom_site_symmetry_multiplicity
 _atom_site_fract_x
 _atom_site_fract_y
 _atom_site_fract_z
 _atom_site_occupancy
  Zr  Zr0  1  0.712406  0.287916  0.287698  1
  Zr  Zr1  1  0.287594  0.712084  0.712302  1
  Zr  Zr2  1  0.288917  0.708222  0.291788  1
  Zr  Zr3  1  0.711083  0.291778  0.708212  1
  Zr  Zr4  1  0.290190  0.293291  0.706762  1
  Zr  Zr5  1  0.709810  0.706709  0.293238  1
  Zn  Zn6  1  0.125530  0.115701  0.115999  1
  Zn  Zn7  1  0.874470  0.884299  0.884001  1
  Zn  Zn8  1  0.121048  0.126755  0.639231  1
  Zn  Zn9  1  0.115018  0.640462  0.130175  1
  Zn  Zn10  1  0.878952  0.873245  0.360769  1
  Zn  Zn11  1  0.884982  0.359538  0.869825  1
  Zn  Zn12  1  0.641176  0.113917  0.122855  1
  Zn  Zn13  1  0.358824  0.886083  0.877145  1
  Zn  Zn14  1  0.000000  0.500000  0.000000  1
  Zn  Zn15  1  0.000000  0.000000  0.500000  1
  Zn  Zn16  1  0.500000  0.500000  0.000000  1
  Zn  Zn17  1  0.330785  0.334046  0.340629  1
  Zn  Zn18  1  0.669215  0.665954  0.659371  1
  Zn  Zn19  1  0.338381  0.330428  0.993675  1
  Zn  Zn20  1  0.340084  0.993331  0.333722  1
  Zn  Zn21  1  0.661619  0.669572  0.006325  1
  Zn  Zn22  1  0.659916  0.006669  0.666278  1
  Zn  Zn23  1  0.995270  0.338130  0.339185  1
  Zn  Zn24  1  0.004730  0.661870  0.660815  1
  Cu  Cu25  1  0.500000  0.000000  0.000000  1
  Cu  Cu26  1  0.500000  0.000000  0.500000  1
  Si  Si27  1  0.500000  0.500000  0.500000  1
  Ni  Ni28  1  0.000000  0.500000  0.500000  1
  Ni  Ni29  1  0.000000  0.000000  0.000000  1
