# generated using pymatgen
data_Dy4OsBr4
_symmetry_space_group_name_H-M   'P 1'
_cell_length_a   9.00845473
_cell_length_b   9.00845461
_cell_length_c   6.54788280
_cell_angle_alpha   89.63612720
_cell_angle_beta   89.63613159
_cell_angle_gamma   89.41545866
_symmetry_Int_Tables_number   1
_chemical_formula_structural   Dy4OsBr4
_chemical_formula_sum   'Dy8 Os2 Br8'
_cell_volume   531.32659000
_cell_formula_units_Z   2
loop_
 _symmetry_equiv_pos_site_id
 _symmetry_equiv_pos_as_xyz
  1  'x, y, z'
loop_
 _atom_site_type_symbol
 _atom_site_label
 _atom_site_symmetry_multiplicity
 _atom_site_fract_x
 _atom_site_fract_y
 _atom_site_fract_z
 _atom_site_occupancy
  Dy  Dy0  1  0.248297  0.902346  0.010660  1
  Dy  Dy1  1  0.751703  0.097654  0.989340  1
  Dy  Dy2  1  0.097654  0.751703  0.489340  1
  Dy  Dy3  1  0.902346  0.248297  0.510660  1
  Dy  Dy4  1  0.752514  0.903412  0.506242  1
  Dy  Dy5  1  0.247486  0.096588  0.493758  1
  Dy  Dy6  1  0.096588  0.247486  0.993758  1
  Dy  Dy7  1  0.903412  0.752514  0.006242  1
  Os  Os8  1  0.995807  0.004193  0.250000  1
  Os  Os9  1  0.004193  0.995807  0.750000  1
  Br  Br10  1  0.416185  0.818120  0.410866  1
  Br  Br11  1  0.583815  0.181880  0.589134  1
  Br  Br12  1  0.181880  0.583815  0.089134  1
  Br  Br13  1  0.818120  0.416185  0.910866  1
  Br  Br14  1  0.411713  0.189176  0.091974  1
  Br  Br15  1  0.588287  0.810824  0.908026  1
  Br  Br16  1  0.810824  0.588287  0.408026  1
  Br  Br17  1  0.189176  0.411713  0.591974  1
