# generated using pymatgen
data_Ce3PrCdHgPt4
_symmetry_space_group_name_H-M   'P 1'
_cell_length_a   7.89705445
_cell_length_b   7.89925415
_cell_length_c   3.78241900
_cell_angle_alpha   90.00000000
_cell_angle_beta   90.00000000
_cell_angle_gamma   91.06920142
_symmetry_Int_Tables_number   1
_chemical_formula_structural   Ce3PrCdHgPt4
_chemical_formula_sum   'Ce3 Pr1 Cd1 Hg1 Pt4'
_cell_volume   235.90939295
_cell_formula_units_Z   1
loop_
 _symmetry_equiv_pos_site_id
 _symmetry_equiv_pos_as_xyz
  1  'x, y, z'
loop_
 _atom_site_type_symbol
 _atom_site_label
 _atom_site_symmetry_multiplicity
 _atom_site_fract_x
 _atom_site_fract_y
 _atom_site_fract_z
 _atom_site_occupancy
  Ce  Ce0  1  0.331679  0.826937  0.500000  1
  Ce  Ce1  1  0.827845  0.668640  0.500000  1
  Ce  Ce2  1  0.668691  0.171406  0.500000  1
  Pr  Pr3  1  0.172949  0.331571  0.500000  1
  Cd  Cd4  1  0.998948  0.000508  0.000000  1
  Hg  Hg5  1  0.499799  0.501371  0.000000  1
  Pt  Pt6  1  0.638488  0.868973  0.000000  1
  Pt  Pt7  1  0.122704  0.644067  0.000000  1
  Pt  Pt8  1  0.863286  0.369739  0.000000  1
  Pt  Pt9  1  0.375612  0.116788  0.000000  1
