# generated using pymatgen
data_Ho5Er15Ir7Au5
_symmetry_space_group_name_H-M   'P 1'
_cell_length_a   11.07602547
_cell_length_b   11.08102895
_cell_length_c   6.32769104
_cell_angle_alpha   89.90201415
_cell_angle_beta   89.88530777
_cell_angle_gamma   89.58146101
_symmetry_Int_Tables_number   1
_chemical_formula_structural   Ho5Er15Ir7Au5
_chemical_formula_sum   'Ho5 Er15 Ir7 Au5'
_cell_volume   776.59791411
_cell_formula_units_Z   1
loop_
 _symmetry_equiv_pos_site_id
 _symmetry_equiv_pos_as_xyz
  1  'x, y, z'
loop_
 _atom_site_type_symbol
 _atom_site_label
 _atom_site_symmetry_multiplicity
 _atom_site_fract_x
 _atom_site_fract_y
 _atom_site_fract_z
 _atom_site_occupancy
  Ho  Ho0  1  0.300166  0.090622  0.364310  1
  Ho  Ho1  1  0.301781  0.907892  0.862288  1
  Ho  Ho2  1  0.697047  0.080458  0.859724  1
  Ho  Ho3  1  0.697524  0.906310  0.361157  1
  Ho  Ho4  1  0.580874  0.785507  0.875776  1
  Er  Er5  1  0.575245  0.206106  0.363248  1
  Er  Er6  1  0.418161  0.789600  0.375668  1
  Er  Er7  1  0.411658  0.207418  0.878214  1
  Er  Er8  1  0.213790  0.419383  0.623913  1
  Er  Er9  1  0.210102  0.581598  0.124401  1
  Er  Er10  1  0.794332  0.424827  0.136644  1
  Er  Er11  1  0.793058  0.588206  0.621600  1
  Er  Er12  1  0.909753  0.699315  0.135337  1
  Er  Er13  1  0.920127  0.303369  0.639840  1
  Er  Er14  1  0.091912  0.697611  0.637233  1
  Er  Er15  1  0.093495  0.303063  0.138368  1
  Er  Er16  1  0.998784  0.000246  0.499165  1
  Er  Er17  1  0.999730  0.001304  0.001119  1
  Er  Er18  1  0.495920  0.501799  0.001849  1
  Er  Er19  1  0.497875  0.503927  0.498448  1
  Ir  Ir20  1  0.653336  0.650622  0.250852  1
  Ir  Ir21  1  0.348656  0.347159  0.249340  1
  Ir  Ir22  1  0.345338  0.653693  0.749644  1
  Ir  Ir23  1  0.499401  0.999783  0.111666  1
  Ir  Ir24  1  0.499128  0.000356  0.613423  1
  Ir  Ir25  1  0.000010  0.500728  0.886185  1
  Ir  Ir26  1  0.000546  0.500504  0.388367  1
  Au  Au27  1  0.841803  0.158896  0.250615  1
  Au  Au28  1  0.844319  0.844950  0.750949  1
  Au  Au29  1  0.154133  0.156990  0.750173  1
  Au  Au30  1  0.155758  0.843391  0.250614  1
  Au  Au31  1  0.656239  0.344370  0.749871  1
