# generated using pymatgen
data_Er2SiRh6
_symmetry_space_group_name_H-M   'P 1'
_cell_length_a   5.96800753
_cell_length_b   5.96800775
_cell_length_c   5.96800800
_cell_angle_alpha   59.99999861
_cell_angle_beta   59.99999742
_cell_angle_gamma   60.00000267
_symmetry_Int_Tables_number   1
_chemical_formula_structural   Er2SiRh6
_chemical_formula_sum   'Er2 Si1 Rh6'
_cell_volume   150.30489880
_cell_formula_units_Z   1
loop_
 _symmetry_equiv_pos_site_id
 _symmetry_equiv_pos_as_xyz
  1  'x, y, z'
loop_
 _atom_site_type_symbol
 _atom_site_label
 _atom_site_symmetry_multiplicity
 _atom_site_fract_x
 _atom_site_fract_y
 _atom_site_fract_z
 _atom_site_occupancy
  Er  Er0  1  0.250000  0.250000  0.250000  1
  Er  Er1  1  0.750000  0.750000  0.750000  1
  Si  Si2  1  0.000000  0.000000  0.000000  1
  Rh  Rh3  1  0.729785  0.270216  0.270216  1
  Rh  Rh4  1  0.270216  0.729785  0.270216  1
  Rh  Rh5  1  0.729784  0.729784  0.270217  1
  Rh  Rh6  1  0.270216  0.270216  0.729785  1
  Rh  Rh7  1  0.729784  0.270217  0.729784  1
  Rh  Rh8  1  0.270217  0.729784  0.729784  1
