# generated using pymatgen
data_Y4Al16Si2(OsPd)3
_symmetry_space_group_name_H-M   'P 1'
_cell_length_a   7.58248389
_cell_length_b   7.58248448
_cell_length_c   9.39560208
_cell_angle_alpha   90.06788704
_cell_angle_beta   90.06788979
_cell_angle_gamma   119.53087760
_symmetry_Int_Tables_number   1
_chemical_formula_structural   Y4Al16Si2(OsPd)3
_chemical_formula_sum   'Y4 Al16 Si2 Os3 Pd3'
_cell_volume   470.01391332
_cell_formula_units_Z   1
loop_
 _symmetry_equiv_pos_site_id
 _symmetry_equiv_pos_as_xyz
  1  'x, y, z'
loop_
 _atom_site_type_symbol
 _atom_site_label
 _atom_site_symmetry_multiplicity
 _atom_site_fract_x
 _atom_site_fract_y
 _atom_site_fract_z
 _atom_site_occupancy
  Y  Y0  1  0.994694  0.675805  0.248872  1
  Y  Y1  1  0.005319  0.323955  0.750637  1
  Y  Y2  1  0.676045  0.994681  0.249363  1
  Y  Y3  1  0.324195  0.005306  0.751128  1
  Al  Al4  1  0.996798  0.331708  0.076757  1
  Al  Al5  1  0.994168  0.661822  0.922567  1
  Al  Al6  1  0.997735  0.668918  0.579766  1
  Al  Al7  1  0.331082  0.002265  0.420234  1
  Al  Al8  1  0.001641  0.332548  0.421627  1
  Al  Al9  1  0.667452  0.998359  0.578373  1
  Al  Al10  1  0.668292  0.003202  0.923243  1
  Al  Al11  1  0.338178  0.005832  0.077433  1
  Al  Al12  1  0.331879  0.332529  0.558083  1
  Al  Al13  1  0.667471  0.668121  0.441917  1
  Al  Al14  1  0.670495  0.664037  0.051600  1
  Al  Al15  1  0.335963  0.329505  0.948400  1
  Al  Al16  1  0.336594  0.546428  0.249393  1
  Al  Al17  1  0.661630  0.451496  0.753144  1
  Al  Al18  1  0.548504  0.338370  0.246856  1
  Al  Al19  1  0.453572  0.663406  0.750607  1
  Si  Si20  1  0.124848  0.126007  0.249814  1
  Si  Si21  1  0.873993  0.875152  0.750186  1
  Os  Os22  1  0.672002  0.327998  0.000000  1
  Os  Os23  1  0.000692  0.999308  0.000000  1
  Os  Os24  1  0.999612  0.000388  0.500000  1
  Pd  Pd25  1  0.328207  0.671793  0.000000  1
  Pd  Pd26  1  0.327263  0.672737  0.500000  1
  Pd  Pd27  1  0.671676  0.328324  0.500000  1
