# generated using pymatgen
data_LiYb(Nb2B5)4
_symmetry_space_group_name_H-M   'P 1'
_cell_length_a   6.21278225
_cell_length_b   7.07386506
_cell_length_c   7.42860826
_cell_angle_alpha   93.92082607
_cell_angle_beta   102.09240326
_cell_angle_gamma   116.11680390
_symmetry_Int_Tables_number   1
_chemical_formula_structural   LiYb(Nb2B5)4
_chemical_formula_sum   'Li1 Yb1 Nb8 B20'
_cell_volume   281.80121716
_cell_formula_units_Z   1
loop_
 _symmetry_equiv_pos_site_id
 _symmetry_equiv_pos_as_xyz
  1  'x, y, z'
loop_
 _atom_site_type_symbol
 _atom_site_label
 _atom_site_symmetry_multiplicity
 _atom_site_fract_x
 _atom_site_fract_y
 _atom_site_fract_z
 _atom_site_occupancy
  Li  Li0  1  0.999740  0.999654  0.000503  1
  Yb  Yb1  1  0.501091  0.800941  0.399600  1
  Nb  Nb2  1  0.502555  0.004507  0.000076  1
  Nb  Nb3  1  0.001729  0.399808  0.198317  1
  Nb  Nb4  1  0.500874  0.198094  0.602382  1
  Nb  Nb5  1  0.997697  0.796285  0.400893  1
  Nb  Nb6  1  0.500307  0.596904  0.798632  1
  Nb  Nb7  1  0.497604  0.400013  0.198379  1
  Nb  Nb8  1  0.001306  0.202833  0.602324  1
  Nb  Nb9  1  0.997084  0.600810  0.800518  1
  B  B10  1  0.329568  0.229403  0.869831  1
  B  B11  1  0.333232  0.634139  0.063212  1
  B  B12  1  0.165491  0.362495  0.935862  1
  B  B13  1  0.329919  0.036277  0.262626  1
  B  B14  1  0.163618  0.769926  0.126377  1
  B  B15  1  0.835217  0.229406  0.870350  1
  B  B16  1  0.164735  0.165502  0.326477  1
  B  B17  1  0.835628  0.639715  0.062571  1
  B  B18  1  0.331738  0.429952  0.466015  1
  B  B19  1  0.667229  0.367810  0.932995  1
  B  B20  1  0.837284  0.036191  0.261550  1
  B  B21  1  0.669687  0.769655  0.126830  1
  B  B22  1  0.333408  0.833769  0.670340  1
  B  B23  1  0.165594  0.565679  0.535244  1
  B  B24  1  0.666659  0.168102  0.331820  1
  B  B25  1  0.832573  0.431872  0.467422  1
  B  B26  1  0.164484  0.965517  0.739012  1
  B  B27  1  0.836265  0.832430  0.674096  1
  B  B28  1  0.667371  0.565522  0.534883  1
  B  B29  1  0.670310  0.966791  0.740865  1
