# generated using pymatgen
data_Y8HgPd8Pb3
_symmetry_space_group_name_H-M   'P 1'
_cell_length_a   7.94620300
_cell_length_b   7.94620300
_cell_length_c   7.31662300
_cell_angle_alpha   90.00000000
_cell_angle_beta   90.00000000
_cell_angle_gamma   90.00000000
_symmetry_Int_Tables_number   1
_chemical_formula_structural   Y8HgPd8Pb3
_chemical_formula_sum   'Y8 Hg1 Pd8 Pb3'
_cell_volume   461.98724928
_cell_formula_units_Z   1
loop_
 _symmetry_equiv_pos_site_id
 _symmetry_equiv_pos_as_xyz
  1  'x, y, z'
loop_
 _atom_site_type_symbol
 _atom_site_label
 _atom_site_symmetry_multiplicity
 _atom_site_fract_x
 _atom_site_fract_y
 _atom_site_fract_z
 _atom_site_occupancy
  Y  Y0  1  0.672530  0.659311  0.497998  1
  Y  Y1  1  0.825221  0.188507  0.498712  1
  Y  Y2  1  0.688507  0.674779  0.001288  1
  Y  Y3  1  0.840689  0.172530  0.002002  1
  Y  Y4  1  0.174779  0.811493  0.498712  1
  Y  Y5  1  0.311493  0.325221  0.001288  1
  Y  Y6  1  0.159311  0.827470  0.002002  1
  Y  Y7  1  0.327470  0.340689  0.497998  1
  Hg  Hg8  1  0.000000  0.500000  0.250000  1
  Pd  Pd9  1  0.623546  0.374167  0.232787  1
  Pd  Pd10  1  0.378067  0.626514  0.767933  1
  Pd  Pd11  1  0.873486  0.878067  0.732067  1
  Pd  Pd12  1  0.621933  0.373486  0.767933  1
  Pd  Pd13  1  0.376454  0.625833  0.232787  1
  Pd  Pd14  1  0.125833  0.123546  0.267213  1
  Pd  Pd15  1  0.874167  0.876454  0.267213  1
  Pd  Pd16  1  0.126514  0.121933  0.732067  1
  Pb  Pb17  1  0.500000  0.000000  0.750000  1
  Pb  Pb18  1  0.500000  0.000000  0.250000  1
  Pb  Pb19  1  0.000000  0.500000  0.750000  1
