# generated using pymatgen
data_Er3Tm3B14OsW
_symmetry_space_group_name_H-M   'P 1'
_cell_length_a   8.01583327
_cell_length_b   8.01583367
_cell_length_c   9.32837632
_cell_angle_alpha   89.97078925
_cell_angle_beta   90.02920974
_cell_angle_gamma   155.01019172
_symmetry_Int_Tables_number   1
_chemical_formula_structural   Er3Tm3B14OsW
_chemical_formula_sum   'Er3 Tm3 B14 Os1 W1'
_cell_volume   253.21295678
_cell_formula_units_Z   1
loop_
 _symmetry_equiv_pos_site_id
 _symmetry_equiv_pos_as_xyz
  1  'x, y, z'
loop_
 _atom_site_type_symbol
 _atom_site_label
 _atom_site_symmetry_multiplicity
 _atom_site_fract_x
 _atom_site_fract_y
 _atom_site_fract_z
 _atom_site_occupancy
  Er  Er0  1  0.893708  0.106292  0.438147  1
  Er  Er1  1  0.243948  0.756052  0.249931  1
  Er  Er2  1  0.754421  0.245579  0.750043  1
  Tm  Tm3  1  0.107238  0.892762  0.557964  1
  Tm  Tm4  1  0.893846  0.106154  0.061486  1
  Tm  Tm5  1  0.107268  0.892732  0.942085  1
  B  B6  1  0.726593  0.273407  0.464995  1
  B  B7  1  0.271425  0.728575  0.532154  1
  B  B8  1  0.726785  0.273215  0.035099  1
  B  B9  1  0.271564  0.728436  0.967934  1
  B  B10  1  0.631963  0.368037  0.150577  1
  B  B11  1  0.365156  0.634844  0.853142  1
  B  B12  1  0.631953  0.368047  0.349432  1
  B  B13  1  0.365130  0.634870  0.647166  1
  B  B14  1  0.520415  0.479585  0.096009  1
  B  B15  1  0.481195  0.518805  0.909773  1
  B  B16  1  0.520514  0.479486  0.403788  1
  B  B17  1  0.481271  0.518729  0.590477  1
  B  B18  1  0.455638  0.544362  0.249696  1
  B  B19  1  0.548245  0.451755  0.750041  1
  Os  Os20  1  0.053628  0.946372  0.249881  1
  W  W21  1  0.948099  0.051901  0.750179  1
