# generated using pymatgen
data_Nd3Sm(Tm3Si4)2
_symmetry_space_group_name_H-M   'P 1'
_cell_length_a   7.69026257
_cell_length_b   7.69231457
_cell_length_c   14.15440100
_cell_angle_alpha   90.00000000
_cell_angle_beta   90.00000000
_cell_angle_gamma   90.04426456
_symmetry_Int_Tables_number   1
_chemical_formula_structural   Nd3Sm(Tm3Si4)2
_chemical_formula_sum   'Nd6 Sm2 Tm12 Si16'
_cell_volume   837.31634738
_cell_formula_units_Z   2
loop_
 _symmetry_equiv_pos_site_id
 _symmetry_equiv_pos_as_xyz
  1  'x, y, z'
loop_
 _atom_site_type_symbol
 _atom_site_label
 _atom_site_symmetry_multiplicity
 _atom_site_fract_x
 _atom_site_fract_y
 _atom_site_fract_z
 _atom_site_occupancy
  Nd  Nd0  1  0.992764  0.642952  0.540721  1
  Nd  Nd1  1  0.492820  0.857538  0.209193  1
  Nd  Nd2  1  0.507180  0.142462  0.709193  1
  Nd  Nd3  1  0.857236  0.492700  0.790865  1
  Nd  Nd4  1  0.142764  0.507300  0.290865  1
  Nd  Nd5  1  0.007236  0.357048  0.040721  1
  Sm  Sm6  1  0.641950  0.993350  0.458923  1
  Sm  Sm7  1  0.358050  0.006650  0.958923  1
  Tm  Tm8  1  0.493040  0.359590  0.124074  1
  Tm  Tm9  1  0.993393  0.139918  0.625680  1
  Tm  Tm10  1  0.859984  0.006795  0.874326  1
  Tm  Tm11  1  0.140016  0.993205  0.374326  1
  Tm  Tm12  1  0.506960  0.640410  0.624074  1
  Tm  Tm13  1  0.359697  0.493008  0.875888  1
  Tm  Tm14  1  0.640303  0.506992  0.375888  1
  Tm  Tm15  1  0.006607  0.860082  0.125680  1
  Tm  Tm16  1  0.318605  0.317930  0.499980  1
  Tm  Tm17  1  0.182053  0.818529  0.750087  1
  Tm  Tm18  1  0.817947  0.181471  0.250087  1
  Tm  Tm19  1  0.681395  0.682070  0.999980  1
  Si  Si20  1  0.290417  0.938254  0.561470  1
  Si  Si21  1  0.709583  0.061746  0.061470  1
  Si  Si22  1  0.937098  0.288726  0.438225  1
  Si  Si23  1  0.438529  0.210076  0.312131  1
  Si  Si24  1  0.561471  0.789924  0.812131  1
  Si  Si25  1  0.210737  0.437714  0.688262  1
  Si  Si26  1  0.789263  0.562286  0.188262  1
  Si  Si27  1  0.062902  0.711274  0.938225  1
  Si  Si28  1  0.795696  0.849131  0.687586  1
  Si  Si29  1  0.204304  0.150869  0.187586  1
  Si  Si30  1  0.848402  0.796629  0.312926  1
  Si  Si31  1  0.349887  0.704864  0.437666  1
  Si  Si32  1  0.650113  0.295136  0.937666  1
  Si  Si33  1  0.703894  0.348070  0.561996  1
  Si  Si34  1  0.296106  0.651930  0.061996  1
  Si  Si35  1  0.151598  0.203371  0.812926  1
