# generated using pymatgen
data_Th2AlGaCu2(SiAu)2
_symmetry_space_group_name_H-M   'P 1'
_cell_length_a   4.22695300
_cell_length_b   4.22695300
_cell_length_c   10.44463200
_cell_angle_alpha   90.00000000
_cell_angle_beta   90.00000000
_cell_angle_gamma   90.00000000
_symmetry_Int_Tables_number   1
_chemical_formula_structural   Th2AlGaCu2(SiAu)2
_chemical_formula_sum   'Th2 Al1 Ga1 Cu2 Si2 Au2'
_cell_volume   186.61561513
_cell_formula_units_Z   1
loop_
 _symmetry_equiv_pos_site_id
 _symmetry_equiv_pos_as_xyz
  1  'x, y, z'
loop_
 _atom_site_type_symbol
 _atom_site_label
 _atom_site_symmetry_multiplicity
 _atom_site_fract_x
 _atom_site_fract_y
 _atom_site_fract_z
 _atom_site_occupancy
  Th  Th0  1  0.000000  0.500000  0.221592  1
  Th  Th1  1  0.500000  0.000000  0.778408  1
  Al  Al2  1  0.500000  0.500000  0.500000  1
  Ga  Ga3  1  0.000000  0.000000  0.500000  1
  Cu  Cu4  1  0.000000  0.000000  0.000000  1
  Cu  Cu5  1  0.500000  0.500000  0.000000  1
  Si  Si6  1  0.000000  0.500000  0.883232  1
  Si  Si7  1  0.500000  0.000000  0.116768  1
  Au  Au8  1  0.000000  0.500000  0.646057  1
  Au  Au9  1  0.500000  0.000000  0.353943  1
