# generated using pymatgen
data_Dy5Co4(P4Ru5)3
_symmetry_space_group_name_H-M   'P 1'
_cell_length_a   12.46700800
_cell_length_b   12.46700745
_cell_length_c   3.86678900
_cell_angle_alpha   90.00000000
_cell_angle_beta   90.00000000
_cell_angle_gamma   120.00000146
_symmetry_Int_Tables_number   1
_chemical_formula_structural   Dy5Co4(P4Ru5)3
_chemical_formula_sum   'Dy5 Co4 P12 Ru15'
_cell_volume   520.48181076
_cell_formula_units_Z   1
loop_
 _symmetry_equiv_pos_site_id
 _symmetry_equiv_pos_as_xyz
  1  'x, y, z'
loop_
 _atom_site_type_symbol
 _atom_site_label
 _atom_site_symmetry_multiplicity
 _atom_site_fract_x
 _atom_site_fract_y
 _atom_site_fract_z
 _atom_site_occupancy
  Dy  Dy0  1  0.666667  0.333333  0.000000  1
  Dy  Dy1  1  0.333333  0.666667  0.000000  1
  Dy  Dy2  1  0.181453  0.181453  0.500000  1
  Dy  Dy3  1  0.818547  0.000000  0.500000  1
  Dy  Dy4  1  0.000000  0.818547  0.500000  1
  Co  Co5  1  0.719844  0.719844  0.500000  1
  Co  Co6  1  0.280156  0.000000  0.500000  1
  Co  Co7  1  0.000000  0.280156  0.500000  1
  Co  Co8  1  0.000000  0.000000  0.000000  1
  P  P9  1  0.370195  0.370195  0.000000  1
  P  P10  1  0.629805  0.000000  0.000000  1
  P  P11  1  0.000000  0.629805  0.000000  1
  P  P12  1  0.837508  0.311173  0.500000  1
  P  P13  1  0.688827  0.526335  0.500000  1
  P  P14  1  0.473665  0.162492  0.500000  1
  P  P15  1  0.311173  0.837508  0.500000  1
  P  P16  1  0.526335  0.688827  0.500000  1
  P  P17  1  0.162492  0.473665  0.500000  1
  P  P18  1  0.822095  0.822095  0.000000  1
  P  P19  1  0.177905  0.000000  0.000000  1
  P  P20  1  0.000000  0.177905  0.000000  1
  Ru  Ru21  1  0.822139  0.193771  0.000000  1
  Ru  Ru22  1  0.806229  0.628368  0.000000  1
  Ru  Ru23  1  0.371632  0.177861  0.000000  1
  Ru  Ru24  1  0.193771  0.822139  0.000000  1
  Ru  Ru25  1  0.628368  0.806229  0.000000  1
  Ru  Ru26  1  0.177861  0.371632  0.000000  1
  Ru  Ru27  1  0.556727  0.556727  0.000000  1
  Ru  Ru28  1  0.443273  0.000000  0.000000  1
  Ru  Ru29  1  0.000000  0.443273  0.000000  1
  Ru  Ru30  1  0.638891  0.126628  0.500000  1
  Ru  Ru31  1  0.873372  0.512264  0.500000  1
  Ru  Ru32  1  0.487736  0.361109  0.500000  1
  Ru  Ru33  1  0.126628  0.638891  0.500000  1
  Ru  Ru34  1  0.512264  0.873372  0.500000  1
  Ru  Ru35  1  0.361109  0.487736  0.500000  1
