# generated using pymatgen
data_Er2Sc3Si7Pt8Rh
_symmetry_space_group_name_H-M   'P 1'
_cell_length_a   10.05057576
_cell_length_b   10.04602613
_cell_length_c   3.94209400
_cell_angle_alpha   90.00000000
_cell_angle_beta   90.00000000
_cell_angle_gamma   119.80527962
_symmetry_Int_Tables_number   1
_chemical_formula_structural   Er2Sc3Si7Pt8Rh
_chemical_formula_sum   'Er2 Sc3 Si7 Pt8 Rh1'
_cell_volume   345.37560291
_cell_formula_units_Z   1
loop_
 _symmetry_equiv_pos_site_id
 _symmetry_equiv_pos_as_xyz
  1  'x, y, z'
loop_
 _atom_site_type_symbol
 _atom_site_label
 _atom_site_symmetry_multiplicity
 _atom_site_fract_x
 _atom_site_fract_y
 _atom_site_fract_z
 _atom_site_occupancy
  Er  Er0  1  0.000767  0.998001  0.000000  1
  Er  Er1  1  0.332526  0.668541  0.500000  1
  Sc  Sc2  1  0.894278  0.455915  0.500000  1
  Sc  Sc3  1  0.559665  0.103721  0.500000  1
  Sc  Sc4  1  0.543055  0.438732  0.500000  1
  Si  Si5  1  0.244925  0.190056  0.500000  1
  Si  Si6  1  0.805884  0.050142  0.500000  1
  Si  Si7  1  0.955711  0.756068  0.500000  1
  Si  Si8  1  0.556248  0.648257  0.000000  1
  Si  Si9  1  0.349310  0.910016  0.000000  1
  Si  Si10  1  0.090859  0.445073  0.000000  1
  Si  Si11  1  0.665706  0.332436  0.000000  1
  Pt  Pt12  1  0.064104  0.281662  0.500000  1
  Pt  Pt13  1  0.719504  0.781945  0.500000  1
  Pt  Pt14  1  0.314794  0.415677  0.000000  1
  Pt  Pt15  1  0.585466  0.901139  0.000000  1
  Pt  Pt16  1  0.097930  0.687332  0.000000  1
  Pt  Pt17  1  0.382950  0.173213  0.000000  1
  Pt  Pt18  1  0.827647  0.210782  0.000000  1
  Pt  Pt19  1  0.786895  0.614534  0.000000  1
  Rh  Rh20  1  0.221771  0.936762  0.500000  1
