# generated using pymatgen
data_Ho10Ag3Os
_symmetry_space_group_name_H-M   'P 1'
_cell_length_a   9.46194000
_cell_length_b   9.46194015
_cell_length_c   9.67417300
_cell_angle_alpha   90.00000000
_cell_angle_beta   90.00000000
_cell_angle_gamma   120.00000648
_symmetry_Int_Tables_number   1
_chemical_formula_structural   Ho10Ag3Os
_chemical_formula_sum   'Ho20 Ag6 Os2'
_cell_volume   750.07525624
_cell_formula_units_Z   2
loop_
 _symmetry_equiv_pos_site_id
 _symmetry_equiv_pos_as_xyz
  1  'x, y, z'
loop_
 _atom_site_type_symbol
 _atom_site_label
 _atom_site_symmetry_multiplicity
 _atom_site_fract_x
 _atom_site_fract_y
 _atom_site_fract_z
 _atom_site_occupancy
  Ho  Ho0  1  0.000000  0.000000  0.500000  1
  Ho  Ho1  1  0.000000  0.000000  0.000000  1
  Ho  Ho2  1  0.539900  0.460100  0.250000  1
  Ho  Ho3  1  0.539900  0.079801  0.250000  1
  Ho  Ho4  1  0.920199  0.460100  0.250000  1
  Ho  Ho5  1  0.460100  0.539900  0.750000  1
  Ho  Ho6  1  0.460100  0.920199  0.750000  1
  Ho  Ho7  1  0.079801  0.539900  0.750000  1
  Ho  Ho8  1  0.208789  0.791211  0.442246  1
  Ho  Ho9  1  0.208789  0.417580  0.442246  1
  Ho  Ho10  1  0.582420  0.791211  0.442246  1
  Ho  Ho11  1  0.791211  0.208789  0.557754  1
  Ho  Ho12  1  0.791211  0.582420  0.557754  1
  Ho  Ho13  1  0.417580  0.208789  0.557754  1
  Ho  Ho14  1  0.791211  0.208789  0.942246  1
  Ho  Ho15  1  0.791211  0.582420  0.942246  1
  Ho  Ho16  1  0.417580  0.208789  0.942246  1
  Ho  Ho17  1  0.208789  0.791211  0.057754  1
  Ho  Ho18  1  0.208789  0.417580  0.057754  1
  Ho  Ho19  1  0.582420  0.791211  0.057754  1
  Ag  Ag20  1  0.883335  0.116665  0.250000  1
  Ag  Ag21  1  0.883335  0.766668  0.250000  1
  Ag  Ag22  1  0.233332  0.116665  0.250000  1
  Ag  Ag23  1  0.116665  0.883335  0.750000  1
  Ag  Ag24  1  0.116665  0.233332  0.750000  1
  Ag  Ag25  1  0.766668  0.883335  0.750000  1
  Os  Os26  1  0.333333  0.666667  0.250000  1
  Os  Os27  1  0.666667  0.333333  0.750000  1
