# generated using pymatgen
data_Sr4ReW3O16
_symmetry_space_group_name_H-M   'P 1'
_cell_length_a   5.11768079
_cell_length_b   5.62320978
_cell_length_c   13.09587400
_cell_angle_alpha   90.00000000
_cell_angle_beta   90.00000000
_cell_angle_gamma   89.80789691
_symmetry_Int_Tables_number   1
_chemical_formula_structural   Sr4ReW3O16
_chemical_formula_sum   'Sr4 Re1 W3 O16'
_cell_volume   376.86822819
_cell_formula_units_Z   1
loop_
 _symmetry_equiv_pos_site_id
 _symmetry_equiv_pos_as_xyz
  1  'x, y, z'
loop_
 _atom_site_type_symbol
 _atom_site_label
 _atom_site_symmetry_multiplicity
 _atom_site_fract_x
 _atom_site_fract_y
 _atom_site_fract_z
 _atom_site_occupancy
  Sr  Sr0  1  0.750000  0.000000  0.657451  1
  Sr  Sr1  1  0.250000  0.500000  0.843697  1
  Sr  Sr2  1  0.250000  0.000000  0.341870  1
  Sr  Sr3  1  0.750000  0.500000  0.155811  1
  Re  Re4  1  0.750000  0.000000  0.923339  1
  W  W5  1  0.750000  0.500000  0.423306  1
  W  W6  1  0.250000  0.000000  0.076602  1
  W  W7  1  0.250000  0.500000  0.576350  1
  O  O8  1  0.124616  0.290080  0.672111  1
  O  O9  1  0.636992  0.215269  0.828654  1
  O  O10  1  0.863008  0.784731  0.828654  1
  O  O11  1  0.375384  0.709920  0.672111  1
  O  O12  1  0.875870  0.709898  0.328149  1
  O  O13  1  0.374516  0.788302  0.171999  1
  O  O14  1  0.125484  0.211698  0.171999  1
  O  O15  1  0.624130  0.290102  0.328149  1
  O  O16  1  0.558196  0.309652  0.543214  1
  O  O17  1  0.050011  0.191250  0.957968  1
  O  O18  1  0.449989  0.808750  0.957968  1
  O  O19  1  0.941804  0.690348  0.543214  1
  O  O20  1  0.441643  0.689918  0.456966  1
  O  O21  1  0.944877  0.810616  0.041727  1
  O  O22  1  0.555123  0.189384  0.041727  1
  O  O23  1  0.058357  0.310082  0.456966  1
