# generated using pymatgen
data_Hf4Si2GeMoN
_symmetry_space_group_name_H-M   'P 1'
_cell_length_a   7.76701461
_cell_length_b   7.76253884
_cell_length_c   5.45205956
_cell_angle_alpha   90.05544392
_cell_angle_beta   89.88918339
_cell_angle_gamma   120.01907942
_symmetry_Int_Tables_number   1
_chemical_formula_structural   Hf4Si2GeMoN
_chemical_formula_sum   'Hf8 Si4 Ge2 Mo2 N2'
_cell_volume   284.61959163
_cell_formula_units_Z   2
loop_
 _symmetry_equiv_pos_site_id
 _symmetry_equiv_pos_as_xyz
  1  'x, y, z'
loop_
 _atom_site_type_symbol
 _atom_site_label
 _atom_site_symmetry_multiplicity
 _atom_site_fract_x
 _atom_site_fract_y
 _atom_site_fract_z
 _atom_site_occupancy
  Hf  Hf0  1  0.233069  0.000000  0.247726  1
  Hf  Hf1  1  0.766931  0.000000  0.752274  1
  Hf  Hf2  1  0.002823  0.237051  0.248533  1
  Hf  Hf3  1  0.997177  0.762949  0.751467  1
  Hf  Hf4  1  0.765772  0.762949  0.248533  1
  Hf  Hf5  1  0.234228  0.237051  0.751467  1
  Hf  Hf6  1  0.669972  0.339943  0.500000  1
  Hf  Hf7  1  0.330028  0.660057  0.500000  1
  Si  Si8  1  0.001356  0.591796  0.225995  1
  Si  Si9  1  0.998644  0.408204  0.774005  1
  Si  Si10  1  0.409560  0.408204  0.225995  1
  Si  Si11  1  0.590440  0.591796  0.774005  1
  Ge  Ge12  1  0.592763  0.000000  0.236653  1
  Ge  Ge13  1  0.407237  0.000000  0.763347  1
  Mo  Mo14  1  0.330295  0.660591  0.000000  1
  Mo  Mo15  1  0.669705  0.339409  0.000000  1
  N  N16  1  0.000000  0.000000  0.000000  1
  N  N17  1  0.000000  0.000000  0.500000  1
