# generated using pymatgen
data_Cr3FeCl16
_symmetry_space_group_name_H-M   'P 1'
_cell_length_a   6.78712360
_cell_length_b   10.39176865
_cell_length_c   10.41612566
_cell_angle_alpha   77.62187925
_cell_angle_beta   91.01692596
_cell_angle_gamma   88.86740874
_symmetry_Int_Tables_number   1
_chemical_formula_structural   Cr3FeCl16
_chemical_formula_sum   'Cr3 Fe1 Cl16'
_cell_volume   717.25203966
_cell_formula_units_Z   1
loop_
 _symmetry_equiv_pos_site_id
 _symmetry_equiv_pos_as_xyz
  1  'x, y, z'
loop_
 _atom_site_type_symbol
 _atom_site_label
 _atom_site_symmetry_multiplicity
 _atom_site_fract_x
 _atom_site_fract_y
 _atom_site_fract_z
 _atom_site_occupancy
  Cr  Cr0  1  0.575192  0.251576  0.365369  1
  Cr  Cr1  1  0.075788  0.748792  0.134339  1
  Cr  Cr2  1  0.424864  0.748281  0.635368  1
  Fe  Fe3  1  0.924894  0.251450  0.865067  1
  Cl  Cl4  1  0.571062  0.416098  0.206396  1
  Cl  Cl5  1  0.077968  0.583886  0.293891  1
  Cl  Cl6  1  0.429219  0.582884  0.793375  1
  Cl  Cl7  1  0.947497  0.417963  0.705030  1
  Cl  Cl8  1  0.641345  0.182996  0.929718  1
  Cl  Cl9  1  0.130419  0.806899  0.580897  1
  Cl  Cl10  1  0.367766  0.802923  0.084107  1
  Cl  Cl11  1  0.869483  0.193100  0.419591  1
  Cl  Cl12  1  0.055232  0.091838  0.794142  1
  Cl  Cl13  1  0.569597  0.905456  0.692944  1
  Cl  Cl14  1  0.926544  0.907947  0.190395  1
  Cl  Cl15  1  0.427691  0.095887  0.306755  1
  Cl  Cl16  1  0.053433  0.313364  0.029849  1
  Cl  Cl17  1  0.569620  0.698119  0.474395  1
  Cl  Cl18  1  0.929912  0.699491  0.971273  1
  Cl  Cl19  1  0.432475  0.301049  0.527098  1
