# generated using pymatgen
data_La2TbNd(Sn5Rh3)2
_symmetry_space_group_name_H-M   'P 1'
_cell_length_a   13.65970985
_cell_length_b   13.65971045
_cell_length_c   7.33305311
_cell_angle_alpha   90.01978282
_cell_angle_beta   89.98021760
_cell_angle_gamma   160.99129266
_symmetry_Int_Tables_number   1
_chemical_formula_structural   La2TbNd(Sn5Rh3)2
_chemical_formula_sum   'La2 Tb1 Nd1 Sn10 Rh6'
_cell_volume   445.65760445
_cell_formula_units_Z   1
loop_
 _symmetry_equiv_pos_site_id
 _symmetry_equiv_pos_as_xyz
  1  'x, y, z'
loop_
 _atom_site_type_symbol
 _atom_site_label
 _atom_site_symmetry_multiplicity
 _atom_site_fract_x
 _atom_site_fract_y
 _atom_site_fract_z
 _atom_site_occupancy
  La  La0  1  0.171948  0.828052  0.755221  1
  La  La1  1  0.828047  0.171953  0.255147  1
  Tb  Tb2  1  0.524557  0.475443  0.236678  1
  Nd  Nd3  1  0.476151  0.523849  0.736004  1
  Sn  Sn4  1  0.880010  0.119990  0.732758  1
  Sn  Sn5  1  0.119430  0.880570  0.233022  1
  Sn  Sn6  1  0.704809  0.295191  0.052951  1
  Sn  Sn7  1  0.294866  0.705134  0.553095  1
  Sn  Sn8  1  0.594928  0.405072  0.611417  1
  Sn  Sn9  1  0.405563  0.594437  0.113260  1
  Sn  Sn10  1  0.952584  0.047416  0.396890  1
  Sn  Sn11  1  0.048190  0.951810  0.900691  1
  Sn  Sn12  1  0.289785  0.710215  0.974231  1
  Sn  Sn13  1  0.710147  0.289853  0.473861  1
  Rh  Rh14  1  0.050178  0.949822  0.516327  1
  Rh  Rh15  1  0.950114  0.049886  0.020223  1
  Rh  Rh16  1  0.777821  0.222179  0.763507  1
  Rh  Rh17  1  0.221809  0.778191  0.263447  1
  Rh  Rh18  1  0.394209  0.605791  0.482241  1
  Rh  Rh19  1  0.604854  0.395146  0.985027  1
