# generated using pymatgen
data_Yb2YU5(ReB6)4
_symmetry_space_group_name_H-M   'P 1'
_cell_length_a   3.64011200
_cell_length_b   9.27631900
_cell_length_c   11.39303489
_cell_angle_alpha   90.03454297
_cell_angle_beta   90.00000000
_cell_angle_gamma   90.00000000
_symmetry_Int_Tables_number   1
_chemical_formula_structural   Yb2YU5(ReB6)4
_chemical_formula_sum   'Yb2 Y1 U5 Re4 B24'
_cell_volume   384.70671761
_cell_formula_units_Z   1
loop_
 _symmetry_equiv_pos_site_id
 _symmetry_equiv_pos_as_xyz
  1  'x, y, z'
loop_
 _atom_site_type_symbol
 _atom_site_label
 _atom_site_symmetry_multiplicity
 _atom_site_fract_x
 _atom_site_fract_y
 _atom_site_fract_z
 _atom_site_occupancy
  Yb  Yb0  1  0.000000  0.662660  0.591094  1
  Yb  Yb1  1  0.000000  0.835850  0.092543  1
  Y  Y2  1  0.000000  0.337907  0.408265  1
  U  U3  1  0.000000  0.162911  0.907975  1
  U  U4  1  0.000000  0.954671  0.396425  1
  U  U5  1  0.000000  0.041429  0.603059  1
  U  U6  1  0.000000  0.458686  0.104748  1
  U  U7  1  0.000000  0.544620  0.896286  1
  Re  Re8  1  0.000000  0.645505  0.317748  1
  Re  Re9  1  0.000000  0.350970  0.685350  1
  Re  Re10  1  0.000000  0.146981  0.177505  1
  Re  Re11  1  0.000000  0.858276  0.819768  1
  B  B12  1  0.500000  0.552368  0.431790  1
  B  B13  1  0.500000  0.447691  0.570545  1
  B  B14  1  0.500000  0.053000  0.068088  1
  B  B15  1  0.500000  0.950006  0.930732  1
  B  B16  1  0.500000  0.742545  0.422777  1
  B  B17  1  0.500000  0.256460  0.577407  1
  B  B18  1  0.500000  0.243070  0.075921  1
  B  B19  1  0.500000  0.756821  0.922225  1
  B  B20  1  0.500000  0.801454  0.274682  1
  B  B21  1  0.500000  0.196233  0.726930  1
  B  B22  1  0.500000  0.302671  0.224751  1
  B  B23  1  0.500000  0.698877  0.774831  1
  B  B24  1  0.500000  0.643475  0.188572  1
  B  B25  1  0.500000  0.354733  0.812387  1
  B  B26  1  0.500000  0.144228  0.310629  1
  B  B27  1  0.500000  0.855836  0.688555  1
  B  B28  1  0.500000  0.989636  0.219211  1
  B  B29  1  0.500000  0.013133  0.781724  1
  B  B30  1  0.500000  0.489339  0.280850  1
  B  B31  1  0.500000  0.510991  0.719421  1
  B  B32  1  0.500000  0.638806  0.037902  1
  B  B33  1  0.500000  0.357200  0.960456  1
  B  B34  1  0.500000  0.139262  0.460801  1
  B  B35  1  0.500000  0.861698  0.538048  1
