# generated using pymatgen
data_Dy3Nb(P3Rh4)2
_symmetry_space_group_name_H-M   'P 1'
_cell_length_a   3.94012400
_cell_length_b   11.16894200
_cell_length_c   12.85095100
_cell_angle_alpha   90.00000000
_cell_angle_beta   90.00000000
_cell_angle_gamma   90.00000000
_symmetry_Int_Tables_number   1
_chemical_formula_structural   Dy3Nb(P3Rh4)2
_chemical_formula_sum   'Dy6 Nb2 P12 Rh16'
_cell_volume   565.53201178
_cell_formula_units_Z   2
loop_
 _symmetry_equiv_pos_site_id
 _symmetry_equiv_pos_as_xyz
  1  'x, y, z'
loop_
 _atom_site_type_symbol
 _atom_site_label
 _atom_site_symmetry_multiplicity
 _atom_site_fract_x
 _atom_site_fract_y
 _atom_site_fract_z
 _atom_site_occupancy
  Dy  Dy0  1  0.000000  0.500000  0.522566  1
  Dy  Dy1  1  0.500000  0.000000  0.477434  1
  Dy  Dy2  1  0.500000  0.818345  0.202241  1
  Dy  Dy3  1  0.500000  0.181655  0.202241  1
  Dy  Dy4  1  0.000000  0.681655  0.797759  1
  Dy  Dy5  1  0.000000  0.318345  0.797759  1
  Nb  Nb6  1  0.500000  0.500000  0.158509  1
  Nb  Nb7  1  0.000000  0.000000  0.841491  1
  P  P8  1  0.500000  0.500000  0.876641  1
  P  P9  1  0.000000  0.000000  0.123359  1
  P  P10  1  0.500000  0.500000  0.351818  1
  P  P11  1  0.000000  0.000000  0.648182  1
  P  P12  1  0.500000  0.314009  0.616853  1
  P  P13  1  0.500000  0.685991  0.616853  1
  P  P14  1  0.000000  0.185991  0.383147  1
  P  P15  1  0.000000  0.814009  0.383147  1
  P  P16  1  0.500000  0.844951  0.887869  1
  P  P17  1  0.500000  0.155049  0.887869  1
  P  P18  1  0.000000  0.655049  0.112131  1
  P  P19  1  0.000000  0.344951  0.112131  1
  Rh  Rh20  1  0.500000  0.500000  0.698595  1
  Rh  Rh21  1  0.000000  0.000000  0.301405  1
  Rh  Rh22  1  0.000000  0.500000  0.986621  1
  Rh  Rh23  1  0.500000  0.000000  0.013379  1
  Rh  Rh24  1  0.500000  0.331843  0.986425  1
  Rh  Rh25  1  0.500000  0.668157  0.986425  1
  Rh  Rh26  1  0.000000  0.168157  0.013575  1
  Rh  Rh27  1  0.000000  0.831843  0.013575  1
  Rh  Rh28  1  0.500000  0.293835  0.432221  1
  Rh  Rh29  1  0.500000  0.706165  0.432221  1
  Rh  Rh30  1  0.000000  0.206165  0.567779  1
  Rh  Rh31  1  0.000000  0.793835  0.567779  1
  Rh  Rh32  1  0.500000  0.873842  0.706880  1
  Rh  Rh33  1  0.500000  0.126158  0.706880  1
  Rh  Rh34  1  0.000000  0.626158  0.293120  1
  Rh  Rh35  1  0.000000  0.373842  0.293120  1
