# generated using pymatgen
data_TbY(Co5As3)2
_symmetry_space_group_name_H-M   'P 1'
_cell_length_a   3.78927700
_cell_length_b   12.17405108
_cell_length_c   10.68227007
_cell_angle_alpha   90.01281514
_cell_angle_beta   90.00000000
_cell_angle_gamma   90.00000000
_symmetry_Int_Tables_number   1
_chemical_formula_structural   TbY(Co5As3)2
_chemical_formula_sum   'Tb2 Y2 Co20 As12'
_cell_volume   492.78220437
_cell_formula_units_Z   2
loop_
 _symmetry_equiv_pos_site_id
 _symmetry_equiv_pos_as_xyz
  1  'x, y, z'
loop_
 _atom_site_type_symbol
 _atom_site_label
 _atom_site_symmetry_multiplicity
 _atom_site_fract_x
 _atom_site_fract_y
 _atom_site_fract_z
 _atom_site_occupancy
  Tb  Tb0  1  0.750000  0.701450  0.081927  1
  Tb  Tb1  1  0.250000  0.298550  0.918073  1
  Y  Y2  1  0.250000  0.798552  0.582050  1
  Y  Y3  1  0.750000  0.201448  0.417950  1
  Co  Co4  1  0.750000  0.696952  0.384111  1
  Co  Co5  1  0.250000  0.303048  0.615889  1
  Co  Co6  1  0.250000  0.803165  0.883874  1
  Co  Co7  1  0.750000  0.196835  0.116126  1
  Co  Co8  1  0.750000  0.990928  0.211517  1
  Co  Co9  1  0.250000  0.009072  0.788483  1
  Co  Co10  1  0.250000  0.508805  0.711515  1
  Co  Co11  1  0.750000  0.491195  0.288485  1
  Co  Co12  1  0.750000  0.677685  0.783907  1
  Co  Co13  1  0.250000  0.322315  0.216093  1
  Co  Co14  1  0.250000  0.822383  0.284110  1
  Co  Co15  1  0.750000  0.177617  0.715890  1
  Co  Co16  1  0.750000  0.932260  0.969515  1
  Co  Co17  1  0.250000  0.067740  0.030485  1
  Co  Co18  1  0.250000  0.567758  0.469638  1
  Co  Co19  1  0.750000  0.432242  0.530362  1
  Co  Co20  1  0.750000  0.988367  0.593069  1
  Co  Co21  1  0.250000  0.011633  0.406931  1
  Co  Co22  1  0.250000  0.511650  0.093074  1
  Co  Co23  1  0.750000  0.488349  0.906926  1
  As  As24  1  0.750000  0.614066  0.584672  1
  As  As25  1  0.250000  0.385934  0.415328  1
  As  As26  1  0.250000  0.886023  0.084689  1
  As  As27  1  0.750000  0.113977  0.915311  1
  As  As28  1  0.750000  0.890742  0.399087  1
  As  As29  1  0.250000  0.109258  0.600913  1
  As  As30  1  0.250000  0.609192  0.898780  1
  As  As31  1  0.750000  0.390808  0.101220  1
  As  As32  1  0.750000  0.870489  0.769486  1
  As  As33  1  0.250000  0.129511  0.230514  1
  As  As34  1  0.250000  0.629578  0.269742  1
  As  As35  1  0.750000  0.370422  0.730258  1
