# generated using pymatgen
data_HfZrCo12Si2P5
_symmetry_space_group_name_H-M   'P 1'
_cell_length_a   8.95685035
_cell_length_b   8.95415743
_cell_length_c   3.54625100
_cell_angle_alpha   90.00000000
_cell_angle_beta   90.00000000
_cell_angle_gamma   120.25976631
_symmetry_Int_Tables_number   1
_chemical_formula_structural   HfZrCo12Si2P5
_chemical_formula_sum   'Hf1 Zr1 Co12 Si2 P5'
_cell_volume   245.66166182
_cell_formula_units_Z   1
loop_
 _symmetry_equiv_pos_site_id
 _symmetry_equiv_pos_as_xyz
  1  'x, y, z'
loop_
 _atom_site_type_symbol
 _atom_site_label
 _atom_site_symmetry_multiplicity
 _atom_site_fract_x
 _atom_site_fract_y
 _atom_site_fract_z
 _atom_site_occupancy
  Hf  Hf0  1  0.667394  0.332933  0.500000  1
  Zr  Zr1  1  0.334268  0.666235  0.000000  1
  Co  Co2  1  0.438463  0.057647  0.000000  1
  Co  Co3  1  0.933729  0.374215  0.000000  1
  Co  Co4  1  0.630167  0.565945  0.000000  1
  Co  Co5  1  0.385713  0.442379  0.500000  1
  Co  Co6  1  0.561899  0.946772  0.500000  1
  Co  Co7  1  0.051307  0.612518  0.500000  1
  Co  Co8  1  0.155820  0.284765  0.000000  1
  Co  Co9  1  0.717355  0.878895  0.000000  1
  Co  Co10  1  0.122900  0.837209  0.000000  1
  Co  Co11  1  0.230207  0.098422  0.500000  1
  Co  Co12  1  0.897956  0.132737  0.500000  1
  Co  Co13  1  0.871424  0.771296  0.500000  1
  Si  Si14  1  0.002064  0.000726  0.000000  1
  Si  Si15  1  0.407169  0.289431  0.000000  1
  P  P16  1  0.116407  0.406651  0.500000  1
  P  P17  1  0.596104  0.710883  0.500000  1
  P  P18  1  0.289888  0.883323  0.500000  1
  P  P19  1  0.707321  0.117196  0.000000  1
  P  P20  1  0.882443  0.589824  0.000000  1
