# generated using pymatgen
data_TbErAl20Fe3Rh
_symmetry_space_group_name_H-M   'P 1'
_cell_length_a   6.79188759
_cell_length_b   6.78154794
_cell_length_c   9.02594114
_cell_angle_alpha   90.19668245
_cell_angle_beta   89.99258499
_cell_angle_gamma   96.99469442
_symmetry_Int_Tables_number   1
_chemical_formula_structural   TbErAl20Fe3Rh
_chemical_formula_sum   'Tb1 Er1 Al20 Fe3 Rh1'
_cell_volume   412.63388758
_cell_formula_units_Z   1
loop_
 _symmetry_equiv_pos_site_id
 _symmetry_equiv_pos_as_xyz
  1  'x, y, z'
loop_
 _atom_site_type_symbol
 _atom_site_label
 _atom_site_symmetry_multiplicity
 _atom_site_fract_x
 _atom_site_fract_y
 _atom_site_fract_z
 _atom_site_occupancy
  Tb  Tb0  1  0.874684  0.127622  0.748272  1
  Er  Er1  1  0.125772  0.871475  0.251920  1
  Al  Al2  1  0.625586  0.375905  0.548511  1
  Al  Al3  1  0.374111  0.624416  0.451068  1
  Al  Al4  1  0.372109  0.619400  0.051479  1
  Al  Al5  1  0.627596  0.380947  0.948888  1
  Al  Al6  1  0.225959  0.227429  0.498851  1
  Al  Al7  1  0.774269  0.772366  0.500320  1
  Al  Al8  1  0.777656  0.768443  0.003123  1
  Al  Al9  1  0.222663  0.231513  0.997651  1
  Al  Al10  1  0.847314  0.161634  0.100212  1
  Al  Al11  1  0.153154  0.837987  0.900281  1
  Al  Al12  1  0.158052  0.842182  0.596789  1
  Al  Al13  1  0.842269  0.157462  0.402659  1
  Al  Al14  1  0.864818  0.585165  0.748954  1
  Al  Al15  1  0.135407  0.415907  0.251042  1
  Al  Al16  1  0.412750  0.138021  0.745066  1
  Al  Al17  1  0.586267  0.861703  0.254922  1
  Al  Al18  1  0.219862  0.480122  0.748979  1
  Al  Al19  1  0.780607  0.520490  0.251019  1
  Al  Al20  1  0.520840  0.777120  0.744204  1
  Al  Al21  1  0.478514  0.222396  0.255736  1
  Fe  Fe22  1  0.000014  0.500188  0.499615  1
  Fe  Fe23  1  0.000048  0.500170  0.000400  1
  Fe  Fe24  1  0.499784  0.999959  0.499643  1
  Rh  Rh25  1  0.499892  0.999977  0.000396  1
