# generated using pymatgen
data_Y4PdPb2Au3
_symmetry_space_group_name_H-M   'P 1'
_cell_length_a   8.14266750
_cell_length_b   8.14266750
_cell_length_c   3.66006600
_cell_angle_alpha   90.00000000
_cell_angle_beta   90.00000000
_cell_angle_gamma   90.06946421
_symmetry_Int_Tables_number   1
_chemical_formula_structural   Y4PdPb2Au3
_chemical_formula_sum   'Y4 Pd1 Pb2 Au3'
_cell_volume   242.67330191
_cell_formula_units_Z   1
loop_
 _symmetry_equiv_pos_site_id
 _symmetry_equiv_pos_as_xyz
  1  'x, y, z'
loop_
 _atom_site_type_symbol
 _atom_site_label
 _atom_site_symmetry_multiplicity
 _atom_site_fract_x
 _atom_site_fract_y
 _atom_site_fract_z
 _atom_site_occupancy
  Y  Y0  1  0.668732  0.168732  0.500000  1
  Y  Y1  1  0.170383  0.336804  0.500000  1
  Y  Y2  1  0.836804  0.670383  0.500000  1
  Y  Y3  1  0.325765  0.825765  0.500000  1
  Pd  Pd4  1  0.126144  0.626144  0.000000  1
  Pb  Pb5  1  0.001887  0.995145  0.000000  1
  Pb  Pb6  1  0.495145  0.501887  0.000000  1
  Au  Au7  1  0.876626  0.376626  0.000000  1
  Au  Au8  1  0.373511  0.125003  0.000000  1
  Au  Au9  1  0.625003  0.873511  0.000000  1
