# generated using pymatgen
data_LaY3(ScIr)4
_symmetry_space_group_name_H-M   'P 1'
_cell_length_a   7.19431339
_cell_length_b   4.28979200
_cell_length_c   8.80334493
_cell_angle_alpha   90.00000000
_cell_angle_beta   89.62477740
_cell_angle_gamma   90.00000000
_symmetry_Int_Tables_number   1
_chemical_formula_structural   LaY3(ScIr)4
_chemical_formula_sum   'La1 Y3 Sc4 Ir4'
_cell_volume   271.68395639
_cell_formula_units_Z   1
loop_
 _symmetry_equiv_pos_site_id
 _symmetry_equiv_pos_as_xyz
  1  'x, y, z'
loop_
 _atom_site_type_symbol
 _atom_site_label
 _atom_site_symmetry_multiplicity
 _atom_site_fract_x
 _atom_site_fract_y
 _atom_site_fract_z
 _atom_site_occupancy
  La  La0  1  0.512166  0.750000  0.677003  1
  Y  Y1  1  0.979278  0.250000  0.175089  1
  Y  Y2  1  0.481073  0.250000  0.321794  1
  Y  Y3  1  0.017593  0.750000  0.828991  1
  Sc  Sc4  1  0.865484  0.250000  0.562334  1
  Sc  Sc5  1  0.358215  0.250000  0.942781  1
  Sc  Sc6  1  0.140452  0.750000  0.431429  1
  Sc  Sc7  1  0.642101  0.750000  0.068710  1
  Ir  Ir8  1  0.738776  0.250000  0.897049  1
  Ir  Ir9  1  0.235711  0.250000  0.599816  1
  Ir  Ir10  1  0.262733  0.750000  0.105924  1
  Ir  Ir11  1  0.766418  0.750000  0.389079  1
