# generated using pymatgen
data_Tm6MnAl12Si12Ru7
_symmetry_space_group_name_H-M   'P 1'
_cell_length_a   8.63372000
_cell_length_b   8.63371976
_cell_length_c   9.15358700
_cell_angle_alpha   90.00000000
_cell_angle_beta   90.00000000
_cell_angle_gamma   120.00000856
_symmetry_Int_Tables_number   1
_chemical_formula_structural   Tm6MnAl12Si12Ru7
_chemical_formula_sum   'Tm6 Mn1 Al12 Si12 Ru7'
_cell_volume   590.90520558
_cell_formula_units_Z   1
loop_
 _symmetry_equiv_pos_site_id
 _symmetry_equiv_pos_as_xyz
  1  'x, y, z'
loop_
 _atom_site_type_symbol
 _atom_site_label
 _atom_site_symmetry_multiplicity
 _atom_site_fract_x
 _atom_site_fract_y
 _atom_site_fract_z
 _atom_site_occupancy
  Tm  Tm0  1  0.807808  0.192192  0.750105  1
  Tm  Tm1  1  0.192192  0.807808  0.249895  1
  Tm  Tm2  1  0.384384  0.192192  0.750105  1
  Tm  Tm3  1  0.615616  0.807808  0.249895  1
  Tm  Tm4  1  0.807808  0.615616  0.750105  1
  Tm  Tm5  1  0.192192  0.384384  0.249895  1
  Mn  Mn6  1  0.000000  0.000000  0.000000  1
  Al  Al7  1  0.834914  0.165086  0.417409  1
  Al  Al8  1  0.165086  0.834914  0.582591  1
  Al  Al9  1  0.330173  0.165086  0.417409  1
  Al  Al10  1  0.161710  0.838290  0.919395  1
  Al  Al11  1  0.669827  0.834914  0.582591  1
  Al  Al12  1  0.838290  0.161710  0.080605  1
  Al  Al13  1  0.834914  0.669827  0.417409  1
  Al  Al14  1  0.676579  0.838290  0.919395  1
  Al  Al15  1  0.165086  0.330173  0.582591  1
  Al  Al16  1  0.323421  0.161710  0.080605  1
  Al  Al17  1  0.161710  0.323421  0.919395  1
  Al  Al18  1  0.838290  0.676579  0.080605  1
  Si  Si19  1  0.666667  0.333333  0.958257  1
  Si  Si20  1  0.333333  0.666667  0.041743  1
  Si  Si21  1  0.333333  0.666667  0.456314  1
  Si  Si22  1  0.666667  0.333333  0.543686  1
  Si  Si23  1  0.438387  0.561613  0.750892  1
  Si  Si24  1  0.561613  0.438387  0.249108  1
  Si  Si25  1  0.123226  0.561613  0.750892  1
  Si  Si26  1  0.876774  0.438387  0.249108  1
  Si  Si27  1  0.438387  0.876774  0.750892  1
  Si  Si28  1  0.561613  0.123226  0.249108  1
  Si  Si29  1  0.000000  0.000000  0.756726  1
  Si  Si30  1  0.000000  0.000000  0.243274  1
  Ru  Ru31  1  0.500000  0.500000  0.000000  1
  Ru  Ru32  1  0.000000  0.500000  0.000000  1
  Ru  Ru33  1  0.500000  0.500000  0.500000  1
  Ru  Ru34  1  0.500000  0.000000  0.000000  1
  Ru  Ru35  1  0.000000  0.500000  0.500000  1
  Ru  Ru36  1  0.500000  0.000000  0.500000  1
  Ru  Ru37  1  0.000000  0.000000  0.500000  1
