# generated using pymatgen
data_Y3Er(Zn3Cd)3
_symmetry_space_group_name_H-M   'P 1'
_cell_length_a   4.41363200
_cell_length_b   7.14273835
_cell_length_c   10.06774046
_cell_angle_alpha   90.05794046
_cell_angle_beta   90.00000000
_cell_angle_gamma   90.00000000
_symmetry_Int_Tables_number   1
_chemical_formula_structural   Y3Er(Zn3Cd)3
_chemical_formula_sum   'Y3 Er1 Zn9 Cd3'
_cell_volume   317.38956944
_cell_formula_units_Z   1
loop_
 _symmetry_equiv_pos_site_id
 _symmetry_equiv_pos_as_xyz
  1  'x, y, z'
loop_
 _atom_site_type_symbol
 _atom_site_label
 _atom_site_symmetry_multiplicity
 _atom_site_fract_x
 _atom_site_fract_y
 _atom_site_fract_z
 _atom_site_occupancy
  Y  Y0  1  0.250000  0.299836  0.672588  1
  Y  Y1  1  0.750000  0.700868  0.330076  1
  Y  Y2  1  0.750000  0.199421  0.173363  1
  Er  Er3  1  0.250000  0.804160  0.822602  1
  Zn  Zn4  1  0.750000  0.963090  0.600430  1
  Zn  Zn5  1  0.250000  0.915982  0.144965  1
  Zn  Zn6  1  0.250000  0.416456  0.359768  1
  Zn  Zn7  1  0.750000  0.081544  0.846739  1
  Zn  Zn8  1  0.750000  0.592424  0.642720  1
  Zn  Zn9  1  0.250000  0.185633  0.961962  1
  Zn  Zn10  1  0.250000  0.696630  0.538727  1
  Zn  Zn11  1  0.750000  0.812138  0.034796  1
  Zn  Zn12  1  0.750000  0.298171  0.466229  1
  Cd  Cd13  1  0.250000  0.534315  0.098930  1
  Cd  Cd14  1  0.250000  0.033442  0.407055  1
  Cd  Cd15  1  0.750000  0.465892  0.899049  1
