# generated using pymatgen
data_HoZrFeB6
_symmetry_space_group_name_H-M   'P 1'
_cell_length_a   3.44352500
_cell_length_b   8.97185400
_cell_length_c   11.33149100
_cell_angle_alpha   90.00000000
_cell_angle_beta   90.00000000
_cell_angle_gamma   90.00000000
_symmetry_Int_Tables_number   1
_chemical_formula_structural   HoZrFeB6
_chemical_formula_sum   'Ho4 Zr4 Fe4 B24'
_cell_volume   350.08418832
_cell_formula_units_Z   4
loop_
 _symmetry_equiv_pos_site_id
 _symmetry_equiv_pos_as_xyz
  1  'x, y, z'
loop_
 _atom_site_type_symbol
 _atom_site_label
 _atom_site_symmetry_multiplicity
 _atom_site_fract_x
 _atom_site_fract_y
 _atom_site_fract_z
 _atom_site_occupancy
  Ho  Ho0  1  0.000000  0.823260  0.086130  1
  Ho  Ho1  1  0.000000  0.176740  0.913870  1
  Ho  Ho2  1  0.000000  0.323260  0.413870  1
  Ho  Ho3  1  0.000000  0.676740  0.586130  1
  Zr  Zr4  1  0.000000  0.443469  0.128241  1
  Zr  Zr5  1  0.000000  0.556531  0.871759  1
  Zr  Zr6  1  0.000000  0.943469  0.371759  1
  Zr  Zr7  1  0.000000  0.056531  0.628241  1
  Fe  Fe8  1  0.000000  0.142201  0.182082  1
  Fe  Fe9  1  0.000000  0.857799  0.817918  1
  Fe  Fe10  1  0.000000  0.642201  0.317918  1
  Fe  Fe11  1  0.000000  0.357799  0.682082  1
  B  B12  1  0.500000  0.054196  0.067515  1
  B  B13  1  0.500000  0.945804  0.932485  1
  B  B14  1  0.500000  0.554196  0.432485  1
  B  B15  1  0.500000  0.445804  0.567515  1
  B  B16  1  0.500000  0.249062  0.082539  1
  B  B17  1  0.500000  0.750938  0.917461  1
  B  B18  1  0.500000  0.749062  0.417461  1
  B  B19  1  0.500000  0.250938  0.582539  1
  B  B20  1  0.500000  0.293097  0.235358  1
  B  B21  1  0.500000  0.706903  0.764642  1
  B  B22  1  0.500000  0.793097  0.264642  1
  B  B23  1  0.500000  0.206903  0.735358  1
  B  B24  1  0.500000  0.131032  0.315249  1
  B  B25  1  0.500000  0.868968  0.684751  1
  B  B26  1  0.500000  0.631032  0.184751  1
  B  B27  1  0.500000  0.368968  0.815249  1
  B  B28  1  0.500000  0.484172  0.288272  1
  B  B29  1  0.500000  0.515828  0.711728  1
  B  B30  1  0.500000  0.984172  0.211728  1
  B  B31  1  0.500000  0.015828  0.788272  1
  B  B32  1  0.500000  0.103090  0.472138  1
  B  B33  1  0.500000  0.896910  0.527862  1
  B  B34  1  0.500000  0.603090  0.027862  1
  B  B35  1  0.500000  0.396910  0.972138  1
