# generated using pymatgen
data_Dy2MgInIr2
_symmetry_space_group_name_H-M   'P 1'
_cell_length_a   7.09748200
_cell_length_b   4.15504200
_cell_length_c   8.62256500
_cell_angle_alpha   90.00000000
_cell_angle_beta   90.00000000
_cell_angle_gamma   90.00000000
_symmetry_Int_Tables_number   1
_chemical_formula_structural   Dy2MgInIr2
_chemical_formula_sum   'Dy4 Mg2 In2 Ir4'
_cell_volume   254.28233734
_cell_formula_units_Z   2
loop_
 _symmetry_equiv_pos_site_id
 _symmetry_equiv_pos_as_xyz
  1  'x, y, z'
loop_
 _atom_site_type_symbol
 _atom_site_label
 _atom_site_symmetry_multiplicity
 _atom_site_fract_x
 _atom_site_fract_y
 _atom_site_fract_z
 _atom_site_occupancy
  Dy  Dy0  1  0.462093  0.750001  0.175930  1
  Dy  Dy1  1  0.962093  0.750001  0.324069  1
  Dy  Dy2  1  0.037199  0.249999  0.673522  1
  Dy  Dy3  1  0.537199  0.249999  0.826479  1
  Mg  Mg4  1  0.139559  0.249999  0.062124  1
  Mg  Mg5  1  0.639559  0.249999  0.437875  1
  In  In6  1  0.362300  0.750001  0.561627  1
  In  In7  1  0.862301  0.750001  0.938374  1
  Ir  Ir8  1  0.747621  0.249999  0.129477  1
  Ir  Ir9  1  0.247620  0.249999  0.370522  1
  Ir  Ir10  1  0.751231  0.750001  0.624974  1
  Ir  Ir11  1  0.251231  0.750001  0.875027  1
