# generated using pymatgen
data_Dy3Y5Te12
_symmetry_space_group_name_H-M   'P 1'
_cell_length_a   14.52343410
_cell_length_b   13.84687322
_cell_length_c   7.56421827
_cell_angle_alpha   79.54222337
_cell_angle_beta   69.64883184
_cell_angle_gamma   30.80409569
_symmetry_Int_Tables_number   1
_chemical_formula_structural   Dy3Y5Te12
_chemical_formula_sum   'Dy3 Y5 Te12'
_cell_volume   708.29071965
_cell_formula_units_Z   1
loop_
 _symmetry_equiv_pos_site_id
 _symmetry_equiv_pos_as_xyz
  1  'x, y, z'
loop_
 _atom_site_type_symbol
 _atom_site_label
 _atom_site_symmetry_multiplicity
 _atom_site_fract_x
 _atom_site_fract_y
 _atom_site_fract_z
 _atom_site_occupancy
  Dy  Dy0  1  0.500212  0.500212  0.999788  1
  Dy  Dy1  1  0.250201  0.250201  0.749799  1
  Dy  Dy2  1  0.749786  0.749786  0.250214  1
  Y  Y3  1  0.332735  0.332735  0.167265  1
  Y  Y4  1  0.167260  0.167260  0.332740  1
  Y  Y5  1  0.917273  0.917273  0.082727  1
  Y  Y6  1  0.082716  0.082716  0.917284  1
  Y  Y7  1  0.999801  0.999801  0.500199  1
  Te  Te8  1  0.998698  0.501309  0.501382  1
  Te  Te9  1  0.501309  0.998698  0.998611  1
  Te  Te10  1  0.251439  0.748561  0.748775  1
  Te  Te11  1  0.748561  0.251439  0.251225  1
  Te  Te12  1  0.665584  0.168977  0.834048  1
  Te  Te13  1  0.833816  0.331633  0.665844  1
  Te  Te14  1  0.331633  0.833816  0.168707  1
  Te  Te15  1  0.168977  0.665584  0.331392  1
  Te  Te16  1  0.584256  0.081104  0.416109  1
  Te  Te17  1  0.416119  0.918520  0.584214  1
  Te  Te18  1  0.918520  0.416119  0.081147  1
  Te  Te19  1  0.081104  0.584256  0.918531  1
