# generated using pymatgen
data_La9PrSi5Sn
_symmetry_space_group_name_H-M   'P 1'
_cell_length_a   8.04484250
_cell_length_b   8.04685936
_cell_length_c   9.11016686
_cell_angle_alpha   116.13402637
_cell_angle_beta   116.12893170
_cell_angle_gamma   89.94502873
_symmetry_Int_Tables_number   1
_chemical_formula_structural   La9PrSi5Sn
_chemical_formula_sum   'La9 Pr1 Si5 Sn1'
_cell_volume   461.52085741
_cell_formula_units_Z   1
loop_
 _symmetry_equiv_pos_site_id
 _symmetry_equiv_pos_as_xyz
  1  'x, y, z'
loop_
 _atom_site_type_symbol
 _atom_site_label
 _atom_site_symmetry_multiplicity
 _atom_site_fract_x
 _atom_site_fract_y
 _atom_site_fract_z
 _atom_site_occupancy
  La  La0  1  0.504391  0.504070  0.008691  1
  La  La1  1  0.996022  0.995778  0.991289  1
  La  La2  1  0.973970  0.828383  0.288645  1
  La  La3  1  0.314702  0.460668  0.288838  1
  La  La4  1  0.828083  0.314281  0.288460  1
  La  La5  1  0.457164  0.971233  0.285622  1
  La  La6  1  0.040777  0.184582  0.711881  1
  La  La7  1  0.671007  0.527004  0.712030  1
  La  La8  1  0.185937  0.672270  0.710776  1
  Pr  Pr9  1  0.529484  0.042349  0.715673  1
  Si  Si10  1  0.250970  0.249896  0.501041  1
  Si  Si11  1  0.613038  0.887329  0.998958  1
  Si  Si12  1  0.387343  0.112861  0.998719  1
  Si  Si13  1  0.885853  0.385982  0.999740  1
  Si  Si14  1  0.111956  0.612091  0.998728  1
  Sn  Sn15  1  0.749304  0.751222  0.500911  1
