# generated using pymatgen
data_Na4Sb6Pd7
_symmetry_space_group_name_H-M   'P 1'
_cell_length_a   7.69423408
_cell_length_b   7.69423432
_cell_length_c   7.69423400
_cell_angle_alpha   109.47123032
_cell_angle_beta   109.47123095
_cell_angle_gamma   109.47120598
_symmetry_Int_Tables_number   1
_chemical_formula_structural   Na4Sb6Pd7
_chemical_formula_sum   'Na4 Sb6 Pd7'
_cell_volume   350.65034750
_cell_formula_units_Z   1
loop_
 _symmetry_equiv_pos_site_id
 _symmetry_equiv_pos_as_xyz
  1  'x, y, z'
loop_
 _atom_site_type_symbol
 _atom_site_label
 _atom_site_symmetry_multiplicity
 _atom_site_fract_x
 _atom_site_fract_y
 _atom_site_fract_z
 _atom_site_occupancy
  Na  Na0  1  0.000000  0.000000  0.500000  1
  Na  Na1  1  0.500000  0.000000  0.000000  1
  Na  Na2  1  0.000000  0.500000  0.000000  1
  Na  Na3  1  0.500000  0.500000  0.500000  1
  Sb  Sb4  1  0.680705  0.680705  0.000000  1
  Sb  Sb5  1  0.319295  0.319295  0.000000  1
  Sb  Sb6  1  0.000000  0.680705  0.680705  1
  Sb  Sb7  1  0.000000  0.319295  0.319295  1
  Sb  Sb8  1  0.680705  0.000000  0.680705  1
  Sb  Sb9  1  0.319295  0.000000  0.319295  1
  Pd  Pd10  1  0.000000  0.000000  0.000000  1
  Pd  Pd11  1  0.250000  0.500000  0.750000  1
  Pd  Pd12  1  0.750000  0.250000  0.500000  1
  Pd  Pd13  1  0.500000  0.250000  0.750000  1
  Pd  Pd14  1  0.500000  0.750000  0.250000  1
  Pd  Pd15  1  0.750000  0.500000  0.250000  1
  Pd  Pd16  1  0.250000  0.750000  0.500000  1
