# generated using pymatgen
data_Nd10Zn2Bi5Pb
_symmetry_space_group_name_H-M   'P 1'
_cell_length_a   9.62635600
_cell_length_b   9.66371750
_cell_length_c   6.63981500
_cell_angle_alpha   90.00000000
_cell_angle_beta   90.00000000
_cell_angle_gamma   119.87218373
_symmetry_Int_Tables_number   1
_chemical_formula_structural   Nd10Zn2Bi5Pb
_chemical_formula_sum   'Nd10 Zn2 Bi5 Pb1'
_cell_volume   535.61245840
_cell_formula_units_Z   1
loop_
 _symmetry_equiv_pos_site_id
 _symmetry_equiv_pos_as_xyz
  1  'x, y, z'
loop_
 _atom_site_type_symbol
 _atom_site_label
 _atom_site_symmetry_multiplicity
 _atom_site_fract_x
 _atom_site_fract_y
 _atom_site_fract_z
 _atom_site_occupancy
  Nd  Nd0  1  0.333251  0.666917  0.999858  1
  Nd  Nd1  1  0.666337  0.333083  0.500142  1
  Nd  Nd2  1  0.666337  0.333083  0.999858  1
  Nd  Nd3  1  0.333251  0.666917  0.500142  1
  Nd  Nd4  1  0.262410  0.000000  0.250000  1
  Nd  Nd5  1  0.263568  0.262945  0.750000  1
  Nd  Nd6  1  0.000623  0.737055  0.750000  1
  Nd  Nd7  1  0.000272  0.262515  0.250000  1
  Nd  Nd8  1  0.737757  0.737485  0.250000  1
  Nd  Nd9  1  0.736258  0.000000  0.750000  1
  Zn  Zn10  1  0.000572  0.000000  0.998362  1
  Zn  Zn11  1  0.000572  0.000000  0.501638  1
  Bi  Bi12  1  0.617143  0.000000  0.250000  1
  Bi  Bi13  1  0.617973  0.617834  0.750000  1
  Bi  Bi14  1  0.000139  0.382166  0.750000  1
  Bi  Bi15  1  0.000104  0.617574  0.250000  1
  Bi  Bi16  1  0.382529  0.382426  0.250000  1
  Pb  Pb17  1  0.380903  0.000000  0.750000  1
