# generated using pymatgen
data_YbThCoOs3
_symmetry_space_group_name_H-M   'P 1'
_cell_length_a   5.27761067
_cell_length_b   5.27761144
_cell_length_c   5.37272600
_cell_angle_alpha   60.58390212
_cell_angle_beta   60.58389744
_cell_angle_gamma   60.00000943
_symmetry_Int_Tables_number   1
_chemical_formula_structural   YbThCoOs3
_chemical_formula_sum   'Yb1 Th1 Co1 Os3'
_cell_volume   106.74107156
_cell_formula_units_Z   1
loop_
 _symmetry_equiv_pos_site_id
 _symmetry_equiv_pos_as_xyz
  1  'x, y, z'
loop_
 _atom_site_type_symbol
 _atom_site_label
 _atom_site_symmetry_multiplicity
 _atom_site_fract_x
 _atom_site_fract_y
 _atom_site_fract_z
 _atom_site_occupancy
  Yb  Yb0  1  0.749885  0.749885  0.750345  1
  Th  Th1  1  0.500814  0.500814  0.497559  1
  Co  Co2  1  0.122761  0.122761  0.631717  1
  Os  Os3  1  0.125670  0.125670  0.123460  1
  Os  Os4  1  0.625202  0.125670  0.123460  1
  Os  Os5  1  0.125670  0.625202  0.123460  1
