# generated using pymatgen
data_Dy2Fe2P6Rh7W
_symmetry_space_group_name_H-M   'P 1'
_cell_length_a   3.87129600
_cell_length_b   10.72139100
_cell_length_c   12.46037400
_cell_angle_alpha   90.00000000
_cell_angle_beta   90.00000000
_cell_angle_gamma   90.00000000
_symmetry_Int_Tables_number   1
_chemical_formula_structural   Dy2Fe2P6Rh7W
_chemical_formula_sum   'Dy4 Fe4 P12 Rh14 W2'
_cell_volume   517.17627216
_cell_formula_units_Z   2
loop_
 _symmetry_equiv_pos_site_id
 _symmetry_equiv_pos_as_xyz
  1  'x, y, z'
loop_
 _atom_site_type_symbol
 _atom_site_label
 _atom_site_symmetry_multiplicity
 _atom_site_fract_x
 _atom_site_fract_y
 _atom_site_fract_z
 _atom_site_occupancy
  Dy  Dy0  1  0.250000  0.584677  0.708972  1
  Dy  Dy1  1  0.250000  0.915323  0.208972  1
  Dy  Dy2  1  0.750000  0.420866  0.291601  1
  Dy  Dy3  1  0.750000  0.079134  0.791601  1
  Fe  Fe4  1  0.250000  0.461145  0.935673  1
  Fe  Fe5  1  0.250000  0.038855  0.435673  1
  Fe  Fe6  1  0.750000  0.535243  0.063417  1
  Fe  Fe7  1  0.750000  0.964757  0.563417  1
  P  P8  1  0.250000  0.428194  0.107549  1
  P  P9  1  0.250000  0.071806  0.607549  1
  P  P10  1  0.750000  0.572343  0.893636  1
  P  P11  1  0.750000  0.927657  0.393636  1
  P  P12  1  0.250000  0.267928  0.868337  1
  P  P13  1  0.250000  0.232072  0.368337  1
  P  P14  1  0.750000  0.727397  0.129124  1
  P  P15  1  0.750000  0.772603  0.629124  1
  P  P16  1  0.250000  0.600475  0.390481  1
  P  P17  1  0.250000  0.899525  0.890481  1
  P  P18  1  0.750000  0.401236  0.610633  1
  P  P19  1  0.750000  0.098764  0.110633  1
  Rh  Rh20  1  0.750000  0.288127  0.013248  1
  Rh  Rh21  1  0.750000  0.211873  0.513248  1
  Rh  Rh22  1  0.250000  0.406312  0.483794  1
  Rh  Rh23  1  0.250000  0.093688  0.983794  1
  Rh  Rh24  1  0.750000  0.595170  0.517976  1
  Rh  Rh25  1  0.750000  0.904830  0.017976  1
  Rh  Rh26  1  0.250000  0.231063  0.177200  1
  Rh  Rh27  1  0.250000  0.268937  0.677200  1
  Rh  Rh28  1  0.750000  0.768410  0.822509  1
  Rh  Rh29  1  0.750000  0.731590  0.322509  1
  Rh  Rh30  1  0.250000  0.884932  0.699947  1
  Rh  Rh31  1  0.250000  0.615068  0.199947  1
  Rh  Rh32  1  0.750000  0.115030  0.299795  1
  Rh  Rh33  1  0.750000  0.384970  0.799795  1
  W  W34  1  0.250000  0.705797  0.986109  1
  W  W35  1  0.250000  0.794203  0.486109  1
