# generated using pymatgen
data_Sm2Cr2Ni10As7
_symmetry_space_group_name_H-M   'P 1'
_cell_length_a   9.44788297
_cell_length_b   9.43952209
_cell_length_c   3.85465500
_cell_angle_alpha   90.00000000
_cell_angle_beta   90.00000000
_cell_angle_gamma   119.81642670
_symmetry_Int_Tables_number   1
_chemical_formula_structural   Sm2Cr2Ni10As7
_chemical_formula_sum   'Sm2 Cr2 Ni10 As7'
_cell_volume   298.26414574
_cell_formula_units_Z   1
loop_
 _symmetry_equiv_pos_site_id
 _symmetry_equiv_pos_as_xyz
  1  'x, y, z'
loop_
 _atom_site_type_symbol
 _atom_site_label
 _atom_site_symmetry_multiplicity
 _atom_site_fract_x
 _atom_site_fract_y
 _atom_site_fract_z
 _atom_site_occupancy
  Sm  Sm0  1  0.335959  0.666527  0.000000  1
  Sm  Sm1  1  0.665939  0.334020  0.499999  1
  Cr  Cr2  1  0.212973  0.101041  0.499999  1
  Cr  Cr3  1  0.901751  0.111717  0.499999  1
  Ni  Ni4  1  0.431055  0.060561  0.000000  1
  Ni  Ni5  1  0.150374  0.280852  0.000000  1
  Ni  Ni6  1  0.939496  0.373479  0.000000  1
  Ni  Ni7  1  0.624915  0.566570  0.000000  1
  Ni  Ni8  1  0.128083  0.844819  0.000000  1
  Ni  Ni9  1  0.719465  0.872258  0.000000  1
  Ni  Ni10  1  0.382277  0.433918  0.499999  1
  Ni  Ni11  1  0.047325  0.619527  0.499999  1
  Ni  Ni12  1  0.886894  0.784955  0.499999  1
  Ni  Ni13  1  0.569242  0.947826  0.499999  1
  As  As14  1  0.999059  0.996869  0.000000  1
  As  As15  1  0.705303  0.112036  0.000000  1
  As  As16  1  0.404909  0.296054  0.000000  1
  As  As17  1  0.886894  0.595062  0.000000  1
  As  As18  1  0.110551  0.406190  0.499999  1
  As  As19  1  0.601675  0.707749  0.499999  1
  As  As20  1  0.295859  0.887970  0.499999  1
