# generated using pymatgen
data_Tm3Mg3TlAgIr
_symmetry_space_group_name_H-M   'P 1'
_cell_length_a   7.91105900
_cell_length_b   7.91105833
_cell_length_c   3.85175900
_cell_angle_alpha   90.00000000
_cell_angle_beta   90.00000000
_cell_angle_gamma   120.00000699
_symmetry_Int_Tables_number   1
_chemical_formula_structural   Tm3Mg3TlAgIr
_chemical_formula_sum   'Tm3 Mg3 Tl1 Ag1 Ir1'
_cell_volume   208.76558996
_cell_formula_units_Z   1
loop_
 _symmetry_equiv_pos_site_id
 _symmetry_equiv_pos_as_xyz
  1  'x, y, z'
loop_
 _atom_site_type_symbol
 _atom_site_label
 _atom_site_symmetry_multiplicity
 _atom_site_fract_x
 _atom_site_fract_y
 _atom_site_fract_z
 _atom_site_occupancy
  Tm  Tm0  1  0.565033  0.955364  0.000000  1
  Tm  Tm1  1  0.044636  0.609669  0.000000  1
  Tm  Tm2  1  0.390331  0.434967  0.000000  1
  Mg  Mg3  1  0.252864  0.997586  0.500000  1
  Mg  Mg4  1  0.002414  0.255279  0.500000  1
  Mg  Mg5  1  0.744721  0.747136  0.500000  1
  Tl  Tl6  1  0.666667  0.333333  0.500000  1
  Ag  Ag7  1  0.000000  0.000000  0.000000  1
  Ir  Ir8  1  0.333333  0.666667  0.500000  1
