# generated using pymatgen
data_Hf16Co4RuW3
_symmetry_space_group_name_H-M   'P 1'
_cell_length_a   8.65224161
_cell_length_b   8.65161193
_cell_length_c   8.65218111
_cell_angle_alpha   60.00289795
_cell_angle_beta   60.00559529
_cell_angle_gamma   60.00290901
_symmetry_Int_Tables_number   1
_chemical_formula_structural   Hf16Co4RuW3
_chemical_formula_sum   'Hf16 Co4 Ru1 W3'
_cell_volume   458.00866484
_cell_formula_units_Z   1
loop_
 _symmetry_equiv_pos_site_id
 _symmetry_equiv_pos_as_xyz
  1  'x, y, z'
loop_
 _atom_site_type_symbol
 _atom_site_label
 _atom_site_symmetry_multiplicity
 _atom_site_fract_x
 _atom_site_fract_y
 _atom_site_fract_z
 _atom_site_occupancy
  Hf  Hf0  1  0.053275  0.648924  0.648857  1
  Hf  Hf1  1  0.648907  0.053248  0.648878  1
  Hf  Hf2  1  0.648882  0.648919  0.053262  1
  Hf  Hf3  1  0.648670  0.648711  0.648658  1
  Hf  Hf4  1  0.798226  0.798238  0.202117  1
  Hf  Hf5  1  0.200192  0.200149  0.800658  1
  Hf  Hf6  1  0.798228  0.202081  0.798244  1
  Hf  Hf7  1  0.200165  0.800657  0.200180  1
  Hf  Hf8  1  0.202098  0.798238  0.798240  1
  Hf  Hf9  1  0.800647  0.200147  0.200206  1
  Hf  Hf10  1  0.436105  0.436095  0.064725  1
  Hf  Hf11  1  0.063996  0.063990  0.436004  1
  Hf  Hf12  1  0.436091  0.064706  0.436115  1
  Hf  Hf13  1  0.063991  0.435983  0.064006  1
  Hf  Hf14  1  0.064704  0.436089  0.436124  1
  Hf  Hf15  1  0.435988  0.063986  0.064007  1
  Co  Co16  1  0.423114  0.859572  0.859534  1
  Co  Co17  1  0.859572  0.423106  0.859533  1
  Co  Co18  1  0.859552  0.859552  0.423121  1
  Co  Co19  1  0.858662  0.858665  0.858624  1
  Ru  Ru20  1  0.415459  0.415457  0.415446  1
  W  W21  1  0.746890  0.418299  0.418286  1
  W  W22  1  0.418292  0.746887  0.418288  1
  W  W23  1  0.418292  0.418302  0.746886  1
