# generated using pymatgen
data_Pr2HfPaPt4
_symmetry_space_group_name_H-M   'P 1'
_cell_length_a   4.57719700
_cell_length_b   5.66056235
_cell_length_c   7.19545300
_cell_angle_alpha   89.15310830
_cell_angle_beta   90.00000000
_cell_angle_gamma   90.00000000
_symmetry_Int_Tables_number   1
_chemical_formula_structural   Pr2HfPaPt4
_chemical_formula_sum   'Pr2 Hf1 Pa1 Pt4'
_cell_volume   186.41028895
_cell_formula_units_Z   1
loop_
 _symmetry_equiv_pos_site_id
 _symmetry_equiv_pos_as_xyz
  1  'x, y, z'
loop_
 _atom_site_type_symbol
 _atom_site_label
 _atom_site_symmetry_multiplicity
 _atom_site_fract_x
 _atom_site_fract_y
 _atom_site_fract_z
 _atom_site_occupancy
  Pr  Pr0  1  0.750000  0.351399  0.812989  1
  Pr  Pr1  1  0.250000  0.859267  0.677719  1
  Hf  Hf2  1  0.750000  0.141616  0.318311  1
  Pa  Pa3  1  0.250000  0.648403  0.184213  1
  Pt  Pt4  1  0.250000  0.155646  0.096652  1
  Pt  Pt5  1  0.750000  0.842600  0.987934  1
  Pt  Pt6  1  0.750000  0.666112  0.424910  1
  Pt  Pt7  1  0.250000  0.334955  0.497274  1
