# generated using pymatgen
data_Hf17ScRe5Mo3P2
_symmetry_space_group_name_H-M   'P 1'
_cell_length_a   8.59964875
_cell_length_b   8.61408601
_cell_length_c   8.60063300
_cell_angle_alpha   90.00000000
_cell_angle_beta   90.00000000
_cell_angle_gamma   120.01016504
_symmetry_Int_Tables_number   1
_chemical_formula_structural   Hf17ScRe5Mo3P2
_chemical_formula_sum   'Hf17 Sc1 Re5 Mo3 P2'
_cell_volume   551.70442992
_cell_formula_units_Z   1
loop_
 _symmetry_equiv_pos_site_id
 _symmetry_equiv_pos_as_xyz
  1  'x, y, z'
loop_
 _atom_site_type_symbol
 _atom_site_label
 _atom_site_symmetry_multiplicity
 _atom_site_fract_x
 _atom_site_fract_y
 _atom_site_fract_z
 _atom_site_occupancy
  Hf  Hf0  1  0.196138  0.804122  0.450681  1
  Hf  Hf1  1  0.196908  0.391935  0.450173  1
  Hf  Hf2  1  0.608862  0.803523  0.450963  1
  Hf  Hf3  1  0.802587  0.196869  0.547859  1
  Hf  Hf4  1  0.803741  0.608715  0.548445  1
  Hf  Hf5  1  0.391655  0.196074  0.547708  1
  Hf  Hf6  1  0.802587  0.196869  0.952141  1
  Hf  Hf7  1  0.803741  0.608715  0.951555  1
  Hf  Hf8  1  0.391655  0.196074  0.952292  1
  Hf  Hf9  1  0.196138  0.804122  0.049319  1
  Hf  Hf10  1  0.196908  0.391935  0.049827  1
  Hf  Hf11  1  0.608862  0.803523  0.049037  1
  Hf  Hf12  1  0.538231  0.077142  0.250000  1
  Hf  Hf13  1  0.923016  0.462008  0.250000  1
  Hf  Hf14  1  0.460031  0.541677  0.750000  1
  Hf  Hf15  1  0.461250  0.921017  0.750000  1
  Hf  Hf16  1  0.078472  0.539315  0.750000  1
  Sc  Sc17  1  0.542300  0.457946  0.250000  1
  Re  Re18  1  0.890530  0.779086  0.250000  1
  Re  Re19  1  0.220841  0.109174  0.250000  1
  Re  Re20  1  0.778783  0.890019  0.750000  1
  Re  Re21  1  0.999449  0.999722  0.499604  1
  Re  Re22  1  0.999449  0.999722  0.000396  1
  Mo  Mo23  1  0.891319  0.108270  0.250000  1
  Mo  Mo24  1  0.108903  0.890988  0.750000  1
  Mo  Mo25  1  0.108785  0.218993  0.750000  1
  P  P26  1  0.332138  0.668134  0.250000  1
  P  P27  1  0.666722  0.334309  0.750000  1
