# generated using pymatgen
data_Zr6Ta4Mn2Al12Ir5
_symmetry_space_group_name_H-M   'P 1'
_cell_length_a   8.79070153
_cell_length_b   8.79070231
_cell_length_c   8.79204000
_cell_angle_alpha   59.99496610
_cell_angle_beta   59.99496315
_cell_angle_gamma   59.93918904
_symmetry_Int_Tables_number   1
_chemical_formula_structural   Zr6Ta4Mn2Al12Ir5
_chemical_formula_sum   'Zr6 Ta4 Mn2 Al12 Ir5'
_cell_volume   480.16306183
_cell_formula_units_Z   1
loop_
 _symmetry_equiv_pos_site_id
 _symmetry_equiv_pos_as_xyz
  1  'x, y, z'
loop_
 _atom_site_type_symbol
 _atom_site_label
 _atom_site_symmetry_multiplicity
 _atom_site_fract_x
 _atom_site_fract_y
 _atom_site_fract_z
 _atom_site_occupancy
  Zr  Zr0  1  0.697474  0.697474  0.302526  1
  Zr  Zr1  1  0.306880  0.691961  0.310014  1
  Zr  Zr2  1  0.691961  0.306880  0.310014  1
  Zr  Zr3  1  0.307389  0.307389  0.692611  1
  Zr  Zr4  1  0.691961  0.306880  0.691145  1
  Zr  Zr5  1  0.306880  0.691961  0.691145  1
  Ta  Ta6  1  0.885480  0.885480  0.354951  1
  Ta  Ta7  1  0.883661  0.352510  0.881914  1
  Ta  Ta8  1  0.352510  0.883661  0.881914  1
  Ta  Ta9  1  0.885480  0.885480  0.874088  1
  Mn  Mn10  1  0.001192  0.001192  0.998808  1
  Mn  Mn11  1  0.995093  0.995093  0.504907  1
  Al  Al12  1  0.117181  0.117181  0.641815  1
  Al  Al13  1  0.117262  0.643751  0.119493  1
  Al  Al14  1  0.643751  0.117262  0.119493  1
  Al  Al15  1  0.117181  0.117181  0.123824  1
  Al  Al16  1  0.661918  0.661918  0.015344  1
  Al  Al17  1  0.668256  0.009949  0.660897  1
  Al  Al18  1  0.009949  0.668256  0.660897  1
  Al  Al19  1  0.661918  0.661918  0.660820  1
  Al  Al20  1  0.336341  0.336341  0.990677  1
  Al  Al21  1  0.329328  0.994649  0.338013  1
  Al  Al22  1  0.994649  0.329328  0.338013  1
  Al  Al23  1  0.336341  0.336341  0.336642  1
  Ir  Ir24  1  0.500550  0.998499  0.502545  1
  Ir  Ir25  1  0.998499  0.500550  0.502545  1
  Ir  Ir26  1  0.501867  0.501867  0.998133  1
  Ir  Ir27  1  0.998499  0.500550  0.998406  1
  Ir  Ir28  1  0.500550  0.998499  0.998406  1
