# generated using pymatgen
data_DyTmLu3Si7Pt9
_symmetry_space_group_name_H-M   'P 1'
_cell_length_a   10.14732800
_cell_length_b   10.14732815
_cell_length_c   4.02545500
_cell_angle_alpha   90.00000000
_cell_angle_beta   90.00000000
_cell_angle_gamma   119.99999952
_symmetry_Int_Tables_number   1
_chemical_formula_structural   DyTmLu3Si7Pt9
_chemical_formula_sum   'Dy1 Tm1 Lu3 Si7 Pt9'
_cell_volume   358.96244409
_cell_formula_units_Z   1
loop_
 _symmetry_equiv_pos_site_id
 _symmetry_equiv_pos_as_xyz
  1  'x, y, z'
loop_
 _atom_site_type_symbol
 _atom_site_label
 _atom_site_symmetry_multiplicity
 _atom_site_fract_x
 _atom_site_fract_y
 _atom_site_fract_z
 _atom_site_occupancy
  Dy  Dy0  1  0.000000  0.000000  0.000000  1
  Tm  Tm1  1  0.333333  0.666667  0.500000  1
  Lu  Lu2  1  0.898356  0.457899  0.500000  1
  Lu  Lu3  1  0.559544  0.101644  0.500000  1
  Lu  Lu4  1  0.542101  0.440456  0.500000  1
  Si  Si5  1  0.240522  0.188374  0.500000  1
  Si  Si6  1  0.811626  0.052149  0.500000  1
  Si  Si7  1  0.947851  0.759478  0.500000  1
  Si  Si8  1  0.557033  0.651596  0.000000  1
  Si  Si9  1  0.348404  0.905435  0.000000  1
  Si  Si10  1  0.094565  0.442967  0.000000  1
  Si  Si11  1  0.666667  0.333333  0.000000  1
  Pt  Pt12  1  0.217031  0.934108  0.500000  1
  Pt  Pt13  1  0.065892  0.282925  0.500000  1
  Pt  Pt14  1  0.717075  0.782969  0.500000  1
  Pt  Pt15  1  0.315350  0.416278  0.000000  1
  Pt  Pt16  1  0.583722  0.899072  0.000000  1
  Pt  Pt17  1  0.100928  0.684650  0.000000  1
  Pt  Pt18  1  0.379578  0.169848  0.000000  1
  Pt  Pt19  1  0.830152  0.209731  0.000000  1
  Pt  Pt20  1  0.790269  0.620422  0.000000  1
