# generated using pymatgen
data_Eu10Cu3Hg2Pd
_symmetry_space_group_name_H-M   'P 1'
_cell_length_a   9.37858252
_cell_length_b   9.37858263
_cell_length_c   9.39140900
_cell_angle_alpha   128.82815831
_cell_angle_beta   128.82810395
_cell_angle_gamma   75.18565229
_symmetry_Int_Tables_number   1
_chemical_formula_structural   Eu10Cu3Hg2Pd
_chemical_formula_sum   'Eu10 Cu3 Hg2 Pd1'
_cell_volume   488.29680144
_cell_formula_units_Z   1
loop_
 _symmetry_equiv_pos_site_id
 _symmetry_equiv_pos_as_xyz
  1  'x, y, z'
loop_
 _atom_site_type_symbol
 _atom_site_label
 _atom_site_symmetry_multiplicity
 _atom_site_fract_x
 _atom_site_fract_y
 _atom_site_fract_z
 _atom_site_occupancy
  Eu  Eu0  1  0.498898  0.499776  0.998909  1
  Eu  Eu1  1  0.000063  0.999587  0.999867  1
  Eu  Eu2  1  0.527831  0.027874  0.834457  1
  Eu  Eu3  1  0.192035  0.692047  0.162043  1
  Eu  Eu4  1  0.029210  0.195411  0.502037  1
  Eu  Eu5  1  0.695457  0.529055  0.501980  1
  Eu  Eu6  1  0.470341  0.970200  0.162243  1
  Eu  Eu7  1  0.806709  0.306582  0.834293  1
  Eu  Eu8  1  0.972755  0.807042  0.501946  1
  Eu  Eu9  1  0.306727  0.472583  0.501974  1
  Cu  Cu10  1  0.879383  0.379242  0.258721  1
  Cu  Cu11  1  0.616040  0.883789  0.499906  1
  Cu  Cu12  1  0.383566  0.116203  0.499876  1
  Hg  Hg13  1  0.250165  0.250204  0.000262  1
  Hg  Hg14  1  0.750373  0.750430  0.000698  1
  Pd  Pd15  1  0.120445  0.619975  0.740791  1
