# generated using pymatgen
data_Sc8Ti8Nb3Si16Mo
_symmetry_space_group_name_H-M   'P 1'
_cell_length_a   6.69562592
_cell_length_b   6.83872348
_cell_length_c   13.02848600
_cell_angle_alpha   90.00000000
_cell_angle_beta   90.00000000
_cell_angle_gamma   90.02772171
_symmetry_Int_Tables_number   1
_chemical_formula_structural   Sc8Ti8Nb3Si16Mo
_chemical_formula_sum   'Sc8 Ti8 Nb3 Si16 Mo1'
_cell_volume   596.56823598
_cell_formula_units_Z   1
loop_
 _symmetry_equiv_pos_site_id
 _symmetry_equiv_pos_as_xyz
  1  'x, y, z'
loop_
 _atom_site_type_symbol
 _atom_site_label
 _atom_site_symmetry_multiplicity
 _atom_site_fract_x
 _atom_site_fract_y
 _atom_site_fract_z
 _atom_site_occupancy
  Sc  Sc0  1  0.503633  0.325763  0.096506  1
  Sc  Sc1  1  0.003018  0.175462  0.403333  1
  Sc  Sc2  1  0.495973  0.674491  0.595264  1
  Sc  Sc3  1  0.996157  0.824834  0.904875  1
  Sc  Sc4  1  0.495973  0.674491  0.904736  1
  Sc  Sc5  1  0.996157  0.824834  0.595125  1
  Sc  Sc6  1  0.503633  0.325763  0.403494  1
  Sc  Sc7  1  0.003018  0.175462  0.096667  1
  Ti  Ti8  1  0.833973  0.325962  0.625902  1
  Ti  Ti9  1  0.334341  0.173976  0.874011  1
  Ti  Ti10  1  0.165541  0.672804  0.126766  1
  Ti  Ti11  1  0.667174  0.825725  0.373670  1
  Ti  Ti12  1  0.165541  0.672804  0.373234  1
  Ti  Ti13  1  0.667174  0.825725  0.126330  1
  Ti  Ti14  1  0.833973  0.325962  0.874098  1
  Ti  Ti15  1  0.334341  0.173976  0.625989  1
  Nb  Nb16  1  0.660759  0.007320  0.750000  1
  Nb  Nb17  1  0.160535  0.493291  0.750000  1
  Nb  Nb18  1  0.339142  0.992471  0.250000  1
  Si  Si19  1  0.663905  0.034626  0.539480  1
  Si  Si20  1  0.164472  0.464813  0.960732  1
  Si  Si21  1  0.335573  0.965729  0.040037  1
  Si  Si22  1  0.835980  0.534405  0.458543  1
  Si  Si23  1  0.335573  0.965729  0.459963  1
  Si  Si24  1  0.835980  0.534405  0.041457  1
  Si  Si25  1  0.663905  0.034626  0.960520  1
  Si  Si26  1  0.164472  0.464813  0.539268  1
  Si  Si27  1  0.537188  0.385515  0.750000  1
  Si  Si28  1  0.037637  0.114983  0.750000  1
  Si  Si29  1  0.466250  0.613430  0.250000  1
  Si  Si30  1  0.961844  0.883265  0.250000  1
  Si  Si31  1  0.791713  0.635574  0.750000  1
  Si  Si32  1  0.291576  0.864839  0.750000  1
  Si  Si33  1  0.205026  0.365835  0.250000  1
  Si  Si34  1  0.708814  0.137969  0.250000  1
  Mo  Mo35  1  0.840033  0.508326  0.250000  1
