# generated using pymatgen
data_Nb3BTe4Mo
_symmetry_space_group_name_H-M   'P 1'
_cell_length_a   4.71750200
_cell_length_b   10.65985200
_cell_length_c   18.62128200
_cell_angle_alpha   90.00000000
_cell_angle_beta   90.00000000
_cell_angle_gamma   90.00000000
_symmetry_Int_Tables_number   1
_chemical_formula_structural   Nb3BTe4Mo
_chemical_formula_sum   'Nb12 B4 Te16 Mo4'
_cell_volume   936.42466673
_cell_formula_units_Z   4
loop_
 _symmetry_equiv_pos_site_id
 _symmetry_equiv_pos_as_xyz
  1  'x, y, z'
loop_
 _atom_site_type_symbol
 _atom_site_label
 _atom_site_symmetry_multiplicity
 _atom_site_fract_x
 _atom_site_fract_y
 _atom_site_fract_z
 _atom_site_occupancy
  Nb  Nb0  1  0.500000  0.695459  0.534570  1
  Nb  Nb1  1  0.500000  0.304541  0.465430  1
  Nb  Nb2  1  0.500000  0.195459  0.965430  1
  Nb  Nb3  1  0.500000  0.804541  0.034570  1
  Nb  Nb4  1  0.000000  0.678661  0.445567  1
  Nb  Nb5  1  0.000000  0.321339  0.554433  1
  Nb  Nb6  1  0.000000  0.178661  0.054433  1
  Nb  Nb7  1  0.000000  0.821339  0.945567  1
  Nb  Nb8  1  0.000000  0.406545  0.397760  1
  Nb  Nb9  1  0.000000  0.593455  0.602240  1
  Nb  Nb10  1  0.000000  0.906545  0.102240  1
  Nb  Nb11  1  0.000000  0.093455  0.897760  1
  B  B12  1  0.263930  0.500000  0.500000  1
  B  B13  1  0.736070  0.000000  0.000000  1
  B  B14  1  0.736070  0.500000  0.500000  1
  B  B15  1  0.263930  0.000000  0.000000  1
  Te  Te16  1  0.000000  0.853953  0.562341  1
  Te  Te17  1  0.000000  0.146047  0.437659  1
  Te  Te18  1  0.000000  0.353953  0.937659  1
  Te  Te19  1  0.000000  0.646047  0.062341  1
  Te  Te20  1  0.500000  0.335942  0.312962  1
  Te  Te21  1  0.500000  0.664058  0.687038  1
  Te  Te22  1  0.500000  0.835942  0.187038  1
  Te  Te23  1  0.500000  0.164058  0.812962  1
  Te  Te24  1  0.500000  0.820698  0.398198  1
  Te  Te25  1  0.500000  0.179302  0.601802  1
  Te  Te26  1  0.500000  0.320698  0.101802  1
  Te  Te27  1  0.500000  0.679302  0.898198  1
  Te  Te28  1  0.000000  0.608634  0.298760  1
  Te  Te29  1  0.000000  0.391366  0.701240  1
  Te  Te30  1  0.000000  0.108634  0.201240  1
  Te  Te31  1  0.000000  0.891366  0.798760  1
  Mo  Mo32  1  0.500000  0.558044  0.392928  1
  Mo  Mo33  1  0.500000  0.441956  0.607072  1
  Mo  Mo34  1  0.500000  0.058044  0.107072  1
  Mo  Mo35  1  0.500000  0.941956  0.892928  1
