# generated using pymatgen
data_Ti8CoAg3
_symmetry_space_group_name_H-M   'P 1'
_cell_length_a   2.97271300
_cell_length_b   2.97271300
_cell_length_c   22.67499200
_cell_angle_alpha   90.00000000
_cell_angle_beta   90.00000000
_cell_angle_gamma   90.00000000
_symmetry_Int_Tables_number   1
_chemical_formula_structural   Ti8CoAg3
_chemical_formula_sum   'Ti8 Co1 Ag3'
_cell_volume   200.37941631
_cell_formula_units_Z   1
loop_
 _symmetry_equiv_pos_site_id
 _symmetry_equiv_pos_as_xyz
  1  'x, y, z'
loop_
 _atom_site_type_symbol
 _atom_site_label
 _atom_site_symmetry_multiplicity
 _atom_site_fract_x
 _atom_site_fract_y
 _atom_site_fract_z
 _atom_site_occupancy
  Ti  Ti0  1  0.500000  0.500000  0.066561  1
  Ti  Ti1  1  0.000000  0.000000  0.329413  1
  Ti  Ti2  1  0.500000  0.500000  0.589253  1
  Ti  Ti3  1  0.000000  0.000000  0.851933  1
  Ti  Ti4  1  0.000000  0.000000  0.148067  1
  Ti  Ti5  1  0.500000  0.500000  0.410747  1
  Ti  Ti6  1  0.000000  0.000000  0.670587  1
  Ti  Ti7  1  0.500000  0.500000  0.933439  1
  Co  Co8  1  0.000000  0.000000  0.000000  1
  Ag  Ag9  1  0.500000  0.500000  0.238662  1
  Ag  Ag10  1  0.000000  0.000000  0.500000  1
  Ag  Ag11  1  0.500000  0.500000  0.761338  1
