# generated using pymatgen
data_TiMn4Si2Mo5C2
_symmetry_space_group_name_H-M   'P 1'
_cell_length_a   7.86489391
_cell_length_b   7.86489324
_cell_length_c   7.86723300
_cell_angle_alpha   59.99015428
_cell_angle_beta   59.99015711
_cell_angle_gamma   60.01968567
_symmetry_Int_Tables_number   1
_chemical_formula_structural   TiMn4Si2Mo5C2
_chemical_formula_sum   'Ti2 Mn8 Si4 Mo10 C4'
_cell_volume   344.10630412
_cell_formula_units_Z   2
loop_
 _symmetry_equiv_pos_site_id
 _symmetry_equiv_pos_as_xyz
  1  'x, y, z'
loop_
 _atom_site_type_symbol
 _atom_site_label
 _atom_site_symmetry_multiplicity
 _atom_site_fract_x
 _atom_site_fract_y
 _atom_site_fract_z
 _atom_site_occupancy
  Ti  Ti0  1  0.551811  0.551811  0.948189  1
  Ti  Ti1  1  0.948189  0.948189  0.551811  1
  Mn  Mn2  1  0.240376  0.920293  0.919665  1
  Mn  Mn3  1  0.920293  0.240376  0.919665  1
  Mn  Mn4  1  0.329332  0.329332  0.331346  1
  Mn  Mn5  1  0.331346  0.009990  0.329332  1
  Mn  Mn6  1  0.329332  0.329332  0.009990  1
  Mn  Mn7  1  0.009990  0.331346  0.329332  1
  Mn  Mn8  1  0.919665  0.919665  0.920293  1
  Mn  Mn9  1  0.919665  0.919665  0.240376  1
  Si  Si10  1  0.124195  0.124195  0.624494  1
  Si  Si11  1  0.127117  0.624494  0.124195  1
  Si  Si12  1  0.624494  0.127117  0.124195  1
  Si  Si13  1  0.124195  0.124195  0.127117  1
  Mo  Mo14  1  0.699172  0.699172  0.300828  1
  Mo  Mo15  1  0.299252  0.700748  0.700748  1
  Mo  Mo16  1  0.700748  0.299252  0.299252  1
  Mo  Mo17  1  0.300828  0.300828  0.699172  1
  Mo  Mo18  1  0.551576  0.948424  0.551576  1
  Mo  Mo19  1  0.299252  0.700748  0.299252  1
  Mo  Mo20  1  0.948424  0.551576  0.948424  1
  Mo  Mo21  1  0.948424  0.551576  0.551576  1
  Mo  Mo22  1  0.700748  0.299252  0.700748  1
  Mo  Mo23  1  0.551576  0.948424  0.948424  1
  C  C24  1  0.625691  0.625691  0.125980  1
  C  C25  1  0.125980  0.622637  0.625691  1
  C  C26  1  0.622637  0.125980  0.625691  1
  C  C27  1  0.625691  0.625691  0.622637  1
