# generated using pymatgen
data_Lu10GaCu3Sb2
_symmetry_space_group_name_H-M   'P 1'
_cell_length_a   8.36233955
_cell_length_b   8.36234072
_cell_length_c   8.38496985
_cell_angle_alpha   124.58513904
_cell_angle_beta   124.58514223
_cell_angle_gamma   82.04862597
_symmetry_Int_Tables_number   1
_chemical_formula_structural   Lu10GaCu3Sb2
_chemical_formula_sum   'Lu10 Ga1 Cu3 Sb2'
_cell_volume   382.52272242
_cell_formula_units_Z   1
loop_
 _symmetry_equiv_pos_site_id
 _symmetry_equiv_pos_as_xyz
  1  'x, y, z'
loop_
 _atom_site_type_symbol
 _atom_site_label
 _atom_site_symmetry_multiplicity
 _atom_site_fract_x
 _atom_site_fract_y
 _atom_site_fract_z
 _atom_site_occupancy
  Lu  Lu0  1  0.999100  0.002464  0.001564  1
  Lu  Lu1  1  0.502464  0.499100  0.001564  1
  Lu  Lu2  1  0.794366  0.294366  0.809222  1
  Lu  Lu3  1  0.207931  0.707931  0.199537  1
  Lu  Lu4  1  0.491608  0.991608  0.199537  1
  Lu  Lu5  1  0.295873  0.481399  0.494741  1
  Lu  Lu6  1  0.013343  0.198868  0.494741  1
  Lu  Lu7  1  0.514855  0.014855  0.809222  1
  Lu  Lu8  1  0.698868  0.513343  0.494741  1
  Lu  Lu9  1  0.981399  0.795873  0.494741  1
  Ga  Ga10  1  0.136961  0.636961  0.773921  1
  Cu  Cu11  1  0.867427  0.367427  0.234854  1
  Cu  Cu12  1  0.631414  0.868025  0.499439  1
  Cu  Cu13  1  0.368025  0.131414  0.499439  1
  Sb  Sb14  1  0.248184  0.248184  0.996369  1
  Sb  Sb15  1  0.748184  0.748184  0.996369  1
