# generated using pymatgen
data_Pr2Be4Ir5Rh
_symmetry_space_group_name_H-M   'P 1'
_cell_length_a   6.50805845
_cell_length_b   6.50805800
_cell_length_c   6.50454484
_cell_angle_alpha   130.16976130
_cell_angle_beta   115.11991518
_cell_angle_gamma   86.04394854
_symmetry_Int_Tables_number   1
_chemical_formula_structural   Pr2Be4Ir5Rh
_chemical_formula_sum   'Pr2 Be4 Ir5 Rh1'
_cell_volume   182.06222508
_cell_formula_units_Z   1
loop_
 _symmetry_equiv_pos_site_id
 _symmetry_equiv_pos_as_xyz
  1  'x, y, z'
loop_
 _atom_site_type_symbol
 _atom_site_label
 _atom_site_symmetry_multiplicity
 _atom_site_fract_x
 _atom_site_fract_y
 _atom_site_fract_z
 _atom_site_occupancy
  Pr  Pr0  1  0.248634  0.993052  0.741686  1
  Pr  Pr1  1  0.751366  0.006948  0.258314  1
  Be  Be2  1  0.080584  0.311740  0.231017  1
  Be  Be3  1  0.919416  0.688260  0.768983  1
  Be  Be4  1  0.419277  0.650434  0.231017  1
  Be  Be5  1  0.580723  0.349566  0.768983  1
  Ir  Ir6  1  0.500000  0.500000  0.500000  1
  Ir  Ir7  1  0.262310  0.999581  0.258832  1
  Ir  Ir8  1  0.737690  0.000419  0.741168  1
  Ir  Ir9  1  0.240749  0.503478  0.741168  1
  Ir  Ir10  1  0.759251  0.496522  0.258832  1
  Rh  Rh11  1  0.000000  0.500000  0.000000  1
