# generated using pymatgen
data_PrSmTcC2
_symmetry_space_group_name_H-M   'P 1'
_cell_length_a   5.32374700
_cell_length_b   6.72964500
_cell_length_c   10.17255800
_cell_angle_alpha   90.00000000
_cell_angle_beta   90.00000000
_cell_angle_gamma   90.00000000
_symmetry_Int_Tables_number   1
_chemical_formula_structural   PrSmTcC2
_chemical_formula_sum   'Pr4 Sm4 Tc4 C8'
_cell_volume   364.45149673
_cell_formula_units_Z   4
loop_
 _symmetry_equiv_pos_site_id
 _symmetry_equiv_pos_as_xyz
  1  'x, y, z'
loop_
 _atom_site_type_symbol
 _atom_site_label
 _atom_site_symmetry_multiplicity
 _atom_site_fract_x
 _atom_site_fract_y
 _atom_site_fract_z
 _atom_site_occupancy
  Pr  Pr0  1  0.750000  0.472550  0.788679  1
  Pr  Pr1  1  0.250000  0.027450  0.288679  1
  Pr  Pr2  1  0.750000  0.972550  0.711321  1
  Pr  Pr3  1  0.250000  0.527450  0.211321  1
  Sm  Sm4  1  0.750000  0.819721  0.053982  1
  Sm  Sm5  1  0.250000  0.180279  0.946018  1
  Sm  Sm6  1  0.750000  0.319721  0.446018  1
  Sm  Sm7  1  0.250000  0.680279  0.553982  1
  Tc  Tc8  1  0.750000  0.772423  0.358460  1
  Tc  Tc9  1  0.250000  0.727577  0.858460  1
  Tc  Tc10  1  0.250000  0.227577  0.641540  1
  Tc  Tc11  1  0.750000  0.272423  0.141540  1
  C  C12  1  0.250000  0.961266  0.741568  1
  C  C13  1  0.750000  0.538734  0.241568  1
  C  C14  1  0.250000  0.461266  0.758432  1
  C  C15  1  0.750000  0.038734  0.258432  1
  C  C16  1  0.250000  0.318535  0.463558  1
  C  C17  1  0.750000  0.181465  0.963558  1
  C  C18  1  0.250000  0.818535  0.036442  1
  C  C19  1  0.750000  0.681465  0.536442  1
