# generated using pymatgen
data_NaYb7(Si3Pt)4
_symmetry_space_group_name_H-M   'P 1'
_cell_length_a   8.20186300
_cell_length_b   8.20186436
_cell_length_c   8.37847400
_cell_angle_alpha   90.00000000
_cell_angle_beta   90.00000000
_cell_angle_gamma   119.99999854
_symmetry_Int_Tables_number   1
_chemical_formula_structural   NaYb7(Si3Pt)4
_chemical_formula_sum   'Na1 Yb7 Si12 Pt4'
_cell_volume   488.11331870
_cell_formula_units_Z   1
loop_
 _symmetry_equiv_pos_site_id
 _symmetry_equiv_pos_as_xyz
  1  'x, y, z'
loop_
 _atom_site_type_symbol
 _atom_site_label
 _atom_site_symmetry_multiplicity
 _atom_site_fract_x
 _atom_site_fract_y
 _atom_site_fract_z
 _atom_site_occupancy
  Na  Na0  1  0.000000  0.000000  0.750000  1
  Yb  Yb1  1  0.502209  0.004420  0.250000  1
  Yb  Yb2  1  0.497890  0.995780  0.750000  1
  Yb  Yb3  1  0.995580  0.497791  0.250000  1
  Yb  Yb4  1  0.004220  0.502110  0.750000  1
  Yb  Yb5  1  0.502209  0.497791  0.250000  1
  Yb  Yb6  1  0.497890  0.502110  0.750000  1
  Yb  Yb7  1  0.000000  0.000000  0.250000  1
  Si  Si8  1  0.165100  0.330200  0.002325  1
  Si  Si9  1  0.835073  0.670147  0.999184  1
  Si  Si10  1  0.669800  0.834900  0.002325  1
  Si  Si11  1  0.835073  0.670147  0.500816  1
  Si  Si12  1  0.329853  0.164927  0.999184  1
  Si  Si13  1  0.165100  0.330200  0.497675  1
  Si  Si14  1  0.165100  0.834900  0.002325  1
  Si  Si15  1  0.329853  0.164927  0.500816  1
  Si  Si16  1  0.835073  0.164927  0.999184  1
  Si  Si17  1  0.669800  0.834900  0.497675  1
  Si  Si18  1  0.835073  0.164927  0.500816  1
  Si  Si19  1  0.165100  0.834900  0.497675  1
  Pt  Pt20  1  0.333333  0.666667  0.004953  1
  Pt  Pt21  1  0.666667  0.333333  0.995932  1
  Pt  Pt22  1  0.666667  0.333333  0.504068  1
  Pt  Pt23  1  0.333333  0.666667  0.495047  1
