# generated using pymatgen
data_Pa2B6Mo
_symmetry_space_group_name_H-M   'P 1'
_cell_length_a   3.76724600
_cell_length_b   9.36946300
_cell_length_c   11.50842800
_cell_angle_alpha   90.00000000
_cell_angle_beta   90.00000000
_cell_angle_gamma   90.00000000
_symmetry_Int_Tables_number   1
_chemical_formula_structural   Pa2B6Mo
_chemical_formula_sum   'Pa8 B24 Mo4'
_cell_volume   406.21381183
_cell_formula_units_Z   4
loop_
 _symmetry_equiv_pos_site_id
 _symmetry_equiv_pos_as_xyz
  1  'x, y, z'
loop_
 _atom_site_type_symbol
 _atom_site_label
 _atom_site_symmetry_multiplicity
 _atom_site_fract_x
 _atom_site_fract_y
 _atom_site_fract_z
 _atom_site_occupancy
  Pa  Pa0  1  0.000000  0.334358  0.408204  1
  Pa  Pa1  1  0.000000  0.665642  0.591796  1
  Pa  Pa2  1  0.000000  0.834358  0.091796  1
  Pa  Pa3  1  0.000000  0.165642  0.908204  1
  Pa  Pa4  1  0.000000  0.952412  0.387041  1
  Pa  Pa5  1  0.000000  0.047588  0.612959  1
  Pa  Pa6  1  0.000000  0.452412  0.112959  1
  Pa  Pa7  1  0.000000  0.547588  0.887041  1
  B  B8  1  0.500000  0.550225  0.432267  1
  B  B9  1  0.500000  0.449775  0.567733  1
  B  B10  1  0.500000  0.050225  0.067733  1
  B  B11  1  0.500000  0.949775  0.932267  1
  B  B12  1  0.500000  0.742149  0.423542  1
  B  B13  1  0.500000  0.257851  0.576458  1
  B  B14  1  0.500000  0.242149  0.076458  1
  B  B15  1  0.500000  0.757851  0.923542  1
  B  B16  1  0.500000  0.800847  0.273613  1
  B  B17  1  0.500000  0.199153  0.726387  1
  B  B18  1  0.500000  0.300847  0.226387  1
  B  B19  1  0.500000  0.699153  0.773613  1
  B  B20  1  0.500000  0.644694  0.188418  1
  B  B21  1  0.500000  0.355306  0.811582  1
  B  B22  1  0.500000  0.144694  0.311582  1
  B  B23  1  0.500000  0.855306  0.688418  1
  B  B24  1  0.500000  0.987357  0.217657  1
  B  B25  1  0.500000  0.012643  0.782343  1
  B  B26  1  0.500000  0.487357  0.282343  1
  B  B27  1  0.500000  0.512643  0.717657  1
  B  B28  1  0.500000  0.643230  0.039722  1
  B  B29  1  0.500000  0.356770  0.960278  1
  B  B30  1  0.500000  0.143230  0.460278  1
  B  B31  1  0.500000  0.856770  0.539722  1
  Mo  Mo32  1  0.000000  0.644503  0.320179  1
  Mo  Mo33  1  0.000000  0.355497  0.679821  1
  Mo  Mo34  1  0.000000  0.144503  0.179821  1
  Mo  Mo35  1  0.000000  0.855497  0.820179  1
