# generated using pymatgen
data_Hf6Ga6PdPt4Rh
_symmetry_space_group_name_H-M   'P 1'
_cell_length_a   7.20809300
_cell_length_b   7.20809319
_cell_length_c   6.96830600
_cell_angle_alpha   90.00000000
_cell_angle_beta   90.00000000
_cell_angle_gamma   120.00001291
_symmetry_Int_Tables_number   1
_chemical_formula_structural   Hf6Ga6PdPt4Rh
_chemical_formula_sum   'Hf6 Ga6 Pd1 Pt4 Rh1'
_cell_volume   313.54404927
_cell_formula_units_Z   1
loop_
 _symmetry_equiv_pos_site_id
 _symmetry_equiv_pos_as_xyz
  1  'x, y, z'
loop_
 _atom_site_type_symbol
 _atom_site_label
 _atom_site_symmetry_multiplicity
 _atom_site_fract_x
 _atom_site_fract_y
 _atom_site_fract_z
 _atom_site_occupancy
  Hf  Hf0  1  0.403709  0.380876  0.250000  1
  Hf  Hf1  1  0.582521  0.974289  0.750000  1
  Hf  Hf2  1  0.391769  0.417479  0.750000  1
  Hf  Hf3  1  0.025711  0.608231  0.750000  1
  Hf  Hf4  1  0.977167  0.596291  0.250000  1
  Hf  Hf5  1  0.619124  0.022833  0.250000  1
  Ga  Ga6  1  0.265934  0.998672  0.000895  1
  Ga  Ga7  1  0.265934  0.998672  0.499105  1
  Ga  Ga8  1  0.001328  0.267262  0.499105  1
  Ga  Ga9  1  0.001328  0.267262  0.000895  1
  Ga  Ga10  1  0.732738  0.734066  0.000895  1
  Ga  Ga11  1  0.732738  0.734066  0.499105  1
  Pd  Pd12  1  0.000000  0.000000  0.750000  1
  Pt  Pt13  1  0.666667  0.333333  0.530840  1
  Pt  Pt14  1  0.666667  0.333333  0.969160  1
  Pt  Pt15  1  0.333333  0.666667  0.036390  1
  Pt  Pt16  1  0.333333  0.666667  0.463610  1
  Rh  Rh17  1  0.000000  0.000000  0.250000  1
