# generated using pymatgen
data_CsVSeO6
_symmetry_space_group_name_H-M   'P 1'
_cell_length_a   5.69329000
_cell_length_b   10.09297100
_cell_length_c   11.61158400
_cell_angle_alpha   90.00000000
_cell_angle_beta   90.00000000
_cell_angle_gamma   90.00000000
_symmetry_Int_Tables_number   1
_chemical_formula_structural   CsVSeO6
_chemical_formula_sum   'Cs4 V4 Se4 O24'
_cell_volume   667.22728828
_cell_formula_units_Z   4
loop_
 _symmetry_equiv_pos_site_id
 _symmetry_equiv_pos_as_xyz
  1  'x, y, z'
loop_
 _atom_site_type_symbol
 _atom_site_label
 _atom_site_symmetry_multiplicity
 _atom_site_fract_x
 _atom_site_fract_y
 _atom_site_fract_z
 _atom_site_occupancy
  Cs  Cs0  1  0.004274  0.681669  0.845047  1
  Cs  Cs1  1  0.495726  0.318331  0.345047  1
  Cs  Cs2  1  0.504274  0.818331  0.154953  1
  Cs  Cs3  1  0.995726  0.181669  0.654953  1
  V  V4  1  0.535652  0.843760  0.550454  1
  V  V5  1  0.035652  0.656240  0.449546  1
  V  V6  1  0.464348  0.343760  0.949546  1
  V  V7  1  0.964348  0.156240  0.050454  1
  Se  Se8  1  0.508021  0.448790  0.722450  1
  Se  Se9  1  0.991979  0.551210  0.222450  1
  Se  Se10  1  0.008021  0.051210  0.277550  1
  Se  Se11  1  0.491979  0.948790  0.777550  1
  O  O12  1  0.205642  0.105076  0.174129  1
  O  O13  1  0.794358  0.605076  0.325871  1
  O  O14  1  0.728309  0.899523  0.694403  1
  O  O15  1  0.551135  0.977150  0.472491  1
  O  O16  1  0.983430  0.389122  0.209886  1
  O  O17  1  0.948865  0.022850  0.972491  1
  O  O18  1  0.698829  0.249233  0.012365  1
  O  O19  1  0.531080  0.361525  0.603672  1
  O  O20  1  0.271691  0.399523  0.805597  1
  O  O21  1  0.801171  0.750767  0.512365  1
  O  O22  1  0.301171  0.749233  0.487635  1
  O  O23  1  0.198829  0.250767  0.987635  1
  O  O24  1  0.228309  0.600477  0.305597  1
  O  O25  1  0.031080  0.138475  0.396328  1
  O  O26  1  0.771691  0.100477  0.194403  1
  O  O27  1  0.968920  0.638475  0.103672  1
  O  O28  1  0.016570  0.889122  0.290114  1
  O  O29  1  0.468920  0.861525  0.896328  1
  O  O30  1  0.294358  0.894924  0.674129  1
  O  O31  1  0.705642  0.394924  0.825871  1
  O  O32  1  0.448865  0.477150  0.027509  1
  O  O33  1  0.516570  0.610878  0.709886  1
  O  O34  1  0.051135  0.522850  0.527509  1
  O  O35  1  0.483430  0.110878  0.790114  1
