# generated using pymatgen
data_HoErHPd6
_symmetry_space_group_name_H-M   'P 1'
_cell_length_a   4.13016500
_cell_length_b   4.13016500
_cell_length_c   8.27610800
_cell_angle_alpha   90.00000000
_cell_angle_beta   90.00000000
_cell_angle_gamma   90.00000000
_symmetry_Int_Tables_number   1
_chemical_formula_structural   HoErHPd6
_chemical_formula_sum   'Ho1 Er1 H1 Pd6'
_cell_volume   141.17602628
_cell_formula_units_Z   1
loop_
 _symmetry_equiv_pos_site_id
 _symmetry_equiv_pos_as_xyz
  1  'x, y, z'
loop_
 _atom_site_type_symbol
 _atom_site_label
 _atom_site_symmetry_multiplicity
 _atom_site_fract_x
 _atom_site_fract_y
 _atom_site_fract_z
 _atom_site_occupancy
  Ho  Ho0  1  0.000000  0.000000  0.993925  1
  Er  Er1  1  0.000000  0.000000  0.506122  1
  H  H2  1  0.500000  0.500000  0.249996  1
  Pd  Pd3  1  0.500000  0.500000  0.998986  1
  Pd  Pd4  1  0.500000  0.500000  0.501012  1
  Pd  Pd5  1  0.500000  0.000000  0.250203  1
  Pd  Pd6  1  0.500000  0.000000  0.749777  1
  Pd  Pd7  1  0.000000  0.500000  0.250203  1
  Pd  Pd8  1  0.000000  0.500000  0.749777  1
