# generated using pymatgen
data_Mg3Sc(SiOs)4
_symmetry_space_group_name_H-M   'P 1'
_cell_length_a   4.05407200
_cell_length_b   6.70182052
_cell_length_c   7.01043213
_cell_angle_alpha   89.53766033
_cell_angle_beta   90.00000000
_cell_angle_gamma   90.00000000
_symmetry_Int_Tables_number   1
_chemical_formula_structural   Mg3Sc(SiOs)4
_chemical_formula_sum   'Mg3 Sc1 Si4 Os4'
_cell_volume   190.46487665
_cell_formula_units_Z   1
loop_
 _symmetry_equiv_pos_site_id
 _symmetry_equiv_pos_as_xyz
  1  'x, y, z'
loop_
 _atom_site_type_symbol
 _atom_site_label
 _atom_site_symmetry_multiplicity
 _atom_site_fract_x
 _atom_site_fract_y
 _atom_site_fract_z
 _atom_site_occupancy
  Mg  Mg0  1  0.750000  0.489579  0.828721  1
  Mg  Mg1  1  0.250000  0.010897  0.333989  1
  Mg  Mg2  1  0.750000  0.988407  0.664364  1
  Sc  Sc3  1  0.250000  0.501008  0.171496  1
  Si  Si4  1  0.250000  0.799595  0.873122  1
  Si  Si5  1  0.250000  0.299637  0.625520  1
  Si  Si6  1  0.750000  0.200094  0.129773  1
  Si  Si7  1  0.750000  0.703327  0.372858  1
  Os  Os8  1  0.250000  0.658433  0.556012  1
  Os  Os9  1  0.250000  0.157739  0.945669  1
  Os  Os10  1  0.750000  0.844745  0.051560  1
  Os  Os11  1  0.750000  0.346538  0.446919  1
