# generated using pymatgen
data_Eu20N19
_symmetry_space_group_name_H-M   'P 1'
_cell_length_a   9.51983440
_cell_length_b   9.51983277
_cell_length_c   9.51983426
_cell_angle_alpha   106.54475022
_cell_angle_beta   106.54474197
_cell_angle_gamma   115.49750911
_symmetry_Int_Tables_number   1
_chemical_formula_structural   Eu20N19
_chemical_formula_sum   'Eu20 N19'
_cell_volume   658.58224793
_cell_formula_units_Z   1
loop_
 _symmetry_equiv_pos_site_id
 _symmetry_equiv_pos_as_xyz
  1  'x, y, z'
loop_
 _atom_site_type_symbol
 _atom_site_label
 _atom_site_symmetry_multiplicity
 _atom_site_fract_x
 _atom_site_fract_y
 _atom_site_fract_z
 _atom_site_occupancy
  Eu  Eu0  1  0.046857  0.649485  0.200022  1
  Eu  Eu1  1  0.394790  0.710437  0.105228  1
  Eu  Eu2  1  0.099462  0.797756  0.897218  1
  Eu  Eu3  1  0.763567  0.763567  0.000000  1
  Eu  Eu4  1  0.797756  0.900538  0.698294  1
  Eu  Eu5  1  0.449463  0.846834  0.799978  1
  Eu  Eu6  1  0.500000  0.000000  0.500000  1
  Eu  Eu7  1  0.153166  0.953143  0.602627  1
  Eu  Eu8  1  0.202244  0.099462  0.301706  1
  Eu  Eu9  1  0.846834  0.046857  0.397373  1
  Eu  Eu10  1  0.900538  0.202244  0.102782  1
  Eu  Eu11  1  0.550537  0.153166  0.200022  1
  Eu  Eu12  1  0.605210  0.289563  0.894772  1
  Eu  Eu13  1  0.236433  0.236433  0.000000  1
  Eu  Eu14  1  0.289563  0.394790  0.684354  1
  Eu  Eu15  1  0.953143  0.350515  0.799978  1
  Eu  Eu16  1  0.000000  0.500000  0.500000  1
  Eu  Eu17  1  0.649485  0.449463  0.602627  1
  Eu  Eu18  1  0.710437  0.605210  0.315646  1
  Eu  Eu19  1  0.350515  0.550537  0.397373  1
  N  N20  1  0.896808  0.699150  0.595958  1
  N  N21  1  0.550579  0.649354  0.704037  1
  N  N22  1  0.599533  0.797413  0.396946  1
  N  N23  1  0.250000  0.750000  0.500000  1
  N  N24  1  0.300850  0.896808  0.197657  1
  N  N25  1  0.945317  0.846542  0.295963  1
  N  N26  1  0.000000  0.000000  0.000000  1
  N  N27  1  0.649354  0.945317  0.098775  1
  N  N28  1  0.699150  0.103192  0.802343  1
  N  N29  1  0.350646  0.054683  0.901225  1
  N  N30  1  0.054683  0.153458  0.704037  1
  N  N31  1  0.750000  0.250000  0.500000  1
  N  N32  1  0.400467  0.202587  0.603054  1
  N  N33  1  0.449421  0.350646  0.295963  1
  N  N34  1  0.103192  0.300850  0.404042  1
  N  N35  1  0.153458  0.449421  0.098775  1
  N  N36  1  0.202587  0.599533  0.802121  1
  N  N37  1  0.797413  0.400467  0.197879  1
  N  N38  1  0.846542  0.550579  0.901225  1
