# generated using pymatgen
data_Hf8In4Co3Cu3Au2
_symmetry_space_group_name_H-M   'P 1'
_cell_length_a   7.32430367
_cell_length_b   7.34918670
_cell_length_c   6.71905410
_cell_angle_alpha   89.95767249
_cell_angle_beta   90.05625687
_cell_angle_gamma   91.08585550
_symmetry_Int_Tables_number   1
_chemical_formula_structural   Hf8In4Co3Cu3Au2
_chemical_formula_sum   'Hf8 In4 Co3 Cu3 Au2'
_cell_volume   361.60584457
_cell_formula_units_Z   1
loop_
 _symmetry_equiv_pos_site_id
 _symmetry_equiv_pos_as_xyz
  1  'x, y, z'
loop_
 _atom_site_type_symbol
 _atom_site_label
 _atom_site_symmetry_multiplicity
 _atom_site_fract_x
 _atom_site_fract_y
 _atom_site_fract_z
 _atom_site_occupancy
  Hf  Hf0  1  0.169167  0.154942  0.006781  1
  Hf  Hf1  1  0.830494  0.818789  0.996981  1
  Hf  Hf2  1  0.641989  0.362019  0.491089  1
  Hf  Hf3  1  0.352943  0.651787  0.493282  1
  Hf  Hf4  1  0.668211  0.347115  0.007069  1
  Hf  Hf5  1  0.338276  0.675382  0.007635  1
  Hf  Hf6  1  0.802115  0.794913  0.501710  1
  Hf  Hf7  1  0.202260  0.195488  0.490264  1
  In  In8  1  0.496298  0.001159  0.247057  1
  In  In9  1  0.493203  0.996859  0.751874  1
  In  In10  1  0.007942  0.505962  0.245871  1
  In  In11  1  0.003938  0.504591  0.751965  1
  Co  Co12  1  0.371506  0.372208  0.223224  1
  Co  Co13  1  0.619024  0.623268  0.770144  1
  Co  Co14  1  0.627668  0.630484  0.226819  1
  Cu  Cu15  1  0.371145  0.375861  0.789251  1
  Cu  Cu16  1  0.127125  0.870185  0.286938  1
  Cu  Cu17  1  0.128897  0.871102  0.711392  1
  Au  Au18  1  0.874106  0.125368  0.723224  1
  Au  Au19  1  0.873694  0.122520  0.277426  1
