# generated using pymatgen
data_Pr2LuGaSi
_symmetry_space_group_name_H-M   'P 1'
_cell_length_a   7.67226800
_cell_length_b   7.68775100
_cell_length_c   4.47208000
_cell_angle_alpha   90.00000000
_cell_angle_beta   90.00000000
_cell_angle_gamma   90.00000000
_symmetry_Int_Tables_number   1
_chemical_formula_structural   Pr2LuGaSi
_chemical_formula_sum   'Pr4 Lu2 Ga2 Si2'
_cell_volume   263.77439594
_cell_formula_units_Z   2
loop_
 _symmetry_equiv_pos_site_id
 _symmetry_equiv_pos_as_xyz
  1  'x, y, z'
loop_
 _atom_site_type_symbol
 _atom_site_label
 _atom_site_symmetry_multiplicity
 _atom_site_fract_x
 _atom_site_fract_y
 _atom_site_fract_z
 _atom_site_occupancy
  Pr  Pr0  1  0.324445  0.177924  0.500001  1
  Pr  Pr1  1  0.824446  0.322075  0.500001  1
  Pr  Pr2  1  0.175583  0.673636  0.500001  1
  Pr  Pr3  1  0.675584  0.826365  0.500001  1
  Lu  Lu4  1  0.996863  0.003977  0.000000  1
  Lu  Lu5  1  0.496862  0.496022  0.000000  1
  Ga  Ga6  1  0.882895  0.617598  0.000000  1
  Ga  Ga7  1  0.382895  0.882402  0.000000  1
  Si  Si8  1  0.620214  0.120274  0.000000  1
  Si  Si9  1  0.120215  0.379727  0.000000  1
