# generated using pymatgen
data_Nb3Cr8Si10Mo
_symmetry_space_group_name_H-M   'P 1'
_cell_length_a   9.04928321
_cell_length_b   9.04928334
_cell_length_c   9.04981830
_cell_angle_alpha   131.04369081
_cell_angle_beta   59.15062302
_cell_angle_gamma   148.88591119
_symmetry_Int_Tables_number   1
_chemical_formula_structural   Nb3Cr8Si10Mo
_chemical_formula_sum   'Nb3 Cr8 Si10 Mo1'
_cell_volume   286.49689472
_cell_formula_units_Z   1
loop_
 _symmetry_equiv_pos_site_id
 _symmetry_equiv_pos_as_xyz
  1  'x, y, z'
loop_
 _atom_site_type_symbol
 _atom_site_label
 _atom_site_symmetry_multiplicity
 _atom_site_fract_x
 _atom_site_fract_y
 _atom_site_fract_z
 _atom_site_occupancy
  Nb  Nb0  1  0.858179  0.879163  0.737340  1
  Nb  Nb1  1  0.358213  0.618751  0.976964  1
  Nb  Nb2  1  0.641785  0.379941  0.021724  1
  Cr  Cr3  1  0.558422  0.250421  0.307224  1
  Cr  Cr4  1  0.941626  0.250158  0.693338  1
  Cr  Cr5  1  0.443182  0.751714  0.693339  1
  Cr  Cr6  1  0.056805  0.748804  0.307224  1
  Cr  Cr7  1  0.439408  0.245340  0.684748  1
  Cr  Cr8  1  0.559966  0.756464  0.316428  1
  Cr  Cr9  1  0.060503  0.743426  0.803929  1
  Cr  Cr10  1  0.939498  0.255659  0.195154  1
  Si  Si11  1  0.066032  0.417397  0.483429  1
  Si  Si12  1  0.935522  0.577239  0.512761  1
  Si  Si13  1  0.434739  0.922677  0.357414  1
  Si  Si14  1  0.564755  0.077219  0.641975  1
  Si  Si15  1  0.286596  0.290016  0.576612  1
  Si  Si16  1  0.710734  0.706764  0.417497  1
  Si  Si17  1  0.210836  0.796515  0.007349  1
  Si  Si18  1  0.788180  0.207233  0.995412  1
  Si  Si19  1  0.250492  0.250076  0.002523  1
  Si  Si20  1  0.752447  0.752032  0.002523  1
  Mo  Mo21  1  0.142090  0.123006  0.265097  1
