# generated using pymatgen
data_Tb2YMnCrC6
_symmetry_space_group_name_H-M   'P 1'
_cell_length_a   8.11763900
_cell_length_b   8.11786993
_cell_length_c   5.00876100
_cell_angle_alpha   90.00000000
_cell_angle_beta   90.00000000
_cell_angle_gamma   119.99578746
_symmetry_Int_Tables_number   1
_chemical_formula_structural   Tb2YMnCrC6
_chemical_formula_sum   'Tb4 Y2 Mn2 Cr2 C12'
_cell_volume   285.85855702
_cell_formula_units_Z   2
loop_
 _symmetry_equiv_pos_site_id
 _symmetry_equiv_pos_as_xyz
  1  'x, y, z'
loop_
 _atom_site_type_symbol
 _atom_site_label
 _atom_site_symmetry_multiplicity
 _atom_site_fract_x
 _atom_site_fract_y
 _atom_site_fract_z
 _atom_site_occupancy
  Tb  Tb0  1  0.684411  0.063470  0.250000  1
  Tb  Tb1  1  0.315646  0.936542  0.750000  1
  Tb  Tb2  1  0.063460  0.379098  0.750000  1
  Tb  Tb3  1  0.379126  0.315701  0.250000  1
  Y  Y4  1  0.621061  0.684436  0.750000  1
  Y  Y5  1  0.936600  0.621044  0.250000  1
  Mn  Mn6  1  0.666677  0.333327  0.750000  1
  Mn  Mn7  1  0.333318  0.666634  0.250000  1
  Cr  Cr8  1  0.000012  0.000013  0.500001  1
  Cr  Cr9  1  0.000012  0.000013  0.999999  1
  C  C10  1  0.961789  0.771023  0.750000  1
  C  C11  1  0.190751  0.961823  0.250000  1
  C  C12  1  0.771069  0.809114  0.250000  1
  C  C13  1  0.228828  0.190683  0.750000  1
  C  C14  1  0.809122  0.038020  0.750000  1
  C  C15  1  0.038153  0.228846  0.250000  1
  C  C16  1  0.864177  0.576469  0.750000  1
  C  C17  1  0.287642  0.864047  0.250000  1
  C  C18  1  0.576380  0.712251  0.250000  1
  C  C19  1  0.423650  0.287816  0.750000  1
  C  C20  1  0.135818  0.423646  0.250000  1
  C  C21  1  0.712296  0.135985  0.750000  1
