# generated using pymatgen
data_Yb3(GaIr)2
_symmetry_space_group_name_H-M   'P 1'
_cell_length_a   5.66936500
_cell_length_b   7.69479500
_cell_length_c   13.84958400
_cell_angle_alpha   90.00000000
_cell_angle_beta   90.00000000
_cell_angle_gamma   90.00000000
_symmetry_Int_Tables_number   1
_chemical_formula_structural   Yb3(GaIr)2
_chemical_formula_sum   'Yb12 Ga8 Ir8'
_cell_volume   604.18258232
_cell_formula_units_Z   4
loop_
 _symmetry_equiv_pos_site_id
 _symmetry_equiv_pos_as_xyz
  1  'x, y, z'
loop_
 _atom_site_type_symbol
 _atom_site_label
 _atom_site_symmetry_multiplicity
 _atom_site_fract_x
 _atom_site_fract_y
 _atom_site_fract_z
 _atom_site_occupancy
  Yb  Yb0  1  0.147319  0.605668  0.093398  1
  Yb  Yb1  1  0.147319  0.894332  0.906602  1
  Yb  Yb2  1  0.852681  0.105668  0.406602  1
  Yb  Yb3  1  0.852681  0.394332  0.593398  1
  Yb  Yb4  1  0.852681  0.394332  0.906602  1
  Yb  Yb5  1  0.852681  0.105668  0.093398  1
  Yb  Yb6  1  0.147319  0.894332  0.593398  1
  Yb  Yb7  1  0.147319  0.605668  0.406602  1
  Yb  Yb8  1  0.376817  0.254922  0.250000  1
  Yb  Yb9  1  0.376817  0.245078  0.750000  1
  Yb  Yb10  1  0.623183  0.754922  0.250000  1
  Yb  Yb11  1  0.623183  0.745078  0.750000  1
  Ga  Ga12  1  0.389678  0.250000  0.000000  1
  Ga  Ga13  1  0.610322  0.750000  0.500000  1
  Ga  Ga14  1  0.610322  0.750000  0.000000  1
  Ga  Ga15  1  0.389678  0.250000  0.500000  1
  Ga  Ga16  1  0.854232  0.407501  0.250000  1
  Ga  Ga17  1  0.854232  0.092499  0.750000  1
  Ga  Ga18  1  0.145768  0.907501  0.250000  1
  Ga  Ga19  1  0.145768  0.592499  0.750000  1
  Ir  Ir20  1  0.643873  0.471192  0.095227  1
  Ir  Ir21  1  0.643873  0.028808  0.904773  1
  Ir  Ir22  1  0.356127  0.971192  0.404773  1
  Ir  Ir23  1  0.356127  0.528808  0.595227  1
  Ir  Ir24  1  0.356127  0.528808  0.904773  1
  Ir  Ir25  1  0.356127  0.971192  0.095227  1
  Ir  Ir26  1  0.643873  0.028808  0.595227  1
  Ir  Ir27  1  0.643873  0.471192  0.404773  1
