# generated using pymatgen
data_Ta3NbSi2(B2W3)2
_symmetry_space_group_name_H-M   'P 1'
_cell_length_a   7.12327314
_cell_length_b   7.14870886
_cell_length_c   7.16102973
_cell_angle_alpha   129.25192420
_cell_angle_beta   129.12017695
_cell_angle_gamma   74.68140524
_symmetry_Int_Tables_number   1
_chemical_formula_structural   Ta3NbSi2(B2W3)2
_chemical_formula_sum   'Ta3 Nb1 Si2 B4 W6'
_cell_volume   213.47062374
_cell_formula_units_Z   1
loop_
 _symmetry_equiv_pos_site_id
 _symmetry_equiv_pos_as_xyz
  1  'x, y, z'
loop_
 _atom_site_type_symbol
 _atom_site_label
 _atom_site_symmetry_multiplicity
 _atom_site_fract_x
 _atom_site_fract_y
 _atom_site_fract_z
 _atom_site_occupancy
  Ta  Ta0  1  0.521375  0.022342  0.827920  1
  Ta  Ta1  1  0.693145  0.525639  0.500046  1
  Ta  Ta2  1  0.978334  0.803430  0.501301  1
  Nb  Nb3  1  0.026807  0.194594  0.500829  1
  Si  Si4  1  0.247620  0.253881  0.005098  1
  Si  Si5  1  0.748578  0.746484  0.998571  1
  B  B6  1  0.129622  0.629242  0.757613  1
  B  B7  1  0.874515  0.373065  0.243790  1
  B  B8  1  0.618820  0.879928  0.497518  1
  B  B9  1  0.381890  0.120304  0.498737  1
  W  W10  1  0.000950  0.001942  0.000526  1
  W  W11  1  0.502019  0.502355  0.000941  1
  W  W12  1  0.803729  0.304107  0.827925  1
  W  W13  1  0.193175  0.694655  0.165743  1
  W  W14  1  0.475224  0.975650  0.172071  1
  W  W15  1  0.304196  0.472382  0.501369  1
