# generated using pymatgen
data_Dy7YTi3Si16Mo9
_symmetry_space_group_name_H-M   'P 1'
_cell_length_a   6.91626982
_cell_length_b   6.91642608
_cell_length_c   12.81690938
_cell_angle_alpha   90.00625187
_cell_angle_beta   89.99313276
_cell_angle_gamma   89.78975923
_symmetry_Int_Tables_number   1
_chemical_formula_structural   Dy7YTi3Si16Mo9
_chemical_formula_sum   'Dy7 Y1 Ti3 Si16 Mo9'
_cell_volume   613.10386277
_cell_formula_units_Z   1
loop_
 _symmetry_equiv_pos_site_id
 _symmetry_equiv_pos_as_xyz
  1  'x, y, z'
loop_
 _atom_site_type_symbol
 _atom_site_label
 _atom_site_symmetry_multiplicity
 _atom_site_fract_x
 _atom_site_fract_y
 _atom_site_fract_z
 _atom_site_occupancy
  Dy  Dy0  1  0.000732  0.340836  0.531343  1
  Dy  Dy1  1  0.660061  0.997694  0.968460  1
  Dy  Dy2  1  0.160770  0.503542  0.780889  1
  Dy  Dy3  1  0.838610  0.500079  0.282676  1
  Dy  Dy4  1  0.503540  0.160741  0.219100  1
  Dy  Dy5  1  0.500058  0.838608  0.717344  1
  Dy  Dy6  1  0.340825  0.000716  0.468646  1
  Y  Y7  1  0.997647  0.660171  0.031563  1
  Ti  Ti8  1  0.829118  0.169099  0.748544  1
  Ti  Ti9  1  0.169119  0.829153  0.251475  1
  Ti  Ti10  1  0.330643  0.330463  0.999990  1
  Si  Si11  1  0.036808  0.713026  0.438344  1
  Si  Si12  1  0.958281  0.289108  0.936098  1
  Si  Si13  1  0.713020  0.036789  0.561643  1
  Si  Si14  1  0.209688  0.459736  0.186411  1
  Si  Si15  1  0.788402  0.542574  0.684985  1
  Si  Si16  1  0.459781  0.209576  0.813655  1
  Si  Si17  1  0.542551  0.788404  0.315013  1
  Si  Si18  1  0.289248  0.958368  0.063897  1
  Si  Si19  1  0.799849  0.871147  0.184108  1
  Si  Si20  1  0.303466  0.625808  0.565362  1
  Si  Si21  1  0.700261  0.371387  0.065896  1
  Si  Si22  1  0.625799  0.303460  0.434644  1
  Si  Si23  1  0.371542  0.700372  0.934077  1
  Si  Si24  1  0.128032  0.202501  0.315343  1
  Si  Si25  1  0.202538  0.128020  0.684662  1
  Si  Si26  1  0.871035  0.799908  0.815923  1
  Mo  Mo27  1  0.333642  0.504570  0.375008  1
  Mo  Mo28  1  0.843985  0.998090  0.373180  1
  Mo  Mo29  1  0.006729  0.159389  0.125467  1
  Mo  Mo30  1  0.998102  0.843977  0.626809  1
  Mo  Mo31  1  0.504549  0.333682  0.624969  1
  Mo  Mo32  1  0.159438  0.006809  0.874510  1
  Mo  Mo33  1  0.668892  0.668882  0.499992  1
  Mo  Mo34  1  0.493891  0.659405  0.124853  1
  Mo  Mo35  1  0.659350  0.493911  0.875122  1
