# generated using pymatgen
data_LiMg3Ni2As6Ir5
_symmetry_space_group_name_H-M   'P 1'
_cell_length_a   7.02105652
_cell_length_b   6.96530074
_cell_length_c   6.95165005
_cell_angle_alpha   108.74618139
_cell_angle_beta   109.61177705
_cell_angle_gamma   109.68991097
_symmetry_Int_Tables_number   1
_chemical_formula_structural   LiMg3Ni2As6Ir5
_chemical_formula_sum   'Li1 Mg3 Ni2 As6 Ir5'
_cell_volume   262.86111509
_cell_formula_units_Z   1
loop_
 _symmetry_equiv_pos_site_id
 _symmetry_equiv_pos_as_xyz
  1  'x, y, z'
loop_
 _atom_site_type_symbol
 _atom_site_label
 _atom_site_symmetry_multiplicity
 _atom_site_fract_x
 _atom_site_fract_y
 _atom_site_fract_z
 _atom_site_occupancy
  Li  Li0  1  0.000000  0.992570  0.499994  1
  Mg  Mg1  1  0.500455  0.003290  0.997575  1
  Mg  Mg2  1  0.000000  0.499501  0.006622  1
  Mg  Mg3  1  0.499545  0.502834  0.497120  1
  Ni  Ni4  1  0.245659  0.497610  0.750952  1
  Ni  Ni5  1  0.754341  0.251951  0.505293  1
  As  As6  1  0.690366  0.691909  0.005177  1
  As  As7  1  0.306576  0.311655  0.986467  1
  As  As8  1  0.000000  0.681647  0.686102  1
  As  As9  1  0.000000  0.307629  0.327680  1
  As  As10  1  0.693424  0.005079  0.679890  1
  As  As11  1  0.309634  0.001544  0.314811  1
  Ir  Ir12  1  0.000000  0.002165  0.998548  1
  Ir  Ir13  1  0.504609  0.258880  0.744961  1
  Ir  Ir14  1  0.495391  0.754272  0.240352  1
  Ir  Ir15  1  0.742605  0.490036  0.250530  1
  Ir  Ir16  1  0.257395  0.747431  0.507926  1
