# generated using pymatgen
data_La6Mg2Zn2Pt13
_symmetry_space_group_name_H-M   'P 1'
_cell_length_a   8.52518771
_cell_length_b   8.50256949
_cell_length_c   8.52518935
_cell_angle_alpha   109.49282210
_cell_angle_beta   109.53564823
_cell_angle_gamma   109.49282103
_symmetry_Int_Tables_number   1
_chemical_formula_structural   La6Mg2Zn2Pt13
_chemical_formula_sum   'La6 Mg2 Zn2 Pt13'
_cell_volume   475.07044027
_cell_formula_units_Z   1
loop_
 _symmetry_equiv_pos_site_id
 _symmetry_equiv_pos_as_xyz
  1  'x, y, z'
loop_
 _atom_site_type_symbol
 _atom_site_label
 _atom_site_symmetry_multiplicity
 _atom_site_fract_x
 _atom_site_fract_y
 _atom_site_fract_z
 _atom_site_occupancy
  La  La0  1  0.696261  0.699091  0.002830  1
  La  La1  1  0.303544  0.000000  0.303544  1
  La  La2  1  0.997170  0.300909  0.303739  1
  La  La3  1  0.303739  0.300909  0.997170  1
  La  La4  1  0.696456  0.000000  0.696456  1
  La  La5  1  0.002830  0.699091  0.696261  1
  Mg  Mg6  1  0.000000  0.500000  0.000000  1
  Mg  Mg7  1  0.500000  0.500000  0.500000  1
  Zn  Zn8  1  0.000000  0.000000  0.500000  1
  Zn  Zn9  1  0.500000  0.000000  0.000000  1
  Pt  Pt10  1  0.328268  0.328360  0.658497  1
  Pt  Pt11  1  0.670866  0.000000  0.329134  1
  Pt  Pt12  1  0.999908  0.671640  0.330137  1
  Pt  Pt13  1  0.669863  0.328360  0.000092  1
  Pt  Pt14  1  0.329746  0.659492  0.329746  1
  Pt  Pt15  1  0.000092  0.328360  0.669863  1
  Pt  Pt16  1  0.330137  0.671640  0.999908  1
  Pt  Pt17  1  0.329134  0.000000  0.670866  1
  Pt  Pt18  1  0.658497  0.328360  0.328268  1
  Pt  Pt19  1  0.671732  0.671640  0.341503  1
  Pt  Pt20  1  0.670254  0.340508  0.670254  1
  Pt  Pt21  1  0.341503  0.671640  0.671732  1
  Pt  Pt22  1  0.000000  0.000000  0.000000  1
