# generated using pymatgen
data_Pr4TiCu3(RuO5)4
_symmetry_space_group_name_H-M   'P 1'
_cell_length_a   5.64281500
_cell_length_b   7.97812190
_cell_length_c   8.87193200
_cell_angle_alpha   89.89305855
_cell_angle_beta   90.00000000
_cell_angle_gamma   90.00000000
_symmetry_Int_Tables_number   1
_chemical_formula_structural   Pr4TiCu3(RuO5)4
_chemical_formula_sum   'Pr4 Ti1 Cu3 Ru4 O20'
_cell_volume   399.40539576
_cell_formula_units_Z   1
loop_
 _symmetry_equiv_pos_site_id
 _symmetry_equiv_pos_as_xyz
  1  'x, y, z'
loop_
 _atom_site_type_symbol
 _atom_site_label
 _atom_site_symmetry_multiplicity
 _atom_site_fract_x
 _atom_site_fract_y
 _atom_site_fract_z
 _atom_site_occupancy
  Pr  Pr0  1  0.000000  0.351380  0.675436  1
  Pr  Pr1  1  0.000000  0.651055  0.326946  1
  Pr  Pr2  1  0.000000  0.855463  0.830687  1
  Pr  Pr3  1  0.000000  0.145766  0.166996  1
  Ti  Ti4  1  0.500000  0.397010  0.365507  1
  Cu  Cu5  1  0.500000  0.067648  0.849071  1
  Cu  Cu6  1  0.500000  0.937229  0.148109  1
  Cu  Cu7  1  0.500000  0.574665  0.650168  1
  Ru  Ru8  1  0.283171  0.503734  0.996993  1
  Ru  Ru9  1  0.721261  0.997263  0.499511  1
  Ru  Ru10  1  0.716829  0.503734  0.996993  1
  Ru  Ru11  1  0.278739  0.997263  0.499511  1
  O  O12  1  0.249616  0.910844  0.288476  1
  O  O13  1  0.249914  0.092396  0.708738  1
  O  O14  1  0.741733  0.412801  0.215786  1
  O  O15  1  0.751255  0.588769  0.791012  1
  O  O16  1  0.750086  0.092396  0.708738  1
  O  O17  1  0.750384  0.910844  0.288476  1
  O  O18  1  0.248745  0.588769  0.791012  1
  O  O19  1  0.258267  0.412801  0.215786  1
  O  O20  1  0.500000  0.329384  0.932692  1
  O  O21  1  0.500000  0.675764  0.063351  1
  O  O22  1  0.500000  0.825943  0.565156  1
  O  O23  1  0.500000  0.175844  0.428049  1
  O  O24  1  0.267333  0.002292  0.998500  1
  O  O25  1  0.732563  0.499764  0.497305  1
  O  O26  1  0.732667  0.002292  0.998500  1
  O  O27  1  0.267437  0.499764  0.497305  1
  O  O28  1  0.000000  0.151570  0.447994  1
  O  O29  1  0.000000  0.842106  0.553731  1
  O  O30  1  0.000000  0.655710  0.052552  1
  O  O31  1  0.000000  0.347735  0.950915  1
