# generated using pymatgen
data_La4As6PIr8
_symmetry_space_group_name_H-M   'P 1'
_cell_length_a   4.16112000
_cell_length_b   13.25213111
_cell_length_c   13.65926963
_cell_angle_alpha   81.41418626
_cell_angle_beta   90.00000000
_cell_angle_gamma   90.00000000
_symmetry_Int_Tables_number   1
_chemical_formula_structural   La4As6PIr8
_chemical_formula_sum   'La8 As12 P2 Ir16'
_cell_volume   744.78168839
_cell_formula_units_Z   2
loop_
 _symmetry_equiv_pos_site_id
 _symmetry_equiv_pos_as_xyz
  1  'x, y, z'
loop_
 _atom_site_type_symbol
 _atom_site_label
 _atom_site_symmetry_multiplicity
 _atom_site_fract_x
 _atom_site_fract_y
 _atom_site_fract_z
 _atom_site_occupancy
  La  La0  1  0.750000  0.787254  0.561933  1
  La  La1  1  0.250000  0.212746  0.438067  1
  La  La2  1  0.750000  0.483701  0.705635  1
  La  La3  1  0.250000  0.516299  0.294365  1
  La  La4  1  0.750000  0.713547  0.895909  1
  La  La5  1  0.250000  0.099190  0.789608  1
  La  La6  1  0.750000  0.900810  0.210392  1
  La  La7  1  0.250000  0.286453  0.104091  1
  As  As8  1  0.250000  0.904736  0.412187  1
  As  As9  1  0.750000  0.472081  0.129067  1
  As  As10  1  0.250000  0.527919  0.870933  1
  As  As11  1  0.750000  0.095264  0.587813  1
  As  As12  1  0.250000  0.744123  0.082019  1
  As  As13  1  0.750000  0.255877  0.917981  1
  As  As14  1  0.750000  0.156008  0.279783  1
  As  As15  1  0.250000  0.843992  0.720217  1
  As  As16  1  0.250000  0.058156  0.098867  1
  As  As17  1  0.750000  0.941844  0.901133  1
  As  As18  1  0.250000  0.312991  0.687206  1
  As  As19  1  0.750000  0.687009  0.312794  1
  P  P20  1  0.250000  0.604363  0.559600  1
  P  P21  1  0.750000  0.395637  0.440400  1
  Ir  Ir22  1  0.250000  0.989081  0.574740  1
  Ir  Ir23  1  0.750000  0.010919  0.425260  1
  Ir  Ir24  1  0.250000  0.659574  0.720766  1
  Ir  Ir25  1  0.750000  0.340426  0.279234  1
  Ir  Ir26  1  0.250000  0.554565  0.045880  1
  Ir  Ir27  1  0.750000  0.445435  0.954120  1
  Ir  Ir28  1  0.250000  0.057367  0.278249  1
  Ir  Ir29  1  0.750000  0.942633  0.721751  1
  Ir  Ir30  1  0.250000  0.428144  0.522412  1
  Ir  Ir31  1  0.750000  0.571856  0.477588  1
  Ir  Ir32  1  0.250000  0.920221  0.996997  1
  Ir  Ir33  1  0.750000  0.079779  0.003003  1
  Ir  Ir34  1  0.250000  0.717257  0.405105  1
  Ir  Ir35  1  0.750000  0.282743  0.594895  1
  Ir  Ir36  1  0.250000  0.342025  0.862065  1
  Ir  Ir37  1  0.750000  0.657975  0.137935  1
