# generated using pymatgen
data_Ta2B(Ru2Rh)2
_symmetry_space_group_name_H-M   'P 1'
_cell_length_a   5.63670559
_cell_length_b   5.63670537
_cell_length_c   5.62238900
_cell_angle_alpha   60.08397607
_cell_angle_beta   60.08397739
_cell_angle_gamma   59.82531009
_symmetry_Int_Tables_number   1
_chemical_formula_structural   Ta2B(Ru2Rh)2
_chemical_formula_sum   'Ta2 B1 Ru4 Rh2'
_cell_volume   126.30733629
_cell_formula_units_Z   1
loop_
 _symmetry_equiv_pos_site_id
 _symmetry_equiv_pos_as_xyz
  1  'x, y, z'
loop_
 _atom_site_type_symbol
 _atom_site_label
 _atom_site_symmetry_multiplicity
 _atom_site_fract_x
 _atom_site_fract_y
 _atom_site_fract_z
 _atom_site_occupancy
  Ta  Ta0  1  0.249967  0.249967  0.250304  1
  Ta  Ta1  1  0.750033  0.750033  0.750238  1
  B  B2  1  0.000000  0.000000  0.997753  1
  Ru  Ru3  1  0.742787  0.742787  0.257898  1
  Ru  Ru4  1  0.257213  0.257213  0.743472  1
  Ru  Ru5  1  0.741854  0.258146  0.741888  1
  Ru  Ru6  1  0.258146  0.741854  0.741888  1
  Rh  Rh7  1  0.741606  0.258394  0.258280  1
  Rh  Rh8  1  0.258394  0.741606  0.258280  1
