# generated using pymatgen
data_Ac8Sb14Rh17
_symmetry_space_group_name_H-M   'P 1'
_cell_length_a   14.29251647
_cell_length_b   14.29251645
_cell_length_c   14.29251600
_cell_angle_alpha   127.57147453
_cell_angle_beta   127.57147448
_cell_angle_gamma   77.32025913
_symmetry_Int_Tables_number   1
_chemical_formula_structural   Ac8Sb14Rh17
_chemical_formula_sum   'Ac16 Sb28 Rh34'
_cell_volume   1779.40340112
_cell_formula_units_Z   2
loop_
 _symmetry_equiv_pos_site_id
 _symmetry_equiv_pos_as_xyz
  1  'x, y, z'
loop_
 _atom_site_type_symbol
 _atom_site_label
 _atom_site_symmetry_multiplicity
 _atom_site_fract_x
 _atom_site_fract_y
 _atom_site_fract_z
 _atom_site_occupancy
  Ac  Ac0  1  0.909302  0.409302  0.967092  1
  Ac  Ac1  1  0.442210  0.942210  0.032908  1
  Ac  Ac2  1  0.409302  0.442210  0.500000  1
  Ac  Ac3  1  0.942210  0.909302  0.500000  1
  Ac  Ac4  1  0.169641  0.169641  0.000000  1
  Ac  Ac5  1  0.669641  0.669641  0.000000  1
  Ac  Ac6  1  0.173356  0.673356  0.500000  1
  Ac  Ac7  1  0.673356  0.173356  0.500000  1
  Ac  Ac8  1  0.677274  0.435423  0.256100  1
  Ac  Ac9  1  0.179324  0.421174  0.743900  1
  Ac  Ac10  1  0.435423  0.179324  0.758150  1
  Ac  Ac11  1  0.679324  0.935423  0.758150  1
  Ac  Ac12  1  0.421174  0.677274  0.241850  1
  Ac  Ac13  1  0.177274  0.921174  0.241850  1
  Ac  Ac14  1  0.921174  0.679324  0.743900  1
  Ac  Ac15  1  0.935423  0.177274  0.256100  1
  Sb  Sb16  1  0.223721  0.484768  0.235493  1
  Sb  Sb17  1  0.249274  0.988227  0.764507  1
  Sb  Sb18  1  0.484768  0.249274  0.261047  1
  Sb  Sb19  1  0.749274  0.984768  0.261047  1
  Sb  Sb20  1  0.988227  0.223721  0.738953  1
  Sb  Sb21  1  0.723721  0.488227  0.738953  1
  Sb  Sb22  1  0.488227  0.749274  0.764507  1
  Sb  Sb23  1  0.984768  0.723721  0.235493  1
  Sb  Sb24  1  0.171811  0.210582  0.273372  1
  Sb  Sb25  1  0.937210  0.898439  0.726628  1
  Sb  Sb26  1  0.210582  0.937210  0.038771  1
  Sb  Sb27  1  0.437210  0.710582  0.038771  1
  Sb  Sb28  1  0.898439  0.171811  0.961229  1
  Sb  Sb29  1  0.671811  0.398439  0.961229  1
  Sb  Sb30  1  0.398439  0.437210  0.726628  1
  Sb  Sb31  1  0.710582  0.671811  0.273372  1
  Sb  Sb32  1  0.371637  0.371637  0.000000  1
  Sb  Sb33  1  0.871637  0.871637  0.000000  1
  Sb  Sb34  1  0.127862  0.627862  0.680736  1
  Sb  Sb35  1  0.947126  0.447126  0.319264  1
  Sb  Sb36  1  0.627862  0.947126  0.500000  1
  Sb  Sb37  1  0.447126  0.127862  0.500000  1
  Sb  Sb38  1  0.367261  0.867261  0.500000  1
  Sb  Sb39  1  0.867261  0.367261  0.500000  1
  Sb  Sb40  1  0.106593  0.606593  0.983973  1
  Sb  Sb41  1  0.622621  0.122621  0.016027  1
  Sb  Sb42  1  0.606593  0.622621  0.500000  1
  Sb  Sb43  1  0.122621  0.106593  0.500000  1
  Rh  Rh44  1  0.376616  0.154888  0.296530  1
  Rh  Rh45  1  0.858357  0.080085  0.703470  1
  Rh  Rh46  1  0.154888  0.858357  0.778271  1
  Rh  Rh47  1  0.358357  0.654888  0.778271  1
  Rh  Rh48  1  0.080085  0.376616  0.221729  1
  Rh  Rh49  1  0.876616  0.580085  0.221729  1
  Rh  Rh50  1  0.580085  0.358357  0.703470  1
  Rh  Rh51  1  0.654888  0.876616  0.296530  1
  Rh  Rh52  1  0.917189  0.417189  0.741813  1
  Rh  Rh53  1  0.675375  0.175375  0.258187  1
  Rh  Rh54  1  0.417189  0.675375  0.500000  1
  Rh  Rh55  1  0.175375  0.917189  0.500000  1
  Rh  Rh56  1  0.672635  0.172635  0.749034  1
  Rh  Rh57  1  0.423601  0.923601  0.250966  1
  Rh  Rh58  1  0.172635  0.423601  0.500000  1
  Rh  Rh59  1  0.923601  0.672635  0.500000  1
  Rh  Rh60  1  0.211415  0.711415  0.957756  1
  Rh  Rh61  1  0.753659  0.253659  0.042244  1
  Rh  Rh62  1  0.711415  0.753659  0.500000  1
  Rh  Rh63  1  0.253659  0.211415  0.500000  1
  Rh  Rh64  1  0.419386  0.430542  0.247719  1
  Rh  Rh65  1  0.182823  0.171667  0.752281  1
  Rh  Rh66  1  0.430542  0.182823  0.011156  1
  Rh  Rh67  1  0.682823  0.930542  0.011156  1
  Rh  Rh68  1  0.171667  0.419386  0.988844  1
  Rh  Rh69  1  0.919386  0.671667  0.988844  1
  Rh  Rh70  1  0.671667  0.682823  0.752281  1
  Rh  Rh71  1  0.930542  0.919386  0.247719  1
  Rh  Rh72  1  0.434591  0.934591  0.758082  1
  Rh  Rh73  1  0.176509  0.676509  0.241918  1
  Rh  Rh74  1  0.934591  0.176509  0.500000  1
  Rh  Rh75  1  0.676509  0.434591  0.500000  1
  Rh  Rh76  1  0.003129  0.003129  0.000000  1
  Rh  Rh77  1  0.503129  0.503129  0.000000  1
