# generated using pymatgen
data_Cd3Si2(PPd5)4
_symmetry_space_group_name_H-M   'P 1'
_cell_length_a   8.63827685
_cell_length_b   8.62699644
_cell_length_c   8.62699601
_cell_angle_alpha   60.08653598
_cell_angle_beta   59.95673110
_cell_angle_gamma   59.95673208
_symmetry_Int_Tables_number   1
_chemical_formula_structural   Cd3Si2(PPd5)4
_chemical_formula_sum   'Cd3 Si2 P4 Pd20'
_cell_volume   454.60043489
_cell_formula_units_Z   1
loop_
 _symmetry_equiv_pos_site_id
 _symmetry_equiv_pos_as_xyz
  1  'x, y, z'
loop_
 _atom_site_type_symbol
 _atom_site_label
 _atom_site_symmetry_multiplicity
 _atom_site_fract_x
 _atom_site_fract_y
 _atom_site_fract_z
 _atom_site_occupancy
  Cd  Cd0  1  0.250000  0.250000  0.250000  1
  Cd  Cd1  1  0.750000  0.750000  0.750000  1
  Cd  Cd2  1  0.000000  0.000000  0.000000  1
  Si  Si3  1  0.732264  0.267736  0.267736  1
  Si  Si4  1  0.267736  0.732264  0.732264  1
  P  P5  1  0.268503  0.731497  0.268503  1
  P  P6  1  0.731497  0.268503  0.731497  1
  P  P7  1  0.268503  0.268503  0.731497  1
  P  P8  1  0.731497  0.731497  0.268503  1
  Pd  Pd9  1  0.382084  0.383405  0.383405  1
  Pd  Pd10  1  0.617916  0.616595  0.616595  1
  Pd  Pd11  1  0.383405  0.382084  0.851104  1
  Pd  Pd12  1  0.383405  0.851104  0.382084  1
  Pd  Pd13  1  0.616595  0.617916  0.148896  1
  Pd  Pd14  1  0.616595  0.148896  0.617916  1
  Pd  Pd15  1  0.851104  0.383405  0.383405  1
  Pd  Pd16  1  0.148896  0.616595  0.616595  1
  Pd  Pd17  1  0.341448  0.000000  0.000000  1
  Pd  Pd18  1  0.658552  0.000000  0.000000  1
  Pd  Pd19  1  0.000000  0.341448  0.658552  1
  Pd  Pd20  1  0.000000  0.658552  0.341448  1
  Pd  Pd21  1  0.001962  0.342804  0.998038  1
  Pd  Pd22  1  0.657196  0.998038  0.342804  1
  Pd  Pd23  1  0.998038  0.657196  0.001962  1
  Pd  Pd24  1  0.342804  0.001962  0.657196  1
  Pd  Pd25  1  0.001962  0.998038  0.342804  1
  Pd  Pd26  1  0.998038  0.001962  0.657196  1
  Pd  Pd27  1  0.657196  0.342804  0.998038  1
  Pd  Pd28  1  0.342804  0.657196  0.001962  1
