# generated using pymatgen
data_AcAl5Ir2
_symmetry_space_group_name_H-M   'P 1'
_cell_length_a   6.59874483
_cell_length_b   6.59874429
_cell_length_c   6.59874398
_cell_angle_alpha   143.51464768
_cell_angle_beta   111.84908817
_cell_angle_gamma   79.85313225
_symmetry_Int_Tables_number   1
_chemical_formula_structural   AcAl5Ir2
_chemical_formula_sum   'Ac1 Al5 Ir2'
_cell_volume   154.58804021
_cell_formula_units_Z   1
loop_
 _symmetry_equiv_pos_site_id
 _symmetry_equiv_pos_as_xyz
  1  'x, y, z'
loop_
 _atom_site_type_symbol
 _atom_site_label
 _atom_site_symmetry_multiplicity
 _atom_site_fract_x
 _atom_site_fract_y
 _atom_site_fract_z
 _atom_site_occupancy
  Ac  Ac0  1  0.000000  0.000000  0.000000  1
  Al  Al1  1  0.525656  0.337876  0.187779  1
  Al  Al2  1  0.849904  0.662125  0.187779  1
  Al  Al3  1  0.500000  0.000000  0.500000  1
  Al  Al4  1  0.150096  0.337875  0.812220  1
  Al  Al5  1  0.474344  0.662123  0.812220  1
  Ir  Ir6  1  0.736352  0.236352  0.500000  1
  Ir  Ir7  1  0.263647  0.763646  0.499999  1
