# generated using pymatgen
data_TbSbI6
_symmetry_space_group_name_H-M   'P 1'
_cell_length_a   8.76613323
_cell_length_b   8.76613323
_cell_length_c   8.76613351
_cell_angle_alpha   52.39405859
_cell_angle_beta   52.39405850
_cell_angle_gamma   52.39405659
_symmetry_Int_Tables_number   1
_chemical_formula_structural   TbSbI6
_chemical_formula_sum   'Tb1 Sb1 I6'
_cell_volume   391.25198602
_cell_formula_units_Z   1
loop_
 _symmetry_equiv_pos_site_id
 _symmetry_equiv_pos_as_xyz
  1  'x, y, z'
loop_
 _atom_site_type_symbol
 _atom_site_label
 _atom_site_symmetry_multiplicity
 _atom_site_fract_x
 _atom_site_fract_y
 _atom_site_fract_z
 _atom_site_occupancy
  Tb  Tb0  1  0.833057  0.833057  0.833057  1
  Sb  Sb1  1  0.167028  0.167028  0.167028  1
  I  I2  1  0.222857  0.576716  0.934456  1
  I  I3  1  0.934456  0.222857  0.576716  1
  I  I4  1  0.576716  0.934456  0.222857  1
  I  I5  1  0.776738  0.422830  0.066318  1
  I  I6  1  0.066318  0.776738  0.422830  1
  I  I7  1  0.422830  0.066318  0.776738  1
