# generated using pymatgen
data_DyEr15(Ga3Os)2
_symmetry_space_group_name_H-M   'P 1'
_cell_length_a   9.93827800
_cell_length_b   9.93827918
_cell_length_c   7.00046400
_cell_angle_alpha   90.00000000
_cell_angle_beta   90.00000000
_cell_angle_gamma   120.00000274
_symmetry_Int_Tables_number   1
_chemical_formula_structural   DyEr15(Ga3Os)2
_chemical_formula_sum   'Dy1 Er15 Ga6 Os2'
_cell_volume   598.79722584
_cell_formula_units_Z   1
loop_
 _symmetry_equiv_pos_site_id
 _symmetry_equiv_pos_as_xyz
  1  'x, y, z'
loop_
 _atom_site_type_symbol
 _atom_site_label
 _atom_site_symmetry_multiplicity
 _atom_site_fract_x
 _atom_site_fract_y
 _atom_site_fract_z
 _atom_site_occupancy
  Dy  Dy0  1  0.000000  0.000000  0.266448  1
  Er  Er1  1  0.000000  0.000000  0.766133  1
  Er  Er2  1  0.171632  0.828368  0.990778  1
  Er  Er3  1  0.828341  0.171659  0.491138  1
  Er  Er4  1  0.171632  0.343263  0.990778  1
  Er  Er5  1  0.656737  0.828368  0.990778  1
  Er  Er6  1  0.343317  0.171659  0.491138  1
  Er  Er7  1  0.828341  0.656683  0.491138  1
  Er  Er8  1  0.333333  0.666667  0.660619  1
  Er  Er9  1  0.666667  0.333333  0.160339  1
  Er  Er10  1  0.465959  0.534041  0.295452  1
  Er  Er11  1  0.534057  0.465943  0.795456  1
  Er  Er12  1  0.465959  0.931919  0.295452  1
  Er  Er13  1  0.068081  0.534041  0.295452  1
  Er  Er14  1  0.931887  0.465943  0.795456  1
  Er  Er15  1  0.534057  0.068113  0.795456  1
  Ga  Ga16  1  0.163960  0.836040  0.543777  1
  Ga  Ga17  1  0.836020  0.163980  0.043434  1
  Ga  Ga18  1  0.163960  0.327920  0.543777  1
  Ga  Ga19  1  0.672080  0.836040  0.543777  1
  Ga  Ga20  1  0.327959  0.163980  0.043434  1
  Ga  Ga21  1  0.836020  0.672041  0.043434  1
  Os  Os22  1  0.333333  0.666667  0.056322  1
  Os  Os23  1  0.666667  0.333333  0.556159  1
