# generated using pymatgen
data_TbZr2ScAl13Ga5Ir6
_symmetry_space_group_name_H-M   'P 1'
_cell_length_a   7.50714800
_cell_length_b   7.49615855
_cell_length_c   9.33708900
_cell_angle_alpha   90.00000000
_cell_angle_beta   90.00000000
_cell_angle_gamma   119.72892102
_symmetry_Int_Tables_number   1
_chemical_formula_structural   TbZr2ScAl13Ga5Ir6
_chemical_formula_sum   'Tb1 Zr2 Sc1 Al13 Ga5 Ir6'
_cell_volume   456.28449249
_cell_formula_units_Z   1
loop_
 _symmetry_equiv_pos_site_id
 _symmetry_equiv_pos_as_xyz
  1  'x, y, z'
loop_
 _atom_site_type_symbol
 _atom_site_label
 _atom_site_symmetry_multiplicity
 _atom_site_fract_x
 _atom_site_fract_y
 _atom_site_fract_z
 _atom_site_occupancy
  Tb  Tb0  1  0.329618  0.005188  0.750000  1
  Zr  Zr1  1  0.997741  0.672904  0.250000  1
  Zr  Zr2  1  0.005470  0.327913  0.750000  1
  Sc  Sc3  1  0.670766  0.994190  0.250000  1
  Al  Al4  1  0.996676  0.334360  0.078814  1
  Al  Al5  1  0.998062  0.662415  0.927481  1
  Al  Al6  1  0.998062  0.662415  0.572519  1
  Al  Al7  1  0.335535  0.998979  0.418539  1
  Al  Al8  1  0.996676  0.334360  0.421186  1
  Al  Al9  1  0.667857  0.000425  0.572070  1
  Al  Al10  1  0.667857  0.000425  0.927930  1
  Al  Al11  1  0.335535  0.998979  0.081461  1
  Al  Al12  1  0.332458  0.335060  0.555755  1
  Al  Al13  1  0.669186  0.669146  0.433662  1
  Al  Al14  1  0.669186  0.669146  0.066338  1
  Al  Al15  1  0.332458  0.335060  0.944245  1
  Al  Al16  1  0.557623  0.340433  0.250000  1
  Ga  Ga17  1  0.125293  0.126597  0.250000  1
  Ga  Ga18  1  0.869849  0.872180  0.750000  1
  Ga  Ga19  1  0.337607  0.550408  0.250000  1
  Ga  Ga20  1  0.663960  0.452953  0.750000  1
  Ga  Ga21  1  0.446718  0.656106  0.750000  1
  Ir  Ir22  1  0.671343  0.327991  0.001861  1
  Ir  Ir23  1  0.326901  0.672496  0.000751  1
  Ir  Ir24  1  0.326901  0.672496  0.499249  1
  Ir  Ir25  1  0.671343  0.327991  0.498139  1
  Ir  Ir26  1  0.999659  0.999693  0.000207  1
  Ir  Ir27  1  0.999659  0.999693  0.499793  1
