# generated using pymatgen
data_CaYb6PbN4
_symmetry_space_group_name_H-M   'P 1'
_cell_length_a   3.56354400
_cell_length_b   11.91679434
_cell_length_c   11.48772389
_cell_angle_alpha   90.17797339
_cell_angle_beta   90.00000000
_cell_angle_gamma   90.00000000
_symmetry_Int_Tables_number   1
_chemical_formula_structural   CaYb6PbN4
_chemical_formula_sum   'Ca2 Yb12 Pb2 N8'
_cell_volume   487.83556998
_cell_formula_units_Z   2
loop_
 _symmetry_equiv_pos_site_id
 _symmetry_equiv_pos_as_xyz
  1  'x, y, z'
loop_
 _atom_site_type_symbol
 _atom_site_label
 _atom_site_symmetry_multiplicity
 _atom_site_fract_x
 _atom_site_fract_y
 _atom_site_fract_z
 _atom_site_occupancy
  Ca  Ca0  1  0.998073  0.265475  0.018633  1
  Ca  Ca1  1  0.998073  0.734525  0.981367  1
  Yb  Yb2  1  0.499734  0.665670  0.242133  1
  Yb  Yb3  1  0.499734  0.334330  0.757867  1
  Yb  Yb4  1  0.500225  0.166943  0.260968  1
  Yb  Yb5  1  0.500225  0.833057  0.739032  1
  Yb  Yb6  1  0.499576  0.500000  0.000000  1
  Yb  Yb7  1  0.500204  0.000000  0.500000  1
  Yb  Yb8  1  0.999354  0.928123  0.266093  1
  Yb  Yb9  1  0.999354  0.071877  0.733907  1
  Yb  Yb10  1  0.000753  0.428184  0.234986  1
  Yb  Yb11  1  0.000753  0.571816  0.765014  1
  Yb  Yb12  1  0.001314  0.766770  0.480281  1
  Yb  Yb13  1  0.001314  0.233230  0.519719  1
  Pb  Pb14  1  0.539519  0.500000  0.500000  1
  Pb  Pb15  1  0.461695  0.000000  0.000000  1
  N  N16  1  0.999638  0.600167  0.131200  1
  N  N17  1  0.999638  0.399833  0.868800  1
  N  N18  1  0.000319  0.100221  0.370960  1
  N  N19  1  0.000319  0.899779  0.629040  1
  N  N20  1  0.499993  0.833413  0.360212  1
  N  N21  1  0.499993  0.166587  0.639788  1
  N  N22  1  0.500100  0.333716  0.142328  1
  N  N23  1  0.500100  0.666284  0.857672  1
