# generated using pymatgen
data_Ta3Mn4SiMoP3
_symmetry_space_group_name_H-M   'P 1'
_cell_length_a   3.58317000
_cell_length_b   6.17135275
_cell_length_c   7.13375878
_cell_angle_alpha   91.04700474
_cell_angle_beta   90.00000000
_cell_angle_gamma   90.00000000
_symmetry_Int_Tables_number   1
_chemical_formula_structural   Ta3Mn4SiMoP3
_chemical_formula_sum   'Ta3 Mn4 Si1 Mo1 P3'
_cell_volume   157.72251341
_cell_formula_units_Z   1
loop_
 _symmetry_equiv_pos_site_id
 _symmetry_equiv_pos_as_xyz
  1  'x, y, z'
loop_
 _atom_site_type_symbol
 _atom_site_label
 _atom_site_symmetry_multiplicity
 _atom_site_fract_x
 _atom_site_fract_y
 _atom_site_fract_z
 _atom_site_occupancy
  Ta  Ta0  1  0.250000  0.528310  0.321564  1
  Ta  Ta1  1  0.250000  0.024014  0.169756  1
  Ta  Ta2  1  0.750000  0.469393  0.679045  1
  Mn  Mn3  1  0.750000  0.349017  0.058159  1
  Mn  Mn4  1  0.250000  0.642168  0.945746  1
  Mn  Mn5  1  0.750000  0.860319  0.432770  1
  Mn  Mn6  1  0.250000  0.150342  0.561402  1
  Si  Si7  1  0.250000  0.776616  0.636581  1
  Mo  Mo8  1  0.750000  0.973692  0.833817  1
  P  P9  1  0.750000  0.230167  0.365967  1
  P  P10  1  0.250000  0.276294  0.879803  1
  P  P11  1  0.750000  0.719666  0.115390  1
