# generated using pymatgen
data_Tb2Ce(SnRh)3
_symmetry_space_group_name_H-M   'P 1'
_cell_length_a   7.61565700
_cell_length_b   7.54336952
_cell_length_c   3.92526700
_cell_angle_alpha   90.00000000
_cell_angle_beta   90.00000000
_cell_angle_gamma   120.31751428
_symmetry_Int_Tables_number   1
_chemical_formula_structural   Tb2Ce(SnRh)3
_chemical_formula_sum   'Tb2 Ce1 Sn3 Rh3'
_cell_volume   194.65885487
_cell_formula_units_Z   1
loop_
 _symmetry_equiv_pos_site_id
 _symmetry_equiv_pos_as_xyz
  1  'x, y, z'
loop_
 _atom_site_type_symbol
 _atom_site_label
 _atom_site_symmetry_multiplicity
 _atom_site_fract_x
 _atom_site_fract_y
 _atom_site_fract_z
 _atom_site_occupancy
  Tb  Tb0  1  0.999274  0.406345  0.000000  1
  Tb  Tb1  1  0.592929  0.593655  0.000000  1
  Ce  Ce2  1  0.412828  0.000000  0.000000  1
  Sn  Sn3  1  0.257679  0.266295  0.500000  1
  Sn  Sn4  1  0.991384  0.733705  0.500000  1
  Sn  Sn5  1  0.750936  0.000000  0.500000  1
  Rh  Rh6  1  0.652772  0.317001  0.500000  1
  Rh  Rh7  1  0.335770  0.682999  0.500000  1
  Rh  Rh8  1  0.006429  0.000000  0.000000  1
