# generated using pymatgen
data_YHo3(LuPt)4
_symmetry_space_group_name_H-M   'P 1'
_cell_length_a   4.74096900
_cell_length_b   7.09453033
_cell_length_c   8.60989109
_cell_angle_alpha   90.02688242
_cell_angle_beta   90.00000000
_cell_angle_gamma   90.00000000
_symmetry_Int_Tables_number   1
_chemical_formula_structural   YHo3(LuPt)4
_chemical_formula_sum   'Y1 Ho3 Lu4 Pt4'
_cell_volume   289.59321026
_cell_formula_units_Z   1
loop_
 _symmetry_equiv_pos_site_id
 _symmetry_equiv_pos_as_xyz
  1  'x, y, z'
loop_
 _atom_site_type_symbol
 _atom_site_label
 _atom_site_symmetry_multiplicity
 _atom_site_fract_x
 _atom_site_fract_y
 _atom_site_fract_z
 _atom_site_occupancy
  Y  Y0  1  0.750000  0.512754  0.828710  1
  Ho  Ho1  1  0.250000  0.986879  0.329257  1
  Ho  Ho2  1  0.250000  0.486888  0.170213  1
  Ho  Ho3  1  0.750000  0.013190  0.669809  1
  Lu  Lu4  1  0.250000  0.356749  0.576828  1
  Lu  Lu5  1  0.250000  0.856608  0.922832  1
  Lu  Lu6  1  0.750000  0.643461  0.422650  1
  Lu  Lu7  1  0.750000  0.142964  0.077495  1
  Pt  Pt8  1  0.250000  0.252902  0.906249  1
  Pt  Pt9  1  0.250000  0.754776  0.594266  1
  Pt  Pt10  1  0.750000  0.746783  0.095995  1
  Pt  Pt11  1  0.750000  0.246046  0.405697  1
