# generated using pymatgen
data_Er12AlFe2Cu2Sn
_symmetry_space_group_name_H-M   'P 1'
_cell_length_a   8.32794985
_cell_length_b   8.32909820
_cell_length_c   8.32794862
_cell_angle_alpha   112.98543985
_cell_angle_beta   110.50315892
_cell_angle_gamma   105.01986616
_symmetry_Int_Tables_number   1
_chemical_formula_structural   Er12AlFe2Cu2Sn
_chemical_formula_sum   'Er12 Al1 Fe2 Cu2 Sn1'
_cell_volume   442.49776875
_cell_formula_units_Z   1
loop_
 _symmetry_equiv_pos_site_id
 _symmetry_equiv_pos_as_xyz
  1  'x, y, z'
loop_
 _atom_site_type_symbol
 _atom_site_label
 _atom_site_symmetry_multiplicity
 _atom_site_fract_x
 _atom_site_fract_y
 _atom_site_fract_z
 _atom_site_occupancy
  Er  Er0  1  0.335380  0.648120  0.312739  1
  Er  Er1  1  0.664620  0.351881  0.687261  1
  Er  Er2  1  0.334934  0.021712  0.686779  1
  Er  Er3  1  0.665066  0.978288  0.313221  1
  Er  Er4  1  0.430594  0.233365  0.197296  1
  Er  Er5  1  0.569406  0.766635  0.802704  1
  Er  Er6  1  0.036069  0.233365  0.802771  1
  Er  Er7  1  0.963931  0.766635  0.197229  1
  Er  Er8  1  0.184786  0.273708  0.458919  1
  Er  Er9  1  0.815214  0.726292  0.541081  1
  Er  Er10  1  0.185213  0.726292  0.911079  1
  Er  Er11  1  0.814787  0.273708  0.088921  1
  Al  Al12  1  0.000000  0.000000  0.000000  1
  Fe  Fe13  1  0.326564  0.000000  0.326564  1
  Fe  Fe14  1  0.673436  0.000000  0.673436  1
  Cu  Cu15  1  0.120574  0.619640  0.499066  1
  Cu  Cu16  1  0.879427  0.380361  0.500934  1
  Sn  Sn17  1  0.500000  0.500000  0.000000  1
