# generated using pymatgen
data_Zr4BeNb6Si7
_symmetry_space_group_name_H-M   'P 1'
_cell_length_a   6.88736463
_cell_length_b   6.88060663
_cell_length_c   12.71779800
_cell_angle_alpha   90.00000000
_cell_angle_beta   90.00000000
_cell_angle_gamma   89.79864023
_symmetry_Int_Tables_number   1
_chemical_formula_structural   Zr4BeNb6Si7
_chemical_formula_sum   'Zr8 Be2 Nb12 Si14'
_cell_volume   602.68314514
_cell_formula_units_Z   2
loop_
 _symmetry_equiv_pos_site_id
 _symmetry_equiv_pos_as_xyz
  1  'x, y, z'
loop_
 _atom_site_type_symbol
 _atom_site_label
 _atom_site_symmetry_multiplicity
 _atom_site_fract_x
 _atom_site_fract_y
 _atom_site_fract_z
 _atom_site_occupancy
  Zr  Zr0  1  0.000257  0.654454  0.030331  1
  Zr  Zr1  1  0.999743  0.345546  0.530331  1
  Zr  Zr2  1  0.657807  0.000837  0.968146  1
  Zr  Zr3  1  0.154641  0.496359  0.784041  1
  Zr  Zr4  1  0.845359  0.503641  0.284041  1
  Zr  Zr5  1  0.501197  0.157567  0.217605  1
  Zr  Zr6  1  0.498803  0.842433  0.717605  1
  Zr  Zr7  1  0.342193  0.999163  0.468146  1
  Be  Be8  1  0.048960  0.702112  0.438579  1
  Be  Be9  1  0.951040  0.297888  0.938579  1
  Nb  Nb10  1  0.346923  0.504737  0.376388  1
  Nb  Nb11  1  0.850619  0.990265  0.374983  1
  Nb  Nb12  1  0.005520  0.152673  0.125670  1
  Nb  Nb13  1  0.994480  0.847327  0.625670  1
  Nb  Nb14  1  0.653077  0.495263  0.876388  1
  Nb  Nb15  1  0.502977  0.349749  0.623723  1
  Nb  Nb16  1  0.497023  0.650251  0.123723  1
  Nb  Nb17  1  0.149381  0.009735  0.874983  1
  Nb  Nb18  1  0.672069  0.670492  0.500392  1
  Nb  Nb19  1  0.830654  0.170440  0.751138  1
  Nb  Nb20  1  0.169346  0.829560  0.251138  1
  Nb  Nb21  1  0.327931  0.329508  0.000392  1
  Si  Si22  1  0.703493  0.046391  0.562985  1
  Si  Si23  1  0.201137  0.454882  0.187191  1
  Si  Si24  1  0.798863  0.545118  0.687191  1
  Si  Si25  1  0.454476  0.203042  0.813609  1
  Si  Si26  1  0.545524  0.796958  0.313609  1
  Si  Si27  1  0.296507  0.953609  0.062985  1
  Si  Si28  1  0.865097  0.792445  0.823309  1
  Si  Si29  1  0.134903  0.207555  0.323309  1
  Si  Si30  1  0.794000  0.863126  0.177370  1
  Si  Si31  1  0.286016  0.637646  0.567580  1
  Si  Si32  1  0.713984  0.362354  0.067580  1
  Si  Si33  1  0.637033  0.292748  0.426960  1
  Si  Si34  1  0.362967  0.707252  0.926960  1
  Si  Si35  1  0.206000  0.136874  0.677370  1
