# generated using pymatgen
data_LaPr14Y(CdRu)4
_symmetry_space_group_name_H-M   'P 1'
_cell_length_a   9.99851867
_cell_length_b   9.96855137
_cell_length_c   9.99851982
_cell_angle_alpha   60.09909130
_cell_angle_beta   59.69787257
_cell_angle_gamma   60.09909425
_symmetry_Int_Tables_number   1
_chemical_formula_structural   LaPr14Y(CdRu)4
_chemical_formula_sum   'La1 Pr14 Y1 Cd4 Ru4'
_cell_volume   704.09763930
_cell_formula_units_Z   1
loop_
 _symmetry_equiv_pos_site_id
 _symmetry_equiv_pos_as_xyz
  1  'x, y, z'
loop_
 _atom_site_type_symbol
 _atom_site_label
 _atom_site_symmetry_multiplicity
 _atom_site_fract_x
 _atom_site_fract_y
 _atom_site_fract_z
 _atom_site_occupancy
  La  La0  1  0.313667  0.686333  0.313667  1
  Pr  Pr1  1  0.439967  0.437615  0.061228  1
  Pr  Pr2  1  0.061228  0.061190  0.439967  1
  Pr  Pr3  1  0.439967  0.061190  0.061228  1
  Pr  Pr4  1  0.843948  0.848360  0.843948  1
  Pr  Pr5  1  0.693623  0.307693  0.312229  1
  Pr  Pr6  1  0.061228  0.437615  0.439967  1
  Pr  Pr7  1  0.312229  0.686455  0.693623  1
  Pr  Pr8  1  0.312229  0.307693  0.693623  1
  Pr  Pr9  1  0.845374  0.847367  0.459892  1
  Pr  Pr10  1  0.693623  0.686455  0.312229  1
  Pr  Pr11  1  0.459892  0.847367  0.845374  1
  Pr  Pr12  1  0.062701  0.437299  0.062701  1
  Pr  Pr13  1  0.843948  0.463745  0.843948  1
  Pr  Pr14  1  0.439507  0.060493  0.439507  1
  Y  Y15  1  0.689735  0.310265  0.689735  1
  Cd  Cd16  1  0.077529  0.763558  0.077529  1
  Cd  Cd17  1  0.076425  0.080535  0.762506  1
  Cd  Cd18  1  0.762506  0.080535  0.076425  1
  Cd  Cd19  1  0.077529  0.081385  0.077529  1
  Ru  Ru20  1  0.638243  0.085626  0.638243  1
  Ru  Ru21  1  0.638243  0.637886  0.638243  1
  Ru  Ru22  1  0.625265  0.641671  0.091392  1
  Ru  Ru23  1  0.091392  0.641671  0.625265  1
