# generated using pymatgen
data_PrU2Pa(Al3Ir)6
_symmetry_space_group_name_H-M   'P 1'
_cell_length_a   7.63357708
_cell_length_b   7.62096166
_cell_length_c   9.42053800
_cell_angle_alpha   90.00000000
_cell_angle_beta   90.00000000
_cell_angle_gamma   119.50075130
_symmetry_Int_Tables_number   1
_chemical_formula_structural   PrU2Pa(Al3Ir)6
_chemical_formula_sum   'Pr1 U2 Pa1 Al18 Ir6'
_cell_volume   476.98764727
_cell_formula_units_Z   1
loop_
 _symmetry_equiv_pos_site_id
 _symmetry_equiv_pos_as_xyz
  1  'x, y, z'
loop_
 _atom_site_type_symbol
 _atom_site_label
 _atom_site_symmetry_multiplicity
 _atom_site_fract_x
 _atom_site_fract_y
 _atom_site_fract_z
 _atom_site_occupancy
  Pr  Pr0  1  0.670409  0.995355  0.750000  1
  U  U1  1  0.005069  0.328342  0.250000  1
  U  U2  1  0.328977  0.006128  0.250000  1
  Pa  Pa3  1  0.998328  0.671229  0.750000  1
  Al  Al4  1  0.131309  0.128564  0.750000  1
  Al  Al5  1  0.869139  0.869654  0.250000  1
  Al  Al6  1  0.002897  0.334427  0.572358  1
  Al  Al7  1  0.997446  0.663362  0.422239  1
  Al  Al8  1  0.997446  0.663362  0.077761  1
  Al  Al9  1  0.336206  0.004300  0.927776  1
  Al  Al10  1  0.002897  0.334427  0.927642  1
  Al  Al11  1  0.664246  0.998184  0.076847  1
  Al  Al12  1  0.664246  0.998184  0.423153  1
  Al  Al13  1  0.336206  0.004300  0.572224  1
  Al  Al14  1  0.334744  0.334879  0.054604  1
  Al  Al15  1  0.664820  0.665083  0.948622  1
  Al  Al16  1  0.664820  0.665083  0.551378  1
  Al  Al17  1  0.334744  0.334879  0.445396  1
  Al  Al18  1  0.337378  0.545472  0.750000  1
  Al  Al19  1  0.657737  0.449622  0.250000  1
  Al  Al20  1  0.548793  0.343572  0.750000  1
  Al  Al21  1  0.450730  0.659150  0.250000  1
  Ir  Ir22  1  0.674177  0.330308  0.500196  1
  Ir  Ir23  1  0.325939  0.672593  0.500258  1
  Ir  Ir24  1  0.325939  0.672593  0.999742  1
  Ir  Ir25  1  0.674177  0.330308  0.999804  1
  Ir  Ir26  1  0.000591  0.998321  0.499554  1
  Ir  Ir27  1  0.000591  0.998321  0.000446  1
