# generated using pymatgen
data_Sc11U(IrRu)6
_symmetry_space_group_name_H-M   'P 1'
_cell_length_a   4.60687200
_cell_length_b   6.44391600
_cell_length_c   13.75329300
_cell_angle_alpha   90.00000000
_cell_angle_beta   90.00023673
_cell_angle_gamma   90.00000000
_symmetry_Int_Tables_number   1
_chemical_formula_structural   Sc11U(IrRu)6
_chemical_formula_sum   'Sc11 U1 Ir6 Ru6'
_cell_volume   408.28432959
_cell_formula_units_Z   1
loop_
 _symmetry_equiv_pos_site_id
 _symmetry_equiv_pos_as_xyz
  1  'x, y, z'
loop_
 _atom_site_type_symbol
 _atom_site_label
 _atom_site_symmetry_multiplicity
 _atom_site_fract_x
 _atom_site_fract_y
 _atom_site_fract_z
 _atom_site_occupancy
  Sc  Sc0  1  0.500000  0.746084  0.000000  1
  Sc  Sc1  1  0.999980  0.251304  0.175923  1
  Sc  Sc2  1  0.999983  0.749733  0.170376  1
  Sc  Sc3  1  0.499985  0.250896  0.337467  1
  Sc  Sc4  1  0.499988  0.751030  0.335213  1
  Sc  Sc5  1  0.000000  0.250475  0.500000  1
  Sc  Sc6  1  0.000000  0.750010  0.500000  1
  Sc  Sc7  1  0.500014  0.250896  0.662533  1
  Sc  Sc8  1  0.500011  0.751030  0.664787  1
  Sc  Sc9  1  0.000020  0.251304  0.824077  1
  Sc  Sc10  1  0.000017  0.749733  0.829624  1
  U  U11  1  0.500000  0.245815  0.000000  1
  Ir  Ir12  1  0.000000  0.997363  0.000000  1
  Ir  Ir13  1  0.499984  0.498430  0.165498  1
  Ir  Ir14  1  0.999985  0.000141  0.333536  1
  Ir  Ir15  1  0.500001  0.501240  0.500000  1
  Ir  Ir16  1  0.000015  0.000141  0.666464  1
  Ir  Ir17  1  0.500018  0.498430  0.834502  1
  Ru  Ru18  1  0.000000  0.487529  0.000000  1
  Ru  Ru19  1  0.499977  0.007772  0.160447  1
  Ru  Ru20  1  0.999990  0.501937  0.333585  1
  Ru  Ru21  1  0.500001  0.998992  0.500000  1
  Ru  Ru22  1  0.000010  0.501937  0.666415  1
  Ru  Ru23  1  0.500023  0.007772  0.839553  1
