# generated using pymatgen
data_KPd2F9
_symmetry_space_group_name_H-M   'P 1'
_cell_length_a   5.27710200
_cell_length_b   5.27710166
_cell_length_c   8.14794400
_cell_angle_alpha   90.00000000
_cell_angle_beta   90.00000000
_cell_angle_gamma   119.99999126
_symmetry_Int_Tables_number   1
_chemical_formula_structural   KPd2F9
_chemical_formula_sum   'K1 Pd2 F9'
_cell_volume   196.50321255
_cell_formula_units_Z   1
loop_
 _symmetry_equiv_pos_site_id
 _symmetry_equiv_pos_as_xyz
  1  'x, y, z'
loop_
 _atom_site_type_symbol
 _atom_site_label
 _atom_site_symmetry_multiplicity
 _atom_site_fract_x
 _atom_site_fract_y
 _atom_site_fract_z
 _atom_site_occupancy
  K  K0  1  0.666667  0.333333  0.333975  1
  Pd  Pd1  1  0.333333  0.666667  0.702348  1
  Pd  Pd2  1  0.000000  0.000000  0.964256  1
  F  F3  1  0.666373  0.988929  0.833515  1
  F  F4  1  0.011071  0.677445  0.833515  1
  F  F5  1  0.322555  0.333627  0.833515  1
  F  F6  1  0.620795  0.653816  0.566890  1
  F  F7  1  0.346184  0.966980  0.566890  1
  F  F8  1  0.033020  0.379205  0.566890  1
  F  F9  1  0.712531  0.699887  0.099401  1
  F  F10  1  0.300113  0.012644  0.099401  1
  F  F11  1  0.987356  0.287469  0.099401  1
