# generated using pymatgen
data_Pr5Nd5Co4
_symmetry_space_group_name_H-M   'P 1'
_cell_length_a   9.00810583
_cell_length_b   9.01992850
_cell_length_c   7.10357628
_cell_angle_alpha   84.01131127
_cell_angle_beta   83.99222855
_cell_angle_gamma   42.36795565
_symmetry_Int_Tables_number   1
_chemical_formula_structural   Pr5Nd5Co4
_chemical_formula_sum   'Pr5 Nd5 Co4'
_cell_volume   386.50712535
_cell_formula_units_Z   1
loop_
 _symmetry_equiv_pos_site_id
 _symmetry_equiv_pos_as_xyz
  1  'x, y, z'
loop_
 _atom_site_type_symbol
 _atom_site_label
 _atom_site_symmetry_multiplicity
 _atom_site_fract_x
 _atom_site_fract_y
 _atom_site_fract_z
 _atom_site_occupancy
  Pr  Pr0  1  0.009571  0.801140  0.913191  1
  Pr  Pr1  1  0.200162  0.989892  0.586870  1
  Pr  Pr2  1  0.990319  0.199917  0.087274  1
  Pr  Pr3  1  0.799735  0.009378  0.412569  1
  Pr  Pr4  1  0.355071  0.217538  0.821961  1
  Nd  Nd5  1  0.782468  0.644221  0.677863  1
  Nd  Nd6  1  0.643715  0.782253  0.178201  1
  Nd  Nd7  1  0.216880  0.356372  0.322166  1
  Nd  Nd8  1  0.567500  0.432596  0.749970  1
  Nd  Nd9  1  0.432870  0.567401  0.250080  1
  Co  Co10  1  0.186699  0.594084  0.573610  1
  Co  Co11  1  0.407140  0.811286  0.926159  1
  Co  Co12  1  0.813750  0.407197  0.425811  1
  Co  Co13  1  0.594120  0.186726  0.074276  1
