# generated using pymatgen
data_Zr6MnFe15Si7
_symmetry_space_group_name_H-M   'P 1'
_cell_length_a   8.12420063
_cell_length_b   8.12420035
_cell_length_c   8.11275690
_cell_angle_alpha   59.87343056
_cell_angle_beta   59.87343475
_cell_angle_gamma   60.05617022
_symmetry_Int_Tables_number   1
_chemical_formula_structural   Zr6MnFe15Si7
_chemical_formula_sum   'Zr6 Mn1 Fe15 Si7'
_cell_volume   378.06332799
_cell_formula_units_Z   1
loop_
 _symmetry_equiv_pos_site_id
 _symmetry_equiv_pos_as_xyz
  1  'x, y, z'
loop_
 _atom_site_type_symbol
 _atom_site_label
 _atom_site_symmetry_multiplicity
 _atom_site_fract_x
 _atom_site_fract_y
 _atom_site_fract_z
 _atom_site_occupancy
  Zr  Zr0  1  0.704892  0.704892  0.293390  1
  Zr  Zr1  1  0.296734  0.704879  0.293383  1
  Zr  Zr2  1  0.704879  0.296734  0.293383  1
  Zr  Zr3  1  0.291635  0.291635  0.709468  1
  Zr  Zr4  1  0.707305  0.291456  0.709639  1
  Zr  Zr5  1  0.291456  0.707305  0.709639  1
  Mn  Mn6  1  0.878709  0.878709  0.363697  1
  Fe  Fe7  1  0.877314  0.367873  0.877461  1
  Fe  Fe8  1  0.367873  0.877314  0.877461  1
  Fe  Fe9  1  0.877342  0.877342  0.877567  1
  Fe  Fe10  1  0.123083  0.123083  0.630787  1
  Fe  Fe11  1  0.119407  0.635161  0.125997  1
  Fe  Fe12  1  0.635161  0.119407  0.125997  1
  Fe  Fe13  1  0.119459  0.119459  0.126032  1
  Fe  Fe14  1  0.676366  0.676366  0.970932  1
  Fe  Fe15  1  0.676758  0.971923  0.674579  1
  Fe  Fe16  1  0.971923  0.676758  0.674579  1
  Fe  Fe17  1  0.676724  0.676724  0.674527  1
  Fe  Fe18  1  0.324105  0.324105  0.027792  1
  Fe  Fe19  1  0.324066  0.029329  0.322714  1
  Fe  Fe20  1  0.029329  0.324066  0.322714  1
  Fe  Fe21  1  0.324049  0.324049  0.322730  1
  Si  Si22  1  0.003047  0.003047  0.990729  1
  Si  Si23  1  0.000514  0.000514  0.501901  1
  Si  Si24  1  0.497015  0.000612  0.501821  1
  Si  Si25  1  0.000612  0.497015  0.501821  1
  Si  Si26  1  0.500012  0.500012  0.999819  1
  Si  Si27  1  0.000111  0.500119  0.999720  1
  Si  Si28  1  0.500119  0.000111  0.999720  1
