# generated using pymatgen
data_ZrNbB2Ru5W
_symmetry_space_group_name_H-M   'P 1'
_cell_length_a   9.51193199
_cell_length_b   9.51193239
_cell_length_c   3.02275500
_cell_angle_alpha   90.00000000
_cell_angle_beta   90.00000000
_cell_angle_gamma   90.18239386
_symmetry_Int_Tables_number   1
_chemical_formula_structural   ZrNbB2Ru5W
_chemical_formula_sum   'Zr2 Nb2 B4 Ru10 W2'
_cell_volume   273.48797692
_cell_formula_units_Z   2
loop_
 _symmetry_equiv_pos_site_id
 _symmetry_equiv_pos_as_xyz
  1  'x, y, z'
loop_
 _atom_site_type_symbol
 _atom_site_label
 _atom_site_symmetry_multiplicity
 _atom_site_fract_x
 _atom_site_fract_y
 _atom_site_fract_z
 _atom_site_occupancy
  Zr  Zr0  1  0.824584  0.675416  0.000000  1
  Zr  Zr1  1  0.175416  0.324584  0.000000  1
  Nb  Nb2  1  0.324010  0.824010  0.000000  1
  Nb  Nb3  1  0.675990  0.175990  0.000000  1
  B  B4  1  0.620554  0.879446  0.000000  1
  B  B5  1  0.379446  0.120554  0.000000  1
  B  B6  1  0.120891  0.620891  0.000000  1
  B  B7  1  0.879109  0.379109  0.000000  1
  Ru  Ru8  1  0.566732  0.719814  0.500000  1
  Ru  Ru9  1  0.433268  0.280186  0.500000  1
  Ru  Ru10  1  0.075359  0.784064  0.500000  1
  Ru  Ru11  1  0.924641  0.215936  0.500000  1
  Ru  Ru12  1  0.284064  0.575359  0.500000  1
  Ru  Ru13  1  0.715936  0.424641  0.500000  1
  Ru  Ru14  1  0.219814  0.066732  0.500000  1
  Ru  Ru15  1  0.780186  0.933268  0.500000  1
  Ru  Ru16  1  0.500000  0.000000  0.500000  1
  Ru  Ru17  1  0.000000  0.500000  0.500000  1
  W  W18  1  0.500000  0.500000  0.000000  1
  W  W19  1  0.000000  0.000000  0.000000  1
