# generated using pymatgen
data_Pr4PdPb2Au3
_symmetry_space_group_name_H-M   'P 1'
_cell_length_a   8.23644516
_cell_length_b   8.23644516
_cell_length_c   3.91054700
_cell_angle_alpha   90.00000000
_cell_angle_beta   90.00000000
_cell_angle_gamma   90.14017094
_symmetry_Int_Tables_number   1
_chemical_formula_structural   Pr4PdPb2Au3
_chemical_formula_sum   'Pr4 Pd1 Pb2 Au3'
_cell_volume   265.28691709
_cell_formula_units_Z   1
loop_
 _symmetry_equiv_pos_site_id
 _symmetry_equiv_pos_as_xyz
  1  'x, y, z'
loop_
 _atom_site_type_symbol
 _atom_site_label
 _atom_site_symmetry_multiplicity
 _atom_site_fract_x
 _atom_site_fract_y
 _atom_site_fract_z
 _atom_site_occupancy
  Pr  Pr0  1  0.319985  0.819985  0.500000  1
  Pr  Pr1  1  0.673553  0.173553  0.500000  1
  Pr  Pr2  1  0.832561  0.674626  0.500000  1
  Pr  Pr3  1  0.174626  0.332561  0.500000  1
  Pd  Pd4  1  0.124826  0.624826  0.000000  1
  Pb  Pb5  1  0.494923  0.502461  0.000000  1
  Pb  Pb6  1  0.002461  0.994923  0.000000  1
  Au  Au7  1  0.879167  0.379167  0.000000  1
  Au  Au8  1  0.622487  0.875410  0.000000  1
  Au  Au9  1  0.375410  0.122487  0.000000  1
