# generated using pymatgen
data_Sr3(H6Ir)2
_symmetry_space_group_name_H-M   'P 1'
_cell_length_a   5.22684100
_cell_length_b   5.22684067
_cell_length_c   8.51858800
_cell_angle_alpha   90.00000000
_cell_angle_beta   90.00000000
_cell_angle_gamma   119.99999573
_symmetry_Int_Tables_number   1
_chemical_formula_structural   Sr3(H6Ir)2
_chemical_formula_sum   'Sr3 H12 Ir2'
_cell_volume   201.54722162
_cell_formula_units_Z   1
loop_
 _symmetry_equiv_pos_site_id
 _symmetry_equiv_pos_as_xyz
  1  'x, y, z'
loop_
 _atom_site_type_symbol
 _atom_site_label
 _atom_site_symmetry_multiplicity
 _atom_site_fract_x
 _atom_site_fract_y
 _atom_site_fract_z
 _atom_site_occupancy
  Sr  Sr0  1  0.000000  0.000000  0.000000  1
  Sr  Sr1  1  0.666667  0.333333  0.358100  1
  Sr  Sr2  1  0.333333  0.666667  0.641900  1
  H  H3  1  0.178843  0.821157  0.356155  1
  H  H4  1  0.642314  0.821157  0.356155  1
  H  H5  1  0.178843  0.357686  0.356155  1
  H  H6  1  0.821157  0.178843  0.643845  1
  H  H7  1  0.357686  0.178843  0.643845  1
  H  H8  1  0.821157  0.642314  0.643845  1
  H  H9  1  0.519852  0.039704  0.874824  1
  H  H10  1  0.519852  0.480148  0.874824  1
  H  H11  1  0.960296  0.480148  0.874824  1
  H  H12  1  0.480148  0.960296  0.125176  1
  H  H13  1  0.480148  0.519852  0.125176  1
  H  H14  1  0.039704  0.519852  0.125176  1
  Ir  Ir15  1  0.666667  0.333333  0.755616  1
  Ir  Ir16  1  0.333333  0.666667  0.244384  1
