# generated using pymatgen
data_Tb7Th(Si3Au)4
_symmetry_space_group_name_H-M   'P 1'
_cell_length_a   8.18998900
_cell_length_b   8.23927831
_cell_length_c   8.33586900
_cell_angle_alpha   90.00000000
_cell_angle_beta   90.00000000
_cell_angle_gamma   119.80230976
_symmetry_Int_Tables_number   1
_chemical_formula_structural   Tb7Th(Si3Au)4
_chemical_formula_sum   'Tb7 Th1 Si12 Au4'
_cell_volume   488.10774787
_cell_formula_units_Z   1
loop_
 _symmetry_equiv_pos_site_id
 _symmetry_equiv_pos_as_xyz
  1  'x, y, z'
loop_
 _atom_site_type_symbol
 _atom_site_label
 _atom_site_symmetry_multiplicity
 _atom_site_fract_x
 _atom_site_fract_y
 _atom_site_fract_z
 _atom_site_occupancy
  Tb  Tb0  1  0.499774  0.999550  0.750000  1
  Tb  Tb1  1  0.999595  0.499787  0.250000  1
  Tb  Tb2  1  0.000467  0.500245  0.750000  1
  Tb  Tb3  1  0.500193  0.499787  0.250000  1
  Tb  Tb4  1  0.499776  0.500245  0.750000  1
  Tb  Tb5  1  0.000009  0.000017  0.250000  1
  Tb  Tb6  1  0.999999  0.999998  0.750000  1
  Th  Th7  1  0.500196  0.000391  0.250000  1
  Si  Si8  1  0.163744  0.327488  0.000049  1
  Si  Si9  1  0.836252  0.672505  0.999593  1
  Si  Si10  1  0.672157  0.836626  0.999215  1
  Si  Si11  1  0.836252  0.672505  0.500407  1
  Si  Si12  1  0.327841  0.163383  0.998701  1
  Si  Si13  1  0.163744  0.327488  0.499951  1
  Si  Si14  1  0.164467  0.836626  0.999215  1
  Si  Si15  1  0.327841  0.163383  0.501299  1
  Si  Si16  1  0.835542  0.163383  0.998701  1
  Si  Si17  1  0.672157  0.836626  0.500785  1
  Si  Si18  1  0.835542  0.163383  0.501299  1
  Si  Si19  1  0.164467  0.836626  0.500785  1
  Au  Au20  1  0.331712  0.663424  0.995685  1
  Au  Au21  1  0.668277  0.336554  0.994590  1
  Au  Au22  1  0.668277  0.336554  0.505410  1
  Au  Au23  1  0.331712  0.663424  0.504315  1
