# generated using pymatgen
data_Er7Np(Si4W3)4
_symmetry_space_group_name_H-M   'P 1'
_cell_length_a   6.87192916
_cell_length_b   6.86356164
_cell_length_c   12.73237776
_cell_angle_alpha   90.08054419
_cell_angle_beta   90.03672949
_cell_angle_gamma   90.05738627
_symmetry_Int_Tables_number   1
_chemical_formula_structural   Er7Np(Si4W3)4
_chemical_formula_sum   'Er7 Np1 Si16 W12'
_cell_volume   600.53315676
_cell_formula_units_Z   1
loop_
 _symmetry_equiv_pos_site_id
 _symmetry_equiv_pos_as_xyz
  1  'x, y, z'
loop_
 _atom_site_type_symbol
 _atom_site_label
 _atom_site_symmetry_multiplicity
 _atom_site_fract_x
 _atom_site_fract_y
 _atom_site_fract_z
 _atom_site_occupancy
  Er  Er0  1  0.501728  0.837020  0.719285  1
  Er  Er1  1  0.498227  0.163701  0.219502  1
  Er  Er2  1  0.838222  0.502939  0.281450  1
  Er  Er3  1  0.161371  0.496983  0.780508  1
  Er  Er4  1  0.663390  0.002843  0.969476  1
  Er  Er5  1  0.997276  0.335713  0.529652  1
  Er  Er6  1  0.002742  0.662935  0.030790  1
  Np  Np7  1  0.338110  0.992947  0.469814  1
  Si  Si8  1  0.200809  0.125014  0.682613  1
  Si  Si9  1  0.373935  0.702778  0.933238  1
  Si  Si10  1  0.624429  0.296540  0.430941  1
  Si  Si11  1  0.702733  0.374184  0.067532  1
  Si  Si12  1  0.297907  0.625699  0.566508  1
  Si  Si13  1  0.798559  0.874803  0.183773  1
  Si  Si14  1  0.126970  0.202438  0.318891  1
  Si  Si15  1  0.873671  0.797474  0.817237  1
  Si  Si16  1  0.290981  0.964080  0.064388  1
  Si  Si17  1  0.536832  0.791371  0.315278  1
  Si  Si18  1  0.464786  0.211253  0.812825  1
  Si  Si19  1  0.786131  0.533298  0.685860  1
  Si  Si20  1  0.211488  0.463557  0.186048  1
  Si  Si21  1  0.710525  0.036783  0.563805  1
  Si  Si22  1  0.964048  0.289401  0.935685  1
  Si  Si23  1  0.036767  0.712513  0.435535  1
  W  W24  1  0.334609  0.332206  0.998914  1
  W  W25  1  0.171749  0.837063  0.252884  1
  W  W26  1  0.832394  0.166392  0.750359  1
  W  W27  1  0.663647  0.670226  0.501019  1
  W  W28  1  0.165951  0.998467  0.874074  1
  W  W29  1  0.501712  0.665987  0.124182  1
  W  W30  1  0.492303  0.330044  0.620043  1
  W  W31  1  0.665055  0.501758  0.877878  1
  W  W32  1  0.334905  0.497473  0.375401  1
  W  W33  1  0.834145  0.003655  0.372861  1
  W  W34  1  0.000236  0.164091  0.126214  1
  W  W35  1  0.001658  0.836374  0.625538  1
