# generated using pymatgen
data_LiDy16Co4Ag3
_symmetry_space_group_name_H-M   'P 1'
_cell_length_a   9.47851779
_cell_length_b   9.48295905
_cell_length_c   9.48295900
_cell_angle_alpha   60.00000368
_cell_angle_beta   59.98450258
_cell_angle_gamma   59.98450649
_symmetry_Int_Tables_number   1
_chemical_formula_structural   LiDy16Co4Ag3
_chemical_formula_sum   'Li1 Dy16 Co4 Ag3'
_cell_volume   602.57545080
_cell_formula_units_Z   1
loop_
 _symmetry_equiv_pos_site_id
 _symmetry_equiv_pos_as_xyz
  1  'x, y, z'
loop_
 _atom_site_type_symbol
 _atom_site_label
 _atom_site_symmetry_multiplicity
 _atom_site_fract_x
 _atom_site_fract_y
 _atom_site_fract_z
 _atom_site_occupancy
  Li  Li0  1  0.298117  0.567294  0.567294  1
  Dy  Dy1  1  0.809369  0.188702  0.188702  1
  Dy  Dy2  1  0.185079  0.814843  0.814843  1
  Dy  Dy3  1  0.185079  0.814843  0.185236  1
  Dy  Dy4  1  0.809369  0.188702  0.813227  1
  Dy  Dy5  1  0.185079  0.185236  0.814843  1
  Dy  Dy6  1  0.809369  0.813227  0.188702  1
  Dy  Dy7  1  0.935902  0.562144  0.562144  1
  Dy  Dy8  1  0.561326  0.937707  0.937707  1
  Dy  Dy9  1  0.561326  0.937707  0.563261  1
  Dy  Dy10  1  0.935902  0.562144  0.939810  1
  Dy  Dy11  1  0.561326  0.563261  0.937707  1
  Dy  Dy12  1  0.935902  0.939810  0.562144  1
  Dy  Dy13  1  0.346957  0.346174  0.346174  1
  Dy  Dy14  1  0.346957  0.346174  0.960695  1
  Dy  Dy15  1  0.346957  0.960695  0.346174  1
  Dy  Dy16  1  0.949224  0.350259  0.350259  1
  Co  Co17  1  0.137206  0.143108  0.143108  1
  Co  Co18  1  0.137206  0.143108  0.576577  1
  Co  Co19  1  0.137206  0.576577  0.143108  1
  Co  Co20  1  0.574620  0.141793  0.141793  1
  Ag  Ag21  1  0.583506  0.583772  0.583772  1
  Ag  Ag22  1  0.583506  0.583772  0.248949  1
  Ag  Ag23  1  0.583506  0.248949  0.583772  1
