# generated using pymatgen
data_Tb6Al7Au16
_symmetry_space_group_name_H-M   'P 1'
_cell_length_a   9.30410587
_cell_length_b   9.30410620
_cell_length_c   9.30410500
_cell_angle_alpha   60.00000071
_cell_angle_beta   59.99999952
_cell_angle_gamma   60.00000087
_symmetry_Int_Tables_number   1
_chemical_formula_structural   Tb6Al7Au16
_chemical_formula_sum   'Tb6 Al7 Au16'
_cell_volume   569.51990944
_cell_formula_units_Z   1
loop_
 _symmetry_equiv_pos_site_id
 _symmetry_equiv_pos_as_xyz
  1  'x, y, z'
loop_
 _atom_site_type_symbol
 _atom_site_label
 _atom_site_symmetry_multiplicity
 _atom_site_fract_x
 _atom_site_fract_y
 _atom_site_fract_z
 _atom_site_occupancy
  Tb  Tb0  1  0.714638  0.714638  0.285362  1
  Tb  Tb1  1  0.285362  0.714638  0.285362  1
  Tb  Tb2  1  0.714638  0.285362  0.285362  1
  Tb  Tb3  1  0.285362  0.285362  0.714638  1
  Tb  Tb4  1  0.714638  0.285362  0.714638  1
  Tb  Tb5  1  0.285362  0.714638  0.714638  1
  Al  Al6  1  0.000000  0.000000  0.000000  1
  Al  Al7  1  0.000000  0.000000  0.500000  1
  Al  Al8  1  0.500000  0.000000  0.500000  1
  Al  Al9  1  0.000000  0.500000  0.500000  1
  Al  Al10  1  0.500000  0.500000  0.000000  1
  Al  Al11  1  0.000000  0.500000  0.000000  1
  Al  Al12  1  0.500000  0.000000  0.000000  1
  Au  Au13  1  0.882194  0.882194  0.353416  1
  Au  Au14  1  0.882194  0.353416  0.882194  1
  Au  Au15  1  0.353416  0.882194  0.882194  1
  Au  Au16  1  0.882194  0.882194  0.882194  1
  Au  Au17  1  0.117806  0.117806  0.646584  1
  Au  Au18  1  0.117806  0.646584  0.117806  1
  Au  Au19  1  0.646584  0.117806  0.117806  1
  Au  Au20  1  0.117806  0.117806  0.117806  1
  Au  Au21  1  0.659806  0.659806  0.020582  1
  Au  Au22  1  0.659806  0.020582  0.659806  1
  Au  Au23  1  0.020582  0.659806  0.659806  1
  Au  Au24  1  0.659806  0.659806  0.659806  1
  Au  Au25  1  0.340194  0.340194  0.979418  1
  Au  Au26  1  0.340194  0.979418  0.340194  1
  Au  Au27  1  0.979418  0.340194  0.340194  1
  Au  Au28  1  0.340194  0.340194  0.340194  1
