# generated using pymatgen
data_Li2Gd3Ge3Ru
_symmetry_space_group_name_H-M   'P 1'
_cell_length_a   7.04710908
_cell_length_b   7.21927576
_cell_length_c   4.13805340
_cell_angle_alpha   89.97523651
_cell_angle_beta   90.09102214
_cell_angle_gamma   118.99920311
_symmetry_Int_Tables_number   1
_chemical_formula_structural   Li2Gd3Ge3Ru
_chemical_formula_sum   'Li2 Gd3 Ge3 Ru1'
_cell_volume   184.12923239
_cell_formula_units_Z   1
loop_
 _symmetry_equiv_pos_site_id
 _symmetry_equiv_pos_as_xyz
  1  'x, y, z'
loop_
 _atom_site_type_symbol
 _atom_site_label
 _atom_site_symmetry_multiplicity
 _atom_site_fract_x
 _atom_site_fract_y
 _atom_site_fract_z
 _atom_site_occupancy
  Li  Li0  1  0.770455  0.765043  0.499545  1
  Li  Li1  1  0.004125  0.234901  0.499964  1
  Gd  Gd2  1  0.997176  0.583864  0.997966  1
  Gd  Gd3  1  0.564438  0.999468  0.999465  1
  Gd  Gd4  1  0.412508  0.414770  0.000202  1
  Ge  Ge5  1  0.332308  0.676113  0.499097  1
  Ge  Ge6  1  0.657815  0.323735  0.499870  1
  Ge  Ge7  1  0.021437  0.000354  0.001260  1
  Ru  Ru8  1  0.239739  0.001751  0.502631  1
