# generated using pymatgen
data_Nd4Ga18(CoPt)3
_symmetry_space_group_name_H-M   'P 1'
_cell_length_a   7.60375799
_cell_length_b   7.60375726
_cell_length_c   9.57557782
_cell_angle_alpha   89.96462317
_cell_angle_beta   89.96462733
_cell_angle_gamma   119.72068942
_symmetry_Int_Tables_number   1
_chemical_formula_structural   Nd4Ga18(CoPt)3
_chemical_formula_sum   'Nd4 Ga18 Co3 Pt3'
_cell_volume   480.80312959
_cell_formula_units_Z   1
loop_
 _symmetry_equiv_pos_site_id
 _symmetry_equiv_pos_as_xyz
  1  'x, y, z'
loop_
 _atom_site_type_symbol
 _atom_site_label
 _atom_site_symmetry_multiplicity
 _atom_site_fract_x
 _atom_site_fract_y
 _atom_site_fract_z
 _atom_site_occupancy
  Nd  Nd0  1  0.322763  0.998255  0.249044  1
  Nd  Nd1  1  0.001745  0.677237  0.750956  1
  Nd  Nd2  1  0.671601  0.992957  0.749970  1
  Nd  Nd3  1  0.007043  0.328399  0.250030  1
  Ga  Ga4  1  0.347546  0.015978  0.923177  1
  Ga  Ga5  1  0.984022  0.652454  0.076823  1
  Ga  Ga6  1  0.345032  0.000236  0.572414  1
  Ga  Ga7  1  0.999764  0.654968  0.427586  1
  Ga  Ga8  1  0.664328  0.011881  0.076351  1
  Ga  Ga9  1  0.988119  0.335672  0.923649  1
  Ga  Ga10  1  0.656310  0.003867  0.427674  1
  Ga  Ga11  1  0.996133  0.343690  0.572326  1
  Ga  Ga12  1  0.662269  0.653122  0.935999  1
  Ga  Ga13  1  0.346878  0.337731  0.064001  1
  Ga  Ga14  1  0.658712  0.656545  0.558125  1
  Ga  Ga15  1  0.343455  0.341288  0.441875  1
  Ga  Ga16  1  0.139973  0.142369  0.749036  1
  Ga  Ga17  1  0.857631  0.860027  0.250964  1
  Ga  Ga18  1  0.455045  0.664675  0.259547  1
  Ga  Ga19  1  0.335325  0.544955  0.740453  1
  Ga  Ga20  1  0.557469  0.336898  0.747237  1
  Ga  Ga21  1  0.663102  0.442531  0.252763  1
  Co  Co22  1  0.329693  0.670307  0.500000  1
  Co  Co23  1  0.668530  0.331470  0.000000  1
  Co  Co24  1  0.669482  0.330518  0.500000  1
  Pt  Pt25  1  0.999425  0.000575  0.000000  1
  Pt  Pt26  1  0.999819  0.000181  0.500000  1
  Pt  Pt27  1  0.328785  0.671215  0.000000  1
