# generated using pymatgen
data_Nd4Ag3Au10
_symmetry_space_group_name_H-M   'P 1'
_cell_length_a   8.70466600
_cell_length_b   8.70466438
_cell_length_c   10.33751100
_cell_angle_alpha   90.00000000
_cell_angle_beta   90.00000000
_cell_angle_gamma   108.22449070
_symmetry_Int_Tables_number   1
_chemical_formula_structural   Nd4Ag3Au10
_chemical_formula_sum   'Nd8 Ag6 Au20'
_cell_volume   743.99476141
_cell_formula_units_Z   2
loop_
 _symmetry_equiv_pos_site_id
 _symmetry_equiv_pos_as_xyz
  1  'x, y, z'
loop_
 _atom_site_type_symbol
 _atom_site_label
 _atom_site_symmetry_multiplicity
 _atom_site_fract_x
 _atom_site_fract_y
 _atom_site_fract_z
 _atom_site_occupancy
  Nd  Nd0  1  0.701565  0.298435  0.000000  1
  Nd  Nd1  1  0.298435  0.701565  0.000000  1
  Nd  Nd2  1  0.798435  0.201565  0.500000  1
  Nd  Nd3  1  0.201565  0.798435  0.500000  1
  Nd  Nd4  1  0.298036  0.298036  0.202947  1
  Nd  Nd5  1  0.701964  0.701964  0.797053  1
  Nd  Nd6  1  0.201964  0.201964  0.702947  1
  Nd  Nd7  1  0.798036  0.798036  0.297053  1
  Ag  Ag8  1  0.023935  0.523935  0.250000  1
  Ag  Ag9  1  0.976065  0.476065  0.750000  1
  Ag  Ag10  1  0.476065  0.976065  0.750000  1
  Ag  Ag11  1  0.523935  0.023935  0.250000  1
  Ag  Ag12  1  0.000000  0.000000  0.000000  1
  Ag  Ag13  1  0.500000  0.500000  0.500000  1
  Au  Au14  1  0.096870  0.096870  0.406663  1
  Au  Au15  1  0.903130  0.903130  0.593337  1
  Au  Au16  1  0.403130  0.403130  0.906663  1
  Au  Au17  1  0.596870  0.596870  0.093337  1
  Au  Au18  1  0.889708  0.167165  0.208667  1
  Au  Au19  1  0.110292  0.832835  0.791333  1
  Au  Au20  1  0.610292  0.332835  0.708667  1
  Au  Au21  1  0.667165  0.389708  0.291333  1
  Au  Au22  1  0.389708  0.667165  0.291333  1
  Au  Au23  1  0.332835  0.610292  0.708667  1
  Au  Au24  1  0.832835  0.110292  0.791333  1
  Au  Au25  1  0.167165  0.889708  0.208667  1
  Au  Au26  1  0.931480  0.652106  0.015702  1
  Au  Au27  1  0.068520  0.347894  0.984298  1
  Au  Au28  1  0.568520  0.847894  0.515702  1
  Au  Au29  1  0.152106  0.431480  0.484298  1
  Au  Au30  1  0.431480  0.152106  0.484298  1
  Au  Au31  1  0.847894  0.568520  0.515702  1
  Au  Au32  1  0.347894  0.068520  0.984298  1
  Au  Au33  1  0.652106  0.931480  0.015702  1
