# generated using pymatgen
data_Tm4Cd2AgPd3
_symmetry_space_group_name_H-M   'P 1'
_cell_length_a   7.84823863
_cell_length_b   7.84823863
_cell_length_c   3.58901800
_cell_angle_alpha   90.00000000
_cell_angle_beta   90.00000000
_cell_angle_gamma   89.36995223
_symmetry_Int_Tables_number   1
_chemical_formula_structural   Tm4Cd2AgPd3
_chemical_formula_sum   'Tm4 Cd2 Ag1 Pd3'
_cell_volume   221.05165815
_cell_formula_units_Z   1
loop_
 _symmetry_equiv_pos_site_id
 _symmetry_equiv_pos_as_xyz
  1  'x, y, z'
loop_
 _atom_site_type_symbol
 _atom_site_label
 _atom_site_symmetry_multiplicity
 _atom_site_fract_x
 _atom_site_fract_y
 _atom_site_fract_z
 _atom_site_occupancy
  Tm  Tm0  1  0.673683  0.173683  0.500000  1
  Tm  Tm1  1  0.343417  0.843417  0.500000  1
  Tm  Tm2  1  0.164747  0.313632  0.500000  1
  Tm  Tm3  1  0.813632  0.664747  0.500000  1
  Cd  Cd4  1  0.997942  0.996367  0.000000  1
  Cd  Cd5  1  0.496367  0.497942  0.000000  1
  Ag  Ag6  1  0.128546  0.628546  0.000000  1
  Pd  Pd7  1  0.875166  0.375166  0.000000  1
  Pd  Pd8  1  0.630871  0.875629  0.000000  1
  Pd  Pd9  1  0.375629  0.130871  0.000000  1
