# generated using pymatgen
data_Er16Cd4TcPd3
_symmetry_space_group_name_H-M   'P 1'
_cell_length_a   9.65903787
_cell_length_b   9.65903710
_cell_length_c   9.65903848
_cell_angle_alpha   59.23710012
_cell_angle_beta   59.23710074
_cell_angle_gamma   59.23710261
_symmetry_Int_Tables_number   1
_chemical_formula_structural   Er16Cd4TcPd3
_chemical_formula_sum   'Er16 Cd4 Tc1 Pd3'
_cell_volume   626.14249469
_cell_formula_units_Z   1
loop_
 _symmetry_equiv_pos_site_id
 _symmetry_equiv_pos_as_xyz
  1  'x, y, z'
loop_
 _atom_site_type_symbol
 _atom_site_label
 _atom_site_symmetry_multiplicity
 _atom_site_fract_x
 _atom_site_fract_y
 _atom_site_fract_z
 _atom_site_occupancy
  Er  Er0  1  0.352892  0.352892  0.352892  1
  Er  Er1  1  0.351798  0.351798  0.943041  1
  Er  Er2  1  0.351798  0.943041  0.351798  1
  Er  Er3  1  0.943041  0.351798  0.351798  1
  Er  Er4  1  0.816687  0.187474  0.187474  1
  Er  Er5  1  0.188620  0.810767  0.810767  1
  Er  Er6  1  0.187474  0.816687  0.187474  1
  Er  Er7  1  0.810767  0.188620  0.810767  1
  Er  Er8  1  0.187474  0.187474  0.816687  1
  Er  Er9  1  0.810767  0.810767  0.188620  1
  Er  Er10  1  0.934516  0.566308  0.566308  1
  Er  Er11  1  0.557510  0.937337  0.937337  1
  Er  Er12  1  0.566308  0.934516  0.566308  1
  Er  Er13  1  0.937337  0.557510  0.937337  1
  Er  Er14  1  0.566308  0.566308  0.934516  1
  Er  Er15  1  0.937337  0.937337  0.557510  1
  Cd  Cd16  1  0.580901  0.580901  0.580901  1
  Cd  Cd17  1  0.581594  0.581594  0.253842  1
  Cd  Cd18  1  0.581594  0.253842  0.581594  1
  Cd  Cd19  1  0.253842  0.581594  0.581594  1
  Tc  Tc20  1  0.145018  0.145018  0.145018  1
  Pd  Pd21  1  0.144459  0.144459  0.567494  1
  Pd  Pd22  1  0.144459  0.567494  0.144459  1
  Pd  Pd23  1  0.567494  0.144459  0.144459  1
