# generated using pymatgen
data_Tb6Ho2Sc12Si15Pb
_symmetry_space_group_name_H-M   'P 1'
_cell_length_a   7.14929306
_cell_length_b   7.43653954
_cell_length_c   14.09895662
_cell_angle_alpha   89.96666967
_cell_angle_beta   89.53975625
_cell_angle_gamma   90.06835791
_symmetry_Int_Tables_number   1
_chemical_formula_structural   Tb6Ho2Sc12Si15Pb
_chemical_formula_sum   'Tb6 Ho2 Sc12 Si15 Pb1'
_cell_volume   749.56028709
_cell_formula_units_Z   1
loop_
 _symmetry_equiv_pos_site_id
 _symmetry_equiv_pos_as_xyz
  1  'x, y, z'
loop_
 _atom_site_type_symbol
 _atom_site_label
 _atom_site_symmetry_multiplicity
 _atom_site_fract_x
 _atom_site_fract_y
 _atom_site_fract_z
 _atom_site_occupancy
  Tb  Tb0  1  0.012528  0.175803  0.096777  1
  Tb  Tb1  1  0.987697  0.824751  0.903929  1
  Tb  Tb2  1  0.488572  0.676120  0.903921  1
  Tb  Tb3  1  0.987007  0.832307  0.598522  1
  Tb  Tb4  1  0.511828  0.323963  0.096929  1
  Tb  Tb5  1  0.006014  0.168875  0.398766  1
  Ho  Ho6  1  0.514525  0.319162  0.398488  1
  Ho  Ho7  1  0.503104  0.685955  0.600407  1
  Sc  Sc8  1  0.161233  0.502377  0.756638  1
  Sc  Sc9  1  0.838244  0.497906  0.249383  1
  Sc  Sc10  1  0.338792  0.002331  0.249439  1
  Sc  Sc11  1  0.662593  0.997579  0.751447  1
  Sc  Sc12  1  0.342780  0.160135  0.631266  1
  Sc  Sc13  1  0.664570  0.825459  0.372636  1
  Sc  Sc14  1  0.164507  0.683783  0.368913  1
  Sc  Sc15  1  0.669080  0.823269  0.124310  1
  Sc  Sc16  1  0.820599  0.323337  0.626726  1
  Sc  Sc17  1  0.330199  0.175358  0.875253  1
  Sc  Sc18  1  0.830315  0.323542  0.875342  1
  Sc  Sc19  1  0.169374  0.676706  0.125171  1
  Si  Si20  1  0.033893  0.119504  0.751280  1
  Si  Si21  1  0.964376  0.884403  0.247008  1
  Si  Si22  1  0.466551  0.615928  0.248802  1
  Si  Si23  1  0.531354  0.385275  0.751494  1
  Si  Si24  1  0.285802  0.870026  0.751940  1
  Si  Si25  1  0.713063  0.126122  0.247808  1
  Si  Si26  1  0.213240  0.373414  0.249506  1
  Si  Si27  1  0.788768  0.627213  0.751051  1
  Si  Si28  1  0.825985  0.539417  0.458140  1
  Si  Si29  1  0.339674  0.964157  0.459976  1
  Si  Si30  1  0.843291  0.534692  0.039403  1
  Si  Si31  1  0.659995  0.037457  0.538087  1
  Si  Si32  1  0.156257  0.464701  0.961738  1
  Si  Si33  1  0.656262  0.035259  0.960643  1
  Si  Si34  1  0.342953  0.965073  0.039720  1
  Pb  Pb35  1  0.174972  0.458640  0.539142  1
