# generated using pymatgen
data_InFe2P3PbO13
_symmetry_space_group_name_H-M   'P 1'
_cell_length_a   6.55911700
_cell_length_b   7.91950663
_cell_length_c   10.55672487
_cell_angle_alpha   80.11750571
_cell_angle_beta   90.00000000
_cell_angle_gamma   90.00000000
_symmetry_Int_Tables_number   1
_chemical_formula_structural   InFe2P3PbO13
_chemical_formula_sum   'In2 Fe4 P6 Pb2 O26'
_cell_volume   540.23196295
_cell_formula_units_Z   2
loop_
 _symmetry_equiv_pos_site_id
 _symmetry_equiv_pos_as_xyz
  1  'x, y, z'
loop_
 _atom_site_type_symbol
 _atom_site_label
 _atom_site_symmetry_multiplicity
 _atom_site_fract_x
 _atom_site_fract_y
 _atom_site_fract_z
 _atom_site_occupancy
  In  In0  1  0.000000  0.500000  0.500000  1
  In  In1  1  0.500000  0.500000  0.500000  1
  Fe  Fe2  1  0.250000  0.148961  0.703924  1
  Fe  Fe3  1  0.750000  0.851039  0.296076  1
  Fe  Fe4  1  0.750000  0.289071  0.058594  1
  Fe  Fe5  1  0.250000  0.710929  0.941406  1
  P  P6  1  0.250000  0.821760  0.623726  1
  P  P7  1  0.750000  0.178240  0.376274  1
  P  P8  1  0.750000  0.241526  0.741609  1
  P  P9  1  0.250000  0.758474  0.258391  1
  P  P10  1  0.250000  0.292750  0.982228  1
  P  P11  1  0.750000  0.707250  0.017772  1
  Pb  Pb12  1  0.250000  0.152971  0.298472  1
  Pb  Pb13  1  0.750000  0.847029  0.701528  1
  O  O14  1  0.060475  0.256557  0.072656  1
  O  O15  1  0.560475  0.743443  0.927344  1
  O  O16  1  0.939525  0.743443  0.927344  1
  O  O17  1  0.439525  0.256557  0.072656  1
  O  O18  1  0.056882  0.720974  0.598359  1
  O  O19  1  0.556882  0.279026  0.401641  1
  O  O20  1  0.943118  0.279026  0.401641  1
  O  O21  1  0.443118  0.720974  0.598359  1
  O  O22  1  0.750000  0.283289  0.877543  1
  O  O23  1  0.250000  0.716711  0.122457  1
  O  O24  1  0.937222  0.133592  0.714039  1
  O  O25  1  0.437222  0.866408  0.285961  1
  O  O26  1  0.062778  0.866408  0.285961  1
  O  O27  1  0.562778  0.133592  0.714039  1
  O  O28  1  0.250000  0.481861  0.912368  1
  O  O29  1  0.750000  0.518139  0.087632  1
  O  O30  1  0.250000  0.369744  0.596427  1
  O  O31  1  0.750000  0.630256  0.403573  1
  O  O32  1  0.750000  0.415932  0.643315  1
  O  O33  1  0.250000  0.584068  0.356685  1
  O  O34  1  0.250000  0.857217  0.766297  1
  O  O35  1  0.750000  0.142783  0.233703  1
  O  O36  1  0.250000  0.009262  0.550414  1
  O  O37  1  0.750000  0.990738  0.449586  1
  O  O38  1  0.250000  0.171792  0.883795  1
  O  O39  1  0.750000  0.828208  0.116205  1
