# generated using pymatgen
data_Ho3ErBi3Sb3Rh7
_symmetry_space_group_name_H-M   'P 1'
_cell_length_a   7.74521422
_cell_length_b   7.68981885
_cell_length_c   7.68981800
_cell_angle_alpha   109.32483817
_cell_angle_beta   109.61719875
_cell_angle_gamma   109.61721803
_symmetry_Int_Tables_number   1
_chemical_formula_structural   Ho3ErBi3Sb3Rh7
_chemical_formula_sum   'Ho3 Er1 Bi3 Sb3 Rh7'
_cell_volume   351.93145409
_cell_formula_units_Z   1
loop_
 _symmetry_equiv_pos_site_id
 _symmetry_equiv_pos_as_xyz
  1  'x, y, z'
loop_
 _atom_site_type_symbol
 _atom_site_label
 _atom_site_symmetry_multiplicity
 _atom_site_fract_x
 _atom_site_fract_y
 _atom_site_fract_z
 _atom_site_occupancy
  Ho  Ho0  1  0.004308  0.516003  0.000000  1
  Ho  Ho1  1  0.004308  0.000000  0.516003  1
  Ho  Ho2  1  0.488305  0.483997  0.483997  1
  Er  Er3  1  0.461154  0.000000  0.000000  1
  Bi  Bi4  1  0.986365  0.295048  0.295048  1
  Bi  Bi5  1  0.691316  0.000000  0.704952  1
  Bi  Bi6  1  0.691316  0.704952  0.000000  1
  Sb  Sb7  1  0.987057  0.662961  0.662961  1
  Sb  Sb8  1  0.324095  0.000000  0.337039  1
  Sb  Sb9  1  0.324095  0.337039  0.000000  1
  Rh  Rh10  1  0.071744  0.000000  0.000000  1
  Rh  Rh11  1  0.497314  0.753922  0.255054  1
  Rh  Rh12  1  0.743393  0.501132  0.246078  1
  Rh  Rh13  1  0.242260  0.744946  0.498868  1
  Rh  Rh14  1  0.242260  0.498868  0.744946  1
  Rh  Rh15  1  0.497314  0.255054  0.753922  1
  Rh  Rh16  1  0.743393  0.246078  0.501132  1
