# generated using pymatgen
data_CsTh2(Te2Se)2
_symmetry_space_group_name_H-M   'P 1'
_cell_length_a   12.51635676
_cell_length_b   12.51635657
_cell_length_c   6.06722300
_cell_angle_alpha   90.00000000
_cell_angle_beta   90.00000000
_cell_angle_gamma   159.37968576
_symmetry_Int_Tables_number   1
_chemical_formula_structural   CsTh2(Te2Se)2
_chemical_formula_sum   'Cs1 Th2 Te4 Se2'
_cell_volume   334.73605988
_cell_formula_units_Z   1
loop_
 _symmetry_equiv_pos_site_id
 _symmetry_equiv_pos_as_xyz
  1  'x, y, z'
loop_
 _atom_site_type_symbol
 _atom_site_label
 _atom_site_symmetry_multiplicity
 _atom_site_fract_x
 _atom_site_fract_y
 _atom_site_fract_z
 _atom_site_occupancy
  Cs  Cs0  1  0.497234  0.502766  0.000000  1
  Th  Th1  1  0.689581  0.310419  0.000000  1
  Th  Th2  1  0.310125  0.689875  0.500000  1
  Te  Te3  1  0.117888  0.882112  0.249851  1
  Te  Te4  1  0.881899  0.118101  0.252873  1
  Te  Te5  1  0.117888  0.882112  0.750149  1
  Te  Te6  1  0.881899  0.118101  0.747127  1
  Se  Se7  1  0.270751  0.729249  0.000000  1
  Se  Se8  1  0.729435  0.270565  0.500000  1
