# generated using pymatgen
data_Tb10Si16Au
_symmetry_space_group_name_H-M   'P 1'
_cell_length_a   11.16282120
_cell_length_b   11.16357779
_cell_length_c   11.16282142
_cell_angle_alpha   144.74088218
_cell_angle_beta   136.31248196
_cell_angle_gamma   57.33772677
_symmetry_Int_Tables_number   1
_chemical_formula_structural   Tb10Si16Au
_chemical_formula_sum   'Tb10 Si16 Au1'
_cell_volume   550.16036479
_cell_formula_units_Z   1
loop_
 _symmetry_equiv_pos_site_id
 _symmetry_equiv_pos_as_xyz
  1  'x, y, z'
loop_
 _atom_site_type_symbol
 _atom_site_label
 _atom_site_symmetry_multiplicity
 _atom_site_fract_x
 _atom_site_fract_y
 _atom_site_fract_z
 _atom_site_occupancy
  Tb  Tb0  1  0.053244  0.565697  0.020724  1
  Tb  Tb1  1  0.352483  0.369888  0.521120  1
  Tb  Tb2  1  0.154354  0.164765  0.520859  1
  Tb  Tb3  1  0.451104  0.963869  0.014716  1
  Tb  Tb4  1  0.643906  0.164765  0.010412  1
  Tb  Tb5  1  0.949151  0.963869  0.512763  1
  Tb  Tb6  1  0.848770  0.369888  0.017407  1
  Tb  Tb7  1  0.544973  0.565697  0.512452  1
  Tb  Tb8  1  0.251122  0.765532  0.013591  1
  Tb  Tb9  1  0.751942  0.765532  0.514410  1
  Si  Si10  1  0.116151  0.073911  0.957758  1
  Si  Si11  1  0.797573  0.176186  0.378613  1
  Si  Si12  1  0.300070  0.899282  0.599212  1
  Si  Si13  1  0.399997  0.501330  0.101333  1
  Si  Si14  1  0.883015  0.852573  0.969559  1
  Si  Si15  1  0.103984  0.709447  0.605463  1
  Si  Si16  1  0.199578  0.586610  0.387031  1
  Si  Si17  1  0.699542  0.295820  0.596279  1
  Si  Si18  1  0.001943  0.431850  0.429906  1
  Si  Si19  1  0.712869  0.664466  0.951597  1
  Si  Si20  1  0.600805  0.702727  0.101922  1
  Si  Si21  1  0.999534  0.084660  0.085126  1
  Si  Si22  1  0.501037  0.397328  0.896292  1
  Si  Si23  1  0.286791  0.241253  0.954462  1
  Si  Si24  1  0.585689  0.040282  0.454592  1
  Si  Si25  1  0.413745  0.867079  0.453335  1
  Au  Au26  1  0.896628  0.504612  0.607984  1
