# generated using pymatgen
data_Dy5Y3MgCdIr2
_symmetry_space_group_name_H-M   'P 1'
_cell_length_a   9.68726281
_cell_length_b   9.68726268
_cell_length_c   9.72987700
_cell_angle_alpha   59.85437166
_cell_angle_beta   59.85437212
_cell_angle_gamma   59.75403821
_symmetry_Int_Tables_number   1
_chemical_formula_structural   Dy5Y3MgCdIr2
_chemical_formula_sum   'Dy10 Y6 Mg2 Cd2 Ir4'
_cell_volume   643.02047095
_cell_formula_units_Z   2
loop_
 _symmetry_equiv_pos_site_id
 _symmetry_equiv_pos_as_xyz
  1  'x, y, z'
loop_
 _atom_site_type_symbol
 _atom_site_label
 _atom_site_symmetry_multiplicity
 _atom_site_fract_x
 _atom_site_fract_y
 _atom_site_fract_z
 _atom_site_occupancy
  Dy  Dy0  1  0.347844  0.347844  0.347599  1
  Dy  Dy1  1  0.347844  0.347844  0.956712  1
  Dy  Dy2  1  0.347257  0.959137  0.346802  1
  Dy  Dy3  1  0.959137  0.347257  0.346802  1
  Dy  Dy4  1  0.810529  0.188104  0.189972  1
  Dy  Dy5  1  0.188104  0.810529  0.811394  1
  Dy  Dy6  1  0.188104  0.810529  0.189972  1
  Dy  Dy7  1  0.810529  0.188104  0.811394  1
  Dy  Dy8  1  0.190548  0.190548  0.809452  1
  Dy  Dy9  1  0.811824  0.811824  0.188176  1
  Y  Y10  1  0.940366  0.562247  0.561719  1
  Y  Y11  1  0.562247  0.940366  0.935668  1
  Y  Y12  1  0.562247  0.940366  0.561719  1
  Y  Y13  1  0.940366  0.562247  0.935668  1
  Y  Y14  1  0.562677  0.562677  0.937323  1
  Y  Y15  1  0.938236  0.938236  0.561764  1
  Mg  Mg16  1  0.575573  0.575573  0.580943  1
  Mg  Mg17  1  0.575573  0.575573  0.267911  1
  Cd  Cd18  1  0.581762  0.254846  0.581696  1
  Cd  Cd19  1  0.254846  0.581762  0.581696  1
  Ir  Ir20  1  0.142524  0.142524  0.139311  1
  Ir  Ir21  1  0.142524  0.142524  0.575642  1
  Ir  Ir22  1  0.143346  0.575994  0.140330  1
  Ir  Ir23  1  0.575994  0.143346  0.140330  1
