# generated using pymatgen
data_Eu2Cr4P7Rh8
_symmetry_space_group_name_H-M   'P 1'
_cell_length_a   3.85795006
_cell_length_b   9.61354125
_cell_length_c   9.67729300
_cell_angle_alpha   120.07527790
_cell_angle_beta   89.94078764
_cell_angle_gamma   90.04491299
_symmetry_Int_Tables_number   1
_chemical_formula_structural   Eu2Cr4P7Rh8
_chemical_formula_sum   'Eu2 Cr4 P7 Rh8'
_cell_volume   310.59490768
_cell_formula_units_Z   1
loop_
 _symmetry_equiv_pos_site_id
 _symmetry_equiv_pos_as_xyz
  1  'x, y, z'
loop_
 _atom_site_type_symbol
 _atom_site_label
 _atom_site_symmetry_multiplicity
 _atom_site_fract_x
 _atom_site_fract_y
 _atom_site_fract_z
 _atom_site_occupancy
  Eu  Eu0  1  0.261905  0.665068  0.334274  1
  Eu  Eu1  1  0.761702  0.333024  0.665996  1
  Cr  Cr2  1  0.761297  0.107453  0.868481  1
  Cr  Cr3  1  0.761902  0.123022  0.222484  1
  Cr  Cr4  1  0.762008  0.771583  0.900179  1
  Cr  Cr5  1  0.262768  0.881155  0.158921  1
  P  P6  1  0.263245  0.993568  0.006861  1
  P  P7  1  0.761734  0.888795  0.597146  1
  P  P8  1  0.761577  0.401269  0.289456  1
  P  P9  1  0.762358  0.719216  0.120534  1
  P  P10  1  0.262175  0.109540  0.403164  1
  P  P11  1  0.261531  0.589003  0.703893  1
  P  P12  1  0.261587  0.295778  0.884402  1
  Rh  Rh13  1  0.261686  0.846269  0.733934  1
  Rh  Rh14  1  0.261513  0.266526  0.111198  1
  Rh  Rh15  1  0.761682  0.615471  0.563717  1
  Rh  Rh16  1  0.761718  0.438835  0.052039  1
  Rh  Rh17  1  0.762217  0.950797  0.385266  1
  Rh  Rh18  1  0.261696  0.370383  0.432216  1
  Rh  Rh19  1  0.261933  0.570466  0.936542  1
  Rh  Rh20  1  0.261766  0.062777  0.629294  1
