# generated using pymatgen
data_Tb5Ho12Er3Pb16
_symmetry_space_group_name_H-M   'P 1'
_cell_length_a   8.20041726
_cell_length_b   8.27068727
_cell_length_c   15.62412241
_cell_angle_alpha   90.01199865
_cell_angle_beta   89.91393005
_cell_angle_gamma   89.88409004
_symmetry_Int_Tables_number   1
_chemical_formula_structural   Tb5Ho12Er3Pb16
_chemical_formula_sum   'Tb5 Ho12 Er3 Pb16'
_cell_volume   1059.67281982
_cell_formula_units_Z   1
loop_
 _symmetry_equiv_pos_site_id
 _symmetry_equiv_pos_as_xyz
  1  'x, y, z'
loop_
 _atom_site_type_symbol
 _atom_site_label
 _atom_site_symmetry_multiplicity
 _atom_site_fract_x
 _atom_site_fract_y
 _atom_site_fract_z
 _atom_site_occupancy
  Tb  Tb0  1  0.965086  0.823425  0.099504  1
  Tb  Tb1  1  0.465602  0.676345  0.099078  1
  Tb  Tb2  1  0.965009  0.823787  0.400736  1
  Tb  Tb3  1  0.534909  0.323662  0.599131  1
  Tb  Tb4  1  0.034171  0.176472  0.900924  1
  Ho  Ho5  1  0.375914  0.842064  0.878636  1
  Ho  Ho6  1  0.876457  0.658118  0.621149  1
  Ho  Ho7  1  0.623482  0.158093  0.378893  1
  Ho  Ho8  1  0.123905  0.342001  0.121446  1
  Ho  Ho9  1  0.623584  0.157901  0.121337  1
  Ho  Ho10  1  0.123089  0.341967  0.378956  1
  Ho  Ho11  1  0.376940  0.842345  0.621121  1
  Ho  Ho12  1  0.875942  0.657623  0.878515  1
  Ho  Ho13  1  0.535890  0.323955  0.900068  1
  Ho  Ho14  1  0.036667  0.175528  0.600168  1
  Ho  Ho15  1  0.463475  0.675673  0.400045  1
  Ho  Ho16  1  0.208453  0.504471  0.749837  1
  Er  Er17  1  0.708484  0.995357  0.749796  1
  Er  Er18  1  0.791397  0.495363  0.250195  1
  Er  Er19  1  0.291692  0.004903  0.250417  1
  Pb  Pb20  1  0.282568  0.034559  0.043240  1
  Pb  Pb21  1  0.781900  0.466922  0.456861  1
  Pb  Pb22  1  0.718687  0.967108  0.543133  1
  Pb  Pb23  1  0.217691  0.534313  0.957104  1
  Pb  Pb24  1  0.716329  0.965270  0.957168  1
  Pb  Pb25  1  0.217317  0.535266  0.542523  1
  Pb  Pb26  1  0.282633  0.035184  0.457403  1
  Pb  Pb27  1  0.782254  0.463724  0.042368  1
  Pb  Pb28  1  0.571453  0.626487  0.749326  1
  Pb  Pb29  1  0.071060  0.873718  0.750167  1
  Pb  Pb30  1  0.428451  0.374338  0.249803  1
  Pb  Pb31  1  0.928905  0.125627  0.250025  1
  Pb  Pb32  1  0.347941  0.154547  0.750815  1
  Pb  Pb33  1  0.847153  0.345369  0.749817  1
  Pb  Pb34  1  0.652091  0.844906  0.250306  1
  Pb  Pb35  1  0.153422  0.653612  0.249993  1
