# generated using pymatgen
data_Ho16Mg2CdAgIr4
_symmetry_space_group_name_H-M   'P 1'
_cell_length_a   9.61765461
_cell_length_b   9.63760605
_cell_length_c   9.63760537
_cell_angle_alpha   59.90099178
_cell_angle_beta   59.72402096
_cell_angle_gamma   59.72401565
_symmetry_Int_Tables_number   1
_chemical_formula_structural   Ho16Mg2CdAgIr4
_chemical_formula_sum   'Ho16 Mg2 Cd1 Ag1 Ir4'
_cell_volume   628.55735489
_cell_formula_units_Z   1
loop_
 _symmetry_equiv_pos_site_id
 _symmetry_equiv_pos_as_xyz
  1  'x, y, z'
loop_
 _atom_site_type_symbol
 _atom_site_label
 _atom_site_symmetry_multiplicity
 _atom_site_fract_x
 _atom_site_fract_y
 _atom_site_fract_z
 _atom_site_occupancy
  Ho  Ho0  1  0.597066  0.597181  0.597181  1
  Ho  Ho1  1  0.598779  0.599580  0.205738  1
  Ho  Ho2  1  0.598779  0.205738  0.599580  1
  Ho  Ho3  1  0.209890  0.598310  0.598310  1
  Ho  Ho4  1  0.061715  0.437849  0.437849  1
  Ho  Ho5  1  0.438448  0.058367  0.058367  1
  Ho  Ho6  1  0.438583  0.060837  0.438650  1
  Ho  Ho7  1  0.061166  0.435803  0.060501  1
  Ho  Ho8  1  0.438583  0.438650  0.060837  1
  Ho  Ho9  1  0.061166  0.060501  0.435803  1
  Ho  Ho10  1  0.186644  0.811731  0.811731  1
  Ho  Ho11  1  0.811465  0.186505  0.186505  1
  Ho  Ho12  1  0.811615  0.185131  0.811511  1
  Ho  Ho13  1  0.188090  0.811506  0.184717  1
  Ho  Ho14  1  0.811615  0.811511  0.185131  1
  Ho  Ho15  1  0.188090  0.184717  0.811506  1
  Mg  Mg16  1  0.825718  0.830956  0.519172  1
  Mg  Mg17  1  0.825718  0.519172  0.830956  1
  Cd  Cd18  1  0.504737  0.831969  0.831969  1
  Ag  Ag19  1  0.834805  0.832139  0.832139  1
  Ir  Ir20  1  0.392752  0.391340  0.391340  1
  Ir  Ir21  1  0.394058  0.391287  0.826956  1
  Ir  Ir22  1  0.394058  0.826956  0.391287  1
  Ir  Ir23  1  0.826459  0.392266  0.392266  1
