# generated using pymatgen
data_Li4Nd3DyPt4
_symmetry_space_group_name_H-M   'P 1'
_cell_length_a   4.06937200
_cell_length_b   7.20795030
_cell_length_c   8.59943280
_cell_angle_alpha   89.46150694
_cell_angle_beta   90.00000000
_cell_angle_gamma   90.00000000
_symmetry_Int_Tables_number   1
_chemical_formula_structural   Li4Nd3DyPt4
_chemical_formula_sum   'Li4 Nd3 Dy1 Pt4'
_cell_volume   252.22597080
_cell_formula_units_Z   1
loop_
 _symmetry_equiv_pos_site_id
 _symmetry_equiv_pos_as_xyz
  1  'x, y, z'
loop_
 _atom_site_type_symbol
 _atom_site_label
 _atom_site_symmetry_multiplicity
 _atom_site_fract_x
 _atom_site_fract_y
 _atom_site_fract_z
 _atom_site_occupancy
  Li  Li0  1  0.250000  0.376414  0.557634  1
  Li  Li1  1  0.250000  0.872563  0.941708  1
  Li  Li2  1  0.750000  0.621139  0.446735  1
  Li  Li3  1  0.750000  0.128738  0.053826  1
  Nd  Nd4  1  0.250000  0.949826  0.317394  1
  Nd  Nd5  1  0.250000  0.454301  0.181078  1
  Nd  Nd6  1  0.750000  0.045630  0.685997  1
  Dy  Dy7  1  0.750000  0.549778  0.819209  1
  Pt  Pt8  1  0.250000  0.262475  0.875706  1
  Pt  Pt9  1  0.250000  0.746133  0.627133  1
  Pt  Pt10  1  0.750000  0.747484  0.113784  1
  Pt  Pt11  1  0.750000  0.245518  0.379796  1
