# generated using pymatgen
data_Er7Co3Sn23Ir3
_symmetry_space_group_name_H-M   'P 1'
_cell_length_a   9.74943100
_cell_length_b   9.74942945
_cell_length_c   10.03311600
_cell_angle_alpha   90.00000000
_cell_angle_beta   90.00000000
_cell_angle_gamma   119.99999506
_symmetry_Int_Tables_number   1
_chemical_formula_structural   Er7Co3Sn23Ir3
_chemical_formula_sum   'Er7 Co3 Sn23 Ir3'
_cell_volume   825.89523008
_cell_formula_units_Z   1
loop_
 _symmetry_equiv_pos_site_id
 _symmetry_equiv_pos_as_xyz
  1  'x, y, z'
loop_
 _atom_site_type_symbol
 _atom_site_label
 _atom_site_symmetry_multiplicity
 _atom_site_fract_x
 _atom_site_fract_y
 _atom_site_fract_z
 _atom_site_occupancy
  Er  Er0  1  0.000000  0.000000  0.979966  1
  Er  Er1  1  0.520032  0.479968  0.695004  1
  Er  Er2  1  0.520032  0.040064  0.695004  1
  Er  Er3  1  0.959936  0.479968  0.695004  1
  Er  Er4  1  0.041910  0.520955  0.307757  1
  Er  Er5  1  0.479045  0.958090  0.307757  1
  Er  Er6  1  0.479045  0.520955  0.307757  1
  Co  Co7  1  0.336673  0.168337  0.200504  1
  Co  Co8  1  0.831663  0.663327  0.200504  1
  Co  Co9  1  0.831663  0.168337  0.200504  1
  Sn  Sn10  1  0.666667  0.333333  0.183044  1
  Sn  Sn11  1  0.666667  0.333333  0.880482  1
  Sn  Sn12  1  0.333333  0.666667  0.123855  1
  Sn  Sn13  1  0.352187  0.345503  0.007005  1
  Sn  Sn14  1  0.993316  0.647813  0.007005  1
  Sn  Sn15  1  0.654497  0.006684  0.007005  1
  Sn  Sn16  1  0.654497  0.647813  0.007005  1
  Sn  Sn17  1  0.333333  0.666667  0.829049  1
  Sn  Sn18  1  0.440442  0.220221  0.450350  1
  Sn  Sn19  1  0.221835  0.778165  0.543673  1
  Sn  Sn20  1  0.221835  0.443669  0.543673  1
  Sn  Sn21  1  0.556331  0.778165  0.543673  1
  Sn  Sn22  1  0.117375  0.882625  0.272688  1
  Sn  Sn23  1  0.779779  0.559558  0.450350  1
  Sn  Sn24  1  0.779779  0.220221  0.450350  1
  Sn  Sn25  1  0.352187  0.006684  0.007005  1
  Sn  Sn26  1  0.117375  0.234749  0.272688  1
  Sn  Sn27  1  0.765251  0.882625  0.272688  1
  Sn  Sn28  1  0.241229  0.120615  0.712595  1
  Sn  Sn29  1  0.879385  0.758771  0.712595  1
  Sn  Sn30  1  0.879385  0.120615  0.712595  1
  Sn  Sn31  1  0.000000  0.000000  0.496919  1
  Sn  Sn32  1  0.993316  0.345503  0.007005  1
  Ir  Ir33  1  0.167479  0.832521  0.805646  1
  Ir  Ir34  1  0.167479  0.334956  0.805646  1
  Ir  Ir35  1  0.665044  0.832521  0.805646  1
