# generated using pymatgen
data_YbDy2Y(B4Os)4
_symmetry_space_group_name_H-M   'P 1'
_cell_length_a   3.56009300
_cell_length_b   5.97216586
_cell_length_c   11.54282893
_cell_angle_alpha   89.95793853
_cell_angle_beta   90.00000000
_cell_angle_gamma   90.00000000
_symmetry_Int_Tables_number   1
_chemical_formula_structural   YbDy2Y(B4Os)4
_chemical_formula_sum   'Yb1 Dy2 Y1 B16 Os4'
_cell_volume   245.41739719
_cell_formula_units_Z   1
loop_
 _symmetry_equiv_pos_site_id
 _symmetry_equiv_pos_as_xyz
  1  'x, y, z'
loop_
 _atom_site_type_symbol
 _atom_site_label
 _atom_site_symmetry_multiplicity
 _atom_site_fract_x
 _atom_site_fract_y
 _atom_site_fract_z
 _atom_site_occupancy
  Yb  Yb0  1  0.000000  0.370550  0.149149  1
  Dy  Dy1  1  0.000000  0.127783  0.650121  1
  Dy  Dy2  1  0.000000  0.871779  0.348641  1
  Y  Y3  1  0.000000  0.627775  0.850972  1
  B  B4  1  0.500000  0.474970  0.691509  1
  B  B5  1  0.500000  0.525325  0.308222  1
  B  B6  1  0.500000  0.974640  0.809011  1
  B  B7  1  0.500000  0.025602  0.190738  1
  B  B8  1  0.500000  0.288497  0.814940  1
  B  B9  1  0.500000  0.711002  0.185079  1
  B  B10  1  0.500000  0.788773  0.685981  1
  B  B11  1  0.500000  0.212646  0.313613  1
  B  B12  1  0.500000  0.363317  0.970526  1
  B  B13  1  0.500000  0.636041  0.030429  1
  B  B14  1  0.500000  0.863447  0.530179  1
  B  B15  1  0.500000  0.136507  0.470005  1
  B  B16  1  0.500000  0.387395  0.546881  1
  B  B17  1  0.500000  0.611814  0.452877  1
  B  B18  1  0.500000  0.888188  0.954224  1
  B  B19  1  0.500000  0.114092  0.047230  1
  Os  Os20  1  0.000000  0.140457  0.907037  1
  Os  Os21  1  0.000000  0.859882  0.091842  1
  Os  Os22  1  0.000000  0.640979  0.592995  1
  Os  Os23  1  0.000000  0.358538  0.407799  1
