# generated using pymatgen
data_HoTiF7
_symmetry_space_group_name_H-M   'P 1'
_cell_length_a   5.52124500
_cell_length_b   8.78392106
_cell_length_c   11.81557425
_cell_angle_alpha   62.45235759
_cell_angle_beta   90.00000000
_cell_angle_gamma   90.00000000
_symmetry_Int_Tables_number   1
_chemical_formula_structural   HoTiF7
_chemical_formula_sum   'Ho4 Ti4 F28'
_cell_volume   508.06703957
_cell_formula_units_Z   4
loop_
 _symmetry_equiv_pos_site_id
 _symmetry_equiv_pos_as_xyz
  1  'x, y, z'
loop_
 _atom_site_type_symbol
 _atom_site_label
 _atom_site_symmetry_multiplicity
 _atom_site_fract_x
 _atom_site_fract_y
 _atom_site_fract_z
 _atom_site_occupancy
  Ho  Ho0  1  0.757909  0.811266  0.265529  1
  Ho  Ho1  1  0.257909  0.188734  0.234471  1
  Ho  Ho2  1  0.242091  0.188734  0.734471  1
  Ho  Ho3  1  0.742091  0.811266  0.765529  1
  Ti  Ti4  1  0.244094  0.726471  0.543458  1
  Ti  Ti5  1  0.744094  0.273529  0.956542  1
  Ti  Ti6  1  0.755906  0.273529  0.456542  1
  Ti  Ti7  1  0.255906  0.726471  0.043458  1
  F  F8  1  0.958456  0.717097  0.456245  1
  F  F9  1  0.458456  0.282903  0.043755  1
  F  F10  1  0.041544  0.282903  0.543755  1
  F  F11  1  0.541544  0.717097  0.956245  1
  F  F12  1  0.052320  0.708591  0.922680  1
  F  F13  1  0.552320  0.291409  0.577320  1
  F  F14  1  0.947680  0.291409  0.077320  1
  F  F15  1  0.447680  0.708591  0.422680  1
  F  F16  1  0.731478  0.515137  0.860992  1
  F  F17  1  0.231478  0.484863  0.639008  1
  F  F18  1  0.268522  0.484863  0.139008  1
  F  F19  1  0.768522  0.515137  0.360992  1
  F  F20  1  0.740571  0.033171  0.050982  1
  F  F21  1  0.240571  0.966829  0.449018  1
  F  F22  1  0.259429  0.966829  0.949018  1
  F  F23  1  0.759429  0.033171  0.550982  1
  F  F24  1  0.045609  0.744165  0.669264  1
  F  F25  1  0.545609  0.255835  0.830736  1
  F  F26  1  0.954391  0.255835  0.330736  1
  F  F27  1  0.454391  0.744165  0.169264  1
  F  F28  1  0.015748  0.269565  0.860475  1
  F  F29  1  0.515748  0.730435  0.639525  1
  F  F30  1  0.984252  0.730435  0.139525  1
  F  F31  1  0.484252  0.269565  0.360475  1
  F  F32  1  0.082850  0.969828  0.231962  1
  F  F33  1  0.582850  0.030172  0.268038  1
  F  F34  1  0.917150  0.030172  0.768038  1
  F  F35  1  0.417150  0.969828  0.731962  1
