# generated using pymatgen
data_TbMnTeO6
_symmetry_space_group_name_H-M   'P 1'
_cell_length_a   5.26945115
_cell_length_b   5.13102341
_cell_length_c   4.93261985
_cell_angle_alpha   91.18745322
_cell_angle_beta   89.44446423
_cell_angle_gamma   119.12917597
_symmetry_Int_Tables_number   1
_chemical_formula_structural   TbMnTeO6
_chemical_formula_sum   'Tb1 Mn1 Te1 O6'
_cell_volume   116.47394209
_cell_formula_units_Z   1
loop_
 _symmetry_equiv_pos_site_id
 _symmetry_equiv_pos_as_xyz
  1  'x, y, z'
loop_
 _atom_site_type_symbol
 _atom_site_label
 _atom_site_symmetry_multiplicity
 _atom_site_fract_x
 _atom_site_fract_y
 _atom_site_fract_z
 _atom_site_occupancy
  Tb  Tb0  1  0.518803  0.482855  0.500093  1
  Mn  Mn1  1  0.853145  0.150092  0.000041  1
  Te  Te2  1  0.192301  0.819609  0.999992  1
  O  O3  1  0.166278  0.116297  0.229539  1
  O  O4  1  0.498108  0.829753  0.222553  1
  O  O5  1  0.883928  0.487680  0.210153  1
  O  O6  1  0.497583  0.114881  0.777212  1
  O  O7  1  0.165697  0.496584  0.770341  1
  O  O8  1  0.883487  0.842936  0.790112  1
