# generated using pymatgen
data_HfZrTa3Tc
_symmetry_space_group_name_H-M   'P 1'
_cell_length_a   5.35618758
_cell_length_b   5.35618768
_cell_length_c   5.35618761
_cell_angle_alpha   63.53749048
_cell_angle_beta   63.53749353
_cell_angle_gamma   63.53748888
_symmetry_Int_Tables_number   1
_chemical_formula_structural   HfZrTa3Tc
_chemical_formula_sum   'Hf1 Zr1 Ta3 Tc1'
_cell_volume   117.15277550
_cell_formula_units_Z   1
loop_
 _symmetry_equiv_pos_site_id
 _symmetry_equiv_pos_as_xyz
  1  'x, y, z'
loop_
 _atom_site_type_symbol
 _atom_site_label
 _atom_site_symmetry_multiplicity
 _atom_site_fract_x
 _atom_site_fract_y
 _atom_site_fract_z
 _atom_site_occupancy
  Hf  Hf0  1  0.249604  0.249604  0.249604  1
  Zr  Zr1  1  0.999859  0.999859  0.999859  1
  Ta  Ta2  1  0.625121  0.625121  0.125338  1
  Ta  Ta3  1  0.625121  0.125338  0.625121  1
  Ta  Ta4  1  0.125338  0.625121  0.625121  1
  Tc  Tc5  1  0.624956  0.624956  0.624956  1
