# generated using pymatgen
data_ErFe2GeP
_symmetry_space_group_name_H-M   'P 1'
_cell_length_a   5.56813301
_cell_length_b   5.56813281
_cell_length_c   5.56813274
_cell_angle_alpha   138.84763560
_cell_angle_beta   138.84763541
_cell_angle_gamma   59.60725763
_symmetry_Int_Tables_number   1
_chemical_formula_structural   ErFe2GeP
_chemical_formula_sum   'Er1 Fe2 Ge1 P1'
_cell_volume   74.01310664
_cell_formula_units_Z   1
loop_
 _symmetry_equiv_pos_site_id
 _symmetry_equiv_pos_as_xyz
  1  'x, y, z'
loop_
 _atom_site_type_symbol
 _atom_site_label
 _atom_site_symmetry_multiplicity
 _atom_site_fract_x
 _atom_site_fract_y
 _atom_site_fract_z
 _atom_site_occupancy
  Er  Er0  1  0.003625  0.003625  0.000000  1
  Fe  Fe1  1  0.741798  0.241798  0.500000  1
  Fe  Fe2  1  0.241798  0.741798  0.500000  1
  Ge  Ge3  1  0.373880  0.373880  0.000000  1
  P  P4  1  0.638897  0.638897  0.000000  1
