# generated using pymatgen
data_Nd6Mn3Ni16P13Au
_symmetry_space_group_name_H-M   'P 1'
_cell_length_a   12.90435600
_cell_length_b   12.90435763
_cell_length_c   3.85111700
_cell_angle_alpha   90.00000000
_cell_angle_beta   90.00000000
_cell_angle_gamma   119.99999582
_symmetry_Int_Tables_number   1
_chemical_formula_structural   Nd6Mn3Ni16P13Au
_chemical_formula_sum   'Nd6 Mn3 Ni16 P13 Au1'
_cell_volume   555.37981224
_cell_formula_units_Z   1
loop_
 _symmetry_equiv_pos_site_id
 _symmetry_equiv_pos_as_xyz
  1  'x, y, z'
loop_
 _atom_site_type_symbol
 _atom_site_label
 _atom_site_symmetry_multiplicity
 _atom_site_fract_x
 _atom_site_fract_y
 _atom_site_fract_z
 _atom_site_occupancy
  Nd  Nd0  1  0.794670  0.947815  0.000000  1
  Nd  Nd1  1  0.052185  0.846856  0.000000  1
  Nd  Nd2  1  0.153144  0.205330  0.000000  1
  Nd  Nd3  1  0.519131  0.134932  0.500000  1
  Nd  Nd4  1  0.865068  0.384199  0.500000  1
  Nd  Nd5  1  0.615801  0.480869  0.500000  1
  Mn  Mn6  1  0.401715  0.816276  0.500000  1
  Mn  Mn7  1  0.183724  0.585439  0.500000  1
  Mn  Mn8  1  0.414561  0.598285  0.500000  1
  Ni  Ni9  1  0.527730  0.772507  0.000000  1
  Ni  Ni10  1  0.227493  0.755222  0.000000  1
  Ni  Ni11  1  0.244778  0.472270  0.000000  1
  Ni  Ni12  1  0.666667  0.333333  0.000000  1
  Ni  Ni13  1  0.769310  0.684798  0.000000  1
  Ni  Ni14  1  0.315202  0.084512  0.000000  1
  Ni  Ni15  1  0.915488  0.230690  0.000000  1
  Ni  Ni16  1  0.644478  0.736967  0.500000  1
  Ni  Ni17  1  0.263033  0.907511  0.500000  1
  Ni  Ni18  1  0.092489  0.355522  0.500000  1
  Ni  Ni19  1  0.361360  0.260445  0.500000  1
  Ni  Ni20  1  0.739555  0.100915  0.500000  1
  Ni  Ni21  1  0.899085  0.638640  0.500000  1
  Ni  Ni22  1  0.570748  0.983575  0.000000  1
  Ni  Ni23  1  0.016425  0.587173  0.000000  1
  Ni  Ni24  1  0.412827  0.429252  0.000000  1
  P  P25  1  0.843290  0.785607  0.500000  1
  P  P26  1  0.214393  0.057683  0.500000  1
  P  P27  1  0.942317  0.156710  0.500000  1
  P  P28  1  0.606027  0.898174  0.500000  1
  P  P29  1  0.101826  0.707851  0.500000  1
  P  P30  1  0.292149  0.393973  0.500000  1
  P  P31  1  0.469119  0.283067  0.000000  1
  P  P32  1  0.716933  0.186053  0.000000  1
  P  P33  1  0.813947  0.530881  0.000000  1
  P  P34  1  0.376826  0.945038  0.000000  1
  P  P35  1  0.054962  0.431788  0.000000  1
  P  P36  1  0.568212  0.623174  0.000000  1
  P  P37  1  0.333333  0.666667  0.000000  1
  Au  Au38  1  0.000000  0.000000  0.500000  1
