# generated using pymatgen
data_Er8ZnGaPd23
_symmetry_space_group_name_H-M   'P 1'
_cell_length_a   8.38208400
_cell_length_b   8.33711900
_cell_length_c   8.22751000
_cell_angle_alpha   90.00000000
_cell_angle_beta   90.00000000
_cell_angle_gamma   90.00000000
_symmetry_Int_Tables_number   1
_chemical_formula_structural   Er8ZnGaPd23
_chemical_formula_sum   'Er8 Zn1 Ga1 Pd23'
_cell_volume   574.95840626
_cell_formula_units_Z   1
loop_
 _symmetry_equiv_pos_site_id
 _symmetry_equiv_pos_as_xyz
  1  'x, y, z'
loop_
 _atom_site_type_symbol
 _atom_site_label
 _atom_site_symmetry_multiplicity
 _atom_site_fract_x
 _atom_site_fract_y
 _atom_site_fract_z
 _atom_site_occupancy
  Er  Er0  1  0.261120  0.246082  0.748196  1
  Er  Er1  1  0.251614  0.746812  0.252588  1
  Er  Er2  1  0.748386  0.253188  0.252588  1
  Er  Er3  1  0.738880  0.753918  0.748196  1
  Er  Er4  1  0.748386  0.746812  0.252588  1
  Er  Er5  1  0.738880  0.246082  0.748196  1
  Er  Er6  1  0.261120  0.753918  0.748196  1
  Er  Er7  1  0.251614  0.253188  0.252588  1
  Zn  Zn8  1  0.000000  0.500000  0.729992  1
  Ga  Ga9  1  0.000000  0.000000  0.003127  1
  Pd  Pd10  1  0.500000  0.500000  0.747506  1
  Pd  Pd11  1  0.500000  0.253428  0.498252  1
  Pd  Pd12  1  0.252657  0.500000  0.505790  1
  Pd  Pd13  1  0.500000  0.500000  0.253277  1
  Pd  Pd14  1  0.500000  0.746572  0.498252  1
  Pd  Pd15  1  0.747343  0.500000  0.505790  1
  Pd  Pd16  1  0.000000  0.000000  0.709817  1
  Pd  Pd17  1  0.000000  0.294464  0.986104  1
  Pd  Pd18  1  0.288831  0.000000  0.002255  1
  Pd  Pd19  1  0.000000  0.000000  0.296369  1
  Pd  Pd20  1  0.000000  0.705536  0.986104  1
  Pd  Pd21  1  0.711169  0.000000  0.002255  1
  Pd  Pd22  1  0.500000  0.259080  0.002517  1
  Pd  Pd23  1  0.260987  0.000000  0.499385  1
  Pd  Pd24  1  0.000000  0.263819  0.508190  1
  Pd  Pd25  1  0.500000  0.000000  0.741096  1
  Pd  Pd26  1  0.260920  0.500000  0.996448  1
  Pd  Pd27  1  0.000000  0.500000  0.257582  1
  Pd  Pd28  1  0.500000  0.740920  0.002517  1
  Pd  Pd29  1  0.000000  0.736181  0.508190  1
  Pd  Pd30  1  0.500000  0.000000  0.260217  1
  Pd  Pd31  1  0.739013  0.000000  0.499385  1
  Pd  Pd32  1  0.739080  0.500000  0.996448  1
