# generated using pymatgen
data_Pr2B4IrOsRh2
_symmetry_space_group_name_H-M   'P 1'
_cell_length_a   7.03507578
_cell_length_b   6.09121675
_cell_length_c   5.64603166
_cell_angle_alpha   73.54076969
_cell_angle_beta   56.13521521
_cell_angle_gamma   50.00563613
_symmetry_Int_Tables_number   1
_chemical_formula_structural   Pr2B4IrOsRh2
_chemical_formula_sum   'Pr2 B4 Ir1 Os1 Rh2'
_cell_volume   152.84308481
_cell_formula_units_Z   1
loop_
 _symmetry_equiv_pos_site_id
 _symmetry_equiv_pos_as_xyz
  1  'x, y, z'
loop_
 _atom_site_type_symbol
 _atom_site_label
 _atom_site_symmetry_multiplicity
 _atom_site_fract_x
 _atom_site_fract_y
 _atom_site_fract_z
 _atom_site_occupancy
  Pr  Pr0  1  0.001327  0.001327  0.998673  1
  Pr  Pr1  1  0.249460  0.249460  0.250540  1
  B  B2  1  0.675828  0.316620  0.693345  1
  B  B3  1  0.316620  0.675828  0.314206  1
  B  B4  1  0.916553  0.594160  0.930105  1
  B  B5  1  0.594160  0.916553  0.559181  1
  Ir  Ir6  1  0.617996  0.617996  0.882004  1
  Os  Os7  1  0.883538  0.883538  0.616462  1
  Rh  Rh8  1  0.628731  0.628731  0.371269  1
  Rh  Rh9  1  0.365786  0.365786  0.634214  1
