# generated using pymatgen
data_Ag3(NO3)4
_symmetry_space_group_name_H-M   'P 1'
_cell_length_a   8.07860400
_cell_length_b   7.40609813
_cell_length_c   9.65849913
_cell_angle_alpha   85.95958664
_cell_angle_beta   90.00000000
_cell_angle_gamma   90.00000000
_symmetry_Int_Tables_number   1
_chemical_formula_structural   Ag3(NO3)4
_chemical_formula_sum   'Ag6 N8 O24'
_cell_volume   576.44076823
_cell_formula_units_Z   2
loop_
 _symmetry_equiv_pos_site_id
 _symmetry_equiv_pos_as_xyz
  1  'x, y, z'
loop_
 _atom_site_type_symbol
 _atom_site_label
 _atom_site_symmetry_multiplicity
 _atom_site_fract_x
 _atom_site_fract_y
 _atom_site_fract_z
 _atom_site_occupancy
  Ag  Ag0  1  0.937843  0.736774  0.400998  1
  Ag  Ag1  1  0.437843  0.263226  0.099002  1
  Ag  Ag2  1  0.062157  0.263226  0.599002  1
  Ag  Ag3  1  0.562157  0.736774  0.900998  1
  Ag  Ag4  1  0.500000  0.000000  0.500000  1
  Ag  Ag5  1  0.000000  0.000000  0.000000  1
  N  N6  1  0.621205  0.862241  0.226948  1
  N  N7  1  0.121205  0.137759  0.273052  1
  N  N8  1  0.378795  0.137759  0.773052  1
  N  N9  1  0.878795  0.862241  0.726948  1
  N  N10  1  0.727142  0.321190  0.443185  1
  N  N11  1  0.227142  0.678810  0.056815  1
  N  N12  1  0.272858  0.678810  0.556815  1
  N  N13  1  0.772858  0.321190  0.943185  1
  O  O14  1  0.669422  0.855065  0.357033  1
  O  O15  1  0.169422  0.144935  0.142967  1
  O  O16  1  0.330578  0.144935  0.642967  1
  O  O17  1  0.830578  0.855065  0.857033  1
  O  O18  1  0.711470  0.787619  0.142998  1
  O  O19  1  0.211470  0.212381  0.357002  1
  O  O20  1  0.288530  0.212381  0.857002  1
  O  O21  1  0.788530  0.787619  0.642998  1
  O  O22  1  0.988600  0.058214  0.305192  1
  O  O23  1  0.488600  0.941786  0.194808  1
  O  O24  1  0.011400  0.941786  0.694808  1
  O  O25  1  0.511400  0.058214  0.805192  1
  O  O26  1  0.714282  0.181402  0.530482  1
  O  O27  1  0.214282  0.818598  0.969518  1
  O  O28  1  0.285718  0.818598  0.469518  1
  O  O29  1  0.785718  0.181402  0.030482  1
  O  O30  1  0.138547  0.588522  0.548646  1
  O  O31  1  0.638547  0.411478  0.951354  1
  O  O32  1  0.861453  0.411478  0.451354  1
  O  O33  1  0.361453  0.588522  0.048646  1
  O  O34  1  0.117176  0.635882  0.142016  1
  O  O35  1  0.617176  0.364118  0.357984  1
  O  O36  1  0.882824  0.364118  0.857984  1
  O  O37  1  0.382824  0.635882  0.642016  1
