# generated using pymatgen
data_Hf18Ta2FeCuRe6
_symmetry_space_group_name_H-M   'P 1'
_cell_length_a   8.46268800
_cell_length_b   8.67044007
_cell_length_c   8.67044000
_cell_angle_alpha   120.00153126
_cell_angle_beta   90.00000000
_cell_angle_gamma   90.00000000
_symmetry_Int_Tables_number   1
_chemical_formula_structural   Hf18Ta2FeCuRe6
_chemical_formula_sum   'Hf18 Ta2 Fe1 Cu1 Re6'
_cell_volume   550.95298214
_cell_formula_units_Z   1
loop_
 _symmetry_equiv_pos_site_id
 _symmetry_equiv_pos_as_xyz
  1  'x, y, z'
loop_
 _atom_site_type_symbol
 _atom_site_label
 _atom_site_symmetry_multiplicity
 _atom_site_fract_x
 _atom_site_fract_y
 _atom_site_fract_z
 _atom_site_occupancy
  Hf  Hf0  1  0.555138  0.802471  0.604934  1
  Hf  Hf1  1  0.555154  0.802457  0.197543  1
  Hf  Hf2  1  0.555138  0.395066  0.197529  1
  Hf  Hf3  1  0.440298  0.202065  0.404147  1
  Hf  Hf4  1  0.440284  0.202084  0.797916  1
  Hf  Hf5  1  0.440298  0.595853  0.797935  1
  Hf  Hf6  1  0.059702  0.202065  0.404147  1
  Hf  Hf7  1  0.059716  0.202084  0.797916  1
  Hf  Hf8  1  0.059702  0.595853  0.797935  1
  Hf  Hf9  1  0.944862  0.802471  0.604934  1
  Hf  Hf10  1  0.944846  0.802457  0.197543  1
  Hf  Hf11  1  0.944862  0.395066  0.197529  1
  Hf  Hf12  1  0.750000  0.457996  0.916024  1
  Hf  Hf13  1  0.750000  0.458004  0.541996  1
  Hf  Hf14  1  0.750000  0.083976  0.542003  1
  Hf  Hf15  1  0.250000  0.540941  0.081863  1
  Hf  Hf16  1  0.250000  0.540943  0.459057  1
  Hf  Hf17  1  0.250000  0.918137  0.459058  1
  Ta  Ta18  1  0.499073  0.000001  0.999999  1
  Ta  Ta19  1  0.000927  0.000001  0.999999  1
  Fe  Fe20  1  0.250000  0.333350  0.666650  1
  Cu  Cu21  1  0.750000  0.666652  0.333348  1
  Re  Re22  1  0.750000  0.113863  0.227734  1
  Re  Re23  1  0.750000  0.113861  0.886139  1
  Re  Re24  1  0.750000  0.772266  0.886137  1
  Re  Re25  1  0.250000  0.885984  0.771936  1
  Re  Re26  1  0.250000  0.885968  0.114032  1
  Re  Re27  1  0.250000  0.228064  0.114016  1
