# generated using pymatgen
data_HoEr11InCo4Os
_symmetry_space_group_name_H-M   'P 1'
_cell_length_a   8.20696463
_cell_length_b   8.20696441
_cell_length_c   8.20690009
_cell_angle_alpha   111.54342292
_cell_angle_beta   110.59792927
_cell_angle_gamma   106.31938835
_symmetry_Int_Tables_number   1
_chemical_formula_structural   HoEr11InCo4Os
_chemical_formula_sum   'Ho1 Er11 In1 Co4 Os1'
_cell_volume   424.53085015
_cell_formula_units_Z   1
loop_
 _symmetry_equiv_pos_site_id
 _symmetry_equiv_pos_as_xyz
  1  'x, y, z'
loop_
 _atom_site_type_symbol
 _atom_site_label
 _atom_site_symmetry_multiplicity
 _atom_site_fract_x
 _atom_site_fract_y
 _atom_site_fract_z
 _atom_site_occupancy
  Ho  Ho0  1  0.182097  0.279673  0.461769  1
  Er  Er1  1  0.818209  0.720548  0.538756  1
  Er  Er2  1  0.181810  0.720665  0.902474  1
  Er  Er3  1  0.817913  0.279453  0.097367  1
  Er  Er4  1  0.314480  0.619223  0.304505  1
  Er  Er5  1  0.685751  0.380918  0.695428  1
  Er  Er6  1  0.314509  0.009677  0.695428  1
  Er  Er7  1  0.685282  0.990024  0.304505  1
  Er  Er8  1  0.416846  0.221173  0.195309  1
  Er  Er9  1  0.583450  0.778971  0.804730  1
  Er  Er10  1  0.025759  0.221279  0.804730  1
  Er  Er11  1  0.974135  0.778462  0.195309  1
  In  In12  1  0.500074  0.500060  0.000134  1
  Co  Co13  1  0.111678  0.612004  0.500038  1
  Co  Co14  1  0.888034  0.388360  0.500038  1
  Co  Co15  1  0.376823  0.999837  0.376659  1
  Co  Co16  1  0.623271  0.000027  0.623299  1
  Os  Os17  1  0.999877  0.999644  0.999521  1
