# generated using pymatgen
data_MoRu2Rh4W
_symmetry_space_group_name_H-M   'P 1'
_cell_length_a   5.50549163
_cell_length_b   5.52986027
_cell_length_c   4.39158600
_cell_angle_alpha   90.00000000
_cell_angle_beta   90.00000000
_cell_angle_gamma   120.12645662
_symmetry_Int_Tables_number   1
_chemical_formula_structural   MoRu2Rh4W
_chemical_formula_sum   'Mo1 Ru2 Rh4 W1'
_cell_volume   115.63983717
_cell_formula_units_Z   1
loop_
 _symmetry_equiv_pos_site_id
 _symmetry_equiv_pos_as_xyz
  1  'x, y, z'
loop_
 _atom_site_type_symbol
 _atom_site_label
 _atom_site_symmetry_multiplicity
 _atom_site_fract_x
 _atom_site_fract_y
 _atom_site_fract_z
 _atom_site_occupancy
  Mo  Mo0  1  0.670602  0.338135  0.750000  1
  Ru  Ru1  1  0.834700  0.666685  0.250000  1
  Ru  Ru2  1  0.165346  0.832421  0.750000  1
  Rh  Rh3  1  0.668248  0.834341  0.750000  1
  Rh  Rh4  1  0.333852  0.165660  0.250000  1
  Rh  Rh5  1  0.831609  0.165686  0.250000  1
  Rh  Rh6  1  0.166453  0.331822  0.750000  1
  W  W7  1  0.329189  0.665252  0.250000  1
