# generated using pymatgen
data_UI11
_symmetry_space_group_name_H-M   'P 1'
_cell_length_a   8.47319757
_cell_length_b   9.03699853
_cell_length_c   9.49399454
_cell_angle_alpha   90.95857478
_cell_angle_beta   89.40083066
_cell_angle_gamma   107.49749288
_symmetry_Int_Tables_number   1
_chemical_formula_structural   UI11
_chemical_formula_sum   'U1 I11'
_cell_volume   693.23135610
_cell_formula_units_Z   1
loop_
 _symmetry_equiv_pos_site_id
 _symmetry_equiv_pos_as_xyz
  1  'x, y, z'
loop_
 _atom_site_type_symbol
 _atom_site_label
 _atom_site_symmetry_multiplicity
 _atom_site_fract_x
 _atom_site_fract_y
 _atom_site_fract_z
 _atom_site_occupancy
  U  U0  1  0.000000  0.500000  0.500000  1
  I  I1  1  0.000000  0.000000  0.000000  1
  I  I2  1  0.687913  0.785707  0.894447  1
  I  I3  1  0.312087  0.214293  0.105553  1
  I  I4  1  0.665599  0.268742  0.561624  1
  I  I5  1  0.334401  0.731258  0.438376  1
  I  I6  1  0.502971  0.749578  0.151480  1
  I  I7  1  0.497029  0.250422  0.848520  1
  I  I8  1  0.859683  0.756944  0.529506  1
  I  I9  1  0.140317  0.243056  0.470494  1
  I  I10  1  0.904091  0.466858  0.207594  1
  I  I11  1  0.095909  0.533142  0.792406  1
