# generated using pymatgen
data_Y2Er3MoRuO12
_symmetry_space_group_name_H-M   'P 1'
_cell_length_a   6.79672313
_cell_length_b   6.79672349
_cell_length_c   7.48041332
_cell_angle_alpha   73.89436843
_cell_angle_beta   73.89436637
_cell_angle_gamma   49.77302133
_symmetry_Int_Tables_number   1
_chemical_formula_structural   Y2Er3MoRuO12
_chemical_formula_sum   'Y2 Er3 Mo1 Ru1 O12'
_cell_volume   251.19393516
_cell_formula_units_Z   1
loop_
 _symmetry_equiv_pos_site_id
 _symmetry_equiv_pos_as_xyz
  1  'x, y, z'
loop_
 _atom_site_type_symbol
 _atom_site_label
 _atom_site_symmetry_multiplicity
 _atom_site_fract_x
 _atom_site_fract_y
 _atom_site_fract_z
 _atom_site_occupancy
  Y  Y0  1  0.792535  0.815411  0.358942  1
  Y  Y1  1  0.184589  0.207465  0.641058  1
  Er  Er2  1  0.492832  0.507168  0.500000  1
  Er  Er3  1  0.180511  0.191682  0.174896  1
  Er  Er4  1  0.808318  0.819489  0.825104  1
  Mo  Mo5  1  0.298081  0.701919  0.000000  1
  Ru  Ru6  1  0.736245  0.263755  0.000000  1
  O  O7  1  0.008183  0.992150  0.180143  1
  O  O8  1  0.007850  0.991817  0.819857  1
  O  O9  1  0.504262  0.494297  0.795299  1
  O  O10  1  0.505703  0.495738  0.204701  1
  O  O11  1  0.590466  0.100224  0.577891  1
  O  O12  1  0.899776  0.409534  0.422109  1
  O  O13  1  0.391670  0.909536  0.427361  1
  O  O14  1  0.408536  0.912850  0.917548  1
  O  O15  1  0.087150  0.591464  0.082452  1
  O  O16  1  0.585251  0.072422  0.084059  1
  O  O17  1  0.927578  0.414749  0.915941  1
  O  O18  1  0.090464  0.608330  0.572639  1
