# generated using pymatgen
data_Mn27ReRu
_symmetry_space_group_name_H-M   'P 1'
_cell_length_a   7.48606658
_cell_length_b   7.50395614
_cell_length_c   7.50410159
_cell_angle_alpha   109.51633514
_cell_angle_beta   109.42404930
_cell_angle_gamma   109.42032678
_symmetry_Int_Tables_number   1
_chemical_formula_structural   Mn27ReRu
_chemical_formula_sum   'Mn27 Re1 Ru1'
_cell_volume   324.71621264
_cell_formula_units_Z   1
loop_
 _symmetry_equiv_pos_site_id
 _symmetry_equiv_pos_as_xyz
  1  'x, y, z'
loop_
 _atom_site_type_symbol
 _atom_site_label
 _atom_site_symmetry_multiplicity
 _atom_site_fract_x
 _atom_site_fract_y
 _atom_site_fract_z
 _atom_site_occupancy
  Mn  Mn0  1  0.000954  0.636103  0.000012  1
  Mn  Mn1  1  0.000948  0.000025  0.636128  1
  Mn  Mn2  1  0.364798  0.363846  0.363836  1
  Mn  Mn3  1  0.388246  0.677134  0.000050  1
  Mn  Mn4  1  0.711182  0.322869  0.322892  1
  Mn  Mn5  1  0.388266  0.000030  0.677104  1
  Mn  Mn6  1  0.679440  0.392566  0.000032  1
  Mn  Mn7  1  0.001188  0.391516  0.679332  1
  Mn  Mn8  1  0.321848  0.712216  0.320610  1
  Mn  Mn9  1  0.321876  0.320737  0.712285  1
  Mn  Mn10  1  0.001138  0.679235  0.391406  1
  Mn  Mn11  1  0.679365  0.000037  0.392550  1
  Mn  Mn12  1  0.609625  0.608469  0.287713  1
  Mn  Mn13  1  0.286750  0.607418  0.607412  1
  Mn  Mn14  1  0.609719  0.287786  0.608505  1
  Mn  Mn15  1  0.372661  0.194557  0.000055  1
  Mn  Mn16  1  0.178100  0.805462  0.805552  1
  Mn  Mn17  1  0.372591  0.999968  0.194485  1
  Mn  Mn18  1  0.193161  0.373815  0.000001  1
  Mn  Mn19  1  0.002602  0.376554  0.196127  1
  Mn  Mn20  1  0.806552  0.180505  0.803884  1
  Mn  Mn21  1  0.806493  0.803806  0.180396  1
  Mn  Mn22  1  0.002601  0.196151  0.376558  1
  Mn  Mn23  1  0.193197  0.999949  0.373703  1
  Mn  Mn24  1  0.626147  0.623429  0.819649  1
  Mn  Mn25  1  0.819427  0.626171  0.626221  1
  Mn  Mn26  1  0.626098  0.819572  0.623399  1
  Re  Re27  1  0.997911  0.999992  0.999985  1
  Ru  Ru28  1  0.637115  0.000084  0.000114  1
