# generated using pymatgen
data_CeEr5Al24(Os3Ru)2
_symmetry_space_group_name_H-M   'P 1'
_cell_length_a   8.84445300
_cell_length_b   8.82763903
_cell_length_c   9.55180700
_cell_angle_alpha   90.00000000
_cell_angle_beta   90.00000000
_cell_angle_gamma   120.06302313
_symmetry_Int_Tables_number   1
_chemical_formula_structural   CeEr5Al24(Os3Ru)2
_chemical_formula_sum   'Ce1 Er5 Al24 Os6 Ru2'
_cell_volume   645.43952976
_cell_formula_units_Z   1
loop_
 _symmetry_equiv_pos_site_id
 _symmetry_equiv_pos_as_xyz
  1  'x, y, z'
loop_
 _atom_site_type_symbol
 _atom_site_label
 _atom_site_symmetry_multiplicity
 _atom_site_fract_x
 _atom_site_fract_y
 _atom_site_fract_z
 _atom_site_occupancy
  Ce  Ce0  1  0.194770  0.389539  0.250000  1
  Er  Er1  1  0.807895  0.615791  0.750000  1
  Er  Er2  1  0.193082  0.803126  0.250000  1
  Er  Er3  1  0.610045  0.803126  0.250000  1
  Er  Er4  1  0.387317  0.192812  0.750000  1
  Er  Er5  1  0.805494  0.192812  0.750000  1
  Al  Al6  1  0.334488  0.668976  0.484957  1
  Al  Al7  1  0.667273  0.334546  0.982677  1
  Al  Al8  1  0.667273  0.334546  0.517323  1
  Al  Al9  1  0.334488  0.668976  0.015043  1
  Al  Al10  1  0.161798  0.323596  0.578645  1
  Al  Al11  1  0.676592  0.838198  0.576869  1
  Al  Al12  1  0.161607  0.838198  0.576869  1
  Al  Al13  1  0.836429  0.161046  0.076670  1
  Al  Al14  1  0.836429  0.161046  0.423330  1
  Al  Al15  1  0.837692  0.675386  0.075823  1
  Al  Al16  1  0.324616  0.161046  0.076670  1
  Al  Al17  1  0.676592  0.838198  0.923131  1
  Al  Al18  1  0.161798  0.323596  0.921355  1
  Al  Al19  1  0.837692  0.675386  0.424177  1
  Al  Al20  1  0.999037  0.998073  0.250000  1
  Al  Al21  1  0.001031  0.002062  0.750000  1
  Al  Al22  1  0.560092  0.120183  0.250000  1
  Al  Al23  1  0.440298  0.559840  0.750000  1
  Al  Al24  1  0.119542  0.559840  0.750000  1
  Al  Al25  1  0.874877  0.438060  0.250000  1
  Al  Al26  1  0.563183  0.438060  0.250000  1
  Al  Al27  1  0.439465  0.878930  0.750000  1
  Al  Al28  1  0.161607  0.838198  0.923131  1
  Al  Al29  1  0.324616  0.161046  0.423330  1
  Os  Os30  1  0.500967  0.001933  0.501998  1
  Os  Os31  1  0.500147  0.500736  0.000828  1
  Os  Os32  1  0.000589  0.500736  0.000828  1
  Os  Os33  1  0.000589  0.500736  0.499172  1
  Os  Os34  1  0.500147  0.500736  0.499172  1
  Os  Os35  1  0.500967  0.001933  0.998002  1
  Ru  Ru36  1  0.999738  0.999476  0.500280  1
  Ru  Ru37  1  0.999738  0.999476  0.999720  1
