# generated using pymatgen
data_Hf3TiGa3Mo
_symmetry_space_group_name_H-M   'P 1'
_cell_length_a   7.87678200
_cell_length_b   7.87678173
_cell_length_c   5.35269300
_cell_angle_alpha   90.00000000
_cell_angle_beta   90.00000000
_cell_angle_gamma   120.00000114
_symmetry_Int_Tables_number   1
_chemical_formula_structural   Hf3TiGa3Mo
_chemical_formula_sum   'Hf6 Ti2 Ga6 Mo2'
_cell_volume   287.60775972
_cell_formula_units_Z   2
loop_
 _symmetry_equiv_pos_site_id
 _symmetry_equiv_pos_as_xyz
  1  'x, y, z'
loop_
 _atom_site_type_symbol
 _atom_site_label
 _atom_site_symmetry_multiplicity
 _atom_site_fract_x
 _atom_site_fract_y
 _atom_site_fract_z
 _atom_site_occupancy
  Hf  Hf0  1  0.244654  0.000000  0.245235  1
  Hf  Hf1  1  0.755346  0.000000  0.754765  1
  Hf  Hf2  1  0.000000  0.244654  0.245235  1
  Hf  Hf3  1  0.000000  0.755346  0.754765  1
  Hf  Hf4  1  0.755346  0.755346  0.245235  1
  Hf  Hf5  1  0.244654  0.244654  0.754765  1
  Ti  Ti6  1  0.666667  0.333333  0.500000  1
  Ti  Ti7  1  0.333333  0.666667  0.500000  1
  Ga  Ga8  1  0.598439  0.000000  0.248292  1
  Ga  Ga9  1  0.401561  0.000000  0.751708  1
  Ga  Ga10  1  0.000000  0.598439  0.248292  1
  Ga  Ga11  1  0.000000  0.401561  0.751708  1
  Ga  Ga12  1  0.401561  0.401561  0.248292  1
  Ga  Ga13  1  0.598439  0.598439  0.751708  1
  Mo  Mo14  1  0.333333  0.666667  0.000000  1
  Mo  Mo15  1  0.666667  0.333333  0.000000  1
