# generated using pymatgen
data_YbDyHo2(Mo2O7)2
_symmetry_space_group_name_H-M   'P 1'
_cell_length_a   7.28736624
_cell_length_b   7.28985189
_cell_length_c   7.40492417
_cell_angle_alpha   60.53481618
_cell_angle_beta   60.52378960
_cell_angle_gamma   60.01128446
_symmetry_Int_Tables_number   1
_chemical_formula_structural   YbDyHo2(Mo2O7)2
_chemical_formula_sum   'Yb1 Dy1 Ho2 Mo4 O14'
_cell_volume   280.38908906
_cell_formula_units_Z   1
loop_
 _symmetry_equiv_pos_site_id
 _symmetry_equiv_pos_as_xyz
  1  'x, y, z'
loop_
 _atom_site_type_symbol
 _atom_site_label
 _atom_site_symmetry_multiplicity
 _atom_site_fract_x
 _atom_site_fract_y
 _atom_site_fract_z
 _atom_site_occupancy
  Yb  Yb0  1  0.125000  0.125000  0.625000  1
  Dy  Dy1  1  0.125000  0.625000  0.125000  1
  Ho  Ho2  1  0.625000  0.125000  0.125000  1
  Ho  Ho3  1  0.125000  0.125000  0.125000  1
  Mo  Mo4  1  0.125000  0.625000  0.625000  1
  Mo  Mo5  1  0.625000  0.125000  0.625000  1
  Mo  Mo6  1  0.625000  0.625000  0.125000  1
  Mo  Mo7  1  0.625000  0.625000  0.625000  1
  O  O8  1  0.708920  0.709461  0.285549  1
  O  O9  1  0.287573  0.287712  0.725398  1
  O  O10  1  0.699315  0.287712  0.725398  1
  O  O11  1  0.296070  0.709461  0.285549  1
  O  O12  1  0.287788  0.699568  0.724854  1
  O  O13  1  0.709276  0.296023  0.285425  1
  O  O14  1  0.541080  0.540539  0.964451  1
  O  O15  1  0.962427  0.962288  0.524602  1
  O  O16  1  0.550685  0.962288  0.524602  1
  O  O17  1  0.953930  0.540539  0.964451  1
  O  O18  1  0.962212  0.550432  0.525146  1
  O  O19  1  0.540724  0.953977  0.964575  1
  O  O20  1  0.252924  0.251080  0.243071  1
  O  O21  1  0.997076  0.998920  0.006929  1
