# generated using pymatgen
data_HoEr3(Ga10Tc3)2
_symmetry_space_group_name_H-M   'P 1'
_cell_length_a   9.05117000
_cell_length_b   9.05117000
_cell_length_c   6.32485600
_cell_angle_alpha   90.00000000
_cell_angle_beta   90.00000000
_cell_angle_gamma   90.00254474
_symmetry_Int_Tables_number   1
_chemical_formula_structural   HoEr3(Ga10Tc3)2
_chemical_formula_sum   'Ho1 Er3 Ga20 Tc6'
_cell_volume   518.15546842
_cell_formula_units_Z   1
loop_
 _symmetry_equiv_pos_site_id
 _symmetry_equiv_pos_as_xyz
  1  'x, y, z'
loop_
 _atom_site_type_symbol
 _atom_site_label
 _atom_site_symmetry_multiplicity
 _atom_site_fract_x
 _atom_site_fract_y
 _atom_site_fract_z
 _atom_site_occupancy
  Ho  Ho0  1  0.683016  0.183016  0.000000  1
  Er  Er1  1  0.316978  0.816978  0.000000  1
  Er  Er2  1  0.816979  0.683019  0.000000  1
  Er  Er3  1  0.183019  0.316979  0.000000  1
  Ga  Ga4  1  0.939937  0.205223  0.292068  1
  Ga  Ga5  1  0.705223  0.439937  0.292068  1
  Ga  Ga6  1  0.499985  0.999985  0.288970  1
  Ga  Ga7  1  0.560084  0.705220  0.707953  1
  Ga  Ga8  1  0.294781  0.560086  0.707954  1
  Ga  Ga9  1  0.794786  0.939901  0.292064  1
  Ga  Ga10  1  0.939937  0.205223  0.707932  1
  Ga  Ga11  1  0.294781  0.560086  0.292046  1
  Ga  Ga12  1  0.060086  0.794781  0.292046  1
  Ga  Ga13  1  0.705223  0.439937  0.707932  1
  Ga  Ga14  1  0.439901  0.294786  0.707936  1
  Ga  Ga15  1  0.060086  0.794781  0.707954  1
  Ga  Ga16  1  0.205220  0.060084  0.707953  1
  Ga  Ga17  1  0.794786  0.939901  0.707936  1
  Ga  Ga18  1  0.205220  0.060084  0.292047  1
  Ga  Ga19  1  0.999999  0.499999  0.711059  1
  Ga  Ga20  1  0.999999  0.499999  0.288941  1
  Ga  Ga21  1  0.560084  0.705220  0.292047  1
  Ga  Ga22  1  0.439901  0.294786  0.292064  1
  Ga  Ga23  1  0.499985  0.999985  0.711030  1
  Tc  Tc24  1  0.679209  0.179209  0.500000  1
  Tc  Tc25  1  0.820791  0.679213  0.500000  1
  Tc  Tc26  1  0.179213  0.320791  0.500000  1
  Tc  Tc27  1  0.000021  0.999985  0.000000  1
  Tc  Tc28  1  0.320786  0.820786  0.500000  1
  Tc  Tc29  1  0.499985  0.500021  0.000000  1
