# generated using pymatgen
data_Nd4Si7Tc16Ge
_symmetry_space_group_name_H-M   'P 1'
_cell_length_a   4.18432400
_cell_length_b   7.28716828
_cell_length_c   15.46901197
_cell_angle_alpha   90.00872226
_cell_angle_beta   90.00000000
_cell_angle_gamma   90.00000000
_symmetry_Int_Tables_number   1
_chemical_formula_structural   Nd4Si7Tc16Ge
_chemical_formula_sum   'Nd4 Si7 Tc16 Ge1'
_cell_volume   471.67914513
_cell_formula_units_Z   1
loop_
 _symmetry_equiv_pos_site_id
 _symmetry_equiv_pos_as_xyz
  1  'x, y, z'
loop_
 _atom_site_type_symbol
 _atom_site_label
 _atom_site_symmetry_multiplicity
 _atom_site_fract_x
 _atom_site_fract_y
 _atom_site_fract_z
 _atom_site_occupancy
  Nd  Nd0  1  0.000000  0.580107  0.116870  1
  Nd  Nd1  1  0.000000  0.418120  0.883070  1
  Nd  Nd2  1  0.500000  0.084182  0.381785  1
  Nd  Nd3  1  0.500000  0.920935  0.619221  1
  Si  Si4  1  0.000000  0.182740  0.526343  1
  Si  Si5  1  0.500000  0.322614  0.024961  1
  Si  Si6  1  0.500000  0.675515  0.974838  1
  Si  Si7  1  0.000000  0.294601  0.271880  1
  Si  Si8  1  0.000000  0.703556  0.727266  1
  Si  Si9  1  0.500000  0.794007  0.226942  1
  Si  Si10  1  0.500000  0.204656  0.773757  1
  Tc  Tc11  1  0.000000  0.136971  0.052517  1
  Tc  Tc12  1  0.000000  0.860954  0.947700  1
  Tc  Tc13  1  0.500000  0.634658  0.445885  1
  Tc  Tc14  1  0.500000  0.363174  0.552379  1
  Tc  Tc15  1  0.000000  0.729237  0.318877  1
  Tc  Tc16  1  0.000000  0.270016  0.681036  1
  Tc  Tc17  1  0.500000  0.229504  0.179403  1
  Tc  Tc18  1  0.500000  0.768592  0.820184  1
  Tc  Tc19  1  0.000000  0.434926  0.417937  1
  Tc  Tc20  1  0.000000  0.562323  0.581167  1
  Tc  Tc21  1  0.500000  0.934861  0.081254  1
  Tc  Tc22  1  0.500000  0.062857  0.919012  1
  Tc  Tc23  1  0.000000  0.989171  0.205564  1
  Tc  Tc24  1  0.000000  0.008153  0.794393  1
  Tc  Tc25  1  0.500000  0.489025  0.293056  1
  Tc  Tc26  1  0.500000  0.508779  0.706471  1
  Ge  Ge27  1  0.000000  0.835765  0.476232  1
