# generated using pymatgen
data_Tm6Lu6AlCo4Sn
_symmetry_space_group_name_H-M   'P 1'
_cell_length_a   8.15623684
_cell_length_b   8.15623736
_cell_length_c   8.15082826
_cell_angle_alpha   112.01491610
_cell_angle_beta   109.62990484
_cell_angle_gamma   106.83880924
_symmetry_Int_Tables_number   1
_chemical_formula_structural   Tm6Lu6AlCo4Sn
_chemical_formula_sum   'Tm6 Lu6 Al1 Co4 Sn1'
_cell_volume   416.40769531
_cell_formula_units_Z   1
loop_
 _symmetry_equiv_pos_site_id
 _symmetry_equiv_pos_as_xyz
  1  'x, y, z'
loop_
 _atom_site_type_symbol
 _atom_site_label
 _atom_site_symmetry_multiplicity
 _atom_site_fract_x
 _atom_site_fract_y
 _atom_site_fract_z
 _atom_site_occupancy
  Tm  Tm0  1  0.438812  0.234642  0.202738  1
  Tm  Tm1  1  0.561188  0.765358  0.797262  1
  Tm  Tm2  1  0.031903  0.236074  0.797262  1
  Tm  Tm3  1  0.968097  0.763926  0.202738  1
  Tm  Tm4  1  0.181160  0.281092  0.462253  1
  Tm  Tm5  1  0.818840  0.718908  0.537747  1
  Lu  Lu6  1  0.181104  0.719455  0.900559  1
  Lu  Lu7  1  0.818896  0.280545  0.099441  1
  Lu  Lu8  1  0.324322  0.637768  0.312765  1
  Lu  Lu9  1  0.675678  0.362232  0.687235  1
  Lu  Lu10  1  0.325004  0.011557  0.687235  1
  Lu  Lu11  1  0.674996  0.988443  0.312765  1
  Al  Al12  1  0.000000  0.000000  0.000000  1
  Co  Co13  1  0.339263  0.999238  0.338503  1
  Co  Co14  1  0.660737  0.000762  0.661497  1
  Co  Co15  1  0.115665  0.615665  0.500000  1
  Co  Co16  1  0.884335  0.384335  0.500000  1
  Sn  Sn17  1  0.500000  0.500000  0.000000  1
