# generated using pymatgen
data_Dy2Ho2Al18PtRh5
_symmetry_space_group_name_H-M   'P 1'
_cell_length_a   7.56107203
_cell_length_b   7.56069816
_cell_length_c   9.45666200
_cell_angle_alpha   89.99342128
_cell_angle_beta   89.99517590
_cell_angle_gamma   119.52713269
_symmetry_Int_Tables_number   1
_chemical_formula_structural   Dy2Ho2Al18PtRh5
_chemical_formula_sum   'Dy2 Ho2 Al18 Pt1 Rh5'
_cell_volume   470.39585625
_cell_formula_units_Z   1
loop_
 _symmetry_equiv_pos_site_id
 _symmetry_equiv_pos_as_xyz
  1  'x, y, z'
loop_
 _atom_site_type_symbol
 _atom_site_label
 _atom_site_symmetry_multiplicity
 _atom_site_fract_x
 _atom_site_fract_y
 _atom_site_fract_z
 _atom_site_occupancy
  Dy  Dy0  1  0.670717  0.995759  0.749758  1
  Dy  Dy1  1  0.330612  0.005603  0.249972  1
  Ho  Ho2  1  0.994416  0.669424  0.750029  1
  Ho  Ho3  1  0.004223  0.329273  0.250239  1
  Al  Al4  1  0.126739  0.126013  0.750270  1
  Al  Al5  1  0.873927  0.873268  0.249730  1
  Al  Al6  1  0.004493  0.335070  0.576309  1
  Al  Al7  1  0.002667  0.668659  0.423806  1
  Al  Al8  1  0.000293  0.665111  0.074502  1
  Al  Al9  1  0.334796  0.999669  0.925427  1
  Al  Al10  1  0.000970  0.334704  0.925115  1
  Al  Al11  1  0.665383  0.999068  0.074903  1
  Al  Al12  1  0.665012  0.995542  0.423674  1
  Al  Al13  1  0.331249  0.997291  0.576266  1
  Al  Al14  1  0.332559  0.332599  0.051309  1
  Al  Al15  1  0.667431  0.667409  0.948677  1
  Al  Al16  1  0.666499  0.669742  0.553563  1
  Al  Al17  1  0.330218  0.333531  0.446451  1
  Al  Al18  1  0.339834  0.550120  0.750277  1
  Al  Al19  1  0.660567  0.453922  0.246805  1
  Al  Al20  1  0.546156  0.339502  0.753191  1
  Al  Al21  1  0.449865  0.660101  0.249724  1
  Pt  Pt22  1  0.672315  0.327706  0.499981  1
  Rh  Rh23  1  0.328157  0.671817  0.499980  1
  Rh  Rh24  1  0.328370  0.671579  0.000020  1
  Rh  Rh25  1  0.672271  0.327779  0.000021  1
  Rh  Rh26  1  0.000062  0.999938  0.499980  1
  Rh  Rh27  1  0.000200  0.999801  0.000020  1
