# generated using pymatgen
data_LiAl2ZnPd8
_symmetry_space_group_name_H-M   'P 1'
_cell_length_a   4.13973800
_cell_length_b   5.41295580
_cell_length_c   7.86360771
_cell_angle_alpha   89.57188271
_cell_angle_beta   90.00000000
_cell_angle_gamma   90.00000000
_symmetry_Int_Tables_number   1
_chemical_formula_structural   LiAl2ZnPd8
_chemical_formula_sum   'Li1 Al2 Zn1 Pd8'
_cell_volume   176.20452345
_cell_formula_units_Z   1
loop_
 _symmetry_equiv_pos_site_id
 _symmetry_equiv_pos_as_xyz
  1  'x, y, z'
loop_
 _atom_site_type_symbol
 _atom_site_label
 _atom_site_symmetry_multiplicity
 _atom_site_fract_x
 _atom_site_fract_y
 _atom_site_fract_z
 _atom_site_occupancy
  Li  Li0  1  0.750000  0.816442  0.897057  1
  Al  Al1  1  0.250000  0.179767  0.094115  1
  Al  Al2  1  0.250000  0.688681  0.399352  1
  Zn  Zn3  1  0.750000  0.307318  0.607918  1
  Pd  Pd4  1  0.750000  0.463095  0.281930  1
  Pd  Pd5  1  0.250000  0.546013  0.721018  1
  Pd  Pd6  1  0.750000  0.963716  0.218522  1
  Pd  Pd7  1  0.250000  0.043408  0.779280  1
  Pd  Pd8  1  0.750000  0.333145  0.937515  1
  Pd  Pd9  1  0.250000  0.666890  0.072006  1
  Pd  Pd10  1  0.750000  0.825137  0.564713  1
  Pd  Pd11  1  0.250000  0.166386  0.426574  1
