# generated using pymatgen
data_TmLu2Si3Ru2
_symmetry_space_group_name_H-M   'P 1'
_cell_length_a   5.64488109
_cell_length_b   5.64488014
_cell_length_c   13.57597600
_cell_angle_alpha   90.00000000
_cell_angle_beta   90.00000000
_cell_angle_gamma   136.96254295
_symmetry_Int_Tables_number   1
_chemical_formula_structural   TmLu2Si3Ru2
_chemical_formula_sum   'Tm2 Lu4 Si6 Ru4'
_cell_volume   295.23523087
_cell_formula_units_Z   2
loop_
 _symmetry_equiv_pos_site_id
 _symmetry_equiv_pos_as_xyz
  1  'x, y, z'
loop_
 _atom_site_type_symbol
 _atom_site_label
 _atom_site_symmetry_multiplicity
 _atom_site_fract_x
 _atom_site_fract_y
 _atom_site_fract_z
 _atom_site_occupancy
  Tm  Tm0  1  0.643494  0.356506  0.250000  1
  Tm  Tm1  1  0.356506  0.643494  0.750000  1
  Lu  Lu2  1  0.924302  0.075698  0.385736  1
  Lu  Lu3  1  0.075698  0.924302  0.614264  1
  Lu  Lu4  1  0.924302  0.075698  0.114264  1
  Lu  Lu5  1  0.075698  0.924302  0.885736  1
  Si  Si6  1  0.614696  0.385304  0.461792  1
  Si  Si7  1  0.385304  0.614696  0.538208  1
  Si  Si8  1  0.614696  0.385304  0.038208  1
  Si  Si9  1  0.385304  0.614696  0.961792  1
  Si  Si10  1  0.333436  0.666564  0.250000  1
  Si  Si11  1  0.666564  0.333436  0.750000  1
  Ru  Ru12  1  0.787541  0.212459  0.918210  1
  Ru  Ru13  1  0.212459  0.787541  0.081790  1
  Ru  Ru14  1  0.787541  0.212459  0.581790  1
  Ru  Ru15  1  0.212459  0.787541  0.418210  1
