# generated using pymatgen
data_Hf5ZrAl16Ir2Pt5
_symmetry_space_group_name_H-M   'P 1'
_cell_length_a   8.75678001
_cell_length_b   8.75122547
_cell_length_c   8.75122473
_cell_angle_alpha   60.04200329
_cell_angle_beta   59.97901197
_cell_angle_gamma   59.97900421
_symmetry_Int_Tables_number   1
_chemical_formula_structural   Hf5ZrAl16Ir2Pt5
_chemical_formula_sum   'Hf5 Zr1 Al16 Ir2 Pt5'
_cell_volume   474.20580376
_cell_formula_units_Z   1
loop_
 _symmetry_equiv_pos_site_id
 _symmetry_equiv_pos_as_xyz
  1  'x, y, z'
loop_
 _atom_site_type_symbol
 _atom_site_label
 _atom_site_symmetry_multiplicity
 _atom_site_fract_x
 _atom_site_fract_y
 _atom_site_fract_z
 _atom_site_occupancy
  Hf  Hf0  1  0.317426  0.682574  0.682574  1
  Hf  Hf1  1  0.318668  0.681332  0.319349  1
  Hf  Hf2  1  0.680651  0.319349  0.681332  1
  Hf  Hf3  1  0.318668  0.319349  0.681332  1
  Hf  Hf4  1  0.680651  0.681332  0.319349  1
  Zr  Zr5  1  0.686419  0.313581  0.313581  1
  Al  Al6  1  0.335182  0.337753  0.337753  1
  Al  Al7  1  0.664117  0.662261  0.662261  1
  Al  Al8  1  0.337739  0.335883  0.988639  1
  Al  Al9  1  0.337739  0.988639  0.335883  1
  Al  Al10  1  0.662247  0.664818  0.010689  1
  Al  Al11  1  0.662247  0.010689  0.664818  1
  Al  Al12  1  0.989311  0.337753  0.337753  1
  Al  Al13  1  0.011361  0.662261  0.662261  1
  Al  Al14  1  0.125858  0.118024  0.118024  1
  Al  Al15  1  0.874506  0.882057  0.882057  1
  Al  Al16  1  0.117943  0.125494  0.638620  1
  Al  Al17  1  0.117943  0.638620  0.125494  1
  Al  Al18  1  0.881976  0.874142  0.361907  1
  Al  Al19  1  0.881976  0.361907  0.874142  1
  Al  Al20  1  0.638093  0.118024  0.118024  1
  Al  Al21  1  0.361380  0.882057  0.882057  1
  Ir  Ir22  1  0.499770  0.000230  0.000230  1
  Ir  Ir23  1  0.999770  0.500230  0.500230  1
  Pt  Pt24  1  0.000167  0.500746  0.999833  1
  Pt  Pt25  1  0.499254  0.999833  0.500746  1
  Pt  Pt26  1  0.000167  0.999833  0.500746  1
  Pt  Pt27  1  0.499254  0.500746  0.999833  1
  Pt  Pt28  1  0.999518  0.000482  0.000482  1
