# generated using pymatgen
data_Tb14Dy6Si15Ag
_symmetry_space_group_name_H-M   'P 1'
_cell_length_a   7.49587128
_cell_length_b   7.73124553
_cell_length_c   14.71351654
_cell_angle_alpha   89.81020628
_cell_angle_beta   89.39897219
_cell_angle_gamma   90.16262835
_symmetry_Int_Tables_number   1
_chemical_formula_structural   Tb14Dy6Si15Ag
_chemical_formula_sum   'Tb14 Dy6 Si15 Ag1'
_cell_volume   852.62879899
_cell_formula_units_Z   1
loop_
 _symmetry_equiv_pos_site_id
 _symmetry_equiv_pos_as_xyz
  1  'x, y, z'
loop_
 _atom_site_type_symbol
 _atom_site_label
 _atom_site_symmetry_multiplicity
 _atom_site_fract_x
 _atom_site_fract_y
 _atom_site_fract_z
 _atom_site_occupancy
  Tb  Tb0  1  0.648349  0.991784  0.250173  1
  Tb  Tb1  1  0.149850  0.511118  0.247793  1
  Tb  Tb2  1  0.848192  0.488765  0.749587  1
  Tb  Tb3  1  0.349289  0.011394  0.750093  1
  Tb  Tb4  1  0.976267  0.823748  0.101929  1
  Tb  Tb5  1  0.470946  0.684014  0.400980  1
  Tb  Tb6  1  0.520195  0.314197  0.898370  1
  Tb  Tb7  1  0.030612  0.182598  0.598651  1
  Tb  Tb8  1  0.029976  0.175627  0.899465  1
  Tb  Tb9  1  0.530452  0.316209  0.598466  1
  Tb  Tb10  1  0.473374  0.683118  0.101475  1
  Tb  Tb11  1  0.968379  0.816376  0.399425  1
  Tb  Tb12  1  0.674909  0.825805  0.876304  1
  Tb  Tb13  1  0.181883  0.680401  0.621009  1
  Dy  Dy14  1  0.820595  0.324235  0.124594  1
  Dy  Dy15  1  0.317443  0.178195  0.377524  1
  Dy  Dy16  1  0.323701  0.178820  0.123867  1
  Dy  Dy17  1  0.819249  0.320352  0.377401  1
  Dy  Dy18  1  0.182222  0.675519  0.877788  1
  Dy  Dy19  1  0.682174  0.820998  0.622029  1
  Si  Si20  1  0.765313  0.627926  0.251865  1
  Si  Si21  1  0.266367  0.874279  0.251644  1
  Si  Si22  1  0.734767  0.124850  0.748268  1
  Si  Si23  1  0.232023  0.374313  0.747253  1
  Si  Si24  1  0.023065  0.106609  0.250689  1
  Si  Si25  1  0.524007  0.395109  0.252850  1
  Si  Si26  1  0.474612  0.604440  0.747820  1
  Si  Si27  1  0.975912  0.891582  0.748137  1
  Si  Si28  1  0.356517  0.971857  0.540027  1
  Si  Si29  1  0.650054  0.029520  0.041588  1
  Si  Si30  1  0.145295  0.469930  0.459535  1
  Si  Si31  1  0.158697  0.469807  0.042174  1
  Si  Si32  1  0.645292  0.029055  0.459226  1
  Si  Si33  1  0.350487  0.968543  0.961871  1
  Si  Si34  1  0.855296  0.529697  0.538439  1
  Ag  Ag35  1  0.844235  0.529208  0.961692  1
