# generated using pymatgen
data_LaNd3CdHgPd4
_symmetry_space_group_name_H-M   'P 1'
_cell_length_a   7.87701626
_cell_length_b   7.85940338
_cell_length_c   3.94593600
_cell_angle_alpha   90.00000000
_cell_angle_beta   90.00000000
_cell_angle_gamma   90.35763871
_symmetry_Int_Tables_number   1
_chemical_formula_structural   LaNd3CdHgPd4
_chemical_formula_sum   'La1 Nd3 Cd1 Hg1 Pd4'
_cell_volume   244.28280476
_cell_formula_units_Z   1
loop_
 _symmetry_equiv_pos_site_id
 _symmetry_equiv_pos_as_xyz
  1  'x, y, z'
loop_
 _atom_site_type_symbol
 _atom_site_label
 _atom_site_symmetry_multiplicity
 _atom_site_fract_x
 _atom_site_fract_y
 _atom_site_fract_z
 _atom_site_occupancy
  La  La0  1  0.682062  0.166532  0.500000  1
  Nd  Nd1  1  0.316632  0.833798  0.500000  1
  Nd  Nd2  1  0.165758  0.317994  0.500000  1
  Nd  Nd3  1  0.835684  0.682542  0.500000  1
  Cd  Cd4  1  0.498900  0.501616  0.000000  1
  Hg  Hg5  1  0.001971  0.998456  0.000000  1
  Pd  Pd6  1  0.135843  0.618145  0.000000  1
  Pd  Pd7  1  0.863688  0.381338  0.000000  1
  Pd  Pd8  1  0.618506  0.863274  0.000000  1
  Pd  Pd9  1  0.380955  0.136305  0.000000  1
