# generated using pymatgen
data_Tm3Sc3MnTe2
_symmetry_space_group_name_H-M   'P 1'
_cell_length_a   7.88265800
_cell_length_b   7.88265657
_cell_length_c   4.02522700
_cell_angle_alpha   90.00000000
_cell_angle_beta   90.00000000
_cell_angle_gamma   119.99999762
_symmetry_Int_Tables_number   1
_chemical_formula_structural   Tm3Sc3MnTe2
_chemical_formula_sum   'Tm3 Sc3 Mn1 Te2'
_cell_volume   216.60391865
_cell_formula_units_Z   1
loop_
 _symmetry_equiv_pos_site_id
 _symmetry_equiv_pos_as_xyz
  1  'x, y, z'
loop_
 _atom_site_type_symbol
 _atom_site_label
 _atom_site_symmetry_multiplicity
 _atom_site_fract_x
 _atom_site_fract_y
 _atom_site_fract_z
 _atom_site_occupancy
  Tm  Tm0  1  0.615595  0.000000  0.000000  1
  Tm  Tm1  1  0.000000  0.615595  0.000000  1
  Tm  Tm2  1  0.384405  0.384405  0.000000  1
  Sc  Sc3  1  0.228465  0.000000  0.500000  1
  Sc  Sc4  1  0.000000  0.228465  0.500000  1
  Sc  Sc5  1  0.771535  0.771535  0.500000  1
  Mn  Mn6  1  0.000000  0.000000  0.000000  1
  Te  Te7  1  0.333333  0.666667  0.500000  1
  Te  Te8  1  0.666667  0.333333  0.500000  1
