# generated using pymatgen
data_Y8Tm11LuPt16
_symmetry_space_group_name_H-M   'P 1'
_cell_length_a   7.45749000
_cell_length_b   7.52327300
_cell_length_c   14.60982500
_cell_angle_alpha   90.00000000
_cell_angle_beta   90.00000000
_cell_angle_gamma   90.00058135
_symmetry_Int_Tables_number   1
_chemical_formula_structural   Y8Tm11LuPt16
_chemical_formula_sum   'Y8 Tm11 Lu1 Pt16'
_cell_volume   819.68033319
_cell_formula_units_Z   1
loop_
 _symmetry_equiv_pos_site_id
 _symmetry_equiv_pos_as_xyz
  1  'x, y, z'
loop_
 _atom_site_type_symbol
 _atom_site_label
 _atom_site_symmetry_multiplicity
 _atom_site_fract_x
 _atom_site_fract_y
 _atom_site_fract_z
 _atom_site_occupancy
  Y  Y0  1  0.998665  0.820558  0.407087  1
  Y  Y1  1  0.498712  0.679402  0.092913  1
  Y  Y2  1  0.501225  0.320451  0.593008  1
  Y  Y3  1  0.001416  0.179348  0.906978  1
  Y  Y4  1  0.001416  0.179348  0.593022  1
  Y  Y5  1  0.501225  0.320451  0.906992  1
  Y  Y6  1  0.498712  0.679402  0.407087  1
  Y  Y7  1  0.998665  0.820558  0.092913  1
  Tm  Tm8  1  0.681165  0.990182  0.250000  1
  Tm  Tm9  1  0.181179  0.509810  0.250000  1
  Tm  Tm10  1  0.818847  0.490230  0.750000  1
  Tm  Tm11  1  0.656121  0.833057  0.622597  1
  Tm  Tm12  1  0.156360  0.667189  0.877403  1
  Tm  Tm13  1  0.843708  0.332980  0.377471  1
  Tm  Tm14  1  0.343731  0.167056  0.122516  1
  Tm  Tm15  1  0.343731  0.167056  0.377484  1
  Tm  Tm16  1  0.843708  0.332980  0.122529  1
  Tm  Tm17  1  0.156360  0.667189  0.622597  1
  Tm  Tm18  1  0.656121  0.833057  0.877403  1
  Lu  Lu19  1  0.318742  0.009991  0.750000  1
  Pt  Pt20  1  0.816204  0.641145  0.250000  1
  Pt  Pt21  1  0.316153  0.858892  0.250000  1
  Pt  Pt22  1  0.683278  0.140899  0.750000  1
  Pt  Pt23  1  0.184018  0.358290  0.750000  1
  Pt  Pt24  1  0.545976  0.383186  0.250000  1
  Pt  Pt25  1  0.045969  0.116852  0.250000  1
  Pt  Pt26  1  0.954596  0.883384  0.750000  1
  Pt  Pt27  1  0.453919  0.617123  0.750000  1
  Pt  Pt28  1  0.818280  0.534788  0.542076  1
  Pt  Pt29  1  0.318248  0.965173  0.957795  1
  Pt  Pt30  1  0.681762  0.034839  0.457939  1
  Pt  Pt31  1  0.181747  0.465167  0.042056  1
  Pt  Pt32  1  0.181747  0.465167  0.457944  1
  Pt  Pt33  1  0.681762  0.034839  0.042061  1
  Pt  Pt34  1  0.318248  0.965173  0.542205  1
  Pt  Pt35  1  0.818280  0.534788  0.957924  1
