# generated using pymatgen
data_RbEu(WO4)2
_symmetry_space_group_name_H-M   'P 1'
_cell_length_a   7.73180339
_cell_length_b   7.73180308
_cell_length_c   7.51249081
_cell_angle_alpha   62.67654250
_cell_angle_beta   62.67654206
_cell_angle_gamma   89.09404706
_symmetry_Int_Tables_number   1
_chemical_formula_structural   RbEu(WO4)2
_chemical_formula_sum   'Rb2 Eu2 W4 O16'
_cell_volume   343.50509568
_cell_formula_units_Z   2
loop_
 _symmetry_equiv_pos_site_id
 _symmetry_equiv_pos_as_xyz
  1  'x, y, z'
loop_
 _atom_site_type_symbol
 _atom_site_label
 _atom_site_symmetry_multiplicity
 _atom_site_fract_x
 _atom_site_fract_y
 _atom_site_fract_z
 _atom_site_occupancy
  Rb  Rb0  1  0.205154  0.794846  0.750000  1
  Rb  Rb1  1  0.794846  0.205154  0.250000  1
  Eu  Eu2  1  0.774379  0.225621  0.750000  1
  Eu  Eu3  1  0.225621  0.774379  0.250000  1
  W  W4  1  0.701175  0.688273  0.785371  1
  W  W5  1  0.298825  0.311727  0.214629  1
  W  W6  1  0.311727  0.298825  0.714629  1
  W  W7  1  0.688273  0.701175  0.285371  1
  O  O8  1  0.625315  0.748241  0.560812  1
  O  O9  1  0.374685  0.251759  0.439188  1
  O  O10  1  0.251759  0.374685  0.939188  1
  O  O11  1  0.748241  0.625315  0.060812  1
  O  O12  1  0.373763  0.062622  0.865845  1
  O  O13  1  0.626237  0.937378  0.134155  1
  O  O14  1  0.937378  0.626237  0.634155  1
  O  O15  1  0.062622  0.373763  0.365845  1
  O  O16  1  0.589205  0.373251  0.969523  1
  O  O17  1  0.410795  0.626749  0.030477  1
  O  O18  1  0.626749  0.410795  0.530477  1
  O  O19  1  0.373251  0.589205  0.469523  1
  O  O20  1  0.780675  0.952134  0.690844  1
  O  O21  1  0.219325  0.047866  0.309156  1
  O  O22  1  0.047866  0.219325  0.809156  1
  O  O23  1  0.952134  0.780675  0.190844  1
