# generated using pymatgen
data_Cs2BeBr4
_symmetry_space_group_name_H-M   'P 1'
_cell_length_a   7.69298300
_cell_length_b   10.34872100
_cell_length_c   13.46679000
_cell_angle_alpha   90.00000000
_cell_angle_beta   90.00000000
_cell_angle_gamma   90.00000000
_symmetry_Int_Tables_number   1
_chemical_formula_structural   Cs2BeBr4
_chemical_formula_sum   'Cs8 Be4 Br16'
_cell_volume   1072.12528651
_cell_formula_units_Z   4
loop_
 _symmetry_equiv_pos_site_id
 _symmetry_equiv_pos_as_xyz
  1  'x, y, z'
loop_
 _atom_site_type_symbol
 _atom_site_label
 _atom_site_symmetry_multiplicity
 _atom_site_fract_x
 _atom_site_fract_y
 _atom_site_fract_z
 _atom_site_occupancy
  Cs  Cs0  1  0.250000  0.148714  0.601359  1
  Cs  Cs1  1  0.250000  0.648714  0.898641  1
  Cs  Cs2  1  0.750000  0.851286  0.398641  1
  Cs  Cs3  1  0.750000  0.351286  0.101359  1
  Cs  Cs4  1  0.250000  0.477793  0.324381  1
  Cs  Cs5  1  0.250000  0.977793  0.175619  1
  Cs  Cs6  1  0.750000  0.522207  0.675619  1
  Cs  Cs7  1  0.750000  0.022207  0.824381  1
  Be  Be8  1  0.250000  0.243091  0.919525  1
  Be  Be9  1  0.250000  0.743091  0.580475  1
  Be  Be10  1  0.750000  0.756909  0.080475  1
  Be  Be11  1  0.750000  0.256909  0.419525  1
  Br  Br12  1  0.250000  0.531652  0.596918  1
  Br  Br13  1  0.250000  0.031652  0.903082  1
  Br  Br14  1  0.750000  0.468348  0.403082  1
  Br  Br15  1  0.750000  0.968348  0.096918  1
  Br  Br16  1  0.250000  0.302195  0.076994  1
  Br  Br17  1  0.250000  0.802195  0.423006  1
  Br  Br18  1  0.750000  0.697805  0.923006  1
  Br  Br19  1  0.750000  0.197805  0.576994  1
  Br  Br20  1  0.983861  0.676707  0.151919  1
  Br  Br21  1  0.516139  0.176707  0.348081  1
  Br  Br22  1  0.483861  0.323293  0.848081  1
  Br  Br23  1  0.016139  0.823293  0.651919  1
  Br  Br24  1  0.016139  0.323293  0.848081  1
  Br  Br25  1  0.483861  0.823293  0.651919  1
  Br  Br26  1  0.516139  0.676707  0.151919  1
  Br  Br27  1  0.983861  0.176707  0.348081  1
