# generated using pymatgen
data_Er4Zr3RhF28
_symmetry_space_group_name_H-M   'P 1'
_cell_length_a   5.63324531
_cell_length_b   8.96852740
_cell_length_c   12.13599500
_cell_angle_alpha   62.68061664
_cell_angle_beta   89.94812786
_cell_angle_gamma   89.95116299
_symmetry_Int_Tables_number   1
_chemical_formula_structural   Er4Zr3RhF28
_chemical_formula_sum   'Er4 Zr3 Rh1 F28'
_cell_volume   544.74572195
_cell_formula_units_Z   1
loop_
 _symmetry_equiv_pos_site_id
 _symmetry_equiv_pos_as_xyz
  1  'x, y, z'
loop_
 _atom_site_type_symbol
 _atom_site_label
 _atom_site_symmetry_multiplicity
 _atom_site_fract_x
 _atom_site_fract_y
 _atom_site_fract_z
 _atom_site_occupancy
  Er  Er0  1  0.757354  0.815442  0.766915  1
  Er  Er1  1  0.260496  0.185373  0.729181  1
  Er  Er2  1  0.239581  0.185560  0.239863  1
  Er  Er3  1  0.742610  0.815946  0.267567  1
  Zr  Zr4  1  0.756696  0.272515  0.956179  1
  Zr  Zr5  1  0.255044  0.726039  0.543803  1
  Zr  Zr6  1  0.244997  0.726403  0.045784  1
  Rh  Rh7  1  0.740993  0.272365  0.454926  1
  F  F8  1  0.464436  0.708184  0.919317  1
  F  F9  1  0.940572  0.291444  0.577663  1
  F  F10  1  0.534334  0.289485  0.081763  1
  F  F11  1  0.034500  0.710015  0.417702  1
  F  F12  1  0.449555  0.279002  0.545651  1
  F  F13  1  0.944405  0.725888  0.950339  1
  F  F14  1  0.555109  0.717569  0.451454  1
  F  F15  1  0.054254  0.273423  0.053091  1
  F  F16  1  0.777995  0.527099  0.858884  1
  F  F17  1  0.262453  0.471614  0.640006  1
  F  F18  1  0.225091  0.472314  0.143086  1
  F  F19  1  0.731853  0.514136  0.359348  1
  F  F20  1  0.755601  0.018834  0.060006  1
  F  F21  1  0.262159  0.979398  0.442984  1
  F  F22  1  0.246441  0.978916  0.939114  1
  F  F23  1  0.745201  0.030917  0.547310  1
  F  F24  1  0.975913  0.735874  0.647174  1
  F  F25  1  0.483445  0.269046  0.847000  1
  F  F26  1  0.023081  0.271762  0.357908  1
  F  F27  1  0.520674  0.729287  0.153236  1
  F  F28  1  0.035262  0.749205  0.175286  1
  F  F29  1  0.545940  0.256328  0.327709  1
  F  F30  1  0.969358  0.250073  0.826339  1
  F  F31  1  0.467519  0.748097  0.673388  1
  F  F32  1  0.425866  0.973541  0.237944  1
  F  F33  1  0.925090  0.027562  0.267841  1
  F  F34  1  0.573858  0.026967  0.763473  1
  F  F35  1  0.072265  0.974376  0.730766  1
