# generated using pymatgen
data_ErZr4Bi3F28
_symmetry_space_group_name_H-M   'P 1'
_cell_length_a   5.83027395
_cell_length_b   9.29381705
_cell_length_c   12.44341053
_cell_angle_alpha   62.09798010
_cell_angle_beta   90.00948920
_cell_angle_gamma   89.96331678
_symmetry_Int_Tables_number   1
_chemical_formula_structural   ErZr4Bi3F28
_chemical_formula_sum   'Er1 Zr4 Bi3 F28'
_cell_volume   595.86978212
_cell_formula_units_Z   1
loop_
 _symmetry_equiv_pos_site_id
 _symmetry_equiv_pos_as_xyz
  1  'x, y, z'
loop_
 _atom_site_type_symbol
 _atom_site_label
 _atom_site_symmetry_multiplicity
 _atom_site_fract_x
 _atom_site_fract_y
 _atom_site_fract_z
 _atom_site_occupancy
  Er  Er0  1  0.756327  0.812271  0.765453  1
  Zr  Zr1  1  0.744992  0.270365  0.457938  1
  Zr  Zr2  1  0.244181  0.725131  0.040185  1
  Zr  Zr3  1  0.255950  0.725175  0.549487  1
  Zr  Zr4  1  0.756042  0.279544  0.952862  1
  Bi  Bi5  1  0.742190  0.814786  0.264402  1
  Bi  Bi6  1  0.242714  0.182251  0.236194  1
  Bi  Bi7  1  0.257598  0.176662  0.736038  1
  F  F8  1  0.468817  0.714574  0.918002  1
  F  F9  1  0.961421  0.288841  0.578567  1
  F  F10  1  0.540969  0.291705  0.076681  1
  F  F11  1  0.040939  0.711924  0.425926  1
  F  F12  1  0.454141  0.280583  0.546578  1
  F  F13  1  0.956000  0.722195  0.944359  1
  F  F14  1  0.542325  0.719845  0.455054  1
  F  F15  1  0.044754  0.284787  0.044915  1
  F  F16  1  0.765391  0.528473  0.856906  1
  F  F17  1  0.267416  0.480965  0.643232  1
  F  F18  1  0.230561  0.480917  0.138678  1
  F  F19  1  0.731906  0.516872  0.360769  1
  F  F20  1  0.760222  0.030479  0.056313  1
  F  F21  1  0.260390  0.974230  0.444305  1
  F  F22  1  0.239526  0.974595  0.942299  1
  F  F23  1  0.740457  0.022468  0.562881  1
  F  F24  1  0.987513  0.737233  0.652028  1
  F  F25  1  0.486847  0.267247  0.853537  1
  F  F26  1  0.014854  0.265789  0.355261  1
  F  F27  1  0.512565  0.733905  0.142225  1
  F  F28  1  0.039588  0.746614  0.166611  1
  F  F29  1  0.541540  0.252105  0.329756  1
  F  F30  1  0.960426  0.255677  0.828106  1
  F  F31  1  0.471044  0.749596  0.672970  1
  F  F32  1  0.418073  0.968082  0.232143  1
  F  F33  1  0.916118  0.029279  0.268081  1
  F  F34  1  0.578876  0.018523  0.766410  1
  F  F35  1  0.067326  0.966316  0.734850  1
