# generated using pymatgen
data_Zr3TiNbSi3
_symmetry_space_group_name_H-M   'P 1'
_cell_length_a   7.84711500
_cell_length_b   7.84711567
_cell_length_c   5.35955500
_cell_angle_alpha   90.00000000
_cell_angle_beta   90.00000000
_cell_angle_gamma   119.99999296
_symmetry_Int_Tables_number   1
_chemical_formula_structural   Zr3TiNbSi3
_chemical_formula_sum   'Zr6 Ti2 Nb2 Si6'
_cell_volume   285.81134668
_cell_formula_units_Z   2
loop_
 _symmetry_equiv_pos_site_id
 _symmetry_equiv_pos_as_xyz
  1  'x, y, z'
loop_
 _atom_site_type_symbol
 _atom_site_label
 _atom_site_symmetry_multiplicity
 _atom_site_fract_x
 _atom_site_fract_y
 _atom_site_fract_z
 _atom_site_occupancy
  Zr  Zr0  1  0.747321  0.747321  0.753214  1
  Zr  Zr1  1  0.252679  0.000000  0.753214  1
  Zr  Zr2  1  0.000000  0.252679  0.753214  1
  Zr  Zr3  1  0.252679  0.252679  0.246786  1
  Zr  Zr4  1  0.747321  0.000000  0.246786  1
  Zr  Zr5  1  0.000000  0.747321  0.246786  1
  Ti  Ti6  1  0.333333  0.666667  0.500000  1
  Ti  Ti7  1  0.666667  0.333333  0.500000  1
  Nb  Nb8  1  0.666667  0.333333  0.000000  1
  Nb  Nb9  1  0.333333  0.666667  0.000000  1
  Si  Si10  1  0.396446  0.396446  0.746115  1
  Si  Si11  1  0.603554  0.000000  0.746115  1
  Si  Si12  1  0.000000  0.603554  0.746115  1
  Si  Si13  1  0.603554  0.603554  0.253885  1
  Si  Si14  1  0.396446  0.000000  0.253885  1
  Si  Si15  1  0.000000  0.396446  0.253885  1
