# generated using pymatgen
data_Y11TmInGaCo4
_symmetry_space_group_name_H-M   'P 1'
_cell_length_a   8.35385716
_cell_length_b   8.36152172
_cell_length_c   8.35385781
_cell_angle_alpha   111.39974917
_cell_angle_beta   110.08764445
_cell_angle_gamma   106.92192275
_symmetry_Int_Tables_number   1
_chemical_formula_structural   Y11TmInGaCo4
_chemical_formula_sum   'Y11 Tm1 In1 Ga1 Co4'
_cell_volume   448.68178100
_cell_formula_units_Z   1
loop_
 _symmetry_equiv_pos_site_id
 _symmetry_equiv_pos_as_xyz
  1  'x, y, z'
loop_
 _atom_site_type_symbol
 _atom_site_label
 _atom_site_symmetry_multiplicity
 _atom_site_fract_x
 _atom_site_fract_y
 _atom_site_fract_z
 _atom_site_occupancy
  Y  Y0  1  0.432020  0.226051  0.204758  1
  Y  Y1  1  0.569716  0.774311  0.797623  1
  Y  Y2  1  0.021294  0.226051  0.794031  1
  Y  Y3  1  0.976687  0.774311  0.204595  1
  Y  Y4  1  0.183411  0.284823  0.469738  1
  Y  Y5  1  0.814713  0.715419  0.529029  1
  Y  Y6  1  0.186390  0.715419  0.900707  1
  Y  Y7  1  0.815085  0.284823  0.101411  1
  Y  Y8  1  0.315837  0.620126  0.304288  1
  Y  Y9  1  0.684361  0.380126  0.695766  1
  Y  Y10  1  0.315812  0.011304  0.695492  1
  Tm  Tm11  1  0.683699  0.990894  0.307195  1
  In  In12  1  0.500447  0.500863  0.000416  1
  Ga  Ga13  1  0.000933  0.000227  0.999293  1
  Co  Co14  1  0.378851  0.998953  0.375575  1
  Co  Co15  1  0.623378  0.998953  0.620102  1
  Co  Co16  1  0.109855  0.610679  0.500825  1
  Co  Co17  1  0.887514  0.386667  0.499154  1
