# generated using pymatgen
data_Ce3Th2P12Ru19
_symmetry_space_group_name_H-M   'P 1'
_cell_length_a   12.65761605
_cell_length_b   12.65830325
_cell_length_c   3.99423400
_cell_angle_alpha   90.00000000
_cell_angle_beta   90.00000000
_cell_angle_gamma   120.00875116
_symmetry_Int_Tables_number   1
_chemical_formula_structural   Ce3Th2P12Ru19
_chemical_formula_sum   'Ce3 Th2 P12 Ru19'
_cell_volume   554.18305898
_cell_formula_units_Z   1
loop_
 _symmetry_equiv_pos_site_id
 _symmetry_equiv_pos_as_xyz
  1  'x, y, z'
loop_
 _atom_site_type_symbol
 _atom_site_label
 _atom_site_symmetry_multiplicity
 _atom_site_fract_x
 _atom_site_fract_y
 _atom_site_fract_z
 _atom_site_occupancy
  Ce  Ce0  1  0.813523  0.999651  0.500000  1
  Ce  Ce1  1  0.999799  0.813648  0.500000  1
  Ce  Ce2  1  0.666762  0.333646  0.000000  1
  Th  Th3  1  0.186749  0.186819  0.500000  1
  Th  Th4  1  0.333711  0.666791  0.000000  1
  P  P5  1  0.814177  0.813397  0.000000  1
  P  P6  1  0.185565  0.999099  0.000000  1
  P  P7  1  0.997709  0.184856  0.000000  1
  P  P8  1  0.169453  0.475144  0.500000  1
  P  P9  1  0.525687  0.695502  0.500000  1
  P  P10  1  0.304927  0.829782  0.500000  1
  P  P11  1  0.695497  0.523578  0.500000  1
  P  P12  1  0.827681  0.304917  0.500000  1
  P  P13  1  0.477182  0.171556  0.500000  1
  P  P14  1  0.375774  0.375194  0.000000  1
  P  P15  1  0.625942  0.000576  0.000000  1
  P  P16  1  0.999419  0.625398  0.000000  1
  Ru  Ru17  1  0.555528  0.555642  0.000000  1
  Ru  Ru18  1  0.444815  0.999638  0.000000  1
  Ru  Ru19  1  0.999887  0.444958  0.000000  1
  Ru  Ru20  1  0.717250  0.716401  0.500000  1
  Ru  Ru21  1  0.284018  0.000245  0.500000  1
  Ru  Ru22  1  0.998710  0.283289  0.500000  1
  Ru  Ru23  1  0.183321  0.376009  0.000000  1
  Ru  Ru24  1  0.624632  0.808390  0.000000  1
  Ru  Ru25  1  0.191674  0.815947  0.000000  1
  Ru  Ru26  1  0.807455  0.623065  0.000000  1
  Ru  Ru27  1  0.815331  0.192860  0.000000  1
  Ru  Ru28  1  0.377651  0.183958  0.000000  1
  Ru  Ru29  1  0.367086  0.492913  0.500000  1
  Ru  Ru30  1  0.507541  0.874388  0.500000  1
  Ru  Ru31  1  0.125503  0.633336  0.500000  1
  Ru  Ru32  1  0.873878  0.506830  0.500000  1
  Ru  Ru33  1  0.633052  0.125985  0.500000  1
  Ru  Ru34  1  0.493605  0.367232  0.500000  1
  Ru  Ru35  1  0.999504  0.999360  0.000000  1
