# generated using pymatgen
data_Ac2Pa2Al18(IrRh)3
_symmetry_space_group_name_H-M   'P 1'
_cell_length_a   7.71105576
_cell_length_b   7.68898368
_cell_length_c   9.54295373
_cell_angle_alpha   90.03966923
_cell_angle_beta   89.96390074
_cell_angle_gamma   119.52807811
_symmetry_Int_Tables_number   1
_chemical_formula_structural   Ac2Pa2Al18(IrRh)3
_chemical_formula_sum   'Ac2 Pa2 Al18 Ir3 Rh3'
_cell_volume   492.31352484
_cell_formula_units_Z   1
loop_
 _symmetry_equiv_pos_site_id
 _symmetry_equiv_pos_as_xyz
  1  'x, y, z'
loop_
 _atom_site_type_symbol
 _atom_site_label
 _atom_site_symmetry_multiplicity
 _atom_site_fract_x
 _atom_site_fract_y
 _atom_site_fract_z
 _atom_site_occupancy
  Ac  Ac0  1  0.668899  0.993259  0.250159  1
  Ac  Ac1  1  0.331101  0.006741  0.749841  1
  Pa  Pa2  1  0.999591  0.673122  0.247484  1
  Pa  Pa3  1  0.000409  0.326878  0.752516  1
  Al  Al4  1  0.135071  0.129780  0.250614  1
  Al  Al5  1  0.864929  0.870220  0.749386  1
  Al  Al6  1  0.004552  0.337005  0.072811  1
  Al  Al7  1  0.995448  0.662995  0.927189  1
  Al  Al8  1  0.994984  0.661096  0.571631  1
  Al  Al9  1  0.331728  0.004449  0.422753  1
  Al  Al10  1  0.005016  0.338904  0.428369  1
  Al  Al11  1  0.668272  0.995551  0.577247  1
  Al  Al12  1  0.665862  0.994239  0.923811  1
  Al  Al13  1  0.334138  0.005761  0.076189  1
  Al  Al14  1  0.333348  0.338312  0.548481  1
  Al  Al15  1  0.666652  0.661688  0.451519  1
  Al  Al16  1  0.665648  0.662488  0.046715  1
  Al  Al17  1  0.334352  0.337512  0.953285  1
  Al  Al18  1  0.331473  0.539889  0.250850  1
  Al  Al19  1  0.668527  0.460111  0.749150  1
  Al  Al20  1  0.553249  0.352789  0.250362  1
  Al  Al21  1  0.446751  0.647211  0.749638  1
  Ir  Ir22  1  0.676053  0.331307  0.998691  1
  Ir  Ir23  1  0.323947  0.668693  0.001309  1
  Ir  Ir24  1  0.000000  0.000000  0.000000  1
  Rh  Rh25  1  0.325777  0.670299  0.498912  1
  Rh  Rh26  1  0.674223  0.329701  0.501088  1
  Rh  Rh27  1  0.000000  0.000000  0.500000  1
