# generated using pymatgen
data_Np8Nb12Si15B
_symmetry_space_group_name_H-M   'P 1'
_cell_length_a   6.87438800
_cell_length_b   7.06896777
_cell_length_c   13.44205300
_cell_angle_alpha   90.00000000
_cell_angle_beta   90.00000000
_cell_angle_gamma   89.63969477
_symmetry_Int_Tables_number   1
_chemical_formula_structural   Np8Nb12Si15B
_chemical_formula_sum   'Np8 Nb12 Si15 B1'
_cell_volume   653.20132732
_cell_formula_units_Z   1
loop_
 _symmetry_equiv_pos_site_id
 _symmetry_equiv_pos_as_xyz
  1  'x, y, z'
loop_
 _atom_site_type_symbol
 _atom_site_label
 _atom_site_symmetry_multiplicity
 _atom_site_fract_x
 _atom_site_fract_y
 _atom_site_fract_z
 _atom_site_occupancy
  Np  Np0  1  0.502465  0.661780  0.594158  1
  Np  Np1  1  0.002612  0.830651  0.905744  1
  Np  Np2  1  0.500035  0.333403  0.091143  1
  Np  Np3  1  0.999025  0.166964  0.408813  1
  Np  Np4  1  0.500035  0.333403  0.408857  1
  Np  Np5  1  0.999025  0.166964  0.091187  1
  Np  Np6  1  0.502465  0.661780  0.905842  1
  Np  Np7  1  0.002612  0.830651  0.594256  1
  Nb  Nb8  1  0.648957  0.187322  0.631147  1
  Nb  Nb9  1  0.172344  0.326160  0.871331  1
  Nb  Nb10  1  0.338332  0.825383  0.124837  1
  Nb  Nb11  1  0.837520  0.675521  0.375082  1
  Nb  Nb12  1  0.338332  0.825383  0.375163  1
  Nb  Nb13  1  0.837520  0.675521  0.124918  1
  Nb  Nb14  1  0.648957  0.187322  0.868853  1
  Nb  Nb15  1  0.172344  0.326160  0.628669  1
  Nb  Nb16  1  0.827444  0.499722  0.750000  1
  Nb  Nb17  1  0.334062  0.005361  0.750000  1
  Nb  Nb18  1  0.166522  0.502214  0.250000  1
  Nb  Nb19  1  0.665652  0.998007  0.250000  1
  Si  Si20  1  0.661474  0.962332  0.461292  1
  Si  Si21  1  0.162540  0.537983  0.040982  1
  Si  Si22  1  0.337705  0.036673  0.957510  1
  Si  Si23  1  0.841179  0.461117  0.543702  1
  Si  Si24  1  0.337705  0.036673  0.542490  1
  Si  Si25  1  0.841179  0.461117  0.956298  1
  Si  Si26  1  0.661474  0.962332  0.038708  1
  Si  Si27  1  0.162540  0.537983  0.459018  1
  Si  Si28  1  0.956263  0.124410  0.750000  1
  Si  Si29  1  0.542575  0.622157  0.250000  1
  Si  Si30  1  0.042064  0.878406  0.250000  1
  Si  Si31  1  0.701582  0.874246  0.750000  1
  Si  Si32  1  0.212938  0.618581  0.750000  1
  Si  Si33  1  0.297667  0.129643  0.250000  1
  Si  Si34  1  0.798678  0.370825  0.250000  1
  B  B35  1  0.446178  0.365854  0.750000  1
