# generated using pymatgen
data_Tb5Y3SiPt24
_symmetry_space_group_name_H-M   'P 1'
_cell_length_a   8.37294800
_cell_length_b   8.37294800
_cell_length_c   8.37285500
_cell_angle_alpha   90.00004106
_cell_angle_beta   89.99995894
_cell_angle_gamma   90.00026003
_symmetry_Int_Tables_number   1
_chemical_formula_structural   Tb5Y3SiPt24
_chemical_formula_sum   'Tb5 Y3 Si1 Pt24'
_cell_volume   586.98953459
_cell_formula_units_Z   1
loop_
 _symmetry_equiv_pos_site_id
 _symmetry_equiv_pos_as_xyz
  1  'x, y, z'
loop_
 _atom_site_type_symbol
 _atom_site_label
 _atom_site_symmetry_multiplicity
 _atom_site_fract_x
 _atom_site_fract_y
 _atom_site_fract_z
 _atom_site_occupancy
  Tb  Tb0  1  0.252631  0.252621  0.252690  1
  Tb  Tb1  1  0.747390  0.747387  0.747331  1
  Tb  Tb2  1  0.747379  0.747369  0.252690  1
  Tb  Tb3  1  0.747368  0.252632  0.747284  1
  Tb  Tb4  1  0.252613  0.252610  0.747331  1
  Y  Y5  1  0.252526  0.747474  0.252612  1
  Y  Y6  1  0.252561  0.747439  0.747366  1
  Y  Y7  1  0.747463  0.252537  0.252618  1
  Si  Si8  1  0.000019  0.999981  0.000021  1
  Pt  Pt9  1  0.258904  0.499950  0.000018  1
  Pt  Pt10  1  0.741110  0.500063  0.000022  1
  Pt  Pt11  1  0.000014  0.258893  0.500014  1
  Pt  Pt12  1  0.499937  0.258890  0.000022  1
  Pt  Pt13  1  0.000024  0.741092  0.499980  1
  Pt  Pt14  1  0.500050  0.741096  0.000018  1
  Pt  Pt15  1  0.499980  0.999983  0.258922  1
  Pt  Pt16  1  0.258908  0.999976  0.499980  1
  Pt  Pt17  1  0.500012  0.999982  0.741091  1
  Pt  Pt18  1  0.741107  0.999986  0.500014  1
  Pt  Pt19  1  0.000017  0.500020  0.258922  1
  Pt  Pt20  1  0.000018  0.499988  0.741091  1
  Pt  Pt21  1  0.252963  0.499995  0.499957  1
  Pt  Pt22  1  0.747025  0.500060  0.499982  1
  Pt  Pt23  1  0.499940  0.252975  0.499982  1
  Pt  Pt24  1  0.500005  0.747037  0.499957  1
  Pt  Pt25  1  0.499958  0.500042  0.252962  1
  Pt  Pt26  1  0.499983  0.500017  0.747023  1
  Pt  Pt27  1  0.283787  0.999920  0.000010  1
  Pt  Pt28  1  0.716204  0.000025  0.000043  1
  Pt  Pt29  1  0.999975  0.283796  0.000043  1
  Pt  Pt30  1  0.000080  0.716213  0.000010  1
  Pt  Pt31  1  0.000009  0.999991  0.283800  1
  Pt  Pt32  1  0.000044  0.999956  0.716196  1
