# generated using pymatgen
data_Zr4Ti2AlRe5
_symmetry_space_group_name_H-M   'P 1'
_cell_length_a   5.29492299
_cell_length_b   5.33511824
_cell_length_c   8.74323401
_cell_angle_alpha   90.00000148
_cell_angle_beta   89.99446244
_cell_angle_gamma   120.25143347
_symmetry_Int_Tables_number   1
_chemical_formula_structural   Zr4Ti2AlRe5
_chemical_formula_sum   'Zr4 Ti2 Al1 Re5'
_cell_volume   213.35386299
_cell_formula_units_Z   1
loop_
 _symmetry_equiv_pos_site_id
 _symmetry_equiv_pos_as_xyz
  1  'x, y, z'
loop_
 _atom_site_type_symbol
 _atom_site_label
 _atom_site_symmetry_multiplicity
 _atom_site_fract_x
 _atom_site_fract_y
 _atom_site_fract_z
 _atom_site_occupancy
  Zr  Zr0  1  0.331386  0.671338  0.439309  1
  Zr  Zr1  1  0.665703  0.332290  0.936736  1
  Zr  Zr2  1  0.668614  0.339951  0.560691  1
  Zr  Zr3  1  0.334297  0.666589  0.063264  1
  Ti  Ti4  1  0.168236  0.337970  0.752022  1
  Ti  Ti5  1  0.831764  0.169735  0.247978  1
  Al  Al6  1  0.000000  0.987366  0.500000  1
  Re  Re7  1  0.341531  0.173236  0.248769  1
  Re  Re8  1  0.658469  0.831705  0.751231  1
  Re  Re9  1  0.000000  0.998716  0.000000  1
  Re  Re10  1  0.826131  0.658618  0.248317  1
  Re  Re11  1  0.173869  0.832486  0.751683  1
