# generated using pymatgen
data_HfV6GaSn5
_symmetry_space_group_name_H-M   'P 1'
_cell_length_a   5.41531305
_cell_length_b   5.41518204
_cell_length_c   9.11834400
_cell_angle_alpha   90.00000000
_cell_angle_beta   90.00000000
_cell_angle_gamma   59.99941448
_symmetry_Int_Tables_number   1
_chemical_formula_structural   HfV6GaSn5
_chemical_formula_sum   'Hf1 V6 Ga1 Sn5'
_cell_volume   231.56913307
_cell_formula_units_Z   1
loop_
 _symmetry_equiv_pos_site_id
 _symmetry_equiv_pos_as_xyz
  1  'x, y, z'
loop_
 _atom_site_type_symbol
 _atom_site_label
 _atom_site_symmetry_multiplicity
 _atom_site_fract_x
 _atom_site_fract_y
 _atom_site_fract_z
 _atom_site_occupancy
  Hf  Hf0  1  0.999963  0.000004  0.500000  1
  V  V1  1  0.493268  0.013449  0.258335  1
  V  V2  1  0.013435  0.493276  0.258362  1
  V  V3  1  0.493268  0.493274  0.258351  1
  V  V4  1  0.493268  0.013449  0.741665  1
  V  V5  1  0.013435  0.493276  0.741638  1
  V  V6  1  0.493268  0.493274  0.741649  1
  Ga  Ga7  1  0.333360  0.333275  0.500000  1
  Sn  Sn8  1  0.999991  0.999997  0.173884  1
  Sn  Sn9  1  0.999991  0.999997  0.826116  1
  Sn  Sn10  1  0.666651  0.666692  0.000000  1
  Sn  Sn11  1  0.333303  0.333321  0.000000  1
  Sn  Sn12  1  0.666597  0.666716  0.500000  1
