# generated using pymatgen
data_Y2Ho4ZrCo17P12
_symmetry_space_group_name_H-M   'P 1'
_cell_length_a   3.71535400
_cell_length_b   10.60998200
_cell_length_c   12.33546300
_cell_angle_alpha   90.00000000
_cell_angle_beta   90.00000000
_cell_angle_gamma   90.00000000
_symmetry_Int_Tables_number   1
_chemical_formula_structural   Y2Ho4ZrCo17P12
_chemical_formula_sum   'Y2 Ho4 Zr1 Co17 P12'
_cell_volume   486.26196624
_cell_formula_units_Z   1
loop_
 _symmetry_equiv_pos_site_id
 _symmetry_equiv_pos_as_xyz
  1  'x, y, z'
loop_
 _atom_site_type_symbol
 _atom_site_label
 _atom_site_symmetry_multiplicity
 _atom_site_fract_x
 _atom_site_fract_y
 _atom_site_fract_z
 _atom_site_occupancy
  Y  Y0  1  0.000000  0.500000  0.529468  1
  Y  Y1  1  0.500000  0.000000  0.477542  1
  Ho  Ho2  1  0.500000  0.821721  0.206930  1
  Ho  Ho3  1  0.500000  0.178279  0.206930  1
  Ho  Ho4  1  0.000000  0.683163  0.796359  1
  Ho  Ho5  1  0.000000  0.316837  0.796359  1
  Zr  Zr6  1  0.500000  0.500000  0.153908  1
  Co  Co7  1  0.000000  0.500000  0.983007  1
  Co  Co8  1  0.500000  0.000000  0.013624  1
  Co  Co9  1  0.500000  0.293918  0.434687  1
  Co  Co10  1  0.500000  0.706082  0.434687  1
  Co  Co11  1  0.000000  0.202000  0.570646  1
  Co  Co12  1  0.000000  0.798000  0.570646  1
  Co  Co13  1  0.500000  0.880337  0.708120  1
  Co  Co14  1  0.500000  0.119663  0.708120  1
  Co  Co15  1  0.000000  0.623138  0.297346  1
  Co  Co16  1  0.000000  0.376862  0.297346  1
  Co  Co17  1  0.500000  0.326843  0.987757  1
  Co  Co18  1  0.500000  0.673157  0.987757  1
  Co  Co19  1  0.000000  0.161345  0.001538  1
  Co  Co20  1  0.000000  0.838655  0.001538  1
  Co  Co21  1  0.000000  0.000000  0.836913  1
  Co  Co22  1  0.500000  0.500000  0.703660  1
  Co  Co23  1  0.000000  0.000000  0.295358  1
  P  P24  1  0.500000  0.308653  0.618624  1
  P  P25  1  0.500000  0.691347  0.618624  1
  P  P26  1  0.000000  0.188545  0.386008  1
  P  P27  1  0.000000  0.811455  0.386008  1
  P  P28  1  0.500000  0.500000  0.881388  1
  P  P29  1  0.000000  0.000000  0.116233  1
  P  P30  1  0.500000  0.852533  0.888602  1
  P  P31  1  0.500000  0.147467  0.888602  1
  P  P32  1  0.000000  0.665340  0.099450  1
  P  P33  1  0.000000  0.334660  0.099450  1
  P  P34  1  0.500000  0.500000  0.361431  1
  P  P35  1  0.000000  0.000000  0.655333  1
