# generated using pymatgen
data_Ho5Lu11(ScSb3)4
_symmetry_space_group_name_H-M   'P 1'
_cell_length_a   7.89079602
_cell_length_b   9.09426800
_cell_length_c   11.61105503
_cell_angle_alpha   90.00000000
_cell_angle_beta   89.99139615
_cell_angle_gamma   90.00000000
_symmetry_Int_Tables_number   1
_chemical_formula_structural   Ho5Lu11(ScSb3)4
_chemical_formula_sum   'Ho5 Lu11 Sc4 Sb12'
_cell_volume   833.22107057
_cell_formula_units_Z   1
loop_
 _symmetry_equiv_pos_site_id
 _symmetry_equiv_pos_as_xyz
  1  'x, y, z'
loop_
 _atom_site_type_symbol
 _atom_site_label
 _atom_site_symmetry_multiplicity
 _atom_site_fract_x
 _atom_site_fract_y
 _atom_site_fract_z
 _atom_site_occupancy
  Ho  Ho0  1  0.184697  0.750000  0.721116  1
  Ho  Ho1  1  0.684599  0.750000  0.779071  1
  Ho  Ho2  1  0.815458  0.250000  0.279034  1
  Ho  Ho3  1  0.315536  0.250000  0.220929  1
  Ho  Ho4  1  0.855117  0.750000  0.284786  1
  Lu  Lu5  1  0.196944  0.562772  0.439799  1
  Lu  Lu6  1  0.696816  0.937327  0.059970  1
  Lu  Lu7  1  0.803138  0.062741  0.560355  1
  Lu  Lu8  1  0.303100  0.437163  0.939556  1
  Lu  Lu9  1  0.803138  0.437259  0.560355  1
  Lu  Lu10  1  0.303100  0.062837  0.939556  1
  Lu  Lu11  1  0.196944  0.937228  0.439799  1
  Lu  Lu12  1  0.696816  0.562673  0.059970  1
  Lu  Lu13  1  0.355093  0.750000  0.215463  1
  Lu  Lu14  1  0.144791  0.250000  0.715532  1
  Lu  Lu15  1  0.644600  0.250000  0.784397  1
  Sc  Sc16  1  0.027985  0.750000  0.988721  1
  Sc  Sc17  1  0.527851  0.750000  0.511030  1
  Sc  Sc18  1  0.972114  0.250000  0.011019  1
  Sc  Sc19  1  0.472141  0.250000  0.488956  1
  Sb  Sb20  1  0.933367  0.494968  0.831244  1
  Sb  Sb21  1  0.433334  0.004962  0.668768  1
  Sb  Sb22  1  0.067356  0.995922  0.168183  1
  Sb  Sb23  1  0.565940  0.504475  0.331285  1
  Sb  Sb24  1  0.067356  0.504078  0.168183  1
  Sb  Sb25  1  0.565940  0.995525  0.331285  1
  Sb  Sb26  1  0.933367  0.005032  0.831244  1
  Sb  Sb27  1  0.433334  0.495038  0.668768  1
  Sb  Sb28  1  0.906740  0.750000  0.541235  1
  Sb  Sb29  1  0.406332  0.750000  0.960366  1
  Sb  Sb30  1  0.093496  0.250000  0.460362  1
  Sb  Sb31  1  0.593461  0.250000  0.039662  1
