# generated using pymatgen
data_Sr10Sn5Bi
_symmetry_space_group_name_H-M   'P 1'
_cell_length_a   10.24556613
_cell_length_b   10.24556600
_cell_length_c   10.24556563
_cell_angle_alpha   130.06803590
_cell_angle_beta   130.06803449
_cell_angle_gamma   73.29802139
_symmetry_Int_Tables_number   1
_chemical_formula_structural   Sr10Sn5Bi
_chemical_formula_sum   'Sr10 Sn5 Bi1'
_cell_volume   614.89118205
_cell_formula_units_Z   1
loop_
 _symmetry_equiv_pos_site_id
 _symmetry_equiv_pos_as_xyz
  1  'x, y, z'
loop_
 _atom_site_type_symbol
 _atom_site_label
 _atom_site_symmetry_multiplicity
 _atom_site_fract_x
 _atom_site_fract_y
 _atom_site_fract_z
 _atom_site_occupancy
  Sr  Sr0  1  0.501544  0.501544  0.000000  1
  Sr  Sr1  1  0.998456  0.998456  0.000000  1
  Sr  Sr2  1  0.535744  0.031344  0.849778  1
  Sr  Sr3  1  0.181565  0.685966  0.150222  1
  Sr  Sr4  1  0.031344  0.181565  0.495600  1
  Sr  Sr5  1  0.685966  0.535744  0.504400  1
  Sr  Sr6  1  0.468656  0.964256  0.150222  1
  Sr  Sr7  1  0.814034  0.318435  0.849778  1
  Sr  Sr8  1  0.964256  0.814034  0.495600  1
  Sr  Sr9  1  0.318435  0.468656  0.504400  1
  Sn  Sn10  1  0.750000  0.750000  0.000000  1
  Sn  Sn11  1  0.878606  0.378606  0.257213  1
  Sn  Sn12  1  0.121394  0.621394  0.742787  1
  Sn  Sn13  1  0.378606  0.121394  0.500000  1
  Sn  Sn14  1  0.621394  0.878606  0.500000  1
  Bi  Bi15  1  0.250000  0.250000  0.000000  1
