# generated using pymatgen
data_LaCo(P4Os)3
_symmetry_space_group_name_H-M   'P 1'
_cell_length_a   6.98189536
_cell_length_b   7.01850905
_cell_length_c   6.98189501
_cell_angle_alpha   109.57747663
_cell_angle_beta   109.36474188
_cell_angle_gamma   109.57748818
_symmetry_Int_Tables_number   1
_chemical_formula_structural   LaCo(P4Os)3
_chemical_formula_sum   'La1 Co1 P12 Os3'
_cell_volume   263.02585848
_cell_formula_units_Z   1
loop_
 _symmetry_equiv_pos_site_id
 _symmetry_equiv_pos_as_xyz
  1  'x, y, z'
loop_
 _atom_site_type_symbol
 _atom_site_label
 _atom_site_symmetry_multiplicity
 _atom_site_fract_x
 _atom_site_fract_y
 _atom_site_fract_z
 _atom_site_occupancy
  La  La0  1  0.000000  0.000000  0.000000  1
  Co  Co1  1  0.000000  0.500000  0.000000  1
  P  P2  1  0.856957  0.643428  0.499621  1
  P  P3  1  0.143043  0.356572  0.500379  1
  P  P4  1  0.140970  0.641369  0.793284  1
  P  P5  1  0.859030  0.358631  0.206716  1
  P  P6  1  0.652314  0.500400  0.859030  1
  P  P7  1  0.347686  0.499600  0.140970  1
  P  P8  1  0.642664  0.786473  0.143043  1
  P  P9  1  0.357336  0.213527  0.856957  1
  P  P10  1  0.499621  0.856192  0.642664  1
  P  P11  1  0.500379  0.143808  0.357336  1
  P  P12  1  0.793284  0.151914  0.652314  1
  P  P13  1  0.206716  0.848086  0.347686  1
  Os  Os14  1  0.500000  0.500000  0.500000  1
  Os  Os15  1  0.500000  0.000000  0.000000  1
  Os  Os16  1  0.000000  0.000000  0.500000  1
