# generated using pymatgen
data_NdHoCCl
_symmetry_space_group_name_H-M   'P 1'
_cell_length_a   3.69471100
_cell_length_b   3.69471074
_cell_length_c   14.01220000
_cell_angle_alpha   90.00000000
_cell_angle_beta   90.00000000
_cell_angle_gamma   120.00001126
_symmetry_Int_Tables_number   1
_chemical_formula_structural   NdHoCCl
_chemical_formula_sum   'Nd2 Ho2 C2 Cl2'
_cell_volume   165.65243603
_cell_formula_units_Z   2
loop_
 _symmetry_equiv_pos_site_id
 _symmetry_equiv_pos_as_xyz
  1  'x, y, z'
loop_
 _atom_site_type_symbol
 _atom_site_label
 _atom_site_symmetry_multiplicity
 _atom_site_fract_x
 _atom_site_fract_y
 _atom_site_fract_z
 _atom_site_occupancy
  Nd  Nd0  1  0.333333  0.666667  0.094847  1
  Nd  Nd1  1  0.666667  0.333333  0.594847  1
  Ho  Ho2  1  0.666667  0.333333  0.905629  1
  Ho  Ho3  1  0.333333  0.666667  0.405629  1
  C  C4  1  0.000000  0.000000  0.990713  1
  C  C5  1  0.000000  0.000000  0.490713  1
  Cl  Cl6  1  0.666667  0.333333  0.258811  1
  Cl  Cl7  1  0.333333  0.666667  0.758811  1
