# generated using pymatgen
data_DyHo7Sc12(GaSi3)4
_symmetry_space_group_name_H-M   'P 1'
_cell_length_a   7.12331936
_cell_length_b   7.40180821
_cell_length_c   14.12484405
_cell_angle_alpha   90.00835579
_cell_angle_beta   89.86564045
_cell_angle_gamma   90.14748782
_symmetry_Int_Tables_number   1
_chemical_formula_structural   DyHo7Sc12(GaSi3)4
_chemical_formula_sum   'Dy1 Ho7 Sc12 Ga4 Si12'
_cell_volume   744.73414737
_cell_formula_units_Z   1
loop_
 _symmetry_equiv_pos_site_id
 _symmetry_equiv_pos_as_xyz
  1  'x, y, z'
loop_
 _atom_site_type_symbol
 _atom_site_label
 _atom_site_symmetry_multiplicity
 _atom_site_fract_x
 _atom_site_fract_y
 _atom_site_fract_z
 _atom_site_occupancy
  Dy  Dy0  1  0.013670  0.174592  0.097082  1
  Ho  Ho1  1  0.987956  0.824861  0.901671  1
  Ho  Ho2  1  0.486939  0.676852  0.901408  1
  Ho  Ho3  1  0.987603  0.827498  0.600263  1
  Ho  Ho4  1  0.510942  0.321548  0.097359  1
  Ho  Ho5  1  0.009878  0.174678  0.400605  1
  Ho  Ho6  1  0.511254  0.324569  0.400528  1
  Ho  Ho7  1  0.490125  0.675872  0.600593  1
  Sc  Sc8  1  0.162549  0.501277  0.751291  1
  Sc  Sc9  1  0.836773  0.498011  0.250122  1
  Sc  Sc10  1  0.336530  0.002301  0.248532  1
  Sc  Sc11  1  0.663139  0.998157  0.749996  1
  Sc  Sc12  1  0.333066  0.174874  0.627533  1
  Sc  Sc13  1  0.669380  0.825977  0.373889  1
  Sc  Sc14  1  0.170259  0.674106  0.373201  1
  Sc  Sc15  1  0.668819  0.825781  0.125387  1
  Sc  Sc16  1  0.828856  0.324412  0.626571  1
  Sc  Sc17  1  0.330438  0.175752  0.874699  1
  Sc  Sc18  1  0.829122  0.323261  0.874313  1
  Sc  Sc19  1  0.173044  0.675642  0.124455  1
  Ga  Ga20  1  0.161612  0.461653  0.539785  1
  Ga  Ga21  1  0.839288  0.537857  0.461274  1
  Ga  Ga22  1  0.339603  0.962015  0.461412  1
  Ga  Ga23  1  0.839781  0.538041  0.038723  1
  Si  Si24  1  0.032967  0.116372  0.751145  1
  Si  Si25  1  0.966936  0.883770  0.249337  1
  Si  Si26  1  0.467327  0.614621  0.248531  1
  Si  Si27  1  0.532919  0.385076  0.751107  1
  Si  Si28  1  0.285907  0.871759  0.751053  1
  Si  Si29  1  0.714895  0.127772  0.248798  1
  Si  Si30  1  0.214288  0.372240  0.248913  1
  Si  Si31  1  0.786666  0.628821  0.751411  1
  Si  Si32  1  0.658122  0.036160  0.539349  1
  Si  Si33  1  0.158251  0.463887  0.960672  1
  Si  Si34  1  0.656703  0.035773  0.961171  1
  Si  Si35  1  0.344394  0.964158  0.037825  1
