# generated using pymatgen
data_PaInCl4O
_symmetry_space_group_name_H-M   'P 1'
_cell_length_a   7.36569554
_cell_length_b   7.36569559
_cell_length_c   7.82772739
_cell_angle_alpha   106.56669343
_cell_angle_beta   106.56669272
_cell_angle_gamma   32.97399983
_symmetry_Int_Tables_number   1
_chemical_formula_structural   PaInCl4O
_chemical_formula_sum   'Pa1 In1 Cl4 O1'
_cell_volume   220.68124617
_cell_formula_units_Z   1
loop_
 _symmetry_equiv_pos_site_id
 _symmetry_equiv_pos_as_xyz
  1  'x, y, z'
loop_
 _atom_site_type_symbol
 _atom_site_label
 _atom_site_symmetry_multiplicity
 _atom_site_fract_x
 _atom_site_fract_y
 _atom_site_fract_z
 _atom_site_occupancy
  Pa  Pa0  1  0.495481  0.504520  0.500000  1
  In  In1  1  0.021305  0.978694  0.000000  1
  Cl  Cl2  1  0.364167  0.371281  0.184610  1
  Cl  Cl3  1  0.626545  0.632698  0.320584  1
  Cl  Cl4  1  0.367302  0.373454  0.679415  1
  Cl  Cl5  1  0.628719  0.635833  0.815389  1
  O  O6  1  0.995793  0.004208  0.500000  1
