# generated using pymatgen
data_Pu4Ta3MoN8
_symmetry_space_group_name_H-M   'P 1'
_cell_length_a   3.27763500
_cell_length_b   5.66780402
_cell_length_c   10.87939809
_cell_angle_alpha   89.79622529
_cell_angle_beta   90.00000000
_cell_angle_gamma   90.00000000
_symmetry_Int_Tables_number   1
_chemical_formula_structural   Pu4Ta3MoN8
_chemical_formula_sum   'Pu4 Ta3 Mo1 N8'
_cell_volume   202.10522208
_cell_formula_units_Z   1
loop_
 _symmetry_equiv_pos_site_id
 _symmetry_equiv_pos_as_xyz
  1  'x, y, z'
loop_
 _atom_site_type_symbol
 _atom_site_label
 _atom_site_symmetry_multiplicity
 _atom_site_fract_x
 _atom_site_fract_y
 _atom_site_fract_z
 _atom_site_occupancy
  Pu  Pu0  1  0.250000  0.582194  0.859430  1
  Pu  Pu1  1  0.750000  0.416522  0.143858  1
  Pu  Pu2  1  0.750000  0.925911  0.360422  1
  Pu  Pu3  1  0.250000  0.079685  0.639675  1
  Ta  Ta4  1  0.250000  0.917902  0.105925  1
  Ta  Ta5  1  0.750000  0.081422  0.894257  1
  Ta  Ta6  1  0.750000  0.575197  0.599180  1
  Mo  Mo7  1  0.250000  0.425037  0.397588  1
  N  N8  1  0.250000  0.659310  0.246799  1
  N  N9  1  0.750000  0.340134  0.754023  1
  N  N10  1  0.750000  0.836394  0.743097  1
  N  N11  1  0.250000  0.159343  0.254513  1
  N  N12  1  0.250000  0.754901  0.507186  1
  N  N13  1  0.750000  0.247164  0.493843  1
  N  N14  1  0.750000  0.751336  0.007468  1
  N  N15  1  0.250000  0.247545  0.992737  1
