# generated using pymatgen
data_K6W2O9
_symmetry_space_group_name_H-M   'P 1'
_cell_length_a   8.53375251
_cell_length_b   8.53375324
_cell_length_c   10.83544537
_cell_angle_alpha   68.07661408
_cell_angle_beta   68.07661557
_cell_angle_gamma   93.28670322
_symmetry_Int_Tables_number   1
_chemical_formula_structural   K6W2O9
_chemical_formula_sum   'K12 W4 O18'
_cell_volume   661.10701935
_cell_formula_units_Z   2
loop_
 _symmetry_equiv_pos_site_id
 _symmetry_equiv_pos_as_xyz
  1  'x, y, z'
loop_
 _atom_site_type_symbol
 _atom_site_label
 _atom_site_symmetry_multiplicity
 _atom_site_fract_x
 _atom_site_fract_y
 _atom_site_fract_z
 _atom_site_occupancy
  K  K0  1  0.499789  0.692133  0.018723  1
  K  K1  1  0.307867  0.500211  0.481277  1
  K  K2  1  0.500211  0.307867  0.981277  1
  K  K3  1  0.692133  0.499789  0.518723  1
  K  K4  1  0.001256  0.706797  0.023953  1
  K  K5  1  0.293203  0.998744  0.476047  1
  K  K6  1  0.998744  0.293203  0.976047  1
  K  K7  1  0.706797  0.001256  0.523953  1
  K  K8  1  0.094330  0.319968  0.264456  1
  K  K9  1  0.680032  0.905670  0.235544  1
  K  K10  1  0.905670  0.680032  0.735544  1
  K  K11  1  0.319968  0.094330  0.764456  1
  W  W12  1  0.371490  0.628510  0.750000  1
  W  W13  1  0.628510  0.371490  0.250000  1
  W  W14  1  0.147266  0.852734  0.250000  1
  W  W15  1  0.852734  0.147266  0.750000  1
  O  O16  1  0.091063  0.625551  0.287302  1
  O  O17  1  0.374449  0.908937  0.212698  1
  O  O18  1  0.908937  0.374449  0.712698  1
  O  O19  1  0.625551  0.091063  0.787302  1
  O  O20  1  0.884611  0.012991  0.910398  1
  O  O21  1  0.987009  0.115389  0.589602  1
  O  O22  1  0.115389  0.987009  0.089602  1
  O  O23  1  0.012991  0.884611  0.410398  1
  O  O24  1  0.679508  0.584831  0.255933  1
  O  O25  1  0.415169  0.320492  0.244067  1
  O  O26  1  0.320492  0.415169  0.744067  1
  O  O27  1  0.584831  0.679508  0.755933  1
  O  O28  1  0.517755  0.257460  0.464889  1
  O  O29  1  0.742540  0.482245  0.035111  1
  O  O30  1  0.482245  0.742540  0.535111  1
  O  O31  1  0.257460  0.517755  0.964889  1
  O  O32  1  0.218944  0.781056  0.750000  1
  O  O33  1  0.781056  0.218944  0.250000  1
