# generated using pymatgen
data_Y4Cr3Co17As12
_symmetry_space_group_name_H-M   'P 1'
_cell_length_a   3.79866900
_cell_length_b   10.72918541
_cell_length_c   12.27221447
_cell_angle_alpha   89.93925827
_cell_angle_beta   90.00000000
_cell_angle_gamma   90.00000000
_symmetry_Int_Tables_number   1
_chemical_formula_structural   Y4Cr3Co17As12
_chemical_formula_sum   'Y4 Cr3 Co17 As12'
_cell_volume   500.17375002
_cell_formula_units_Z   1
loop_
 _symmetry_equiv_pos_site_id
 _symmetry_equiv_pos_as_xyz
  1  'x, y, z'
loop_
 _atom_site_type_symbol
 _atom_site_label
 _atom_site_symmetry_multiplicity
 _atom_site_fract_x
 _atom_site_fract_y
 _atom_site_fract_z
 _atom_site_occupancy
  Y  Y0  1  0.250000  0.918533  0.204780  1
  Y  Y1  1  0.750000  0.078654  0.796012  1
  Y  Y2  1  0.750000  0.418546  0.296751  1
  Y  Y3  1  0.250000  0.580872  0.704677  1
  Cr  Cr4  1  0.250000  0.795230  0.490433  1
  Cr  Cr5  1  0.750000  0.204430  0.509452  1
  Cr  Cr6  1  0.750000  0.295768  0.008763  1
  Co  Co7  1  0.250000  0.707695  0.989503  1
  Co  Co8  1  0.250000  0.094759  0.988554  1
  Co  Co9  1  0.750000  0.906087  0.011827  1
  Co  Co10  1  0.750000  0.594451  0.510708  1
  Co  Co11  1  0.250000  0.406008  0.488204  1
  Co  Co12  1  0.250000  0.283756  0.675036  1
  Co  Co13  1  0.750000  0.716878  0.323368  1
  Co  Co14  1  0.750000  0.782888  0.824964  1
  Co  Co15  1  0.250000  0.217341  0.175339  1
  Co  Co16  1  0.250000  0.617135  0.196798  1
  Co  Co17  1  0.750000  0.384136  0.802168  1
  Co  Co18  1  0.750000  0.116670  0.301493  1
  Co  Co19  1  0.250000  0.882136  0.699340  1
  Co  Co20  1  0.250000  0.034598  0.431712  1
  Co  Co21  1  0.750000  0.965393  0.567930  1
  Co  Co22  1  0.750000  0.533703  0.067717  1
  Co  Co23  1  0.250000  0.466953  0.933570  1
  As  As24  1  0.250000  0.081140  0.614953  1
  As  As25  1  0.750000  0.918127  0.385529  1
  As  As26  1  0.750000  0.583449  0.886737  1
  As  As27  1  0.250000  0.418155  0.115730  1
  As  As28  1  0.250000  0.232270  0.366166  1
  As  As29  1  0.750000  0.767506  0.633954  1
  As  As30  1  0.750000  0.732416  0.131350  1
  As  As31  1  0.250000  0.268098  0.865261  1
  As  As32  1  0.250000  0.898749  0.892817  1
  As  As33  1  0.750000  0.096247  0.109775  1
  As  As34  1  0.750000  0.403564  0.609530  1
  As  As35  1  0.250000  0.597661  0.389095  1
