# generated using pymatgen
data_KTb(BeB14)2
_symmetry_space_group_name_H-M   'P 1'
_cell_length_a   7.25788021
_cell_length_b   7.25788104
_cell_length_c   7.25788012
_cell_angle_alpha   133.27151115
_cell_angle_beta   110.35313258
_cell_angle_gamma   88.09389724
_symmetry_Int_Tables_number   1
_chemical_formula_structural   KTb(BeB14)2
_chemical_formula_sum   'K1 Tb1 Be2 B28'
_cell_volume   248.93081346
_cell_formula_units_Z   1
loop_
 _symmetry_equiv_pos_site_id
 _symmetry_equiv_pos_as_xyz
  1  'x, y, z'
loop_
 _atom_site_type_symbol
 _atom_site_label
 _atom_site_symmetry_multiplicity
 _atom_site_fract_x
 _atom_site_fract_y
 _atom_site_fract_z
 _atom_site_occupancy
  K  K0  1  0.603754  0.250000  0.353754  1
  Tb  Tb1  1  0.388955  0.750000  0.638955  1
  Be  Be2  1  0.995043  0.007484  0.502527  1
  Be  Be3  1  0.995043  0.492516  0.987559  1
  B  B4  1  0.633475  0.665097  0.968378  1
  B  B5  1  0.366779  0.334960  0.031819  1
  B  B6  1  0.196858  0.165040  0.031819  1
  B  B7  1  0.803282  0.834903  0.968378  1
  B  B8  1  0.791164  0.154055  0.637110  1
  B  B9  1  0.209319  0.844386  0.364933  1
  B  B10  1  0.020544  0.655614  0.364933  1
  B  B11  1  0.983057  0.345945  0.637110  1
  B  B12  1  0.925278  0.090888  0.834390  1
  B  B13  1  0.078797  0.910508  0.168290  1
  B  B14  1  0.757782  0.589492  0.168290  1
  B  B15  1  0.243502  0.409112  0.834390  1
  B  B16  1  0.396264  0.396805  0.679821  1
  B  B17  1  0.603405  0.279654  0.996321  1
  B  B18  1  0.216668  0.892917  0.996321  1
  B  B19  1  0.783016  0.783558  0.679821  1
  B  B20  1  0.603405  0.607083  0.323751  1
  B  B21  1  0.396264  0.716442  0.999459  1
  B  B22  1  0.783016  0.103195  0.999459  1
  B  B23  1  0.216668  0.220346  0.323751  1
  B  B24  1  0.033659  0.825765  0.700030  1
  B  B25  1  0.967257  0.665014  0.794164  1
  B  B26  1  0.629151  0.326907  0.794164  1
  B  B27  1  0.374264  0.166371  0.700030  1
  B  B28  1  0.967257  0.173093  0.302243  1
  B  B29  1  0.033659  0.333629  0.207894  1
  B  B30  1  0.374264  0.674235  0.207894  1
  B  B31  1  0.629151  0.834986  0.302243  1
