# generated using pymatgen
data_Er10In8IrPd3
_symmetry_space_group_name_H-M   'P 1'
_cell_length_a   3.59019700
_cell_length_b   8.10848116
_cell_length_c   18.17985640
_cell_angle_alpha   89.97674153
_cell_angle_beta   90.00000000
_cell_angle_gamma   90.00000000
_symmetry_Int_Tables_number   1
_chemical_formula_structural   Er10In8IrPd3
_chemical_formula_sum   'Er10 In8 Ir1 Pd3'
_cell_volume   529.23456907
_cell_formula_units_Z   1
loop_
 _symmetry_equiv_pos_site_id
 _symmetry_equiv_pos_as_xyz
  1  'x, y, z'
loop_
 _atom_site_type_symbol
 _atom_site_label
 _atom_site_symmetry_multiplicity
 _atom_site_fract_x
 _atom_site_fract_y
 _atom_site_fract_z
 _atom_site_occupancy
  Er  Er0  1  0.000000  0.500442  0.499735  1
  Er  Er1  1  0.000000  0.000587  0.000796  1
  Er  Er2  1  0.000000  0.729316  0.277395  1
  Er  Er3  1  0.000000  0.259958  0.719390  1
  Er  Er4  1  0.000000  0.759092  0.779914  1
  Er  Er5  1  0.000000  0.254776  0.220369  1
  Er  Er6  1  0.000000  0.615606  0.087089  1
  Er  Er7  1  0.000000  0.382464  0.916559  1
  Er  Er8  1  0.000000  0.882565  0.583116  1
  Er  Er9  1  0.000000  0.116901  0.415260  1
  In  In10  1  0.500000  0.708774  0.932815  1
  In  In11  1  0.500000  0.292192  0.068087  1
  In  In12  1  0.500000  0.791403  0.431946  1
  In  In13  1  0.500000  0.207696  0.566941  1
  In  In14  1  0.500000  0.578656  0.649228  1
  In  In15  1  0.500000  0.422164  0.351685  1
  In  In16  1  0.500000  0.924475  0.150201  1
  In  In17  1  0.500000  0.078429  0.850285  1
  Ir  Ir18  1  0.500000  0.520867  0.195741  1
  Pd  Pd19  1  0.500000  0.475737  0.804009  1
  Pd  Pd20  1  0.500000  0.976520  0.695465  1
  Pd  Pd21  1  0.500000  0.021380  0.303974  1
