# generated using pymatgen
data_Lu9ScSi5Ge
_symmetry_space_group_name_H-M   'P 1'
_cell_length_a   8.22320308
_cell_length_b   8.22371110
_cell_length_c   6.11726603
_cell_angle_alpha   90.00100261
_cell_angle_beta   90.00919801
_cell_angle_gamma   119.98516146
_symmetry_Int_Tables_number   1
_chemical_formula_structural   Lu9ScSi5Ge
_chemical_formula_sum   'Lu9 Sc1 Si5 Ge1'
_cell_volume   358.31234320
_cell_formula_units_Z   1
loop_
 _symmetry_equiv_pos_site_id
 _symmetry_equiv_pos_as_xyz
  1  'x, y, z'
loop_
 _atom_site_type_symbol
 _atom_site_label
 _atom_site_symmetry_multiplicity
 _atom_site_fract_x
 _atom_site_fract_y
 _atom_site_fract_z
 _atom_site_occupancy
  Lu  Lu0  1  0.333162  0.665273  0.000871  1
  Lu  Lu1  1  0.667923  0.334873  0.499306  1
  Lu  Lu2  1  0.667870  0.334815  0.000799  1
  Lu  Lu3  1  0.241598  0.999219  0.251275  1
  Lu  Lu4  1  0.241854  0.244105  0.748634  1
  Lu  Lu5  1  0.999145  0.756737  0.748730  1
  Lu  Lu6  1  0.000637  0.242866  0.251378  1
  Lu  Lu7  1  0.757072  0.758189  0.251400  1
  Lu  Lu8  1  0.758430  0.999282  0.748722  1
  Sc  Sc9  1  0.333098  0.665281  0.499237  1
  Si  Si10  1  0.603790  0.997927  0.254295  1
  Si  Si11  1  0.603316  0.605926  0.745693  1
  Si  Si12  1  0.002103  0.396617  0.745721  1
  Si  Si13  1  0.002520  0.606224  0.254477  1
  Si  Si14  1  0.394177  0.396305  0.254551  1
  Ge  Ge15  1  0.393303  0.996358  0.744911  1
