# generated using pymatgen
data_Sm2Ho6Si12PtRh3
_symmetry_space_group_name_H-M   'P 1'
_cell_length_a   8.17852000
_cell_length_b   8.17852043
_cell_length_c   7.95132500
_cell_angle_alpha   90.00000000
_cell_angle_beta   90.00000000
_cell_angle_gamma   120.00000637
_symmetry_Int_Tables_number   1
_chemical_formula_structural   Sm2Ho6Si12PtRh3
_chemical_formula_sum   'Sm2 Ho6 Si12 Pt1 Rh3'
_cell_volume   460.59537379
_cell_formula_units_Z   1
loop_
 _symmetry_equiv_pos_site_id
 _symmetry_equiv_pos_as_xyz
  1  'x, y, z'
loop_
 _atom_site_type_symbol
 _atom_site_label
 _atom_site_symmetry_multiplicity
 _atom_site_fract_x
 _atom_site_fract_y
 _atom_site_fract_z
 _atom_site_occupancy
  Sm  Sm0  1  0.000000  0.000000  0.249497  1
  Sm  Sm1  1  0.000000  0.000000  0.751187  1
  Ho  Ho2  1  0.509911  0.490089  0.247565  1
  Ho  Ho3  1  0.509911  0.019823  0.247565  1
  Ho  Ho4  1  0.980177  0.490089  0.247565  1
  Ho  Ho5  1  0.491811  0.508189  0.752080  1
  Ho  Ho6  1  0.491811  0.983622  0.752080  1
  Ho  Ho7  1  0.016378  0.508189  0.752080  1
  Si  Si8  1  0.165306  0.834694  0.501186  1
  Si  Si9  1  0.165306  0.330611  0.501186  1
  Si  Si10  1  0.669389  0.834694  0.501186  1
  Si  Si11  1  0.831264  0.168736  0.498450  1
  Si  Si12  1  0.831264  0.662530  0.498450  1
  Si  Si13  1  0.337470  0.168736  0.498450  1
  Si  Si14  1  0.832281  0.167719  0.000428  1
  Si  Si15  1  0.832281  0.664564  0.000428  1
  Si  Si16  1  0.335436  0.167719  0.000428  1
  Si  Si17  1  0.167775  0.832225  0.999684  1
  Si  Si18  1  0.167775  0.335548  0.999684  1
  Si  Si19  1  0.664452  0.832225  0.999684  1
  Pt  Pt20  1  0.333333  0.666667  0.466031  1
  Rh  Rh21  1  0.666667  0.333333  0.537235  1
  Rh  Rh22  1  0.666667  0.333333  0.963016  1
  Rh  Rh23  1  0.333333  0.666667  0.034856  1
