# generated using pymatgen
data_Tb5Dy11Cd4NiRu3
_symmetry_space_group_name_H-M   'P 1'
_cell_length_a   9.60525040
_cell_length_b   9.67282272
_cell_length_c   9.67282220
_cell_angle_alpha   59.65356231
_cell_angle_beta   59.46018778
_cell_angle_gamma   59.46018616
_symmetry_Int_Tables_number   1
_chemical_formula_structural   Tb5Dy11Cd4NiRu3
_chemical_formula_sum   'Tb5 Dy11 Cd4 Ni1 Ru3'
_cell_volume   628.60355877
_cell_formula_units_Z   1
loop_
 _symmetry_equiv_pos_site_id
 _symmetry_equiv_pos_as_xyz
  1  'x, y, z'
loop_
 _atom_site_type_symbol
 _atom_site_label
 _atom_site_symmetry_multiplicity
 _atom_site_fract_x
 _atom_site_fract_y
 _atom_site_fract_z
 _atom_site_occupancy
  Tb  Tb0  1  0.558584  0.937608  0.937608  1
  Tb  Tb1  1  0.558321  0.937130  0.566939  1
  Tb  Tb2  1  0.939885  0.559883  0.939919  1
  Tb  Tb3  1  0.558321  0.566939  0.937130  1
  Tb  Tb4  1  0.939885  0.939919  0.559883  1
  Dy  Dy5  1  0.350177  0.346080  0.346080  1
  Dy  Dy6  1  0.350650  0.346065  0.959928  1
  Dy  Dy7  1  0.350650  0.959928  0.346065  1
  Dy  Dy8  1  0.959263  0.347063  0.347063  1
  Dy  Dy9  1  0.810572  0.187927  0.187927  1
  Dy  Dy10  1  0.185589  0.811342  0.811342  1
  Dy  Dy11  1  0.187823  0.810833  0.188824  1
  Dy  Dy12  1  0.810419  0.188737  0.810944  1
  Dy  Dy13  1  0.187823  0.188824  0.810833  1
  Dy  Dy14  1  0.810419  0.810944  0.188737  1
  Dy  Dy15  1  0.938742  0.560686  0.560686  1
  Cd  Cd16  1  0.579500  0.580563  0.580563  1
  Cd  Cd17  1  0.579620  0.580447  0.258090  1
  Cd  Cd18  1  0.579620  0.258090  0.580447  1
  Cd  Cd19  1  0.257368  0.580208  0.580208  1
  Ni  Ni20  1  0.577677  0.142164  0.142164  1
  Ru  Ru21  1  0.142412  0.139244  0.139244  1
  Ru  Ru22  1  0.143340  0.140472  0.578903  1
  Ru  Ru23  1  0.143340  0.578903  0.140472  1
