# generated using pymatgen
data_Ho9ErIn8(PdAu)2
_symmetry_space_group_name_H-M   'P 1'
_cell_length_a   3.63827500
_cell_length_b   8.15838807
_cell_length_c   18.30312600
_cell_angle_alpha   89.99265824
_cell_angle_beta   90.00000000
_cell_angle_gamma   90.00000000
_symmetry_Int_Tables_number   1
_chemical_formula_structural   Ho9ErIn8(PdAu)2
_chemical_formula_sum   'Ho9 Er1 In8 Pd2 Au2'
_cell_volume   543.28178905
_cell_formula_units_Z   1
loop_
 _symmetry_equiv_pos_site_id
 _symmetry_equiv_pos_as_xyz
  1  'x, y, z'
loop_
 _atom_site_type_symbol
 _atom_site_label
 _atom_site_symmetry_multiplicity
 _atom_site_fract_x
 _atom_site_fract_y
 _atom_site_fract_z
 _atom_site_occupancy
  Ho  Ho0  1  0.000000  0.499949  0.499975  1
  Ho  Ho1  1  0.000000  0.000008  0.000014  1
  Ho  Ho2  1  0.000000  0.745544  0.282327  1
  Ho  Ho3  1  0.000000  0.254488  0.717712  1
  Ho  Ho4  1  0.000000  0.767448  0.779212  1
  Ho  Ho5  1  0.000000  0.232565  0.220832  1
  Ho  Ho6  1  0.000000  0.617709  0.079914  1
  Ho  Ho7  1  0.000000  0.382248  0.920096  1
  Ho  Ho8  1  0.000000  0.886446  0.582365  1
  Er  Er9  1  0.000000  0.113458  0.417386  1
  In  In10  1  0.500000  0.713218  0.932171  1
  In  In11  1  0.500000  0.286804  0.067844  1
  In  In12  1  0.500000  0.789033  0.432328  1
  In  In13  1  0.500000  0.211348  0.567494  1
  In  In14  1  0.500000  0.583446  0.647219  1
  In  In15  1  0.500000  0.416167  0.352875  1
  In  In16  1  0.500000  0.921038  0.148328  1
  In  In17  1  0.500000  0.079003  0.851671  1
  Pd  Pd18  1  0.500000  0.975365  0.696013  1
  Pd  Pd19  1  0.500000  0.024798  0.304210  1
  Au  Au20  1  0.500000  0.525822  0.197002  1
  Au  Au21  1  0.500000  0.474092  0.803011  1
