# generated using pymatgen
data_Tb5Y(Bi4Au3)2
_symmetry_space_group_name_H-M   'P 1'
_cell_length_a   8.82562577
_cell_length_b   8.82561865
_cell_length_c   8.82561912
_cell_angle_alpha   109.48227751
_cell_angle_beta   109.44891227
_cell_angle_gamma   109.48234339
_symmetry_Int_Tables_number   1
_chemical_formula_structural   Tb5Y(Bi4Au3)2
_chemical_formula_sum   'Tb5 Y1 Bi8 Au6'
_cell_volume   529.19363241
_cell_formula_units_Z   1
loop_
 _symmetry_equiv_pos_site_id
 _symmetry_equiv_pos_as_xyz
  1  'x, y, z'
loop_
 _atom_site_type_symbol
 _atom_site_label
 _atom_site_symmetry_multiplicity
 _atom_site_fract_x
 _atom_site_fract_y
 _atom_site_fract_z
 _atom_site_occupancy
  Tb  Tb0  1  0.625001  0.750002  0.375002  1
  Tb  Tb1  1  0.750041  0.374910  0.624953  1
  Tb  Tb2  1  0.250041  0.125091  0.875130  1
  Tb  Tb3  1  0.375048  0.625089  0.749960  1
  Tb  Tb4  1  0.124869  0.874910  0.249959  1
  Y  Y5  1  0.874998  0.249999  0.124999  1
  Bi  Bi6  1  0.182947  0.500003  0.000108  1
  Bi  Bi7  1  0.317105  0.317073  0.317058  1
  Bi  Bi8  1  0.999983  0.182925  0.500030  1
  Bi  Bi9  1  0.817057  0.817161  0.817052  1
  Bi  Bi10  1  0.499969  0.999953  0.682895  1
  Bi  Bi11  1  0.999892  0.682839  0.499895  1
  Bi  Bi12  1  0.500106  0.999996  0.182943  1
  Bi  Bi13  1  0.682943  0.500047  0.000016  1
  Au  Au14  1  0.375000  0.250000  0.625001  1
  Au  Au15  1  0.874981  0.125008  0.750019  1
  Au  Au16  1  0.249981  0.624963  0.374988  1
  Au  Au17  1  0.750025  0.875038  0.125017  1
  Au  Au18  1  0.125001  0.750000  0.875000  1
  Au  Au19  1  0.625012  0.374994  0.249975  1
