# generated using pymatgen
data_NaNp2(PO4)3
_symmetry_space_group_name_H-M   'P 1'
_cell_length_a   9.33637726
_cell_length_b   9.19371081
_cell_length_c   9.68821354
_cell_angle_alpha   61.90020214
_cell_angle_beta   61.84477148
_cell_angle_gamma   60.05678090
_symmetry_Int_Tables_number   1
_chemical_formula_structural   NaNp2(PO4)3
_chemical_formula_sum   'Na2 Np4 P6 O24'
_cell_volume   604.39675283
_cell_formula_units_Z   2
loop_
 _symmetry_equiv_pos_site_id
 _symmetry_equiv_pos_as_xyz
  1  'x, y, z'
loop_
 _atom_site_type_symbol
 _atom_site_label
 _atom_site_symmetry_multiplicity
 _atom_site_fract_x
 _atom_site_fract_y
 _atom_site_fract_z
 _atom_site_occupancy
  Na  Na0  1  0.821396  0.524818  0.440773  1
  Na  Na1  1  0.178604  0.475182  0.559227  1
  Np  Np2  1  0.149102  0.653832  0.060124  1
  Np  Np3  1  0.650981  0.141190  0.563453  1
  Np  Np4  1  0.349019  0.858810  0.436547  1
  Np  Np5  1  0.850898  0.346168  0.939876  1
  P  P6  1  0.538762  0.464189  0.746761  1
  P  P7  1  0.751656  0.959782  0.250704  1
  P  P8  1  0.026612  0.259080  0.253076  1
  P  P9  1  0.973388  0.740920  0.746924  1
  P  P10  1  0.248344  0.040218  0.749296  1
  P  P11  1  0.461238  0.535811  0.253239  1
  O  O12  1  0.890490  0.773501  0.241365  1
  O  O13  1  0.522500  0.627039  0.589057  1
  O  O14  1  0.391067  0.508679  0.901062  1
  O  O15  1  0.719160  0.414109  0.759290  1
  O  O16  1  0.077470  0.409708  0.228033  1
  O  O17  1  0.792791  0.099125  0.081589  1
  O  O18  1  0.536139  0.310242  0.723751  1
  O  O19  1  0.238448  0.998892  0.616735  1
  O  O20  1  0.854285  0.270415  0.401296  1
  O  O21  1  0.569315  0.958159  0.299784  1
  O  O22  1  0.994356  0.290181  0.097415  1
  O  O23  1  0.169756  0.078813  0.293419  1
  O  O24  1  0.830244  0.921187  0.706581  1
  O  O25  1  0.005644  0.709819  0.902585  1
  O  O26  1  0.430685  0.041841  0.700216  1
  O  O27  1  0.145715  0.729585  0.598704  1
  O  O28  1  0.761552  0.001108  0.383265  1
  O  O29  1  0.463861  0.689758  0.276249  1
  O  O30  1  0.207209  0.900875  0.918411  1
  O  O31  1  0.922530  0.590292  0.771967  1
  O  O32  1  0.280840  0.585891  0.240710  1
  O  O33  1  0.608933  0.491321  0.098938  1
  O  O34  1  0.477500  0.372961  0.410943  1
  O  O35  1  0.109510  0.226499  0.758635  1
