# generated using pymatgen
data_Ta6V11Ir
_symmetry_space_group_name_H-M   'P 1'
_cell_length_a   8.77910900
_cell_length_b   8.77910789
_cell_length_c   8.22670100
_cell_angle_alpha   90.00000000
_cell_angle_beta   90.00000000
_cell_angle_gamma   119.99999288
_symmetry_Int_Tables_number   1
_chemical_formula_structural   Ta6V11Ir
_chemical_formula_sum   'Ta12 V22 Ir2'
_cell_volume   549.10728232
_cell_formula_units_Z   2
loop_
 _symmetry_equiv_pos_site_id
 _symmetry_equiv_pos_as_xyz
  1  'x, y, z'
loop_
 _atom_site_type_symbol
 _atom_site_label
 _atom_site_symmetry_multiplicity
 _atom_site_fract_x
 _atom_site_fract_y
 _atom_site_fract_z
 _atom_site_occupancy
  Ta  Ta0  1  0.335719  0.000000  0.060547  1
  Ta  Ta1  1  0.664281  0.000000  0.939453  1
  Ta  Ta2  1  0.000000  0.335719  0.060547  1
  Ta  Ta3  1  0.664281  0.000000  0.560547  1
  Ta  Ta4  1  0.000000  0.335719  0.439453  1
  Ta  Ta5  1  0.000000  0.664281  0.939453  1
  Ta  Ta6  1  0.335719  0.000000  0.439453  1
  Ta  Ta7  1  0.000000  0.664281  0.560547  1
  Ta  Ta8  1  0.664281  0.664281  0.060547  1
  Ta  Ta9  1  0.335719  0.335719  0.939453  1
  Ta  Ta10  1  0.335719  0.335719  0.560547  1
  Ta  Ta11  1  0.664281  0.664281  0.439453  1
  V  V12  1  0.164053  0.495924  0.750000  1
  V  V13  1  0.835947  0.504076  0.250000  1
  V  V14  1  0.504076  0.668129  0.750000  1
  V  V15  1  0.495924  0.164053  0.750000  1
  V  V16  1  0.495924  0.331871  0.250000  1
  V  V17  1  0.504076  0.835947  0.250000  1
  V  V18  1  0.331871  0.835947  0.750000  1
  V  V19  1  0.668129  0.504076  0.750000  1
  V  V20  1  0.668129  0.164053  0.250000  1
  V  V21  1  0.331871  0.495924  0.250000  1
  V  V22  1  0.835947  0.331871  0.750000  1
  V  V23  1  0.164053  0.668129  0.250000  1
  V  V24  1  0.333333  0.666667  0.500000  1
  V  V25  1  0.666667  0.333333  0.500000  1
  V  V26  1  0.666667  0.333333  0.000000  1
  V  V27  1  0.333333  0.666667  0.000000  1
  V  V28  1  0.170472  0.000000  0.750000  1
  V  V29  1  0.829528  0.000000  0.250000  1
  V  V30  1  0.000000  0.170472  0.750000  1
  V  V31  1  0.000000  0.829528  0.250000  1
  V  V32  1  0.829528  0.829528  0.750000  1
  V  V33  1  0.170472  0.170472  0.250000  1
  Ir  Ir34  1  0.000000  0.000000  0.500000  1
  Ir  Ir35  1  0.000000  0.000000  0.000000  1
