# generated using pymatgen
data_MgTa2Os3
_symmetry_space_group_name_H-M   'P 1'
_cell_length_a   13.36433700
_cell_length_b   3.20391400
_cell_length_c   4.45764300
_cell_angle_alpha   90.00000000
_cell_angle_beta   90.00000000
_cell_angle_gamma   90.00000000
_symmetry_Int_Tables_number   1
_chemical_formula_structural   MgTa2Os3
_chemical_formula_sum   'Mg2 Ta4 Os6'
_cell_volume   190.86818895
_cell_formula_units_Z   2
loop_
 _symmetry_equiv_pos_site_id
 _symmetry_equiv_pos_as_xyz
  1  'x, y, z'
loop_
 _atom_site_type_symbol
 _atom_site_label
 _atom_site_symmetry_multiplicity
 _atom_site_fract_x
 _atom_site_fract_y
 _atom_site_fract_z
 _atom_site_occupancy
  Mg  Mg0  1  0.585798  0.499999  0.251650  1
  Mg  Mg1  1  0.914202  0.499999  0.251650  1
  Ta  Ta2  1  0.250000  0.499999  0.247876  1
  Ta  Ta3  1  0.750000  0.499999  0.750645  1
  Ta  Ta4  1  0.073762  0.499999  0.749185  1
  Ta  Ta5  1  0.426238  0.499999  0.749185  1
  Os  Os6  1  0.750000  0.000000  0.250915  1
  Os  Os7  1  0.088818  0.000000  0.249048  1
  Os  Os8  1  0.411182  0.000000  0.249048  1
  Os  Os9  1  0.581750  0.000000  0.751337  1
  Os  Os10  1  0.918250  0.000000  0.751337  1
  Os  Os11  1  0.250000  0.000000  0.748129  1
