# generated using pymatgen
data_Sc12Co(Si4Ir)3
_symmetry_space_group_name_H-M   'P 1'
_cell_length_a   4.03253200
_cell_length_b   10.16333254
_cell_length_c   11.64109170
_cell_angle_alpha   89.81830584
_cell_angle_beta   90.00000000
_cell_angle_gamma   90.00000000
_symmetry_Int_Tables_number   1
_chemical_formula_structural   Sc12Co(Si4Ir)3
_chemical_formula_sum   'Sc12 Co1 Si12 Ir3'
_cell_volume   477.09568053
_cell_formula_units_Z   1
loop_
 _symmetry_equiv_pos_site_id
 _symmetry_equiv_pos_as_xyz
  1  'x, y, z'
loop_
 _atom_site_type_symbol
 _atom_site_label
 _atom_site_symmetry_multiplicity
 _atom_site_fract_x
 _atom_site_fract_y
 _atom_site_fract_z
 _atom_site_occupancy
  Sc  Sc0  1  0.250000  0.877284  0.018360  1
  Sc  Sc1  1  0.250000  0.619193  0.522761  1
  Sc  Sc2  1  0.750000  0.124147  0.979280  1
  Sc  Sc3  1  0.750000  0.376853  0.479900  1
  Sc  Sc4  1  0.250000  0.919795  0.603007  1
  Sc  Sc5  1  0.250000  0.580283  0.102357  1
  Sc  Sc6  1  0.750000  0.080121  0.398834  1
  Sc  Sc7  1  0.750000  0.420685  0.900677  1
  Sc  Sc8  1  0.250000  0.652448  0.798498  1
  Sc  Sc9  1  0.250000  0.841440  0.299870  1
  Sc  Sc10  1  0.750000  0.342385  0.200000  1
  Sc  Sc11  1  0.750000  0.162824  0.699845  1
  Co  Co12  1  0.250000  0.389983  0.675835  1
  Si  Si13  1  0.250000  0.017280  0.821155  1
  Si  Si14  1  0.250000  0.485855  0.322759  1
  Si  Si15  1  0.750000  0.986015  0.178109  1
  Si  Si16  1  0.750000  0.504504  0.679202  1
  Si  Si17  1  0.250000  0.256381  0.837016  1
  Si  Si18  1  0.250000  0.250179  0.342474  1
  Si  Si19  1  0.750000  0.750601  0.157422  1
  Si  Si20  1  0.750000  0.746382  0.658661  1
  Si  Si21  1  0.250000  0.197458  0.547781  1
  Si  Si22  1  0.250000  0.307308  0.044152  1
  Si  Si23  1  0.750000  0.805963  0.455543  1
  Si  Si24  1  0.750000  0.693144  0.953898  1
  Ir  Ir25  1  0.250000  0.110837  0.176258  1
  Ir  Ir26  1  0.750000  0.610593  0.324011  1
  Ir  Ir27  1  0.750000  0.890061  0.822336  1
