# generated using pymatgen
data_NaIOF4
_symmetry_space_group_name_H-M   'P 1'
_cell_length_a   5.33312800
_cell_length_b   6.45632467
_cell_length_c   14.73547077
_cell_angle_alpha   80.24621273
_cell_angle_beta   90.00000000
_cell_angle_gamma   90.00000000
_symmetry_Int_Tables_number   1
_chemical_formula_structural   NaIOF4
_chemical_formula_sum   'Na4 I4 O4 F16'
_cell_volume   500.04349542
_cell_formula_units_Z   4
loop_
 _symmetry_equiv_pos_site_id
 _symmetry_equiv_pos_as_xyz
  1  'x, y, z'
loop_
 _atom_site_type_symbol
 _atom_site_label
 _atom_site_symmetry_multiplicity
 _atom_site_fract_x
 _atom_site_fract_y
 _atom_site_fract_z
 _atom_site_occupancy
  Na  Na0  1  0.297284  0.636722  0.137220  1
  Na  Na1  1  0.797284  0.363278  0.362780  1
  Na  Na2  1  0.702716  0.363278  0.862780  1
  Na  Na3  1  0.202716  0.636722  0.637220  1
  I  I4  1  0.835064  0.183988  0.141914  1
  I  I5  1  0.335064  0.816012  0.358086  1
  I  I6  1  0.164936  0.816012  0.858086  1
  I  I7  1  0.664936  0.183988  0.641914  1
  O  O8  1  0.097482  0.337772  0.102077  1
  O  O9  1  0.597482  0.662228  0.397923  1
  O  O10  1  0.902518  0.662228  0.897923  1
  O  O11  1  0.402518  0.337772  0.602077  1
  F  F12  1  0.998428  0.920590  0.116265  1
  F  F13  1  0.498428  0.079410  0.383735  1
  F  F14  1  0.001572  0.079410  0.883735  1
  F  F15  1  0.501572  0.920590  0.616265  1
  F  F16  1  0.664007  0.433770  0.187739  1
  F  F17  1  0.164007  0.566230  0.312261  1
  F  F18  1  0.335993  0.566230  0.812261  1
  F  F19  1  0.835993  0.433770  0.687739  1
  F  F20  1  0.664139  0.247614  0.018976  1
  F  F21  1  0.164139  0.752386  0.481024  1
  F  F22  1  0.335861  0.752386  0.981024  1
  F  F23  1  0.835861  0.247614  0.518976  1
  F  F24  1  0.980170  0.127726  0.273000  1
  F  F25  1  0.480170  0.872274  0.227000  1
  F  F26  1  0.019830  0.872274  0.727000  1
  F  F27  1  0.519830  0.127726  0.773000  1
