# generated using pymatgen
data_Tb4Tm2Lu6Co5Bi
_symmetry_space_group_name_H-M   'P 1'
_cell_length_a   8.23113070
_cell_length_b   8.23113004
_cell_length_c   8.21796938
_cell_angle_alpha   111.45542017
_cell_angle_beta   110.47760946
_cell_angle_gamma   106.59028160
_symmetry_Int_Tables_number   1
_chemical_formula_structural   Tb4Tm2Lu6Co5Bi
_chemical_formula_sum   'Tb4 Tm2 Lu6 Co5 Bi1'
_cell_volume   427.38756192
_cell_formula_units_Z   1
loop_
 _symmetry_equiv_pos_site_id
 _symmetry_equiv_pos_as_xyz
  1  'x, y, z'
loop_
 _atom_site_type_symbol
 _atom_site_label
 _atom_site_symmetry_multiplicity
 _atom_site_fract_x
 _atom_site_fract_y
 _atom_site_fract_z
 _atom_site_occupancy
  Tb  Tb0  1  0.594814  0.791354  0.804898  1
  Tb  Tb1  1  0.405186  0.208646  0.195102  1
  Tb  Tb2  1  0.986457  0.789917  0.195102  1
  Tb  Tb3  1  0.013543  0.210083  0.804898  1
  Tm  Tm4  1  0.818696  0.711575  0.530271  1
  Tm  Tm5  1  0.181304  0.288425  0.469729  1
  Lu  Lu6  1  0.182291  0.711175  0.893467  1
  Lu  Lu7  1  0.817709  0.288825  0.106533  1
  Lu  Lu8  1  0.687288  0.376489  0.689802  1
  Lu  Lu9  1  0.312712  0.623511  0.310198  1
  Lu  Lu10  1  0.686687  0.997487  0.310198  1
  Lu  Lu11  1  0.313313  0.002513  0.689802  1
  Co  Co12  1  0.623265  0.999868  0.623133  1
  Co  Co13  1  0.376735  0.000132  0.376867  1
  Co  Co14  1  0.111862  0.611862  0.500000  1
  Co  Co15  1  0.888138  0.388138  0.500000  1
  Co  Co16  1  0.000000  0.000000  0.000000  1
  Bi  Bi17  1  0.500000  0.500000  0.000000  1
