# generated using pymatgen
data_Dy4Y6(AlBi)3
_symmetry_space_group_name_H-M   'P 1'
_cell_length_a   9.06563200
_cell_length_b   9.09948429
_cell_length_c   6.48638800
_cell_angle_alpha   90.00000000
_cell_angle_beta   90.00000000
_cell_angle_gamma   119.91164853
_symmetry_Int_Tables_number   1
_chemical_formula_structural   Dy4Y6(AlBi)3
_chemical_formula_sum   'Dy4 Y6 Al3 Bi3'
_cell_volume   463.80388264
_cell_formula_units_Z   1
loop_
 _symmetry_equiv_pos_site_id
 _symmetry_equiv_pos_as_xyz
  1  'x, y, z'
loop_
 _atom_site_type_symbol
 _atom_site_label
 _atom_site_symmetry_multiplicity
 _atom_site_fract_x
 _atom_site_fract_y
 _atom_site_fract_z
 _atom_site_occupancy
  Dy  Dy0  1  0.314533  0.648235  0.495744  1
  Dy  Dy1  1  0.678646  0.343833  0.495826  1
  Dy  Dy2  1  0.314533  0.648235  0.004256  1
  Dy  Dy3  1  0.678646  0.343833  0.004174  1
  Y  Y4  1  0.765012  0.751257  0.250000  1
  Y  Y5  1  0.013360  0.249369  0.250000  1
  Y  Y6  1  0.771500  0.013237  0.750000  1
  Y  Y7  1  0.233374  0.000704  0.250000  1
  Y  Y8  1  0.999091  0.753597  0.750000  1
  Y  Y9  1  0.230228  0.244386  0.750000  1
  Al  Al10  1  0.995609  0.398285  0.750000  1
  Al  Al11  1  0.397066  0.391719  0.250000  1
  Al  Al12  1  0.000503  0.603176  0.250000  1
  Bi  Bi13  1  0.606294  0.612512  0.750000  1
  Bi  Bi14  1  0.392791  0.002463  0.750000  1
  Bi  Bi15  1  0.608815  0.995160  0.250000  1
