# generated using pymatgen
data_La5Ga19
_symmetry_space_group_name_H-M   'P 1'
_cell_length_a   8.67281543
_cell_length_b   8.67282676
_cell_length_c   8.67282771
_cell_angle_alpha   109.87971036
_cell_angle_beta   109.87952778
_cell_angle_gamma   108.65774275
_symmetry_Int_Tables_number   1
_chemical_formula_structural   La5Ga19
_chemical_formula_sum   'La5 Ga19'
_cell_volume   502.10274806
_cell_formula_units_Z   1
loop_
 _symmetry_equiv_pos_site_id
 _symmetry_equiv_pos_as_xyz
  1  'x, y, z'
loop_
 _atom_site_type_symbol
 _atom_site_label
 _atom_site_symmetry_multiplicity
 _atom_site_fract_x
 _atom_site_fract_y
 _atom_site_fract_z
 _atom_site_occupancy
  La  La0  1  0.500000  0.500000  0.999999  1
  La  La1  1  0.893084  0.309118  0.202203  1
  La  La2  1  0.309119  0.106917  0.416032  1
  La  La3  1  0.690880  0.893084  0.583967  1
  La  La4  1  0.106917  0.690881  0.797800  1
  Ga  Ga5  1  0.000000  0.999999  0.000000  1
  Ga  Ga6  1  0.409250  0.140240  0.090361  1
  Ga  Ga7  1  0.950123  0.681116  0.090362  1
  Ga  Ga8  1  0.271539  0.669791  0.192558  1
  Ga  Ga9  1  0.522767  0.921009  0.192549  1
  Ga  Ga10  1  0.318892  0.409252  0.269011  1
  Ga  Ga11  1  0.859762  0.950126  0.269007  1
  Ga  Ga12  1  0.669794  0.477233  0.398254  1
  Ga  Ga13  1  0.921008  0.728457  0.398241  1
  Ga  Ga14  1  0.749999  0.249997  0.500000  1
  Ga  Ga15  1  0.249997  0.749998  0.500000  1
  Ga  Ga16  1  0.078983  0.271538  0.601753  1
  Ga  Ga17  1  0.330216  0.522768  0.601757  1
  Ga  Ga18  1  0.140234  0.049872  0.730989  1
  Ga  Ga19  1  0.681116  0.590754  0.730991  1
  Ga  Ga20  1  0.477228  0.078986  0.807445  1
  Ga  Ga21  1  0.728457  0.330215  0.807447  1
  Ga  Ga22  1  0.049873  0.318883  0.909637  1
  Ga  Ga23  1  0.590756  0.859766  0.909636  1
