# generated using pymatgen
data_Zr3U(Co2Au)2
_symmetry_space_group_name_H-M   'P 1'
_cell_length_a   7.06048667
_cell_length_b   7.06048667
_cell_length_c   3.34624100
_cell_angle_alpha   90.00000000
_cell_angle_beta   90.00000000
_cell_angle_gamma   92.06886682
_symmetry_Int_Tables_number   1
_chemical_formula_structural   Zr3U(Co2Au)2
_chemical_formula_sum   'Zr3 U1 Co4 Au2'
_cell_volume   166.70295863
_cell_formula_units_Z   1
loop_
 _symmetry_equiv_pos_site_id
 _symmetry_equiv_pos_as_xyz
  1  'x, y, z'
loop_
 _atom_site_type_symbol
 _atom_site_label
 _atom_site_symmetry_multiplicity
 _atom_site_fract_x
 _atom_site_fract_y
 _atom_site_fract_z
 _atom_site_occupancy
  Zr  Zr0  1  0.169492  0.331152  0.500000  1
  Zr  Zr1  1  0.831152  0.669492  0.500000  1
  Zr  Zr2  1  0.324283  0.824283  0.500000  1
  U  U3  1  0.668058  0.168058  0.500000  1
  Co  Co4  1  0.391786  0.139119  0.000000  1
  Co  Co5  1  0.116784  0.616784  0.000000  1
  Co  Co6  1  0.639119  0.891786  0.000000  1
  Co  Co7  1  0.848088  0.348088  0.000000  1
  Au  Au8  1  0.016600  0.994637  0.000000  1
  Au  Au9  1  0.494637  0.516600  0.000000  1
