# generated using pymatgen
data_ZrCd(TcSn4)2
_symmetry_space_group_name_H-M   'P 1'
_cell_length_a   7.49581941
_cell_length_b   7.49581947
_cell_length_c   7.49581900
_cell_angle_alpha   125.24928724
_cell_angle_beta   125.24930627
_cell_angle_gamma   81.12552219
_symmetry_Int_Tables_number   1
_chemical_formula_structural   ZrCd(TcSn4)2
_chemical_formula_sum   'Zr1 Cd1 Tc2 Sn8'
_cell_volume   270.59991132
_cell_formula_units_Z   1
loop_
 _symmetry_equiv_pos_site_id
 _symmetry_equiv_pos_as_xyz
  1  'x, y, z'
loop_
 _atom_site_type_symbol
 _atom_site_label
 _atom_site_symmetry_multiplicity
 _atom_site_fract_x
 _atom_site_fract_y
 _atom_site_fract_z
 _atom_site_occupancy
  Zr  Zr0  1  0.000000  0.000000  0.000000  1
  Cd  Cd1  1  0.500000  0.500000  0.000000  1
  Tc  Tc2  1  0.748902  0.748902  0.000000  1
  Tc  Tc3  1  0.251098  0.251098  0.000000  1
  Sn  Sn4  1  0.706112  0.513892  0.502123  1
  Sn  Sn5  1  0.513892  0.011769  0.807780  1
  Sn  Sn6  1  0.203989  0.706112  0.192220  1
  Sn  Sn7  1  0.796011  0.293888  0.807780  1
  Sn  Sn8  1  0.486108  0.988231  0.192220  1
  Sn  Sn9  1  0.293888  0.486108  0.497877  1
  Sn  Sn10  1  0.988231  0.796011  0.502123  1
  Sn  Sn11  1  0.011769  0.203989  0.497877  1
