# generated using pymatgen
data_Dy9Y6Th(CdNi)4
_symmetry_space_group_name_H-M   'P 1'
_cell_length_a   9.59507216
_cell_length_b   9.59507247
_cell_length_c   9.59507191
_cell_angle_alpha   60.14521887
_cell_angle_beta   60.14521630
_cell_angle_gamma   60.14521791
_symmetry_Int_Tables_number   1
_chemical_formula_structural   Dy9Y6Th(CdNi)4
_chemical_formula_sum   'Dy9 Y6 Th1 Cd4 Ni4'
_cell_volume   626.69463026
_cell_formula_units_Z   1
loop_
 _symmetry_equiv_pos_site_id
 _symmetry_equiv_pos_as_xyz
  1  'x, y, z'
loop_
 _atom_site_type_symbol
 _atom_site_label
 _atom_site_symmetry_multiplicity
 _atom_site_fract_x
 _atom_site_fract_y
 _atom_site_fract_z
 _atom_site_occupancy
  Dy  Dy0  1  0.598653  0.598653  0.201232  1
  Dy  Dy1  1  0.598653  0.201232  0.598653  1
  Dy  Dy2  1  0.201232  0.598653  0.598653  1
  Dy  Dy3  1  0.062757  0.439058  0.439058  1
  Dy  Dy4  1  0.439263  0.062561  0.062561  1
  Dy  Dy5  1  0.439058  0.062757  0.439058  1
  Dy  Dy6  1  0.062561  0.439263  0.062561  1
  Dy  Dy7  1  0.439058  0.439058  0.062757  1
  Dy  Dy8  1  0.062561  0.062561  0.439263  1
  Y  Y9  1  0.187813  0.814320  0.814320  1
  Y  Y10  1  0.812974  0.186842  0.186842  1
  Y  Y11  1  0.814320  0.187813  0.814320  1
  Y  Y12  1  0.186842  0.812974  0.186842  1
  Y  Y13  1  0.814320  0.814320  0.187813  1
  Y  Y14  1  0.186842  0.186842  0.812974  1
  Th  Th15  1  0.593947  0.593947  0.593947  1
  Cd  Cd16  1  0.830703  0.830703  0.830703  1
  Cd  Cd17  1  0.831632  0.831632  0.505724  1
  Cd  Cd18  1  0.831632  0.505724  0.831632  1
  Cd  Cd19  1  0.505724  0.831632  0.831632  1
  Ni  Ni20  1  0.392910  0.392910  0.392910  1
  Ni  Ni21  1  0.392746  0.392746  0.821054  1
  Ni  Ni22  1  0.392746  0.821054  0.392746  1
  Ni  Ni23  1  0.821054  0.392746  0.392746  1
