# generated using pymatgen
data_Zr6Al12V4Os7
_symmetry_space_group_name_H-M   'P 1'
_cell_length_a   8.73185280
_cell_length_b   8.73185373
_cell_length_c   8.73185300
_cell_angle_alpha   59.99999896
_cell_angle_beta   59.99999545
_cell_angle_gamma   60.00000485
_symmetry_Int_Tables_number   1
_chemical_formula_structural   Zr6Al12V4Os7
_chemical_formula_sum   'Zr6 Al12 V4 Os7'
_cell_volume   470.76511538
_cell_formula_units_Z   1
loop_
 _symmetry_equiv_pos_site_id
 _symmetry_equiv_pos_as_xyz
  1  'x, y, z'
loop_
 _atom_site_type_symbol
 _atom_site_label
 _atom_site_symmetry_multiplicity
 _atom_site_fract_x
 _atom_site_fract_y
 _atom_site_fract_z
 _atom_site_occupancy
  Zr  Zr0  1  0.705290  0.705290  0.294710  1
  Zr  Zr1  1  0.294710  0.705290  0.294710  1
  Zr  Zr2  1  0.705290  0.294710  0.294710  1
  Zr  Zr3  1  0.294710  0.294710  0.705290  1
  Zr  Zr4  1  0.705290  0.294710  0.705290  1
  Zr  Zr5  1  0.294710  0.705290  0.705290  1
  Al  Al6  1  0.119775  0.119775  0.640676  1
  Al  Al7  1  0.119775  0.640676  0.119775  1
  Al  Al8  1  0.640676  0.119775  0.119775  1
  Al  Al9  1  0.119775  0.119775  0.119775  1
  Al  Al10  1  0.663829  0.663829  0.008513  1
  Al  Al11  1  0.663829  0.008513  0.663829  1
  Al  Al12  1  0.008513  0.663829  0.663829  1
  Al  Al13  1  0.663829  0.663829  0.663829  1
  Al  Al14  1  0.334782  0.334782  0.995655  1
  Al  Al15  1  0.334782  0.995655  0.334782  1
  Al  Al16  1  0.995655  0.334782  0.334782  1
  Al  Al17  1  0.334782  0.334782  0.334782  1
  V  V18  1  0.879487  0.879487  0.361539  1
  V  V19  1  0.879487  0.361539  0.879487  1
  V  V20  1  0.361539  0.879487  0.879487  1
  V  V21  1  0.879487  0.879487  0.879487  1
  Os  Os22  1  0.000000  0.000000  0.000000  1
  Os  Os23  1  0.997256  0.997256  0.502744  1
  Os  Os24  1  0.502744  0.997256  0.502744  1
  Os  Os25  1  0.997256  0.502744  0.502744  1
  Os  Os26  1  0.502744  0.502744  0.997256  1
  Os  Os27  1  0.997256  0.502744  0.997256  1
  Os  Os28  1  0.502744  0.997256  0.997256  1
