# generated using pymatgen
data_TbDy11Co4SnPt
_symmetry_space_group_name_H-M   'P 1'
_cell_length_a   8.31173807
_cell_length_b   8.31320528
_cell_length_c   8.31320572
_cell_angle_alpha   106.88363718
_cell_angle_beta   110.43317174
_cell_angle_gamma   111.13591740
_symmetry_Int_Tables_number   1
_chemical_formula_structural   TbDy11Co4SnPt
_chemical_formula_sum   'Tb1 Dy11 Co4 Sn1 Pt1'
_cell_volume   441.45521021
_cell_formula_units_Z   1
loop_
 _symmetry_equiv_pos_site_id
 _symmetry_equiv_pos_as_xyz
  1  'x, y, z'
loop_
 _atom_site_type_symbol
 _atom_site_label
 _atom_site_symmetry_multiplicity
 _atom_site_fract_x
 _atom_site_fract_y
 _atom_site_fract_z
 _atom_site_occupancy
  Tb  Tb0  1  0.476637  0.291191  0.185446  1
  Dy  Dy1  1  0.105676  0.291167  0.814509  1
  Dy  Dy2  1  0.894139  0.708935  0.185204  1
  Dy  Dy3  1  0.523595  0.708756  0.814839  1
  Dy  Dy4  1  0.305192  0.620361  0.315031  1
  Dy  Dy5  1  0.305192  0.990162  0.684832  1
  Dy  Dy6  1  0.694855  0.379865  0.685340  1
  Dy  Dy7  1  0.694855  0.009513  0.314989  1
  Dy  Dy8  1  0.199035  0.214162  0.413626  1
  Dy  Dy9  1  0.800952  0.786101  0.586748  1
  Dy  Dy10  1  0.199035  0.785410  0.984873  1
  Dy  Dy11  1  0.800952  0.214204  0.014852  1
  Co  Co12  1  0.500115  0.612440  0.112011  1
  Co  Co13  1  0.500115  0.388104  0.887675  1
  Co  Co14  1  0.378015  0.999847  0.378169  1
  Co  Co15  1  0.621891  0.999977  0.621914  1
  Sn  Sn16  1  0.000100  0.500041  0.500059  1
  Pt  Pt17  1  0.999649  0.999766  0.999883  1
