# generated using pymatgen
data_YErAl20Ru3Rh
_symmetry_space_group_name_H-M   'P 1'
_cell_length_a   6.83452718
_cell_length_b   6.84332974
_cell_length_c   9.13489156
_cell_angle_alpha   90.14389223
_cell_angle_beta   90.15983374
_cell_angle_gamma   96.72655643
_symmetry_Int_Tables_number   1
_chemical_formula_structural   YErAl20Ru3Rh
_chemical_formula_sum   'Y1 Er1 Al20 Ru3 Rh1'
_cell_volume   424.30295614
_cell_formula_units_Z   1
loop_
 _symmetry_equiv_pos_site_id
 _symmetry_equiv_pos_as_xyz
  1  'x, y, z'
loop_
 _atom_site_type_symbol
 _atom_site_label
 _atom_site_symmetry_multiplicity
 _atom_site_fract_x
 _atom_site_fract_y
 _atom_site_fract_z
 _atom_site_occupancy
  Y  Y0  1  0.871171  0.127230  0.750617  1
  Er  Er1  1  0.129163  0.872641  0.249423  1
  Al  Al2  1  0.620754  0.376175  0.550661  1
  Al  Al3  1  0.378983  0.624024  0.449045  1
  Al  Al4  1  0.377148  0.623422  0.049692  1
  Al  Al5  1  0.622620  0.376799  0.950559  1
  Al  Al6  1  0.227044  0.225202  0.499001  1
  Al  Al7  1  0.773129  0.774615  0.500477  1
  Al  Al8  1  0.774325  0.774636  0.000119  1
  Al  Al9  1  0.225829  0.225195  0.000359  1
  Al  Al10  1  0.844751  0.155843  0.099793  1
  Al  Al11  1  0.155612  0.843818  0.900509  1
  Al  Al12  1  0.157188  0.845026  0.600919  1
  Al  Al13  1  0.843142  0.154588  0.398757  1
  Al  Al14  1  0.858037  0.587237  0.750850  1
  Al  Al15  1  0.142247  0.413295  0.249163  1
  Al  Al16  1  0.412772  0.141031  0.750418  1
  Al  Al17  1  0.586670  0.858684  0.249578  1
  Al  Al18  1  0.222870  0.480824  0.752415  1
  Al  Al19  1  0.777553  0.519682  0.247582  1
  Al  Al20  1  0.519079  0.779013  0.749803  1
  Al  Al21  1  0.480415  0.220578  0.250177  1
  Ru  Ru22  1  0.000122  0.500353  0.000337  1
  Ru  Ru23  1  0.499675  0.999922  0.000370  1
  Ru  Ru24  1  0.499646  0.999908  0.499630  1
  Rh  Rh25  1  0.000056  0.500256  0.499747  1
