# generated using pymatgen
data_Ba4HoReWO12
_symmetry_space_group_name_H-M   'P 1'
_cell_length_a   10.14492488
_cell_length_b   10.14492522
_cell_length_c   10.14492425
_cell_angle_alpha   33.91179962
_cell_angle_beta   33.91179442
_cell_angle_gamma   33.91179722
_symmetry_Int_Tables_number   1
_chemical_formula_structural   Ba4HoReWO12
_chemical_formula_sum   'Ba4 Ho1 Re1 W1 O12'
_cell_volume   289.65527619
_cell_formula_units_Z   1
loop_
 _symmetry_equiv_pos_site_id
 _symmetry_equiv_pos_as_xyz
  1  'x, y, z'
loop_
 _atom_site_type_symbol
 _atom_site_label
 _atom_site_symmetry_multiplicity
 _atom_site_fract_x
 _atom_site_fract_y
 _atom_site_fract_z
 _atom_site_occupancy
  Ba  Ba0  1  0.709083  0.709083  0.709083  1
  Ba  Ba1  1  0.287132  0.287132  0.287132  1
  Ba  Ba2  1  0.868798  0.868798  0.868798  1
  Ba  Ba3  1  0.137611  0.137611  0.137611  1
  Ho  Ho4  1  0.999745  0.999745  0.999745  1
  Re  Re5  1  0.421023  0.421023  0.421023  1
  W  W6  1  0.578403  0.578403  0.578403  1
  O  O7  1  0.385470  0.385470  0.863607  1
  O  O8  1  0.863607  0.385470  0.385470  1
  O  O9  1  0.385470  0.863607  0.385470  1
  O  O10  1  0.608246  0.608246  0.144421  1
  O  O11  1  0.144421  0.608246  0.608246  1
  O  O12  1  0.608246  0.144421  0.608246  1
  O  O13  1  0.225701  0.225701  0.683398  1
  O  O14  1  0.683398  0.225701  0.225701  1
  O  O15  1  0.225701  0.683398  0.225701  1
  O  O16  1  0.778630  0.778630  0.310684  1
  O  O17  1  0.310684  0.778630  0.778630  1
  O  O18  1  0.778630  0.310684  0.778630  1
