# generated using pymatgen
data_Ba12VFeCo2O19
_symmetry_space_group_name_H-M   'P 1'
_cell_length_a   7.89543408
_cell_length_b   7.91723385
_cell_length_c   10.52926115
_cell_angle_alpha   90.00581697
_cell_angle_beta   90.12369830
_cell_angle_gamma   96.93861969
_symmetry_Int_Tables_number   1
_chemical_formula_structural   Ba12VFeCo2O19
_chemical_formula_sum   'Ba12 V1 Fe1 Co2 O19'
_cell_volume   653.36207839
_cell_formula_units_Z   1
loop_
 _symmetry_equiv_pos_site_id
 _symmetry_equiv_pos_as_xyz
  1  'x, y, z'
loop_
 _atom_site_type_symbol
 _atom_site_label
 _atom_site_symmetry_multiplicity
 _atom_site_fract_x
 _atom_site_fract_y
 _atom_site_fract_z
 _atom_site_occupancy
  Ba  Ba0  1  0.746169  0.265854  0.485056  1
  Ba  Ba1  1  0.254086  0.723508  0.014962  1
  Ba  Ba2  1  0.747941  0.276540  0.010678  1
  Ba  Ba3  1  0.248797  0.730118  0.489054  1
  Ba  Ba4  1  0.577669  0.582379  0.247411  1
  Ba  Ba5  1  0.063259  0.069896  0.766053  1
  Ba  Ba6  1  0.420915  0.429527  0.754148  1
  Ba  Ba7  1  0.927344  0.929781  0.235728  1
  Ba  Ba8  1  0.750250  0.741773  0.930696  1
  Ba  Ba9  1  0.260468  0.262474  0.422338  1
  Ba  Ba10  1  0.256480  0.251993  0.077897  1
  Ba  Ba11  1  0.742773  0.732974  0.569995  1
  V  V12  1  0.496595  0.998056  0.743781  1
  Fe  Fe13  1  0.002014  0.500946  0.254672  1
  Co  Co14  1  0.503562  0.003955  0.259089  1
  Co  Co15  1  0.996601  0.495314  0.741396  1
  O  O16  1  0.265576  0.966483  0.295022  1
  O  O17  1  0.758255  0.471433  0.759937  1
  O  O18  1  0.535378  0.243404  0.243086  1
  O  O19  1  0.036228  0.734368  0.704930  1
  O  O20  1  0.923151  0.627425  0.390837  1
  O  O21  1  0.427217  0.100455  0.877465  1
  O  O22  1  0.894546  0.582930  0.109478  1
  O  O23  1  0.382324  0.069452  0.616365  1
  O  O24  1  0.242695  0.540650  0.241987  1
  O  O25  1  0.717593  0.041352  0.721389  1
  O  O26  1  0.964247  0.260751  0.278220  1
  O  O27  1  0.453615  0.777979  0.758589  1
  O  O28  1  0.578036  0.887546  0.118758  1
  O  O29  1  0.067208  0.348021  0.612318  1
  O  O30  1  0.648908  0.937328  0.390418  1
  O  O31  1  0.112185  0.412952  0.881077  1
  O  O32  1  0.497986  0.498590  0.997294  1
  O  O33  1  0.004831  0.999728  0.997363  1
  O  O34  1  0.495099  0.504065  0.502513  1
