# generated using pymatgen
data_Zr24SiAs7
_symmetry_space_group_name_H-M   'P 1'
_cell_length_a   11.04635897
_cell_length_b   11.05648600
_cell_length_c   5.48723546
_cell_angle_alpha   89.93140940
_cell_angle_beta   90.04789119
_cell_angle_gamma   90.00301100
_symmetry_Int_Tables_number   1
_chemical_formula_structural   Zr24SiAs7
_chemical_formula_sum   'Zr24 Si1 As7'
_cell_volume   670.17682394
_cell_formula_units_Z   1
loop_
 _symmetry_equiv_pos_site_id
 _symmetry_equiv_pos_as_xyz
  1  'x, y, z'
loop_
 _atom_site_type_symbol
 _atom_site_label
 _atom_site_symmetry_multiplicity
 _atom_site_fract_x
 _atom_site_fract_y
 _atom_site_fract_z
 _atom_site_occupancy
  Zr  Zr0  1  0.918524  0.607691  0.538567  1
  Zr  Zr1  1  0.082625  0.393452  0.535190  1
  Zr  Zr2  1  0.893578  0.417411  0.035493  1
  Zr  Zr3  1  0.105900  0.583824  0.032248  1
  Zr  Zr4  1  0.582323  0.893837  0.964395  1
  Zr  Zr5  1  0.417469  0.106360  0.964693  1
  Zr  Zr6  1  0.606345  0.082602  0.464873  1
  Zr  Zr7  1  0.393553  0.917467  0.464870  1
  Zr  Zr8  1  0.861764  0.971689  0.717620  1
  Zr  Zr9  1  0.138902  0.025731  0.716848  1
  Zr  Zr10  1  0.527289  0.360542  0.216574  1
  Zr  Zr11  1  0.472496  0.639368  0.216851  1
  Zr  Zr12  1  0.639324  0.526826  0.783755  1
  Zr  Zr13  1  0.360610  0.472586  0.783349  1
  Zr  Zr14  1  0.972856  0.139620  0.283555  1
  Zr  Zr15  1  0.027574  0.859593  0.281756  1
  Zr  Zr16  1  0.820553  0.715937  0.007874  1
  Zr  Zr17  1  0.180406  0.284385  0.010358  1
  Zr  Zr18  1  0.784487  0.319874  0.510283  1
  Zr  Zr19  1  0.214070  0.680415  0.511838  1
  Zr  Zr20  1  0.680524  0.784424  0.490130  1
  Zr  Zr21  1  0.319589  0.215345  0.490072  1
  Zr  Zr22  1  0.715699  0.180273  0.989779  1
  Zr  Zr23  1  0.283142  0.819911  0.988539  1
  Si  Si24  1  0.041553  0.794726  0.787480  1
  As  As25  1  0.794156  0.958778  0.212610  1
  As  As26  1  0.205851  0.041128  0.212634  1
  As  As27  1  0.541027  0.293975  0.712451  1
  As  As28  1  0.458829  0.705924  0.712824  1
  As  As29  1  0.706209  0.541401  0.287687  1
  As  As30  1  0.293853  0.459055  0.287074  1
  As  As31  1  0.958920  0.205851  0.787729  1
