# generated using pymatgen
data_Pr2YEr5(WO6)4
_symmetry_space_group_name_H-M   'P 1'
_cell_length_a   5.44323600
_cell_length_b   7.76574171
_cell_length_c   11.51935374
_cell_angle_alpha   75.58921664
_cell_angle_beta   90.00000000
_cell_angle_gamma   90.00000000
_symmetry_Int_Tables_number   1
_chemical_formula_structural   Pr2YEr5(WO6)4
_chemical_formula_sum   'Pr2 Y1 Er5 W4 O24'
_cell_volume   471.61123334
_cell_formula_units_Z   1
loop_
 _symmetry_equiv_pos_site_id
 _symmetry_equiv_pos_as_xyz
  1  'x, y, z'
loop_
 _atom_site_type_symbol
 _atom_site_label
 _atom_site_symmetry_multiplicity
 _atom_site_fract_x
 _atom_site_fract_y
 _atom_site_fract_z
 _atom_site_occupancy
  Pr  Pr0  1  0.685502  0.500000  0.250000  1
  Pr  Pr1  1  0.314026  0.500000  0.750000  1
  Y  Y2  1  0.743330  0.000000  0.250000  1
  Er  Er3  1  0.185336  0.202987  0.423387  1
  Er  Er4  1  0.185336  0.797013  0.076613  1
  Er  Er5  1  0.815023  0.797183  0.577329  1
  Er  Er6  1  0.815023  0.202817  0.922671  1
  Er  Er7  1  0.257200  0.000000  0.750000  1
  W  W8  1  0.254051  0.271849  0.115579  1
  W  W9  1  0.254051  0.728151  0.384421  1
  W  W10  1  0.745780  0.729288  0.883863  1
  W  W11  1  0.745780  0.270712  0.616137  1
  O  O12  1  0.453385  0.204492  0.273868  1
  O  O13  1  0.453385  0.795508  0.226132  1
  O  O14  1  0.544699  0.797345  0.726064  1
  O  O15  1  0.544699  0.202655  0.773936  1
  O  O16  1  0.045127  0.058003  0.102804  1
  O  O17  1  0.045127  0.941997  0.397196  1
  O  O18  1  0.957154  0.942394  0.895842  1
  O  O19  1  0.957154  0.057606  0.604158  1
  O  O20  1  0.986491  0.279112  0.231001  1
  O  O21  1  0.986491  0.720888  0.268999  1
  O  O22  1  0.013743  0.722019  0.768714  1
  O  O23  1  0.013743  0.277981  0.731286  1
  O  O24  1  0.855389  0.357150  0.454703  1
  O  O25  1  0.855389  0.642850  0.045297  1
  O  O26  1  0.143975  0.641875  0.545735  1
  O  O27  1  0.143975  0.358125  0.954265  1
  O  O28  1  0.654244  0.506261  0.612932  1
  O  O29  1  0.654244  0.493739  0.887068  1
  O  O30  1  0.346093  0.492825  0.387578  1
  O  O31  1  0.346093  0.507175  0.112422  1
  O  O32  1  0.463138  0.155263  0.569706  1
  O  O33  1  0.463138  0.844737  0.930294  1
  O  O34  1  0.536343  0.843450  0.431372  1
  O  O35  1  0.536343  0.156550  0.068628  1
