# generated using pymatgen
data_Yb8Re(IrO8)3
_symmetry_space_group_name_H-M   'P 1'
_cell_length_a   5.28849155
_cell_length_b   9.14441643
_cell_length_c   9.79129188
_cell_angle_alpha   90.13335133
_cell_angle_beta   90.06493437
_cell_angle_gamma   90.00596502
_symmetry_Int_Tables_number   1
_chemical_formula_structural   Yb8Re(IrO8)3
_chemical_formula_sum   'Yb8 Re1 Ir3 O24'
_cell_volume   473.50694101
_cell_formula_units_Z   1
loop_
 _symmetry_equiv_pos_site_id
 _symmetry_equiv_pos_as_xyz
  1  'x, y, z'
loop_
 _atom_site_type_symbol
 _atom_site_label
 _atom_site_symmetry_multiplicity
 _atom_site_fract_x
 _atom_site_fract_y
 _atom_site_fract_z
 _atom_site_occupancy
  Yb  Yb0  1  0.971768  0.595819  0.531432  1
  Yb  Yb1  1  0.471826  0.902273  0.465095  1
  Yb  Yb2  1  0.028003  0.092607  0.973272  1
  Yb  Yb3  1  0.531663  0.397208  0.029945  1
  Yb  Yb4  1  0.458884  0.781105  0.880075  1
  Yb  Yb5  1  0.957276  0.729004  0.126888  1
  Yb  Yb6  1  0.040188  0.217422  0.368810  1
  Yb  Yb7  1  0.543270  0.278530  0.624543  1
  Re  Re8  1  0.541835  0.005043  0.148504  1
  Ir  Ir9  1  0.953147  0.998042  0.646833  1
  Ir  Ir10  1  0.453530  0.502842  0.352689  1
  Ir  Ir11  1  0.048966  0.498325  0.854288  1
  O  O12  1  0.755593  0.089370  0.505935  1
  O  O13  1  0.254479  0.409193  0.493299  1
  O  O14  1  0.246150  0.586968  0.996495  1
  O  O15  1  0.743867  0.908778  0.006274  1
  O  O16  1  0.226903  0.108309  0.574698  1
  O  O17  1  0.726751  0.391377  0.425610  1
  O  O18  1  0.772610  0.606972  0.925017  1
  O  O19  1  0.272895  0.890521  0.072086  1
  O  O20  1  0.059993  0.845780  0.530847  1
  O  O21  1  0.563042  0.653062  0.471690  1
  O  O22  1  0.941736  0.344470  0.966979  1
  O  O23  1  0.432004  0.153776  0.028240  1
  O  O24  1  0.684445  0.860833  0.264986  1
  O  O25  1  0.174118  0.644681  0.738028  1
  O  O26  1  0.317659  0.361956  0.235336  1
  O  O27  1  0.824102  0.141854  0.763764  1
  O  O28  1  0.339352  0.056718  0.293916  1
  O  O29  1  0.851181  0.435693  0.707642  1
  O  O30  1  0.675545  0.876166  0.684831  1
  O  O31  1  0.153670  0.937583  0.790307  1
  O  O32  1  0.817101  0.130491  0.181574  1
  O  O33  1  0.329616  0.378780  0.812817  1
  O  O34  1  0.179858  0.628450  0.318405  1
  O  O35  1  0.656972  0.560000  0.208850  1
