# generated using pymatgen
data_Sc6Zn17GaNi6
_symmetry_space_group_name_H-M   'P 1'
_cell_length_a   8.63216683
_cell_length_b   8.63216607
_cell_length_c   8.63216600
_cell_angle_alpha   60.00000027
_cell_angle_beta   60.00000317
_cell_angle_gamma   59.99999922
_symmetry_Int_Tables_number   1
_chemical_formula_structural   Sc6Zn17GaNi6
_chemical_formula_sum   'Sc6 Zn17 Ga1 Ni6'
_cell_volume   454.82508181
_cell_formula_units_Z   1
loop_
 _symmetry_equiv_pos_site_id
 _symmetry_equiv_pos_as_xyz
  1  'x, y, z'
loop_
 _atom_site_type_symbol
 _atom_site_label
 _atom_site_symmetry_multiplicity
 _atom_site_fract_x
 _atom_site_fract_y
 _atom_site_fract_z
 _atom_site_occupancy
  Sc  Sc0  1  0.726969  0.273031  0.273031  1
  Sc  Sc1  1  0.273031  0.726969  0.726969  1
  Sc  Sc2  1  0.273031  0.726969  0.273031  1
  Sc  Sc3  1  0.726969  0.273031  0.726969  1
  Sc  Sc4  1  0.273031  0.273031  0.726969  1
  Sc  Sc5  1  0.726969  0.726969  0.273031  1
  Zn  Zn6  1  0.128121  0.128121  0.128121  1
  Zn  Zn7  1  0.871879  0.871879  0.871879  1
  Zn  Zn8  1  0.128121  0.128121  0.615640  1
  Zn  Zn9  1  0.128121  0.615640  0.128121  1
  Zn  Zn10  1  0.871879  0.871879  0.384360  1
  Zn  Zn11  1  0.871879  0.384360  0.871879  1
  Zn  Zn12  1  0.615640  0.128121  0.128121  1
  Zn  Zn13  1  0.384360  0.871879  0.871879  1
  Zn  Zn14  1  0.341462  0.341462  0.341462  1
  Zn  Zn15  1  0.658538  0.658538  0.658538  1
  Zn  Zn16  1  0.341462  0.341462  0.975614  1
  Zn  Zn17  1  0.341462  0.975614  0.341462  1
  Zn  Zn18  1  0.658538  0.658538  0.024386  1
  Zn  Zn19  1  0.658538  0.024386  0.658538  1
  Zn  Zn20  1  0.975614  0.341462  0.341462  1
  Zn  Zn21  1  0.024386  0.658538  0.658538  1
  Zn  Zn22  1  0.000000  0.000000  0.000000  1
  Ga  Ga23  1  0.500000  0.500000  0.500000  1
  Ni  Ni24  1  0.500000  0.000000  0.000000  1
  Ni  Ni25  1  0.000000  0.500000  0.500000  1
  Ni  Ni26  1  0.000000  0.500000  0.000000  1
  Ni  Ni27  1  0.500000  0.000000  0.500000  1
  Ni  Ni28  1  0.000000  0.000000  0.500000  1
  Ni  Ni29  1  0.500000  0.500000  0.000000  1
