# generated using pymatgen
data_Sc10Hg3Rh
_symmetry_space_group_name_H-M   'P 1'
_cell_length_a   9.02668200
_cell_length_b   9.02668380
_cell_length_c   8.99299300
_cell_angle_alpha   90.00000000
_cell_angle_beta   90.00000000
_cell_angle_gamma   119.99999341
_symmetry_Int_Tables_number   1
_chemical_formula_structural   Sc10Hg3Rh
_chemical_formula_sum   'Sc20 Hg6 Rh2'
_cell_volume   634.58717159
_cell_formula_units_Z   2
loop_
 _symmetry_equiv_pos_site_id
 _symmetry_equiv_pos_as_xyz
  1  'x, y, z'
loop_
 _atom_site_type_symbol
 _atom_site_label
 _atom_site_symmetry_multiplicity
 _atom_site_fract_x
 _atom_site_fract_y
 _atom_site_fract_z
 _atom_site_occupancy
  Sc  Sc0  1  0.000000  0.000000  0.500000  1
  Sc  Sc1  1  0.000000  0.000000  0.000000  1
  Sc  Sc2  1  0.541441  0.458559  0.250000  1
  Sc  Sc3  1  0.541441  0.082884  0.250000  1
  Sc  Sc4  1  0.917116  0.458559  0.250000  1
  Sc  Sc5  1  0.458559  0.541441  0.750000  1
  Sc  Sc6  1  0.458559  0.917116  0.750000  1
  Sc  Sc7  1  0.082884  0.541441  0.750000  1
  Sc  Sc8  1  0.208568  0.791432  0.441895  1
  Sc  Sc9  1  0.208568  0.417138  0.441895  1
  Sc  Sc10  1  0.582862  0.791432  0.441895  1
  Sc  Sc11  1  0.791432  0.208568  0.558105  1
  Sc  Sc12  1  0.791432  0.582862  0.558105  1
  Sc  Sc13  1  0.417138  0.208568  0.558105  1
  Sc  Sc14  1  0.791432  0.208568  0.941895  1
  Sc  Sc15  1  0.791432  0.582862  0.941895  1
  Sc  Sc16  1  0.417138  0.208568  0.941895  1
  Sc  Sc17  1  0.208568  0.791432  0.058105  1
  Sc  Sc18  1  0.208568  0.417138  0.058105  1
  Sc  Sc19  1  0.582862  0.791432  0.058105  1
  Hg  Hg20  1  0.880928  0.119072  0.250000  1
  Hg  Hg21  1  0.880928  0.761857  0.250000  1
  Hg  Hg22  1  0.238143  0.119072  0.250000  1
  Hg  Hg23  1  0.119072  0.880928  0.750000  1
  Hg  Hg24  1  0.119072  0.238143  0.750000  1
  Hg  Hg25  1  0.761857  0.880928  0.750000  1
  Rh  Rh26  1  0.333333  0.666667  0.250000  1
  Rh  Rh27  1  0.666667  0.333333  0.750000  1
