# generated using pymatgen
data_Sr4YbDy(RuO6)2
_symmetry_space_group_name_H-M   'P 1'
_cell_length_a   5.78535609
_cell_length_b   5.87770846
_cell_length_c   8.23246366
_cell_angle_alpha   90.12400886
_cell_angle_beta   90.38862206
_cell_angle_gamma   90.00968588
_symmetry_Int_Tables_number   1
_chemical_formula_structural   Sr4YbDy(RuO6)2
_chemical_formula_sum   'Sr4 Yb1 Dy1 Ru2 O12'
_cell_volume   279.93483386
_cell_formula_units_Z   1
loop_
 _symmetry_equiv_pos_site_id
 _symmetry_equiv_pos_as_xyz
  1  'x, y, z'
loop_
 _atom_site_type_symbol
 _atom_site_label
 _atom_site_symmetry_multiplicity
 _atom_site_fract_x
 _atom_site_fract_y
 _atom_site_fract_z
 _atom_site_occupancy
  Sr  Sr0  1  0.009893  0.044209  0.254526  1
  Sr  Sr1  1  0.490576  0.540255  0.255297  1
  Sr  Sr2  1  0.509424  0.459745  0.744703  1
  Sr  Sr3  1  0.990107  0.955791  0.745474  1
  Yb  Yb4  1  0.999999  0.500001  0.500000  1
  Dy  Dy5  1  0.500000  0.000000  0.999999  1
  Ru  Ru6  1  0.000000  0.500001  0.000000  1
  Ru  Ru7  1  0.499999  0.000000  0.500001  1
  O  O8  1  0.273265  0.303386  0.040760  1
  O  O9  1  0.192727  0.774311  0.042854  1
  O  O10  1  0.923951  0.479592  0.229212  1
  O  O11  1  0.577298  0.979326  0.265580  1
  O  O12  1  0.310449  0.269858  0.458929  1
  O  O13  1  0.231160  0.806636  0.461063  1
  O  O14  1  0.768841  0.193363  0.538936  1
  O  O15  1  0.689552  0.730142  0.541073  1
  O  O16  1  0.422700  0.020674  0.734420  1
  O  O17  1  0.076050  0.520408  0.770788  1
  O  O18  1  0.807274  0.225689  0.957146  1
  O  O19  1  0.726734  0.696613  0.959240  1
