# generated using pymatgen
data_K7CrO6
_symmetry_space_group_name_H-M   'P 1'
_cell_length_a   11.86202700
_cell_length_b   6.75139500
_cell_length_c   13.67381800
_cell_angle_alpha   90.00000000
_cell_angle_beta   90.00000000
_cell_angle_gamma   90.00000000
_symmetry_Int_Tables_number   1
_chemical_formula_structural   K7CrO6
_chemical_formula_sum   'K28 Cr4 O24'
_cell_volume   1095.07085647
_cell_formula_units_Z   4
loop_
 _symmetry_equiv_pos_site_id
 _symmetry_equiv_pos_as_xyz
  1  'x, y, z'
loop_
 _atom_site_type_symbol
 _atom_site_label
 _atom_site_symmetry_multiplicity
 _atom_site_fract_x
 _atom_site_fract_y
 _atom_site_fract_z
 _atom_site_occupancy
  K  K0  1  0.035183  0.733011  0.979847  1
  K  K1  1  0.464817  0.766989  0.479847  1
  K  K2  1  0.535183  0.766989  0.020153  1
  K  K3  1  0.964817  0.733011  0.520153  1
  K  K4  1  0.964817  0.266989  0.020153  1
  K  K5  1  0.535183  0.233011  0.520153  1
  K  K6  1  0.464817  0.233011  0.979847  1
  K  K7  1  0.035183  0.266989  0.479847  1
  K  K8  1  0.237265  0.843725  0.617070  1
  K  K9  1  0.262735  0.656275  0.117070  1
  K  K10  1  0.737265  0.656275  0.382930  1
  K  K11  1  0.762735  0.843725  0.882930  1
  K  K12  1  0.762735  0.156275  0.382930  1
  K  K13  1  0.737265  0.343725  0.882930  1
  K  K14  1  0.262735  0.343725  0.617070  1
  K  K15  1  0.237265  0.156275  0.117070  1
  K  K16  1  0.287980  0.623055  0.879570  1
  K  K17  1  0.212020  0.876945  0.379570  1
  K  K18  1  0.787980  0.876945  0.120430  1
  K  K19  1  0.712020  0.623055  0.620430  1
  K  K20  1  0.712020  0.376945  0.120430  1
  K  K21  1  0.787980  0.123055  0.620430  1
  K  K22  1  0.212020  0.123055  0.879570  1
  K  K23  1  0.287980  0.376945  0.379570  1
  K  K24  1  0.000000  0.439189  0.750000  1
  K  K25  1  0.500000  0.060811  0.250000  1
  K  K26  1  0.000000  0.560811  0.250000  1
  K  K27  1  0.500000  0.939189  0.750000  1
  Cr  Cr28  1  0.000000  0.934911  0.750000  1
  Cr  Cr29  1  0.500000  0.565089  0.250000  1
  Cr  Cr30  1  0.000000  0.065089  0.250000  1
  Cr  Cr31  1  0.500000  0.434911  0.750000  1
  O  O32  1  0.111884  0.783203  0.782086  1
  O  O33  1  0.388116  0.716797  0.282086  1
  O  O34  1  0.611884  0.716797  0.217914  1
  O  O35  1  0.888116  0.783203  0.717914  1
  O  O36  1  0.888116  0.216797  0.217914  1
  O  O37  1  0.611884  0.283203  0.717914  1
  O  O38  1  0.388116  0.283203  0.782086  1
  O  O39  1  0.111884  0.216797  0.282086  1
  O  O40  1  0.162546  0.585559  0.495268  1
  O  O41  1  0.337454  0.914441  0.995268  1
  O  O42  1  0.662546  0.914441  0.504732  1
  O  O43  1  0.837454  0.585559  0.004732  1
  O  O44  1  0.837454  0.414441  0.504732  1
  O  O45  1  0.662546  0.085559  0.004732  1
  O  O46  1  0.337454  0.085559  0.495268  1
  O  O47  1  0.162546  0.414441  0.995268  1
  O  O48  1  0.452361  0.585551  0.656287  1
  O  O49  1  0.047639  0.914449  0.156287  1
  O  O50  1  0.952361  0.914449  0.343713  1
  O  O51  1  0.547639  0.585551  0.843713  1
  O  O52  1  0.547639  0.414449  0.343713  1
  O  O53  1  0.952361  0.085551  0.843713  1
  O  O54  1  0.047639  0.085551  0.656287  1
  O  O55  1  0.452361  0.414449  0.156287  1
