# generated using pymatgen
data_Pa2AgF11
_symmetry_space_group_name_H-M   'P 1'
_cell_length_a   8.94601691
_cell_length_b   8.94601644
_cell_length_c   8.94601810
_cell_angle_alpha   122.46921338
_cell_angle_beta   106.50640016
_cell_angle_gamma   100.31334270
_symmetry_Int_Tables_number   1
_chemical_formula_structural   Pa2AgF11
_chemical_formula_sum   'Pa4 Ag2 F22'
_cell_volume   528.26201687
_cell_formula_units_Z   2
loop_
 _symmetry_equiv_pos_site_id
 _symmetry_equiv_pos_as_xyz
  1  'x, y, z'
loop_
 _atom_site_type_symbol
 _atom_site_label
 _atom_site_symmetry_multiplicity
 _atom_site_fract_x
 _atom_site_fract_y
 _atom_site_fract_z
 _atom_site_occupancy
  Pa  Pa0  1  0.681744  0.146852  0.828596  1
  Pa  Pa1  1  0.318256  0.853148  0.171404  1
  Pa  Pa2  1  0.181744  0.353148  0.534893  1
  Pa  Pa3  1  0.818256  0.646852  0.465107  1
  Ag  Ag4  1  0.750000  0.750000  0.000000  1
  Ag  Ag5  1  0.250000  0.250000  0.000000  1
  F  F6  1  0.500000  0.000000  0.500000  1
  F  F7  1  0.000000  0.500000  0.500000  1
  F  F8  1  0.782879  0.372421  0.155300  1
  F  F9  1  0.217121  0.627579  0.844700  1
  F  F10  1  0.282879  0.127579  0.410459  1
  F  F11  1  0.717121  0.872421  0.589541  1
  F  F12  1  0.707180  0.387805  0.835783  1
  F  F13  1  0.552023  0.871397  0.164217  1
  F  F14  1  0.947977  0.112195  0.319375  1
  F  F15  1  0.792820  0.628603  0.680625  1
  F  F16  1  0.292820  0.612195  0.164217  1
  F  F17  1  0.447977  0.128603  0.835783  1
  F  F18  1  0.052023  0.887805  0.680625  1
  F  F19  1  0.207180  0.371397  0.319375  1
  F  F20  1  0.943016  0.234136  0.908146  1
  F  F21  1  0.325990  0.034870  0.091854  1
  F  F22  1  0.174010  0.265864  0.708879  1
  F  F23  1  0.556984  0.465130  0.291121  1
  F  F24  1  0.056984  0.765864  0.091854  1
  F  F25  1  0.674010  0.965130  0.908146  1
  F  F26  1  0.825990  0.734136  0.291121  1
  F  F27  1  0.443016  0.534870  0.708879  1
