# generated using pymatgen
data_NdHoB5
_symmetry_space_group_name_H-M   'P 1'
_cell_length_a   7.18950100
_cell_length_b   7.16923746
_cell_length_c   7.19644097
_cell_angle_alpha   76.61507608
_cell_angle_beta   90.00000000
_cell_angle_gamma   90.00000000
_symmetry_Int_Tables_number   1
_chemical_formula_structural   NdHoB5
_chemical_formula_sum   'Nd4 Ho4 B20'
_cell_volume   360.85230361
_cell_formula_units_Z   4
loop_
 _symmetry_equiv_pos_site_id
 _symmetry_equiv_pos_as_xyz
  1  'x, y, z'
loop_
 _atom_site_type_symbol
 _atom_site_label
 _atom_site_symmetry_multiplicity
 _atom_site_fract_x
 _atom_site_fract_y
 _atom_site_fract_z
 _atom_site_occupancy
  Nd  Nd0  1  0.689232  0.777831  0.622637  1
  Nd  Nd1  1  0.189232  0.222169  0.877363  1
  Nd  Nd2  1  0.310768  0.222169  0.377363  1
  Nd  Nd3  1  0.810768  0.777831  0.122637  1
  Ho  Ho4  1  0.315900  0.750341  0.253778  1
  Ho  Ho5  1  0.815900  0.249659  0.246222  1
  Ho  Ho6  1  0.684100  0.249659  0.746222  1
  Ho  Ho7  1  0.184100  0.750341  0.753778  1
  B  B8  1  0.504991  0.314415  0.040169  1
  B  B9  1  0.004991  0.685585  0.459831  1
  B  B10  1  0.495009  0.685585  0.959831  1
  B  B11  1  0.995009  0.314415  0.540169  1
  B  B12  1  0.485144  0.925519  0.927025  1
  B  B13  1  0.985144  0.074481  0.572975  1
  B  B14  1  0.514856  0.074481  0.072975  1
  B  B15  1  0.014856  0.925519  0.427025  1
  B  B16  1  0.326998  0.496509  0.040176  1
  B  B17  1  0.826998  0.503491  0.459824  1
  B  B18  1  0.673002  0.503491  0.959824  1
  B  B19  1  0.173002  0.496509  0.540176  1
  B  B20  1  0.909785  0.498665  0.910286  1
  B  B21  1  0.409785  0.501335  0.589714  1
  B  B22  1  0.090215  0.501335  0.089714  1
  B  B23  1  0.590215  0.498665  0.410286  1
  B  B24  1  0.961133  0.496742  0.673405  1
  B  B25  1  0.461133  0.503258  0.826595  1
  B  B26  1  0.038867  0.503258  0.326595  1
  B  B27  1  0.538867  0.496742  0.173405  1
