# generated using pymatgen
data_Cs4PbS4
_symmetry_space_group_name_H-M   'P 1'
_cell_length_a   8.91513100
_cell_length_b   10.76358400
_cell_length_c   15.73657300
_cell_angle_alpha   90.00000000
_cell_angle_beta   90.00000000
_cell_angle_gamma   90.00000000
_symmetry_Int_Tables_number   1
_chemical_formula_structural   Cs4PbS4
_chemical_formula_sum   'Cs16 Pb4 S16'
_cell_volume   1510.06205360
_cell_formula_units_Z   4
loop_
 _symmetry_equiv_pos_site_id
 _symmetry_equiv_pos_as_xyz
  1  'x, y, z'
loop_
 _atom_site_type_symbol
 _atom_site_label
 _atom_site_symmetry_multiplicity
 _atom_site_fract_x
 _atom_site_fract_y
 _atom_site_fract_z
 _atom_site_occupancy
  Cs  Cs0  1  0.000000  0.000000  0.000000  1
  Cs  Cs1  1  0.500000  0.000000  0.500000  1
  Cs  Cs2  1  0.000000  0.500000  0.000000  1
  Cs  Cs3  1  0.500000  0.500000  0.500000  1
  Cs  Cs4  1  0.987873  0.750000  0.424448  1
  Cs  Cs5  1  0.487873  0.250000  0.075552  1
  Cs  Cs6  1  0.012127  0.250000  0.575552  1
  Cs  Cs7  1  0.512127  0.750000  0.924448  1
  Cs  Cs8  1  0.838451  0.052972  0.275341  1
  Cs  Cs9  1  0.338451  0.947028  0.224659  1
  Cs  Cs10  1  0.161549  0.552972  0.724659  1
  Cs  Cs11  1  0.661549  0.447028  0.775341  1
  Cs  Cs12  1  0.161549  0.947028  0.724659  1
  Cs  Cs13  1  0.661549  0.052972  0.775341  1
  Cs  Cs14  1  0.838451  0.447028  0.275341  1
  Cs  Cs15  1  0.338451  0.552972  0.224659  1
  Pb  Pb16  1  0.762144  0.750000  0.663382  1
  Pb  Pb17  1  0.237856  0.250000  0.336618  1
  Pb  Pb18  1  0.737856  0.750000  0.163382  1
  Pb  Pb19  1  0.262144  0.250000  0.836618  1
  S  S20  1  0.976718  0.250000  0.826427  1
  S  S21  1  0.523282  0.250000  0.326427  1
  S  S22  1  0.476718  0.750000  0.673573  1
  S  S23  1  0.023282  0.750000  0.173573  1
  S  S24  1  0.649063  0.557566  0.088738  1
  S  S25  1  0.149063  0.442434  0.411262  1
  S  S26  1  0.350937  0.057566  0.911262  1
  S  S27  1  0.850937  0.942434  0.588738  1
  S  S28  1  0.350937  0.442434  0.911262  1
  S  S29  1  0.850937  0.557566  0.588738  1
  S  S30  1  0.649063  0.942434  0.088738  1
  S  S31  1  0.149063  0.057566  0.411262  1
  S  S32  1  0.631600  0.750000  0.314532  1
  S  S33  1  0.131600  0.250000  0.185468  1
  S  S34  1  0.368400  0.250000  0.685468  1
  S  S35  1  0.868400  0.750000  0.814532  1
