# generated using pymatgen
data_CrFe20(B3Mo)2
_symmetry_space_group_name_H-M   'P 1'
_cell_length_a   7.50230053
_cell_length_b   7.50230044
_cell_length_c   7.50230100
_cell_angle_alpha   60.00000193
_cell_angle_beta   60.00000234
_cell_angle_gamma   60.00000625
_symmetry_Int_Tables_number   1
_chemical_formula_structural   CrFe20(B3Mo)2
_chemical_formula_sum   'Cr1 Fe20 B6 Mo2'
_cell_volume   298.58530545
_cell_formula_units_Z   1
loop_
 _symmetry_equiv_pos_site_id
 _symmetry_equiv_pos_as_xyz
  1  'x, y, z'
loop_
 _atom_site_type_symbol
 _atom_site_label
 _atom_site_symmetry_multiplicity
 _atom_site_fract_x
 _atom_site_fract_y
 _atom_site_fract_z
 _atom_site_occupancy
  Cr  Cr0  1  0.000000  0.000000  0.000000  1
  Fe  Fe1  1  0.000000  0.339284  0.660716  1
  Fe  Fe2  1  0.339284  0.660716  0.000000  1
  Fe  Fe3  1  0.339284  0.000000  0.000000  1
  Fe  Fe4  1  0.660716  0.339284  0.000000  1
  Fe  Fe5  1  0.339284  0.000000  0.660716  1
  Fe  Fe6  1  0.381986  0.381986  0.854043  1
  Fe  Fe7  1  0.618014  0.618014  0.618014  1
  Fe  Fe8  1  0.000000  0.000000  0.660716  1
  Fe  Fe9  1  0.145957  0.618014  0.618014  1
  Fe  Fe10  1  0.000000  0.339284  0.000000  1
  Fe  Fe11  1  0.000000  0.660716  0.339284  1
  Fe  Fe12  1  0.660716  0.000000  0.339284  1
  Fe  Fe13  1  0.618014  0.145957  0.618014  1
  Fe  Fe14  1  0.000000  0.000000  0.339284  1
  Fe  Fe15  1  0.000000  0.660716  0.000000  1
  Fe  Fe16  1  0.660716  0.000000  0.000000  1
  Fe  Fe17  1  0.381986  0.854043  0.381986  1
  Fe  Fe18  1  0.381986  0.381986  0.381986  1
  Fe  Fe19  1  0.854043  0.381986  0.381986  1
  Fe  Fe20  1  0.618014  0.618014  0.145957  1
  B  B21  1  0.724835  0.275165  0.275165  1
  B  B22  1  0.724835  0.724835  0.275165  1
  B  B23  1  0.275165  0.724835  0.724835  1
  B  B24  1  0.724835  0.275165  0.724835  1
  B  B25  1  0.275165  0.275165  0.724835  1
  B  B26  1  0.275165  0.724835  0.275165  1
  Mo  Mo27  1  0.250000  0.250000  0.250000  1
  Mo  Mo28  1  0.750000  0.750000  0.750000  1
