# generated using pymatgen
data_Er8Si8IrPt7
_symmetry_space_group_name_H-M   'P 1'
_cell_length_a   4.28304100
_cell_length_b   7.39845052
_cell_length_c   13.95128315
_cell_angle_alpha   89.82456923
_cell_angle_beta   90.00000000
_cell_angle_gamma   90.00000000
_symmetry_Int_Tables_number   1
_chemical_formula_structural   Er8Si8IrPt7
_chemical_formula_sum   'Er8 Si8 Ir1 Pt7'
_cell_volume   442.08433137
_cell_formula_units_Z   1
loop_
 _symmetry_equiv_pos_site_id
 _symmetry_equiv_pos_as_xyz
  1  'x, y, z'
loop_
 _atom_site_type_symbol
 _atom_site_label
 _atom_site_symmetry_multiplicity
 _atom_site_fract_x
 _atom_site_fract_y
 _atom_site_fract_z
 _atom_site_occupancy
  Er  Er0  1  0.000000  0.302309  0.999249  1
  Er  Er1  1  0.500000  0.696869  0.500747  1
  Er  Er2  1  0.000000  0.295100  0.502169  1
  Er  Er3  1  0.500000  0.706448  0.999117  1
  Er  Er4  1  0.000000  0.205517  0.250030  1
  Er  Er5  1  0.500000  0.794271  0.251062  1
  Er  Er6  1  0.000000  0.205215  0.750020  1
  Er  Er7  1  0.500000  0.796003  0.747568  1
  Si  Si8  1  0.000000  0.899775  0.593897  1
  Si  Si9  1  0.500000  0.093178  0.907286  1
  Si  Si10  1  0.000000  0.907092  0.408387  1
  Si  Si11  1  0.500000  0.093099  0.092115  1
  Si  Si12  1  0.000000  0.591821  0.148970  1
  Si  Si13  1  0.500000  0.407829  0.351822  1
  Si  Si14  1  0.000000  0.594336  0.847453  1
  Si  Si15  1  0.500000  0.411429  0.648529  1
  Ir  Ir16  1  0.000000  0.578207  0.657836  1
  Pt  Pt17  1  0.500000  0.077998  0.607355  1
  Pt  Pt18  1  0.000000  0.923543  0.892163  1
  Pt  Pt19  1  0.500000  0.076878  0.391488  1
  Pt  Pt20  1  0.000000  0.923705  0.108357  1
  Pt  Pt21  1  0.500000  0.419297  0.152996  1
  Pt  Pt22  1  0.000000  0.580650  0.345509  1
  Pt  Pt23  1  0.500000  0.419432  0.845874  1
