# generated using pymatgen
data_Ho3TaFe3Co5P6
_symmetry_space_group_name_H-M   'P 1'
_cell_length_a   3.72100400
_cell_length_b   10.59541500
_cell_length_c   12.24058800
_cell_angle_alpha   90.00000000
_cell_angle_beta   90.00000000
_cell_angle_gamma   90.00000000
_symmetry_Int_Tables_number   1
_chemical_formula_structural   Ho3TaFe3Co5P6
_chemical_formula_sum   'Ho6 Ta2 Fe6 Co10 P12'
_cell_volume   482.59230099
_cell_formula_units_Z   2
loop_
 _symmetry_equiv_pos_site_id
 _symmetry_equiv_pos_as_xyz
  1  'x, y, z'
loop_
 _atom_site_type_symbol
 _atom_site_label
 _atom_site_symmetry_multiplicity
 _atom_site_fract_x
 _atom_site_fract_y
 _atom_site_fract_z
 _atom_site_occupancy
  Ho  Ho0  1  0.000000  0.500000  0.527789  1
  Ho  Ho1  1  0.500000  0.000000  0.472211  1
  Ho  Ho2  1  0.500000  0.822045  0.204994  1
  Ho  Ho3  1  0.500000  0.177955  0.204994  1
  Ho  Ho4  1  0.000000  0.677955  0.795006  1
  Ho  Ho5  1  0.000000  0.322045  0.795006  1
  Ta  Ta6  1  0.500000  0.500000  0.154861  1
  Ta  Ta7  1  0.000000  0.000000  0.845139  1
  Fe  Fe8  1  0.000000  0.500000  0.987617  1
  Fe  Fe9  1  0.500000  0.000000  0.012383  1
  Fe  Fe10  1  0.500000  0.296886  0.430674  1
  Fe  Fe11  1  0.500000  0.703114  0.430674  1
  Fe  Fe12  1  0.000000  0.203114  0.569326  1
  Fe  Fe13  1  0.000000  0.796886  0.569326  1
  Co  Co14  1  0.500000  0.879025  0.705932  1
  Co  Co15  1  0.500000  0.120975  0.705932  1
  Co  Co16  1  0.000000  0.620975  0.294068  1
  Co  Co17  1  0.000000  0.379025  0.294068  1
  Co  Co18  1  0.500000  0.330715  0.993211  1
  Co  Co19  1  0.500000  0.669285  0.993211  1
  Co  Co20  1  0.000000  0.169285  0.006789  1
  Co  Co21  1  0.000000  0.830715  0.006789  1
  Co  Co22  1  0.500000  0.500000  0.700630  1
  Co  Co23  1  0.000000  0.000000  0.299370  1
  P  P24  1  0.500000  0.307529  0.613726  1
  P  P25  1  0.500000  0.692471  0.613726  1
  P  P26  1  0.000000  0.192471  0.386274  1
  P  P27  1  0.000000  0.807529  0.386274  1
  P  P28  1  0.500000  0.500000  0.884200  1
  P  P29  1  0.000000  0.000000  0.115800  1
  P  P30  1  0.500000  0.841782  0.893593  1
  P  P31  1  0.500000  0.158218  0.893593  1
  P  P32  1  0.000000  0.658218  0.106407  1
  P  P33  1  0.000000  0.341782  0.106407  1
  P  P34  1  0.500000  0.500000  0.356791  1
  P  P35  1  0.000000  0.000000  0.643209  1
