# generated using pymatgen
data_Na2YbGa7
_symmetry_space_group_name_H-M   'P 1'
_cell_length_a   5.71097489
_cell_length_b   5.71097420
_cell_length_c   17.46799900
_cell_angle_alpha   90.00000000
_cell_angle_beta   90.00000000
_cell_angle_gamma   133.87544310
_symmetry_Int_Tables_number   1
_chemical_formula_structural   Na2YbGa7
_chemical_formula_sum   'Na4 Yb2 Ga14'
_cell_volume   410.68368310
_cell_formula_units_Z   2
loop_
 _symmetry_equiv_pos_site_id
 _symmetry_equiv_pos_as_xyz
  1  'x, y, z'
loop_
 _atom_site_type_symbol
 _atom_site_label
 _atom_site_symmetry_multiplicity
 _atom_site_fract_x
 _atom_site_fract_y
 _atom_site_fract_z
 _atom_site_occupancy
  Na  Na0  1  0.840866  0.159134  0.947103  1
  Na  Na1  1  0.159134  0.840866  0.447103  1
  Na  Na2  1  0.159134  0.840866  0.052897  1
  Na  Na3  1  0.840866  0.159134  0.552897  1
  Yb  Yb4  1  0.341008  0.658992  0.250000  1
  Yb  Yb5  1  0.658992  0.341008  0.750000  1
  Ga  Ga6  1  0.126025  0.873975  0.871694  1
  Ga  Ga7  1  0.873975  0.126025  0.371694  1
  Ga  Ga8  1  0.873975  0.126025  0.128306  1
  Ga  Ga9  1  0.126025  0.873975  0.628306  1
  Ga  Ga10  1  0.542531  0.457469  0.930319  1
  Ga  Ga11  1  0.457469  0.542531  0.430319  1
  Ga  Ga12  1  0.457469  0.542531  0.069681  1
  Ga  Ga13  1  0.542531  0.457469  0.569681  1
  Ga  Ga14  1  0.041952  0.958048  0.250000  1
  Ga  Ga15  1  0.958048  0.041952  0.750000  1
  Ga  Ga16  1  0.361703  0.638297  0.824874  1
  Ga  Ga17  1  0.638297  0.361703  0.324874  1
  Ga  Ga18  1  0.638297  0.361703  0.175126  1
  Ga  Ga19  1  0.361703  0.638297  0.675126  1
