# generated using pymatgen
data_Y4ErHgPd14
_symmetry_space_group_name_H-M   'P 1'
_cell_length_a   4.18633700
_cell_length_b   4.09676700
_cell_length_c   20.89882800
_cell_angle_alpha   90.00000000
_cell_angle_beta   90.00000000
_cell_angle_gamma   90.00000000
_symmetry_Int_Tables_number   1
_chemical_formula_structural   Y4ErHgPd14
_chemical_formula_sum   'Y4 Er1 Hg1 Pd14'
_cell_volume   358.42424767
_cell_formula_units_Z   1
loop_
 _symmetry_equiv_pos_site_id
 _symmetry_equiv_pos_as_xyz
  1  'x, y, z'
loop_
 _atom_site_type_symbol
 _atom_site_label
 _atom_site_symmetry_multiplicity
 _atom_site_fract_x
 _atom_site_fract_y
 _atom_site_fract_z
 _atom_site_occupancy
  Y  Y0  1  0.000000  0.000000  0.195030  1
  Y  Y1  1  0.000000  0.000000  0.389278  1
  Y  Y2  1  0.000000  0.000000  0.610722  1
  Y  Y3  1  0.000000  0.000000  0.804970  1
  Er  Er4  1  0.000000  0.000000  0.000000  1
  Hg  Hg5  1  0.500000  0.000000  0.500000  1
  Pd  Pd6  1  0.500000  0.500000  0.000000  1
  Pd  Pd7  1  0.500000  0.500000  0.197367  1
  Pd  Pd8  1  0.500000  0.500000  0.396426  1
  Pd  Pd9  1  0.500000  0.500000  0.603574  1
  Pd  Pd10  1  0.500000  0.500000  0.802633  1
  Pd  Pd11  1  0.500000  0.000000  0.097767  1
  Pd  Pd12  1  0.500000  0.000000  0.296626  1
  Pd  Pd13  1  0.500000  0.000000  0.703374  1
  Pd  Pd14  1  0.500000  0.000000  0.902233  1
  Pd  Pd15  1  0.000000  0.500000  0.097206  1
  Pd  Pd16  1  0.000000  0.500000  0.296279  1
  Pd  Pd17  1  0.000000  0.500000  0.500000  1
  Pd  Pd18  1  0.000000  0.500000  0.703721  1
  Pd  Pd19  1  0.000000  0.500000  0.902794  1
