# generated using pymatgen
data_Hf5ScAlAs5Ru6
_symmetry_space_group_name_H-M   'P 1'
_cell_length_a   7.67431117
_cell_length_b   7.68793356
_cell_length_c   7.67431083
_cell_angle_alpha   128.24251946
_cell_angle_beta   120.31531760
_cell_angle_gamma   82.84076502
_symmetry_Int_Tables_number   1
_chemical_formula_structural   Hf5ScAlAs5Ru6
_chemical_formula_sum   'Hf5 Sc1 Al1 As5 Ru6'
_cell_volume   294.97367586
_cell_formula_units_Z   1
loop_
 _symmetry_equiv_pos_site_id
 _symmetry_equiv_pos_as_xyz
  1  'x, y, z'
loop_
 _atom_site_type_symbol
 _atom_site_label
 _atom_site_symmetry_multiplicity
 _atom_site_fract_x
 _atom_site_fract_y
 _atom_site_fract_z
 _atom_site_occupancy
  Hf  Hf0  1  0.522449  0.256020  0.233571  1
  Hf  Hf1  1  0.749959  0.835479  0.585520  1
  Hf  Hf2  1  0.249565  0.828825  0.079259  1
  Hf  Hf3  1  0.053958  0.257267  0.703308  1
  Hf  Hf4  1  0.948646  0.652475  0.203829  1
  Sc  Sc5  1  0.472757  0.706617  0.733859  1
  Al  Al6  1  0.277926  0.281971  0.504046  1
  As  As7  1  0.721605  0.215775  0.994170  1
  As  As8  1  0.329760  0.586417  0.250611  1
  As  As9  1  0.671220  0.919254  0.257153  1
  As  As10  1  0.162102  0.919254  0.748033  1
  As  As11  1  0.835805  0.586417  0.756656  1
  Ru  Ru12  1  0.511057  0.497677  0.008836  1
  Ru  Ru13  1  0.988841  0.497677  0.486620  1
  Ru  Ru14  1  0.094852  0.252317  0.099181  1
  Ru  Ru15  1  0.910220  0.006919  0.160779  1
  Ru  Ru16  1  0.346141  0.006919  0.596699  1
  Ru  Ru17  1  0.653136  0.252317  0.657465  1
