# generated using pymatgen
data_TbY3Al4PdRh3
_symmetry_space_group_name_H-M   'P 1'
_cell_length_a   4.29638900
_cell_length_b   6.91834955
_cell_length_c   7.91731890
_cell_angle_alpha   89.99539907
_cell_angle_beta   90.00000000
_cell_angle_gamma   90.00000000
_symmetry_Int_Tables_number   1
_chemical_formula_structural   TbY3Al4PdRh3
_chemical_formula_sum   'Tb1 Y3 Al4 Pd1 Rh3'
_cell_volume   235.33376003
_cell_formula_units_Z   1
loop_
 _symmetry_equiv_pos_site_id
 _symmetry_equiv_pos_as_xyz
  1  'x, y, z'
loop_
 _atom_site_type_symbol
 _atom_site_label
 _atom_site_symmetry_multiplicity
 _atom_site_fract_x
 _atom_site_fract_y
 _atom_site_fract_z
 _atom_site_occupancy
  Tb  Tb0  1  0.750000  0.967676  0.679473  1
  Y  Y1  1  0.250000  0.029625  0.322286  1
  Y  Y2  1  0.250000  0.537863  0.181220  1
  Y  Y3  1  0.750000  0.470032  0.816123  1
  Al  Al4  1  0.250000  0.138535  0.935799  1
  Al  Al5  1  0.250000  0.638256  0.561978  1
  Al  Al6  1  0.750000  0.856233  0.062718  1
  Al  Al7  1  0.750000  0.363408  0.439231  1
  Pd  Pd8  1  0.750000  0.228457  0.119049  1
  Rh  Rh9  1  0.250000  0.267599  0.617734  1
  Rh  Rh10  1  0.250000  0.768755  0.881963  1
  Rh  Rh11  1  0.750000  0.733560  0.382426  1
