# generated using pymatgen
data_Tb8Hg4Pt3Au5
_symmetry_space_group_name_H-M   'P 1'
_cell_length_a   7.99483625
_cell_length_b   7.99483657
_cell_length_c   7.34590700
_cell_angle_alpha   90.05168551
_cell_angle_beta   90.05168551
_cell_angle_gamma   90.63322094
_symmetry_Int_Tables_number   1
_chemical_formula_structural   Tb8Hg4Pt3Au5
_chemical_formula_sum   'Tb8 Hg4 Pt3 Au5'
_cell_volume   469.50228340
_cell_formula_units_Z   1
loop_
 _symmetry_equiv_pos_site_id
 _symmetry_equiv_pos_as_xyz
  1  'x, y, z'
loop_
 _atom_site_type_symbol
 _atom_site_label
 _atom_site_symmetry_multiplicity
 _atom_site_fract_x
 _atom_site_fract_y
 _atom_site_fract_z
 _atom_site_occupancy
  Tb  Tb0  1  0.167936  0.167936  0.005701  1
  Tb  Tb1  1  0.824769  0.824769  0.999267  1
  Tb  Tb2  1  0.663622  0.345730  0.495908  1
  Tb  Tb3  1  0.345730  0.663622  0.495908  1
  Tb  Tb4  1  0.674714  0.335072  0.003526  1
  Tb  Tb5  1  0.335072  0.674714  0.003526  1
  Tb  Tb6  1  0.813628  0.813628  0.500477  1
  Tb  Tb7  1  0.181491  0.181491  0.495349  1
  Hg  Hg8  1  0.499524  0.004909  0.249567  1
  Hg  Hg9  1  0.500942  0.997150  0.748850  1
  Hg  Hg10  1  0.004909  0.499524  0.249567  1
  Hg  Hg11  1  0.997150  0.500942  0.748850  1
  Pt  Pt12  1  0.372349  0.372349  0.239254  1
  Pt  Pt13  1  0.624745  0.624745  0.760282  1
  Pt  Pt14  1  0.626398  0.626398  0.239031  1
  Au  Au15  1  0.872218  0.126658  0.736898  1
  Au  Au16  1  0.871343  0.124711  0.263624  1
  Au  Au17  1  0.372090  0.372090  0.763894  1
  Au  Au18  1  0.124711  0.871343  0.263624  1
  Au  Au19  1  0.126658  0.872218  0.736898  1
