# generated using pymatgen
data_TmLu2MgRu2
_symmetry_space_group_name_H-M   'P 1'
_cell_length_a   3.37353900
_cell_length_b   3.37353900
_cell_length_c   11.34036600
_cell_angle_alpha   90.00000000
_cell_angle_beta   90.00000000
_cell_angle_gamma   90.00000000
_symmetry_Int_Tables_number   1
_chemical_formula_structural   TmLu2MgRu2
_chemical_formula_sum   'Tm1 Lu2 Mg1 Ru2'
_cell_volume   129.06204482
_cell_formula_units_Z   1
loop_
 _symmetry_equiv_pos_site_id
 _symmetry_equiv_pos_as_xyz
  1  'x, y, z'
loop_
 _atom_site_type_symbol
 _atom_site_label
 _atom_site_symmetry_multiplicity
 _atom_site_fract_x
 _atom_site_fract_y
 _atom_site_fract_z
 _atom_site_occupancy
  Tm  Tm0  1  0.000000  0.000000  0.287621  1
  Lu  Lu1  1  0.000000  0.000000  0.999671  1
  Lu  Lu2  1  0.000000  0.000000  0.713578  1
  Mg  Mg3  1  0.500000  0.500000  0.500443  1
  Ru  Ru4  1  0.500000  0.500000  0.152018  1
  Ru  Ru5  1  0.500000  0.500000  0.846669  1
