# generated using pymatgen
data_Dy4Cu2MoRu5
_symmetry_space_group_name_H-M   'P 1'
_cell_length_a   5.49316015
_cell_length_b   5.13273041
_cell_length_c   8.93268000
_cell_angle_alpha   90.00000000
_cell_angle_beta   90.00000000
_cell_angle_gamma   120.93548359
_symmetry_Int_Tables_number   1
_chemical_formula_structural   Dy4Cu2MoRu5
_chemical_formula_sum   'Dy4 Cu2 Mo1 Ru5'
_cell_volume   216.02874780
_cell_formula_units_Z   1
loop_
 _symmetry_equiv_pos_site_id
 _symmetry_equiv_pos_as_xyz
  1  'x, y, z'
loop_
 _atom_site_type_symbol
 _atom_site_label
 _atom_site_symmetry_multiplicity
 _atom_site_fract_x
 _atom_site_fract_y
 _atom_site_fract_z
 _atom_site_occupancy
  Dy  Dy0  1  0.678093  0.347787  0.562175  1
  Dy  Dy1  1  0.338826  0.670203  0.434065  1
  Dy  Dy2  1  0.338826  0.670203  0.065935  1
  Dy  Dy3  1  0.678093  0.347787  0.937825  1
  Cu  Cu4  1  0.816497  0.653406  0.250000  1
  Cu  Cu5  1  0.819849  0.159671  0.250000  1
  Mo  Mo6  1  0.158959  0.316167  0.750000  1
  Ru  Ru7  1  0.017645  0.018819  0.496665  1
  Ru  Ru8  1  0.017645  0.018819  0.003335  1
  Ru  Ru9  1  0.173693  0.821777  0.750000  1
  Ru  Ru10  1  0.649376  0.818598  0.750000  1
  Ru  Ru11  1  0.312498  0.156763  0.250000  1
