# generated using pymatgen
data_Er10In3Hg5(PdPt)2
_symmetry_space_group_name_H-M   'P 1'
_cell_length_a   3.60491200
_cell_length_b   7.94386443
_cell_length_c   18.26224247
_cell_angle_alpha   89.78921424
_cell_angle_beta   90.00000000
_cell_angle_gamma   90.00000000
_symmetry_Int_Tables_number   1
_chemical_formula_structural   Er10In3Hg5(PdPt)2
_chemical_formula_sum   'Er10 In3 Hg5 Pd2 Pt2'
_cell_volume   522.97106061
_cell_formula_units_Z   1
loop_
 _symmetry_equiv_pos_site_id
 _symmetry_equiv_pos_as_xyz
  1  'x, y, z'
loop_
 _atom_site_type_symbol
 _atom_site_label
 _atom_site_symmetry_multiplicity
 _atom_site_fract_x
 _atom_site_fract_y
 _atom_site_fract_z
 _atom_site_occupancy
  Er  Er0  1  0.000000  0.497907  0.501582  1
  Er  Er1  1  0.000000  0.000947  0.000482  1
  Er  Er2  1  0.000000  0.742853  0.284141  1
  Er  Er3  1  0.000000  0.268419  0.713029  1
  Er  Er4  1  0.000000  0.748950  0.782750  1
  Er  Er5  1  0.000000  0.250133  0.216122  1
  Er  Er6  1  0.000000  0.610918  0.084378  1
  Er  Er7  1  0.000000  0.388551  0.915609  1
  Er  Er8  1  0.000000  0.883565  0.585321  1
  Er  Er9  1  0.000000  0.107537  0.417188  1
  In  In10  1  0.500000  0.419374  0.352452  1
  In  In11  1  0.500000  0.922998  0.149653  1
  In  In12  1  0.500000  0.077741  0.849513  1
  Hg  Hg13  1  0.500000  0.714871  0.934845  1
  Hg  Hg14  1  0.500000  0.286136  0.065584  1
  Hg  Hg15  1  0.500000  0.784748  0.434341  1
  Hg  Hg16  1  0.500000  0.205512  0.563985  1
  Hg  Hg17  1  0.500000  0.581980  0.646436  1
  Pd  Pd18  1  0.500000  0.973112  0.697960  1
  Pd  Pd19  1  0.500000  0.033503  0.303012  1
  Pt  Pt20  1  0.500000  0.534747  0.198053  1
  Pt  Pt21  1  0.500000  0.465497  0.803563  1
