# generated using pymatgen
data_La3Dy2(Sn5Ir2)2
_symmetry_space_group_name_H-M   'P 1'
_cell_length_a   14.18919100
_cell_length_b   14.18919100
_cell_length_c   4.65516400
_cell_angle_alpha   90.00000000
_cell_angle_beta   90.00000000
_cell_angle_gamma   90.00000000
_symmetry_Int_Tables_number   1
_chemical_formula_structural   La3Dy2(Sn5Ir2)2
_chemical_formula_sum   'La6 Dy4 Sn20 Ir8'
_cell_volume   937.23879108
_cell_formula_units_Z   2
loop_
 _symmetry_equiv_pos_site_id
 _symmetry_equiv_pos_as_xyz
  1  'x, y, z'
loop_
 _atom_site_type_symbol
 _atom_site_label
 _atom_site_symmetry_multiplicity
 _atom_site_fract_x
 _atom_site_fract_y
 _atom_site_fract_z
 _atom_site_occupancy
  La  La0  1  0.500000  0.500000  0.000000  1
  La  La1  1  0.000000  0.000000  0.000000  1
  La  La2  1  0.887011  0.387011  0.500000  1
  La  La3  1  0.112989  0.612989  0.500000  1
  La  La4  1  0.387011  0.112989  0.500000  1
  La  La5  1  0.612989  0.887011  0.500000  1
  Dy  Dy6  1  0.675610  0.175610  0.500000  1
  Dy  Dy7  1  0.324390  0.824390  0.500000  1
  Dy  Dy8  1  0.175610  0.324390  0.500000  1
  Dy  Dy9  1  0.824390  0.675610  0.500000  1
  Sn  Sn10  1  0.570075  0.070075  0.000000  1
  Sn  Sn11  1  0.429925  0.929925  0.000000  1
  Sn  Sn12  1  0.070075  0.429925  0.000000  1
  Sn  Sn13  1  0.929925  0.570075  0.000000  1
  Sn  Sn14  1  0.655523  0.698267  0.000000  1
  Sn  Sn15  1  0.344477  0.301733  0.000000  1
  Sn  Sn16  1  0.155523  0.801733  0.000000  1
  Sn  Sn17  1  0.844477  0.198267  0.000000  1
  Sn  Sn18  1  0.301733  0.655523  0.000000  1
  Sn  Sn19  1  0.698267  0.344477  0.000000  1
  Sn  Sn20  1  0.198267  0.155523  0.000000  1
  Sn  Sn21  1  0.801733  0.844477  0.000000  1
  Sn  Sn22  1  0.663434  0.506137  0.500000  1
  Sn  Sn23  1  0.336566  0.493863  0.500000  1
  Sn  Sn24  1  0.163434  0.993863  0.500000  1
  Sn  Sn25  1  0.836566  0.006137  0.500000  1
  Sn  Sn26  1  0.493863  0.663434  0.500000  1
  Sn  Sn27  1  0.506137  0.336566  0.500000  1
  Sn  Sn28  1  0.006137  0.163434  0.500000  1
  Sn  Sn29  1  0.993863  0.836566  0.500000  1
  Ir  Ir30  1  0.747308  0.529457  0.000000  1
  Ir  Ir31  1  0.252692  0.470543  0.000000  1
  Ir  Ir32  1  0.247308  0.970543  0.000000  1
  Ir  Ir33  1  0.752692  0.029457  0.000000  1
  Ir  Ir34  1  0.470543  0.747308  0.000000  1
  Ir  Ir35  1  0.529457  0.252692  0.000000  1
  Ir  Ir36  1  0.029457  0.247308  0.000000  1
  Ir  Ir37  1  0.970543  0.752692  0.000000  1
