# generated using pymatgen
data_Nd11Cd9Ni3Ir
_symmetry_space_group_name_H-M   'P 1'
_cell_length_a   13.40804890
_cell_length_b   13.38027455
_cell_length_c   3.77454800
_cell_angle_alpha   90.00000000
_cell_angle_beta   90.00000000
_cell_angle_gamma   112.93247313
_symmetry_Int_Tables_number   1
_chemical_formula_structural   Nd11Cd9Ni3Ir
_chemical_formula_sum   'Nd11 Cd9 Ni3 Ir1'
_cell_volume   623.64659411
_cell_formula_units_Z   1
loop_
 _symmetry_equiv_pos_site_id
 _symmetry_equiv_pos_as_xyz
  1  'x, y, z'
loop_
 _atom_site_type_symbol
 _atom_site_label
 _atom_site_symmetry_multiplicity
 _atom_site_fract_x
 _atom_site_fract_y
 _atom_site_fract_z
 _atom_site_occupancy
  Nd  Nd0  1  0.080362  0.417603  0.000000  1
  Nd  Nd1  1  0.918366  0.583289  0.000000  1
  Nd  Nd2  1  0.418923  0.079260  0.000000  1
  Nd  Nd3  1  0.583207  0.918686  0.000000  1
  Nd  Nd4  1  0.623897  0.375103  0.000000  1
  Nd  Nd5  1  0.375414  0.625394  0.000000  1
  Nd  Nd6  1  0.836386  0.163098  0.000000  1
  Nd  Nd7  1  0.161441  0.837549  0.000000  1
  Nd  Nd8  1  0.000196  0.000010  0.000000  1
  Nd  Nd9  1  0.310964  0.311492  0.000000  1
  Nd  Nd10  1  0.690031  0.689775  0.000000  1
  Cd  Cd11  1  0.835705  0.366717  0.500000  1
  Cd  Cd12  1  0.158975  0.635765  0.500000  1
  Cd  Cd13  1  0.365044  0.838499  0.500000  1
  Cd  Cd14  1  0.633150  0.161773  0.500000  1
  Cd  Cd15  1  0.074563  0.215605  0.500000  1
  Cd  Cd16  1  0.922213  0.783192  0.500000  1
  Cd  Cd17  1  0.218423  0.076359  0.500000  1
  Cd  Cd18  1  0.783722  0.923753  0.500000  1
  Cd  Cd19  1  0.502651  0.501265  0.500000  1
  Ni  Ni20  1  0.751262  0.548433  0.500000  1
  Ni  Ni21  1  0.452964  0.246933  0.500000  1
  Ni  Ni22  1  0.550325  0.749858  0.500000  1
  Ir  Ir23  1  0.251816  0.450592  0.500000  1
