# generated using pymatgen
data_Hf2ZrTi3BI12
_symmetry_space_group_name_H-M   'P 1'
_cell_length_a   9.30635201
_cell_length_b   9.03250803
_cell_length_c   9.48668574
_cell_angle_alpha   107.27250298
_cell_angle_beta   106.93490742
_cell_angle_gamma   106.11197298
_symmetry_Int_Tables_number   1
_chemical_formula_structural   Hf2ZrTi3BI12
_chemical_formula_sum   'Hf2 Zr1 Ti3 B1 I12'
_cell_volume   668.13363558
_cell_formula_units_Z   1
loop_
 _symmetry_equiv_pos_site_id
 _symmetry_equiv_pos_as_xyz
  1  'x, y, z'
loop_
 _atom_site_type_symbol
 _atom_site_label
 _atom_site_symmetry_multiplicity
 _atom_site_fract_x
 _atom_site_fract_y
 _atom_site_fract_z
 _atom_site_occupancy
  Hf  Hf0  1  0.970437  0.723388  0.910024  1
  Hf  Hf1  1  0.270240  0.087777  0.028593  1
  Zr  Zr2  1  0.025439  0.277311  0.089203  1
  Ti  Ti3  1  0.078721  0.023874  0.247912  1
  Ti  Ti4  1  0.918259  0.978283  0.753359  1
  Ti  Ti5  1  0.751677  0.919734  0.974521  1
  B  B6  1  0.006489  0.000443  0.000442  1
  I  I7  1  0.920646  0.304583  0.777344  1
  I  I8  1  0.690849  0.215171  0.073825  1
  I  I9  1  0.420930  0.130071  0.355844  1
  I  I10  1  0.861584  0.643416  0.572109  1
  I  I11  1  0.212552  0.075125  0.708403  1
  I  I12  1  0.638966  0.567903  0.861210  1
  I  I13  1  0.366765  0.444290  0.143906  1
  I  I14  1  0.783272  0.923334  0.281184  1
  I  I15  1  0.135229  0.356790  0.430167  1
  I  I16  1  0.581989  0.870349  0.655541  1
  I  I17  1  0.293764  0.765238  0.919458  1
  I  I18  1  0.072193  0.692920  0.216954  1
