# generated using pymatgen
data_Rb4NaAgAs2
_symmetry_space_group_name_H-M   'P 1'
_cell_length_a   6.89458563
_cell_length_b   6.89458733
_cell_length_c   6.32689151
_cell_angle_alpha   88.19231781
_cell_angle_beta   88.19233498
_cell_angle_gamma   102.10257436
_symmetry_Int_Tables_number   1
_chemical_formula_structural   Rb4NaAgAs2
_chemical_formula_sum   'Rb4 Na1 Ag1 As2'
_cell_volume   293.69581349
_cell_formula_units_Z   1
loop_
 _symmetry_equiv_pos_site_id
 _symmetry_equiv_pos_as_xyz
  1  'x, y, z'
loop_
 _atom_site_type_symbol
 _atom_site_label
 _atom_site_symmetry_multiplicity
 _atom_site_fract_x
 _atom_site_fract_y
 _atom_site_fract_z
 _atom_site_occupancy
  Rb  Rb0  1  0.030779  0.689549  0.242146  1
  Rb  Rb1  1  0.969221  0.310451  0.757854  1
  Rb  Rb2  1  0.689549  0.030779  0.242146  1
  Rb  Rb3  1  0.310451  0.969221  0.757854  1
  Na  Na4  1  0.500000  0.500000  0.500000  1
  Ag  Ag5  1  0.500000  0.500000  0.000000  1
  As  As6  1  0.755213  0.755213  0.769210  1
  As  As7  1  0.244787  0.244787  0.230790  1
