# generated using pymatgen
data_Er5Zr3Pt4
_symmetry_space_group_name_H-M   'P 1'
_cell_length_a   4.72256400
_cell_length_b   7.04936107
_cell_length_c   8.35666587
_cell_angle_alpha   90.93765661
_cell_angle_beta   90.00000000
_cell_angle_gamma   90.00000000
_symmetry_Int_Tables_number   1
_chemical_formula_structural   Er5Zr3Pt4
_chemical_formula_sum   'Er5 Zr3 Pt4'
_cell_volume   278.16500175
_cell_formula_units_Z   1
loop_
 _symmetry_equiv_pos_site_id
 _symmetry_equiv_pos_as_xyz
  1  'x, y, z'
loop_
 _atom_site_type_symbol
 _atom_site_label
 _atom_site_symmetry_multiplicity
 _atom_site_fract_x
 _atom_site_fract_y
 _atom_site_fract_z
 _atom_site_occupancy
  Er  Er0  1  0.250000  0.851316  0.918250  1
  Er  Er1  1  0.750000  0.511236  0.825684  1
  Er  Er2  1  0.250000  0.481554  0.181040  1
  Er  Er3  1  0.750000  0.018344  0.671439  1
  Er  Er4  1  0.250000  0.985227  0.320339  1
  Zr  Zr5  1  0.750000  0.644167  0.422701  1
  Zr  Zr6  1  0.250000  0.351784  0.580594  1
  Zr  Zr7  1  0.750000  0.148242  0.078694  1
  Pt  Pt8  1  0.750000  0.265506  0.406303  1
  Pt  Pt9  1  0.250000  0.733833  0.582984  1
  Pt  Pt10  1  0.750000  0.762137  0.104939  1
  Pt  Pt11  1  0.250000  0.246655  0.907033  1
