# generated using pymatgen
data_Dy16In3AgIr4
_symmetry_space_group_name_H-M   'P 1'
_cell_length_a   9.64329575
_cell_length_b   9.64329549
_cell_length_c   9.64329553
_cell_angle_alpha   59.91996831
_cell_angle_beta   59.91997111
_cell_angle_gamma   59.91996650
_symmetry_Int_Tables_number   1
_chemical_formula_structural   Dy16In3AgIr4
_chemical_formula_sum   'Dy16 In3 Ag1 Ir4'
_cell_volume   632.95421334
_cell_formula_units_Z   1
loop_
 _symmetry_equiv_pos_site_id
 _symmetry_equiv_pos_as_xyz
  1  'x, y, z'
loop_
 _atom_site_type_symbol
 _atom_site_label
 _atom_site_symmetry_multiplicity
 _atom_site_fract_x
 _atom_site_fract_y
 _atom_site_fract_z
 _atom_site_occupancy
  Dy  Dy0  1  0.599176  0.599176  0.599176  1
  Dy  Dy1  1  0.600454  0.600454  0.200634  1
  Dy  Dy2  1  0.600454  0.200634  0.600454  1
  Dy  Dy3  1  0.200634  0.600454  0.600454  1
  Dy  Dy4  1  0.057668  0.441529  0.441529  1
  Dy  Dy5  1  0.438395  0.059666  0.059666  1
  Dy  Dy6  1  0.441529  0.057668  0.441529  1
  Dy  Dy7  1  0.059666  0.438395  0.059666  1
  Dy  Dy8  1  0.441529  0.441529  0.057668  1
  Dy  Dy9  1  0.059666  0.059666  0.438395  1
  Dy  Dy10  1  0.186266  0.811152  0.811152  1
  Dy  Dy11  1  0.810260  0.189708  0.189708  1
  Dy  Dy12  1  0.811152  0.186266  0.811152  1
  Dy  Dy13  1  0.189708  0.810260  0.189708  1
  Dy  Dy14  1  0.811152  0.811152  0.186266  1
  Dy  Dy15  1  0.189708  0.189708  0.810260  1
  In  In16  1  0.832228  0.832228  0.504114  1
  In  In17  1  0.832228  0.504114  0.832228  1
  In  In18  1  0.504114  0.832228  0.832228  1
  Ag  Ag19  1  0.832962  0.832962  0.832962  1
  Ir  Ir20  1  0.392297  0.392297  0.392297  1
  Ir  Ir21  1  0.391706  0.391706  0.825343  1
  Ir  Ir22  1  0.391706  0.825343  0.391706  1
  Ir  Ir23  1  0.825343  0.391706  0.391706  1
