# generated using pymatgen
data_Ce2NpOsRu2
_symmetry_space_group_name_H-M   'P 1'
_cell_length_a   5.25100689
_cell_length_b   5.42004589
_cell_length_c   5.25100700
_cell_angle_alpha   65.30242852
_cell_angle_beta   66.74549554
_cell_angle_gamma   65.30242359
_symmetry_Int_Tables_number   1
_chemical_formula_structural   Ce2NpOsRu2
_chemical_formula_sum   'Ce2 Np1 Os1 Ru2'
_cell_volume   118.88469902
_cell_formula_units_Z   1
loop_
 _symmetry_equiv_pos_site_id
 _symmetry_equiv_pos_as_xyz
  1  'x, y, z'
loop_
 _atom_site_type_symbol
 _atom_site_label
 _atom_site_symmetry_multiplicity
 _atom_site_fract_x
 _atom_site_fract_y
 _atom_site_fract_z
 _atom_site_occupancy
  Ce  Ce0  1  0.617890  0.620989  0.617890  1
  Ce  Ce1  1  0.382110  0.379011  0.382110  1
  Np  Np2  1  0.000000  0.000000  0.000000  1
  Os  Os3  1  0.000000  0.500000  0.000000  1
  Ru  Ru4  1  0.500000  0.000000  0.000000  1
  Ru  Ru5  1  0.000000  0.000000  0.500000  1
