# generated using pymatgen
data_Dy3Y4Ho(ReB6)4
_symmetry_space_group_name_H-M   'P 1'
_cell_length_a   3.68813500
_cell_length_b   9.19030100
_cell_length_c   11.58045800
_cell_angle_alpha   90.00302893
_cell_angle_beta   90.00000000
_cell_angle_gamma   90.00000000
_symmetry_Int_Tables_number   1
_chemical_formula_structural   Dy3Y4Ho(ReB6)4
_chemical_formula_sum   'Dy3 Y4 Ho1 Re4 B24'
_cell_volume   392.52044328
_cell_formula_units_Z   1
loop_
 _symmetry_equiv_pos_site_id
 _symmetry_equiv_pos_as_xyz
  1  'x, y, z'
loop_
 _atom_site_type_symbol
 _atom_site_label
 _atom_site_symmetry_multiplicity
 _atom_site_fract_x
 _atom_site_fract_y
 _atom_site_fract_z
 _atom_site_occupancy
  Dy  Dy0  1  0.000000  0.943142  0.370011  1
  Dy  Dy1  1  0.000000  0.056864  0.630011  1
  Dy  Dy2  1  0.000000  0.443188  0.129869  1
  Y  Y3  1  0.000000  0.323536  0.414023  1
  Y  Y4  1  0.000000  0.676448  0.586040  1
  Y  Y5  1  0.000000  0.823484  0.085952  1
  Y  Y6  1  0.000000  0.176510  0.913998  1
  Ho  Ho7  1  0.000000  0.556878  0.869920  1
  Re  Re8  1  0.000000  0.638718  0.320690  1
  Re  Re9  1  0.000000  0.361451  0.679460  1
  Re  Re10  1  0.000000  0.138753  0.179265  1
  Re  Re11  1  0.000000  0.860998  0.820758  1
  B  B12  1  0.500000  0.553442  0.432704  1
  B  B13  1  0.500000  0.446566  0.567343  1
  B  B14  1  0.500000  0.053433  0.067290  1
  B  B15  1  0.500000  0.946513  0.932687  1
  B  B16  1  0.500000  0.749077  0.418353  1
  B  B17  1  0.500000  0.250938  0.581663  1
  B  B18  1  0.500000  0.249090  0.081654  1
  B  B19  1  0.500000  0.750646  0.918340  1
  B  B20  1  0.500000  0.791969  0.265637  1
  B  B21  1  0.500000  0.208091  0.734377  1
  B  B22  1  0.500000  0.291980  0.234364  1
  B  B23  1  0.500000  0.707801  0.765706  1
  B  B24  1  0.500000  0.630879  0.185840  1
  B  B25  1  0.500000  0.369328  0.814271  1
  B  B26  1  0.500000  0.130891  0.314153  1
  B  B27  1  0.500000  0.869068  0.685880  1
  B  B28  1  0.500000  0.982591  0.212016  1
  B  B29  1  0.500000  0.017392  0.787992  1
  B  B30  1  0.500000  0.482584  0.287985  1
  B  B31  1  0.500000  0.517537  0.712177  1
  B  B32  1  0.500000  0.599909  0.027695  1
  B  B33  1  0.500000  0.400303  0.971868  1
  B  B34  1  0.500000  0.099993  0.472044  1
  B  B35  1  0.500000  0.900010  0.527962  1
