# generated using pymatgen
data_Er6NpFe22
_symmetry_space_group_name_H-M   'P 1'
_cell_length_a   8.47199300
_cell_length_b   8.47199271
_cell_length_c   8.47199300
_cell_angle_alpha   119.99999722
_cell_angle_beta   90.00000000
_cell_angle_gamma   119.99999722
_symmetry_Int_Tables_number   1
_chemical_formula_structural   Er6NpFe22
_chemical_formula_sum   'Er6 Np1 Fe22'
_cell_volume   429.97359760
_cell_formula_units_Z   1
loop_
 _symmetry_equiv_pos_site_id
 _symmetry_equiv_pos_as_xyz
  1  'x, y, z'
loop_
 _atom_site_type_symbol
 _atom_site_label
 _atom_site_symmetry_multiplicity
 _atom_site_fract_x
 _atom_site_fract_y
 _atom_site_fract_z
 _atom_site_occupancy
  Er  Er0  1  0.706589  0.000000  0.293410  1
  Er  Er1  1  0.293411  0.000000  0.293411  1
  Er  Er2  1  0.293411  0.586823  0.293411  1
  Er  Er3  1  0.293410  0.000000  0.706589  1
  Er  Er4  1  0.706589  0.000000  0.706589  1
  Er  Er5  1  0.706589  0.413178  0.706589  1
  Np  Np6  1  0.000000  0.000000  0.000000  1
  Fe  Fe7  1  0.500001  0.000000  0.000000  1
  Fe  Fe8  1  0.000000  0.500001  0.000000  1
  Fe  Fe9  1  0.500001  0.500001  0.000000  1
  Fe  Fe10  1  0.674709  0.349420  0.024130  1
  Fe  Fe11  1  0.877560  0.755121  0.122440  1
  Fe  Fe12  1  0.367318  0.244878  0.122440  1
  Fe  Fe13  1  0.877560  0.244878  0.122440  1
  Fe  Fe14  1  0.674709  0.349420  0.325290  1
  Fe  Fe15  1  0.674709  0.650580  0.325290  1
  Fe  Fe16  1  0.975870  0.650580  0.325290  1
  Fe  Fe17  1  0.122440  0.244878  0.367318  1
  Fe  Fe18  1  0.000000  0.000000  0.500001  1
  Fe  Fe19  1  0.000000  0.500001  0.500001  1
  Fe  Fe20  1  0.500001  0.500001  0.500001  1
  Fe  Fe21  1  0.877560  0.755121  0.632681  1
  Fe  Fe22  1  0.024130  0.349420  0.674709  1
  Fe  Fe23  1  0.325290  0.349420  0.674709  1
  Fe  Fe24  1  0.325290  0.650580  0.674709  1
  Fe  Fe25  1  0.122440  0.244878  0.877560  1
  Fe  Fe26  1  0.122440  0.755121  0.877560  1
  Fe  Fe27  1  0.632681  0.755121  0.877560  1
  Fe  Fe28  1  0.325290  0.650580  0.975870  1
