# generated using pymatgen
data_MgCoTeCl2O3
_symmetry_space_group_name_H-M   'P 1'
_cell_length_a   7.78909900
_cell_length_b   10.59811100
_cell_length_c   15.76244800
_cell_angle_alpha   90.00000000
_cell_angle_beta   90.00000000
_cell_angle_gamma   90.00000000
_symmetry_Int_Tables_number   1
_chemical_formula_structural   MgCoTeCl2O3
_chemical_formula_sum   'Mg8 Co8 Te8 Cl16 O24'
_cell_volume   1301.18591783
_cell_formula_units_Z   8
loop_
 _symmetry_equiv_pos_site_id
 _symmetry_equiv_pos_as_xyz
  1  'x, y, z'
loop_
 _atom_site_type_symbol
 _atom_site_label
 _atom_site_symmetry_multiplicity
 _atom_site_fract_x
 _atom_site_fract_y
 _atom_site_fract_z
 _atom_site_occupancy
  Mg  Mg0  1  0.892481  0.235426  0.461378  1
  Mg  Mg1  1  0.892481  0.264574  0.038622  1
  Mg  Mg2  1  0.392481  0.235426  0.038622  1
  Mg  Mg3  1  0.607519  0.735426  0.538622  1
  Mg  Mg4  1  0.107519  0.735426  0.961378  1
  Mg  Mg5  1  0.392481  0.264574  0.461378  1
  Mg  Mg6  1  0.607519  0.764574  0.961378  1
  Mg  Mg7  1  0.107519  0.764574  0.538622  1
  Co  Co8  1  0.846229  0.499182  0.606408  1
  Co  Co9  1  0.846229  0.000818  0.893592  1
  Co  Co10  1  0.653771  0.500818  0.106408  1
  Co  Co11  1  0.346229  0.499182  0.893592  1
  Co  Co12  1  0.153771  0.500818  0.393592  1
  Co  Co13  1  0.153771  0.999182  0.106408  1
  Co  Co14  1  0.346229  0.000818  0.606408  1
  Co  Co15  1  0.653771  0.999182  0.393592  1
  Te  Te16  1  0.706790  0.022510  0.098466  1
  Te  Te17  1  0.706790  0.477490  0.401534  1
  Te  Te18  1  0.793210  0.977490  0.598466  1
  Te  Te19  1  0.206790  0.477490  0.098466  1
  Te  Te20  1  0.293210  0.977490  0.901534  1
  Te  Te21  1  0.793210  0.522510  0.901534  1
  Te  Te22  1  0.206790  0.022510  0.401534  1
  Te  Te23  1  0.293210  0.522510  0.598466  1
  Cl  Cl24  1  0.568923  0.708352  0.114708  1
  Cl  Cl25  1  0.331169  0.424735  0.292328  1
  Cl  Cl26  1  0.431077  0.291648  0.885292  1
  Cl  Cl27  1  0.168831  0.575265  0.792328  1
  Cl  Cl28  1  0.668831  0.575265  0.707672  1
  Cl  Cl29  1  0.168831  0.924735  0.707672  1
  Cl  Cl30  1  0.568923  0.791648  0.385292  1
  Cl  Cl31  1  0.668831  0.924735  0.792328  1
  Cl  Cl32  1  0.431077  0.208352  0.614708  1
  Cl  Cl33  1  0.931077  0.291648  0.614708  1
  Cl  Cl34  1  0.068923  0.708352  0.385292  1
  Cl  Cl35  1  0.068923  0.791648  0.114708  1
  Cl  Cl36  1  0.331169  0.075265  0.207672  1
  Cl  Cl37  1  0.931077  0.208352  0.885292  1
  Cl  Cl38  1  0.831169  0.424735  0.207672  1
  Cl  Cl39  1  0.831169  0.075265  0.292328  1
  O  O40  1  0.694900  0.942821  0.988615  1
  O  O41  1  0.305100  0.442821  0.488615  1
  O  O42  1  0.194900  0.942821  0.511385  1
  O  O43  1  0.064284  0.583724  0.584963  1
  O  O44  1  0.359433  0.813332  0.936899  1
  O  O45  1  0.140567  0.313332  0.063101  1
  O  O46  1  0.694900  0.557179  0.511385  1
  O  O47  1  0.435716  0.083724  0.415037  1
  O  O48  1  0.640567  0.186668  0.063101  1
  O  O49  1  0.805100  0.057179  0.488615  1
  O  O50  1  0.305100  0.057179  0.011385  1
  O  O51  1  0.564284  0.583724  0.915037  1
  O  O52  1  0.640567  0.313332  0.436899  1
  O  O53  1  0.859433  0.686668  0.936899  1
  O  O54  1  0.194900  0.557179  0.988615  1
  O  O55  1  0.435716  0.416276  0.084963  1
  O  O56  1  0.140567  0.186668  0.436899  1
  O  O57  1  0.359433  0.686668  0.563101  1
  O  O58  1  0.935716  0.083724  0.084963  1
  O  O59  1  0.859433  0.813332  0.563101  1
  O  O60  1  0.564284  0.916276  0.584963  1
  O  O61  1  0.064284  0.916276  0.915037  1
  O  O62  1  0.935716  0.416276  0.415037  1
  O  O63  1  0.805100  0.442821  0.011385  1
