# generated using pymatgen
data_La5Pr(OsBr3)2
_symmetry_space_group_name_H-M   'P 1'
_cell_length_a   4.32424600
_cell_length_b   9.12800761
_cell_length_c   12.26073561
_cell_angle_alpha   87.61514270
_cell_angle_beta   90.00000000
_cell_angle_gamma   90.00000000
_symmetry_Int_Tables_number   1
_chemical_formula_structural   La5Pr(OsBr3)2
_chemical_formula_sum   'La5 Pr1 Os2 Br6'
_cell_volume   483.53352627
_cell_formula_units_Z   1
loop_
 _symmetry_equiv_pos_site_id
 _symmetry_equiv_pos_as_xyz
  1  'x, y, z'
loop_
 _atom_site_type_symbol
 _atom_site_label
 _atom_site_symmetry_multiplicity
 _atom_site_fract_x
 _atom_site_fract_y
 _atom_site_fract_z
 _atom_site_occupancy
  La  La0  1  0.750000  0.675553  0.122138  1
  La  La1  1  0.250000  0.882025  0.339306  1
  La  La2  1  0.250000  0.323989  0.879210  1
  La  La3  1  0.250000  0.896144  0.889790  1
  La  La4  1  0.750000  0.119384  0.659680  1
  Pr  Pr5  1  0.750000  0.103141  0.110847  1
  Os  Os6  1  0.250000  0.883187  0.127018  1
  Os  Os7  1  0.750000  0.115006  0.871760  1
  Br  Br8  1  0.250000  0.394676  0.130494  1
  Br  Br9  1  0.750000  0.122662  0.381298  1
  Br  Br10  1  0.750000  0.604063  0.870103  1
  Br  Br11  1  0.250000  0.355636  0.627780  1
  Br  Br12  1  0.750000  0.645570  0.373099  1
  Br  Br13  1  0.250000  0.878967  0.617475  1
