# generated using pymatgen
data_Ce5P12Ru6Rh13
_symmetry_space_group_name_H-M   'P 1'
_cell_length_a   12.73546100
_cell_length_b   12.74144103
_cell_length_c   3.98490000
_cell_angle_alpha   90.00000000
_cell_angle_beta   90.00000000
_cell_angle_gamma   120.08195270
_symmetry_Int_Tables_number   1
_chemical_formula_structural   Ce5P12Ru6Rh13
_chemical_formula_sum   'Ce5 P12 Ru6 Rh13'
_cell_volume   559.52827826
_cell_formula_units_Z   1
loop_
 _symmetry_equiv_pos_site_id
 _symmetry_equiv_pos_as_xyz
  1  'x, y, z'
loop_
 _atom_site_type_symbol
 _atom_site_label
 _atom_site_symmetry_multiplicity
 _atom_site_fract_x
 _atom_site_fract_y
 _atom_site_fract_z
 _atom_site_occupancy
  Ce  Ce0  1  0.667910  0.332784  0.000000  1
  Ce  Ce1  1  0.333507  0.667632  0.000000  1
  Ce  Ce2  1  0.814174  0.000651  0.500000  1
  Ce  Ce3  1  0.185318  0.186770  0.500000  1
  Ce  Ce4  1  0.999437  0.814038  0.500000  1
  P  P5  1  0.634128  0.999262  0.000000  1
  P  P6  1  0.366997  0.367121  0.000000  1
  P  P7  1  0.000535  0.631555  0.000000  1
  P  P8  1  0.688170  0.519726  0.500000  1
  P  P9  1  0.832485  0.309721  0.500000  1
  P  P10  1  0.316183  0.835135  0.500000  1
  P  P11  1  0.520328  0.691370  0.500000  1
  P  P12  1  0.182831  0.999888  0.000000  1
  P  P13  1  0.816312  0.815304  0.000000  1
  P  P14  1  0.996831  0.181699  0.000000  1
  P  P15  1  0.478040  0.167471  0.500000  1
  P  P16  1  0.164046  0.479150  0.500000  1
  Ru  Ru17  1  0.513487  0.874707  0.500000  1
  Ru  Ru18  1  0.715703  0.715076  0.500000  1
  Ru  Ru19  1  0.999796  0.285138  0.500000  1
  Ru  Ru20  1  0.004307  0.451944  0.000000  1
  Ru  Ru21  1  0.818821  0.197564  0.000000  1
  Ru  Ru22  1  0.282318  0.999442  0.500000  1
  Rh  Rh23  1  0.622352  0.803135  0.000000  1
  Rh  Rh24  1  0.180794  0.376188  0.000000  1
  Rh  Rh25  1  0.377263  0.181535  0.000000  1
  Rh  Rh26  1  0.196920  0.818613  0.000000  1
  Rh  Rh27  1  0.802959  0.619818  0.000000  1
  Rh  Rh28  1  0.873926  0.509975  0.500000  1
  Rh  Rh29  1  0.488682  0.359523  0.500000  1
  Rh  Rh30  1  0.637556  0.129012  0.500000  1
  Rh  Rh31  1  0.128488  0.640539  0.500000  1
  Rh  Rh32  1  0.358624  0.491616  0.500000  1
  Rh  Rh33  1  0.999339  0.999109  0.000000  1
  Rh  Rh34  1  0.453689  0.000230  0.000000  1
  Rh  Rh35  1  0.547743  0.547564  0.000000  1
