# generated using pymatgen
data_TbPrGePd14
_symmetry_space_group_name_H-M   'P 1'
_cell_length_a   9.00001900
_cell_length_b   9.00001900
_cell_length_c   7.18042000
_cell_angle_alpha   90.00000000
_cell_angle_beta   90.00000000
_cell_angle_gamma   90.00000000
_symmetry_Int_Tables_number   1
_chemical_formula_structural   TbPrGePd14
_chemical_formula_sum   'Tb2 Pr2 Ge2 Pd28'
_cell_volume   581.61647571
_cell_formula_units_Z   2
loop_
 _symmetry_equiv_pos_site_id
 _symmetry_equiv_pos_as_xyz
  1  'x, y, z'
loop_
 _atom_site_type_symbol
 _atom_site_label
 _atom_site_symmetry_multiplicity
 _atom_site_fract_x
 _atom_site_fract_y
 _atom_site_fract_z
 _atom_site_occupancy
  Tb  Tb0  1  0.000000  0.000000  0.500000  1
  Tb  Tb1  1  0.500000  0.500000  0.500000  1
  Pr  Pr2  1  0.500000  0.000000  0.936693  1
  Pr  Pr3  1  0.000000  0.500000  0.063307  1
  Ge  Ge4  1  0.500000  0.000000  0.449500  1
  Ge  Ge5  1  0.000000  0.500000  0.550500  1
  Pd  Pd6  1  0.330166  0.830166  0.620616  1
  Pd  Pd7  1  0.330166  0.169834  0.620616  1
  Pd  Pd8  1  0.669834  0.830166  0.620616  1
  Pd  Pd9  1  0.669834  0.169834  0.620616  1
  Pd  Pd10  1  0.169834  0.669834  0.379384  1
  Pd  Pd11  1  0.169834  0.330166  0.379384  1
  Pd  Pd12  1  0.830166  0.669834  0.379384  1
  Pd  Pd13  1  0.830166  0.330166  0.379384  1
  Pd  Pd14  1  0.500000  0.764501  0.256136  1
  Pd  Pd15  1  0.500000  0.235499  0.256136  1
  Pd  Pd16  1  0.264501  0.000000  0.256136  1
  Pd  Pd17  1  0.735499  0.000000  0.256136  1
  Pd  Pd18  1  0.000000  0.735499  0.743864  1
  Pd  Pd19  1  0.000000  0.264501  0.743864  1
  Pd  Pd20  1  0.235499  0.500000  0.743864  1
  Pd  Pd21  1  0.764501  0.500000  0.743864  1
  Pd  Pd22  1  0.500000  0.350005  0.853876  1
  Pd  Pd23  1  0.500000  0.649995  0.853876  1
  Pd  Pd24  1  0.850005  0.000000  0.853876  1
  Pd  Pd25  1  0.149995  0.000000  0.853876  1
  Pd  Pd26  1  0.000000  0.149995  0.146124  1
  Pd  Pd27  1  0.000000  0.850005  0.146124  1
  Pd  Pd28  1  0.649995  0.500000  0.146124  1
  Pd  Pd29  1  0.350005  0.500000  0.146124  1
  Pd  Pd30  1  0.250000  0.750000  0.000000  1
  Pd  Pd31  1  0.250000  0.250000  0.000000  1
  Pd  Pd32  1  0.750000  0.750000  0.000000  1
  Pd  Pd33  1  0.750000  0.250000  0.000000  1
