# generated using pymatgen
data_Dy5Ho11Cd3AgIr4
_symmetry_space_group_name_H-M   'P 1'
_cell_length_a   9.60129574
_cell_length_b   9.59941916
_cell_length_c   9.59941842
_cell_angle_alpha   59.85479890
_cell_angle_beta   59.85816671
_cell_angle_gamma   59.85817273
_symmetry_Int_Tables_number   1
_chemical_formula_structural   Dy5Ho11Cd3AgIr4
_chemical_formula_sum   'Dy5 Ho11 Cd3 Ag1 Ir4'
_cell_volume   623.58200449
_cell_formula_units_Z   1
loop_
 _symmetry_equiv_pos_site_id
 _symmetry_equiv_pos_as_xyz
  1  'x, y, z'
loop_
 _atom_site_type_symbol
 _atom_site_label
 _atom_site_symmetry_multiplicity
 _atom_site_fract_x
 _atom_site_fract_y
 _atom_site_fract_z
 _atom_site_occupancy
  Dy  Dy0  1  0.811452  0.187203  0.187203  1
  Dy  Dy1  1  0.811712  0.186325  0.811361  1
  Dy  Dy2  1  0.187219  0.811494  0.186890  1
  Dy  Dy3  1  0.811712  0.811361  0.186325  1
  Dy  Dy4  1  0.187219  0.186890  0.811494  1
  Ho  Ho5  1  0.598840  0.598847  0.598847  1
  Ho  Ho6  1  0.599917  0.600092  0.202309  1
  Ho  Ho7  1  0.599917  0.202309  0.600092  1
  Ho  Ho8  1  0.202089  0.600042  0.600042  1
  Ho  Ho9  1  0.060238  0.439048  0.439048  1
  Ho  Ho10  1  0.437391  0.060550  0.060550  1
  Ho  Ho11  1  0.439008  0.060128  0.439259  1
  Ho  Ho12  1  0.060424  0.437633  0.060414  1
  Ho  Ho13  1  0.439008  0.439259  0.060128  1
  Ho  Ho14  1  0.060424  0.060414  0.437633  1
  Ho  Ho15  1  0.186591  0.811303  0.811303  1
  Cd  Cd16  1  0.831279  0.831307  0.508646  1
  Cd  Cd17  1  0.831279  0.508646  0.831307  1
  Cd  Cd18  1  0.508554  0.831239  0.831239  1
  Ag  Ag19  1  0.833447  0.833007  0.833007  1
  Ir  Ir20  1  0.391855  0.391811  0.391811  1
  Ir  Ir21  1  0.392578  0.393076  0.825238  1
  Ir  Ir22  1  0.392578  0.825238  0.393076  1
  Ir  Ir23  1  0.825267  0.392777  0.392777  1
