# generated using pymatgen
data_Ho16MgHg3RuRh3
_symmetry_space_group_name_H-M   'P 1'
_cell_length_a   9.62312489
_cell_length_b   9.61526200
_cell_length_c   9.61526269
_cell_angle_alpha   59.55803926
_cell_angle_beta   59.62252448
_cell_angle_gamma   59.62252561
_symmetry_Int_Tables_number   1
_chemical_formula_structural   Ho16MgHg3RuRh3
_chemical_formula_sum   'Ho16 Mg1 Hg3 Ru1 Rh3'
_cell_volume   623.40007679
_cell_formula_units_Z   1
loop_
 _symmetry_equiv_pos_site_id
 _symmetry_equiv_pos_as_xyz
  1  'x, y, z'
loop_
 _atom_site_type_symbol
 _atom_site_label
 _atom_site_symmetry_multiplicity
 _atom_site_fract_x
 _atom_site_fract_y
 _atom_site_fract_z
 _atom_site_occupancy
  Ho  Ho0  1  0.811209  0.189409  0.189409  1
  Ho  Ho1  1  0.186023  0.812231  0.812231  1
  Ho  Ho2  1  0.186129  0.813778  0.187801  1
  Ho  Ho3  1  0.809201  0.189580  0.809957  1
  Ho  Ho4  1  0.186129  0.187801  0.813778  1
  Ho  Ho5  1  0.809201  0.809957  0.189580  1
  Ho  Ho6  1  0.935404  0.563203  0.563203  1
  Ho  Ho7  1  0.560132  0.937349  0.937349  1
  Ho  Ho8  1  0.562620  0.937325  0.564301  1
  Ho  Ho9  1  0.936594  0.560099  0.938963  1
  Ho  Ho10  1  0.562620  0.564301  0.937325  1
  Ho  Ho11  1  0.936594  0.938963  0.560099  1
  Ho  Ho12  1  0.350188  0.348032  0.348032  1
  Ho  Ho13  1  0.350352  0.347891  0.954666  1
  Ho  Ho14  1  0.350352  0.954666  0.347891  1
  Ho  Ho15  1  0.943896  0.351981  0.351981  1
  Mg  Mg16  1  0.282162  0.572176  0.572176  1
  Hg  Hg17  1  0.581686  0.586294  0.586294  1
  Hg  Hg18  1  0.581850  0.586391  0.244276  1
  Hg  Hg19  1  0.581850  0.244276  0.586391  1
  Ru  Ru20  1  0.138946  0.143429  0.143429  1
  Rh  Rh21  1  0.141344  0.144784  0.572918  1
  Rh  Rh22  1  0.141344  0.572918  0.144784  1
  Rh  Rh23  1  0.574175  0.143166  0.143166  1
