# generated using pymatgen
data_Er2Tm8Ir5Au
_symmetry_space_group_name_H-M   'P 1'
_cell_length_a   10.90558397
_cell_length_b   10.85591600
_cell_length_c   6.29449225
_cell_angle_alpha   90.00000000
_cell_angle_beta   89.91207459
_cell_angle_gamma   90.00000000
_symmetry_Int_Tables_number   1
_chemical_formula_structural   Er2Tm8Ir5Au
_chemical_formula_sum   'Er4 Tm16 Ir10 Au2'
_cell_volume   745.20471124
_cell_formula_units_Z   2
loop_
 _symmetry_equiv_pos_site_id
 _symmetry_equiv_pos_as_xyz
  1  'x, y, z'
loop_
 _atom_site_type_symbol
 _atom_site_label
 _atom_site_symmetry_multiplicity
 _atom_site_fract_x
 _atom_site_fract_y
 _atom_site_fract_z
 _atom_site_occupancy
  Er  Er0  1  0.291874  0.088005  0.372462  1
  Er  Er1  1  0.291874  0.911995  0.872462  1
  Er  Er2  1  0.697852  0.091987  0.866707  1
  Er  Er3  1  0.697852  0.908013  0.366707  1
  Tm  Tm4  1  0.577437  0.789572  0.877201  1
  Tm  Tm5  1  0.577437  0.210428  0.377201  1
  Tm  Tm6  1  0.409159  0.790817  0.376566  1
  Tm  Tm7  1  0.409159  0.209183  0.876566  1
  Tm  Tm8  1  0.209210  0.412070  0.621679  1
  Tm  Tm9  1  0.209210  0.587930  0.121679  1
  Tm  Tm10  1  0.790728  0.420245  0.122923  1
  Tm  Tm11  1  0.790728  0.579755  0.622923  1
  Tm  Tm12  1  0.917813  0.704800  0.137733  1
  Tm  Tm13  1  0.917813  0.295200  0.637733  1
  Tm  Tm14  1  0.095354  0.702626  0.622775  1
  Tm  Tm15  1  0.095354  0.297374  0.122775  1
  Tm  Tm16  1  0.008959  0.998053  0.500367  1
  Tm  Tm17  1  0.008959  0.001947  0.000367  1
  Tm  Tm18  1  0.500013  0.498735  0.000638  1
  Tm  Tm19  1  0.500013  0.501265  0.500638  1
  Ir  Ir20  1  0.153477  0.154703  0.750275  1
  Ir  Ir21  1  0.153477  0.845297  0.250275  1
  Ir  Ir22  1  0.655859  0.346795  0.747789  1
  Ir  Ir23  1  0.655859  0.653205  0.247789  1
  Ir  Ir24  1  0.347705  0.346435  0.251704  1
  Ir  Ir25  1  0.347705  0.653565  0.751704  1
  Ir  Ir26  1  0.499388  0.000146  0.120090  1
  Ir  Ir27  1  0.499388  0.999854  0.620090  1
  Ir  Ir28  1  0.000451  0.500832  0.879742  1
  Ir  Ir29  1  0.000451  0.499168  0.379742  1
  Au  Au30  1  0.844721  0.155251  0.251348  1
  Au  Au31  1  0.844721  0.844749  0.751348  1
