# generated using pymatgen
data_Sm2ThSn3Hg2
_symmetry_space_group_name_H-M   'P 1'
_cell_length_a   6.56160655
_cell_length_b   6.56160714
_cell_length_c   10.33598899
_cell_angle_alpha   89.64634775
_cell_angle_beta   89.64635048
_cell_angle_gamma   103.28601522
_symmetry_Int_Tables_number   1
_chemical_formula_structural   Sm2ThSn3Hg2
_chemical_formula_sum   'Sm4 Th2 Sn6 Hg4'
_cell_volume   433.08055140
_cell_formula_units_Z   2
loop_
 _symmetry_equiv_pos_site_id
 _symmetry_equiv_pos_as_xyz
  1  'x, y, z'
loop_
 _atom_site_type_symbol
 _atom_site_label
 _atom_site_symmetry_multiplicity
 _atom_site_fract_x
 _atom_site_fract_y
 _atom_site_fract_z
 _atom_site_occupancy
  Sm  Sm0  1  0.622899  0.622899  0.248607  1
  Sm  Sm1  1  0.377101  0.377101  0.751393  1
  Sm  Sm2  1  0.203588  0.796412  0.500000  1
  Sm  Sm3  1  0.796412  0.203588  0.500000  1
  Th  Th4  1  0.797434  0.202566  0.000000  1
  Th  Th5  1  0.202566  0.797434  0.000000  1
  Sn  Sn6  1  0.069069  0.494358  0.251556  1
  Sn  Sn7  1  0.930931  0.505642  0.748444  1
  Sn  Sn8  1  0.494358  0.069069  0.251556  1
  Sn  Sn9  1  0.505642  0.930931  0.748444  1
  Sn  Sn10  1  0.014889  0.014889  0.251977  1
  Sn  Sn11  1  0.985111  0.985111  0.748023  1
  Hg  Hg12  1  0.311567  0.311567  0.040273  1
  Hg  Hg13  1  0.688433  0.688433  0.959727  1
  Hg  Hg14  1  0.690431  0.690431  0.538146  1
  Hg  Hg15  1  0.309569  0.309569  0.461854  1
