# generated using pymatgen
data_Dy4Y6Ho10TlCd5Ru2
_symmetry_space_group_name_H-M   'P 1'
_cell_length_a   9.60039001
_cell_length_b   9.60039070
_cell_length_c   9.82972900
_cell_angle_alpha   89.99695629
_cell_angle_beta   90.00304371
_cell_angle_gamma   120.00542134
_symmetry_Int_Tables_number   1
_chemical_formula_structural   Dy4Y6Ho10TlCd5Ru2
_chemical_formula_sum   'Dy4 Y6 Ho10 Tl1 Cd5 Ru2'
_cell_volume   784.56012637
_cell_formula_units_Z   1
loop_
 _symmetry_equiv_pos_site_id
 _symmetry_equiv_pos_as_xyz
  1  'x, y, z'
loop_
 _atom_site_type_symbol
 _atom_site_label
 _atom_site_symmetry_multiplicity
 _atom_site_fract_x
 _atom_site_fract_y
 _atom_site_fract_z
 _atom_site_occupancy
  Dy  Dy0  1  0.209402  0.790598  0.439227  1
  Dy  Dy1  1  0.209869  0.419284  0.439434  1
  Dy  Dy2  1  0.580716  0.790131  0.439434  1
  Dy  Dy3  1  0.789876  0.210124  0.560961  1
  Y  Y4  1  0.540622  0.459378  0.249759  1
  Y  Y5  1  0.539316  0.081673  0.249774  1
  Y  Y6  1  0.918327  0.460684  0.249774  1
  Y  Y7  1  0.458922  0.541078  0.750183  1
  Y  Y8  1  0.459332  0.918421  0.750327  1
  Y  Y9  1  0.081579  0.540668  0.750327  1
  Ho  Ho10  1  0.000756  0.999244  0.501166  1
  Ho  Ho11  1  0.000625  0.999375  0.998966  1
  Ho  Ho12  1  0.789915  0.580269  0.560343  1
  Ho  Ho13  1  0.419731  0.210085  0.560343  1
  Ho  Ho14  1  0.789932  0.210068  0.939476  1
  Ho  Ho15  1  0.789904  0.580073  0.939697  1
  Ho  Ho16  1  0.419927  0.210096  0.939697  1
  Ho  Ho17  1  0.209811  0.790189  0.060478  1
  Ho  Ho18  1  0.210135  0.419998  0.060226  1
  Ho  Ho19  1  0.580002  0.789865  0.060226  1
  Tl  Tl20  1  0.884743  0.115257  0.249802  1
  Cd  Cd21  1  0.886061  0.769672  0.249895  1
  Cd  Cd22  1  0.230328  0.113939  0.249895  1
  Cd  Cd23  1  0.114276  0.885724  0.750305  1
  Cd  Cd24  1  0.113722  0.228280  0.750196  1
  Cd  Cd25  1  0.771720  0.886278  0.750196  1
  Ru  Ru26  1  0.333446  0.666554  0.249668  1
  Ru  Ru27  1  0.667005  0.332995  0.750225  1
