# generated using pymatgen
data_Th4Ga20Pd11
_symmetry_space_group_name_H-M   'P 1'
_cell_length_a   4.38582282
_cell_length_b   11.00653427
_cell_length_c   13.63523481
_cell_angle_alpha   80.41513929
_cell_angle_beta   80.49370527
_cell_angle_gamma   78.13578379
_symmetry_Int_Tables_number   1
_chemical_formula_structural   Th4Ga20Pd11
_chemical_formula_sum   'Th4 Ga20 Pd11'
_cell_volume   629.28346342
_cell_formula_units_Z   1
loop_
 _symmetry_equiv_pos_site_id
 _symmetry_equiv_pos_as_xyz
  1  'x, y, z'
loop_
 _atom_site_type_symbol
 _atom_site_label
 _atom_site_symmetry_multiplicity
 _atom_site_fract_x
 _atom_site_fract_y
 _atom_site_fract_z
 _atom_site_occupancy
  Th  Th0  1  0.879638  0.908761  0.334265  1
  Th  Th1  1  0.120362  0.091239  0.665735  1
  Th  Th2  1  0.229649  0.367461  0.177577  1
  Th  Th3  1  0.770351  0.632539  0.822423  1
  Ga  Ga4  1  0.994166  0.921181  0.086283  1
  Ga  Ga5  1  0.005834  0.078819  0.913717  1
  Ga  Ga6  1  0.936054  0.327068  0.807076  1
  Ga  Ga7  1  0.063946  0.672932  0.192924  1
  Ga  Ga8  1  0.893766  0.662478  0.545218  1
  Ga  Ga9  1  0.106234  0.337522  0.454782  1
  Ga  Ga10  1  0.805955  0.391351  0.003884  1
  Ga  Ga11  1  0.194045  0.608649  0.996116  1
  Ga  Ga12  1  0.747087  0.211557  0.300647  1
  Ga  Ga13  1  0.252913  0.788443  0.699353  1
  Ga  Ga14  1  0.699134  0.105348  0.500417  1
  Ga  Ga15  1  0.300866  0.894652  0.499583  1
  Ga  Ga16  1  0.612450  0.471215  0.306770  1
  Ga  Ga17  1  0.387550  0.528785  0.693230  1
  Ga  Ga18  1  0.604564  0.797959  0.998742  1
  Ga  Ga19  1  0.395436  0.202041  0.001258  1
  Ga  Ga20  1  0.460032  0.707233  0.374866  1
  Ga  Ga21  1  0.539968  0.292767  0.625134  1
  Ga  Ga22  1  0.367729  0.061983  0.198416  1
  Ga  Ga23  1  0.632271  0.938017  0.801584  1
  Pd  Pd24  1  0.500000  0.500000  0.500000  1
  Pd  Pd25  1  0.970623  0.429561  0.626105  1
  Pd  Pd26  1  0.029377  0.570439  0.373895  1
  Pd  Pd27  1  0.860232  0.159864  0.111846  1
  Pd  Pd28  1  0.139768  0.840136  0.888154  1
  Pd  Pd29  1  0.755476  0.874959  0.608536  1
  Pd  Pd30  1  0.244524  0.125041  0.391464  1
  Pd  Pd31  1  0.652565  0.577428  0.111087  1
  Pd  Pd32  1  0.347435  0.422572  0.888913  1
  Pd  Pd33  1  0.493732  0.824109  0.185054  1
  Pd  Pd34  1  0.506268  0.175891  0.814946  1
