# generated using pymatgen
data_La2ThScBi5
_symmetry_space_group_name_H-M   'P 1'
_cell_length_a   9.80823600
_cell_length_b   9.81483712
_cell_length_c   6.61652000
_cell_angle_alpha   90.00000000
_cell_angle_beta   90.00000000
_cell_angle_gamma   119.97775422
_symmetry_Int_Tables_number   1
_chemical_formula_structural   La2ThScBi5
_chemical_formula_sum   'La4 Th2 Sc2 Bi10'
_cell_volume   551.73632029
_cell_formula_units_Z   2
loop_
 _symmetry_equiv_pos_site_id
 _symmetry_equiv_pos_as_xyz
  1  'x, y, z'
loop_
 _atom_site_type_symbol
 _atom_site_label
 _atom_site_symmetry_multiplicity
 _atom_site_fract_x
 _atom_site_fract_y
 _atom_site_fract_z
 _atom_site_occupancy
  La  La0  1  0.384079  0.000000  0.750000  1
  La  La1  1  0.618139  0.618742  0.750000  1
  La  La2  1  0.621283  0.000000  0.250000  1
  La  La3  1  0.999397  0.381258  0.750000  1
  Th  Th4  1  0.999450  0.620002  0.250000  1
  Th  Th5  1  0.379448  0.379998  0.250000  1
  Sc  Sc6  1  0.999392  0.000000  0.997368  1
  Sc  Sc7  1  0.999392  0.000000  0.502632  1
  Bi  Bi8  1  0.002588  0.264815  0.250000  1
  Bi  Bi9  1  0.330630  0.664237  0.496449  1
  Bi  Bi10  1  0.666394  0.335763  0.003551  1
  Bi  Bi11  1  0.330630  0.664237  0.003551  1
  Bi  Bi12  1  0.264496  0.263724  0.750000  1
  Bi  Bi13  1  0.738680  0.000000  0.750000  1
  Bi  Bi14  1  0.000772  0.736276  0.750000  1
  Bi  Bi15  1  0.737773  0.735185  0.250000  1
  Bi  Bi16  1  0.261059  0.000000  0.250000  1
  Bi  Bi17  1  0.666394  0.335763  0.496449  1
