# generated using pymatgen
data_DyPa(TcB4)2
_symmetry_space_group_name_H-M   'P 1'
_cell_length_a   3.63472600
_cell_length_b   5.96552998
_cell_length_c   11.54346124
_cell_angle_alpha   89.91433957
_cell_angle_beta   90.00000000
_cell_angle_gamma   90.00000000
_symmetry_Int_Tables_number   1
_chemical_formula_structural   DyPa(TcB4)2
_chemical_formula_sum   'Dy2 Pa2 Tc4 B16'
_cell_volume   250.29736283
_cell_formula_units_Z   2
loop_
 _symmetry_equiv_pos_site_id
 _symmetry_equiv_pos_as_xyz
  1  'x, y, z'
loop_
 _atom_site_type_symbol
 _atom_site_label
 _atom_site_symmetry_multiplicity
 _atom_site_fract_x
 _atom_site_fract_y
 _atom_site_fract_z
 _atom_site_occupancy
  Dy  Dy0  1  0.000000  0.126190  0.148214  1
  Dy  Dy1  1  0.000000  0.873810  0.851786  1
  Pa  Pa2  1  0.000000  0.627510  0.348378  1
  Pa  Pa3  1  0.000000  0.372490  0.651622  1
  Tc  Tc4  1  0.000000  0.634139  0.091440  1
  Tc  Tc5  1  0.000000  0.365861  0.908560  1
  Tc  Tc6  1  0.000000  0.139612  0.407639  1
  Tc  Tc7  1  0.000000  0.860388  0.592361  1
  B  B8  1  0.500000  0.786451  0.186021  1
  B  B9  1  0.500000  0.213549  0.813979  1
  B  B10  1  0.500000  0.287243  0.314152  1
  B  B11  1  0.500000  0.712757  0.685848  1
  B  B12  1  0.500000  0.863216  0.031571  1
  B  B13  1  0.500000  0.136784  0.968429  1
  B  B14  1  0.500000  0.364824  0.468649  1
  B  B15  1  0.500000  0.635176  0.531351  1
  B  B16  1  0.500000  0.887948  0.453404  1
  B  B17  1  0.500000  0.112052  0.546596  1
  B  B18  1  0.500000  0.386918  0.045909  1
  B  B19  1  0.500000  0.613082  0.954091  1
  B  B20  1  0.500000  0.972341  0.308655  1
  B  B21  1  0.500000  0.027659  0.691345  1
  B  B22  1  0.500000  0.477317  0.191505  1
  B  B23  1  0.500000  0.522683  0.808495  1
