# generated using pymatgen
data_Pr4Dy2IrI10
_symmetry_space_group_name_H-M   'P 1'
_cell_length_a   7.92296326
_cell_length_b   9.97049652
_cell_length_c   10.09271852
_cell_angle_alpha   107.49153898
_cell_angle_beta   104.54515837
_cell_angle_gamma   95.92369528
_symmetry_Int_Tables_number   1
_chemical_formula_structural   Pr4Dy2IrI10
_chemical_formula_sum   'Pr4 Dy2 Ir1 I10'
_cell_volume   722.12740389
_cell_formula_units_Z   1
loop_
 _symmetry_equiv_pos_site_id
 _symmetry_equiv_pos_as_xyz
  1  'x, y, z'
loop_
 _atom_site_type_symbol
 _atom_site_label
 _atom_site_symmetry_multiplicity
 _atom_site_fract_x
 _atom_site_fract_y
 _atom_site_fract_z
 _atom_site_occupancy
  Pr  Pr0  1  0.031416  0.910171  0.709563  1
  Pr  Pr1  1  0.968584  0.089829  0.290437  1
  Pr  Pr2  1  0.117127  0.760140  0.041925  1
  Pr  Pr3  1  0.882873  0.239860  0.958075  1
  Dy  Dy4  1  0.655789  0.835931  0.877621  1
  Dy  Dy5  1  0.344211  0.164069  0.122379  1
  Ir  Ir6  1  0.000000  0.000000  0.000000  1
  I  I7  1  0.642974  0.730155  0.558856  1
  I  I8  1  0.357026  0.269845  0.441144  1
  I  I9  1  0.239435  0.654941  0.748569  1
  I  I10  1  0.760565  0.345059  0.251431  1
  I  I11  1  0.455094  0.088079  0.824405  1
  I  I12  1  0.544906  0.911921  0.175595  1
  I  I13  1  0.262436  0.453190  0.087836  1
  I  I14  1  0.737564  0.546810  0.912164  1
  I  I15  1  0.087416  0.816890  0.370134  1
  I  I16  1  0.912584  0.183110  0.629866  1
