# generated using pymatgen
data_Ho2TlPb3
_symmetry_space_group_name_H-M   'P 1'
_cell_length_a   8.02059796
_cell_length_b   8.02059690
_cell_length_c   4.64089200
_cell_angle_alpha   90.00000000
_cell_angle_beta   90.00000000
_cell_angle_gamma   145.40217735
_symmetry_Int_Tables_number   1
_chemical_formula_structural   Ho2TlPb3
_chemical_formula_sum   'Ho2 Tl1 Pb3'
_cell_volume   169.51956163
_cell_formula_units_Z   1
loop_
 _symmetry_equiv_pos_site_id
 _symmetry_equiv_pos_as_xyz
  1  'x, y, z'
loop_
 _atom_site_type_symbol
 _atom_site_label
 _atom_site_symmetry_multiplicity
 _atom_site_fract_x
 _atom_site_fract_y
 _atom_site_fract_z
 _atom_site_occupancy
  Ho  Ho0  1  0.849742  0.150257  0.000000  1
  Ho  Ho1  1  0.150257  0.849742  0.000000  1
  Tl  Tl2  1  0.000000  0.000000  0.500001  1
  Pb  Pb3  1  0.499999  0.499999  0.000000  1
  Pb  Pb4  1  0.674899  0.325100  0.500001  1
  Pb  Pb5  1  0.325100  0.674899  0.500001  1
