# generated using pymatgen
data_Er2Tm7Zn4
_symmetry_space_group_name_H-M   'P 1'
_cell_length_a   8.46215454
_cell_length_b   8.46215380
_cell_length_c   8.46239800
_cell_angle_alpha   94.99172760
_cell_angle_beta   94.99058524
_cell_angle_gamma   145.68908594
_symmetry_Int_Tables_number   1
_chemical_formula_structural   Er2Tm7Zn4
_chemical_formula_sum   'Er2 Tm7 Zn4'
_cell_volume   326.38191317
_cell_formula_units_Z   1
loop_
 _symmetry_equiv_pos_site_id
 _symmetry_equiv_pos_as_xyz
  1  'x, y, z'
loop_
 _atom_site_type_symbol
 _atom_site_label
 _atom_site_symmetry_multiplicity
 _atom_site_fract_x
 _atom_site_fract_y
 _atom_site_fract_z
 _atom_site_occupancy
  Er  Er0  1  0.181917  0.888450  0.070369  1
  Er  Er1  1  0.111504  0.181953  0.293457  1
  Tm  Tm2  1  0.499958  0.499993  0.999953  1
  Tm  Tm3  1  0.883691  0.401142  0.284834  1
  Tm  Tm4  1  0.598877  0.883725  0.482604  1
  Tm  Tm5  1  0.401176  0.116341  0.517516  1
  Tm  Tm6  1  0.116307  0.598849  0.715158  1
  Tm  Tm7  1  0.888479  0.818084  0.706565  1
  Tm  Tm8  1  0.818054  0.111494  0.929548  1
  Zn  Zn9  1  0.392931  0.736382  0.129315  1
  Zn  Zn10  1  0.736427  0.607069  0.343499  1
  Zn  Zn11  1  0.263612  0.392942  0.656553  1
  Zn  Zn12  1  0.607060  0.263568  0.870628  1
