# generated using pymatgen
data_Tm5InSb2
_symmetry_space_group_name_H-M   'P 1'
_cell_length_a   8.85792300
_cell_length_b   8.85412570
_cell_length_c   6.38390700
_cell_angle_alpha   90.00000000
_cell_angle_beta   90.00000000
_cell_angle_gamma   120.01419176
_symmetry_Int_Tables_number   1
_chemical_formula_structural   Tm5InSb2
_chemical_formula_sum   'Tm10 In2 Sb4'
_cell_volume   433.54346392
_cell_formula_units_Z   2
loop_
 _symmetry_equiv_pos_site_id
 _symmetry_equiv_pos_as_xyz
  1  'x, y, z'
loop_
 _atom_site_type_symbol
 _atom_site_label
 _atom_site_symmetry_multiplicity
 _atom_site_fract_x
 _atom_site_fract_y
 _atom_site_fract_z
 _atom_site_occupancy
  Tm  Tm0  1  0.335179  0.670360  0.000000  1
  Tm  Tm1  1  0.664821  0.329640  0.500000  1
  Tm  Tm2  1  0.664821  0.329640  0.000000  1
  Tm  Tm3  1  0.335179  0.670360  0.500000  1
  Tm  Tm4  1  0.236860  0.000000  0.250000  1
  Tm  Tm5  1  0.763140  0.000000  0.750000  1
  Tm  Tm6  1  0.993457  0.237184  0.250000  1
  Tm  Tm7  1  0.756273  0.762816  0.250000  1
  Tm  Tm8  1  0.243727  0.237184  0.750000  1
  Tm  Tm9  1  0.006543  0.762816  0.750000  1
  In  In10  1  0.600986  0.000000  0.250000  1
  In  In11  1  0.399014  0.000000  0.750000  1
  Sb  Sb12  1  0.997485  0.607814  0.250000  1
  Sb  Sb13  1  0.389671  0.392186  0.250000  1
  Sb  Sb14  1  0.610329  0.607814  0.750000  1
  Sb  Sb15  1  0.002515  0.392186  0.750000  1
