# generated using pymatgen
data_Yb5SnPt2
_symmetry_space_group_name_H-M   'P 1'
_cell_length_a   9.00440446
_cell_length_b   9.00440504
_cell_length_c   9.00440437
_cell_angle_alpha   129.01967950
_cell_angle_beta   129.01968743
_cell_angle_gamma   74.97890582
_symmetry_Int_Tables_number   1
_chemical_formula_structural   Yb5SnPt2
_chemical_formula_sum   'Yb10 Sn2 Pt4'
_cell_volume   429.14970336
_cell_formula_units_Z   2
loop_
 _symmetry_equiv_pos_site_id
 _symmetry_equiv_pos_as_xyz
  1  'x, y, z'
loop_
 _atom_site_type_symbol
 _atom_site_label
 _atom_site_symmetry_multiplicity
 _atom_site_fract_x
 _atom_site_fract_y
 _atom_site_fract_z
 _atom_site_occupancy
  Yb  Yb0  1  0.000000  0.000000  0.000000  1
  Yb  Yb1  1  0.500000  0.500000  0.000000  1
  Yb  Yb2  1  0.798957  0.298957  0.833831  1
  Yb  Yb3  1  0.201043  0.701043  0.166169  1
  Yb  Yb4  1  0.465126  0.965126  0.166169  1
  Yb  Yb5  1  0.298957  0.465126  0.500000  1
  Yb  Yb6  1  0.034874  0.201043  0.500000  1
  Yb  Yb7  1  0.534874  0.034874  0.833831  1
  Yb  Yb8  1  0.701043  0.534874  0.500000  1
  Yb  Yb9  1  0.965126  0.798957  0.500000  1
  Sn  Sn10  1  0.250000  0.250000  0.000000  1
  Sn  Sn11  1  0.750000  0.750000  0.000000  1
  Pt  Pt12  1  0.131640  0.631640  0.763282  1
  Pt  Pt13  1  0.868360  0.368360  0.236718  1
  Pt  Pt14  1  0.631640  0.868360  0.500000  1
  Pt  Pt15  1  0.368360  0.131640  0.500000  1
