# generated using pymatgen
data_Cu6SiMoS8
_symmetry_space_group_name_H-M   'P 1'
_cell_length_a   7.52507000
_cell_length_b   7.52507055
_cell_length_c   12.36912100
_cell_angle_alpha   90.00000000
_cell_angle_beta   90.00000000
_cell_angle_gamma   119.99998878
_symmetry_Int_Tables_number   1
_chemical_formula_structural   Cu6SiMoS8
_chemical_formula_sum   'Cu12 Si2 Mo2 S16'
_cell_volume   606.58356477
_cell_formula_units_Z   2
loop_
 _symmetry_equiv_pos_site_id
 _symmetry_equiv_pos_as_xyz
  1  'x, y, z'
loop_
 _atom_site_type_symbol
 _atom_site_label
 _atom_site_symmetry_multiplicity
 _atom_site_fract_x
 _atom_site_fract_y
 _atom_site_fract_z
 _atom_site_occupancy
  Cu  Cu0  1  0.839120  0.678242  0.104678  1
  Cu  Cu1  1  0.502961  0.497039  0.354183  1
  Cu  Cu2  1  0.005922  0.502961  0.854183  1
  Cu  Cu3  1  0.839120  0.160880  0.104678  1
  Cu  Cu4  1  0.497039  0.502961  0.854183  1
  Cu  Cu5  1  0.160880  0.321758  0.604678  1
  Cu  Cu6  1  0.502961  0.005922  0.354183  1
  Cu  Cu7  1  0.994078  0.497039  0.354183  1
  Cu  Cu8  1  0.160880  0.839120  0.604678  1
  Cu  Cu9  1  0.497039  0.994078  0.854183  1
  Cu  Cu10  1  0.678242  0.839120  0.604678  1
  Cu  Cu11  1  0.321758  0.160880  0.104678  1
  Si  Si12  1  0.000000  0.000000  0.851541  1
  Si  Si13  1  0.000000  0.000000  0.351541  1
  Mo  Mo14  1  0.333333  0.666667  0.481901  1
  Mo  Mo15  1  0.666667  0.333333  0.981901  1
  S  S16  1  0.000000  0.000000  0.026245  1
  S  S17  1  0.316168  0.158085  0.291630  1
  S  S18  1  0.841915  0.158085  0.291630  1
  S  S19  1  0.004591  0.502296  0.542136  1
  S  S20  1  0.841915  0.683832  0.291630  1
  S  S21  1  0.666667  0.333333  0.798430  1
  S  S22  1  0.158085  0.316168  0.791630  1
  S  S23  1  0.497704  0.502296  0.542136  1
  S  S24  1  0.000000  0.000000  0.526245  1
  S  S25  1  0.333333  0.666667  0.298430  1
  S  S26  1  0.995409  0.497704  0.042136  1
  S  S27  1  0.497704  0.995409  0.542136  1
  S  S28  1  0.158085  0.841915  0.791630  1
  S  S29  1  0.683832  0.841915  0.791630  1
  S  S30  1  0.502296  0.004591  0.042136  1
  S  S31  1  0.502296  0.497704  0.042136  1
