# generated using pymatgen
data_Er5Tm5InPb5
_symmetry_space_group_name_H-M   'P 1'
_cell_length_a   6.59161000
_cell_length_b   8.93856903
_cell_length_c   8.95996218
_cell_angle_alpha   120.08007054
_cell_angle_beta   89.99987925
_cell_angle_gamma   89.99854178
_symmetry_Int_Tables_number   1
_chemical_formula_structural   Er5Tm5InPb5
_chemical_formula_sum   'Er5 Tm5 In1 Pb5'
_cell_volume   456.82023949
_cell_formula_units_Z   1
loop_
 _symmetry_equiv_pos_site_id
 _symmetry_equiv_pos_as_xyz
  1  'x, y, z'
loop_
 _atom_site_type_symbol
 _atom_site_label
 _atom_site_symmetry_multiplicity
 _atom_site_fract_x
 _atom_site_fract_y
 _atom_site_fract_z
 _atom_site_occupancy
  Er  Er0  1  0.750016  0.236672  0.001264  1
  Er  Er1  1  0.749998  0.763447  0.768654  1
  Er  Er2  1  0.249994  0.764710  0.998383  1
  Er  Er3  1  0.249998  0.235430  0.235173  1
  Er  Er4  1  0.250005  0.999272  0.763891  1
  Tm  Tm5  1  0.501936  0.336723  0.670373  1
  Tm  Tm6  1  0.502100  0.666477  0.329799  1
  Tm  Tm7  1  0.997903  0.666499  0.329798  1
  Tm  Tm8  1  0.998068  0.336717  0.670379  1
  Tm  Tm9  1  0.749999  0.995846  0.232752  1
  In  In10  1  0.749987  0.601526  0.999578  1
  Pb  Pb11  1  0.750026  0.394619  0.395475  1
  Pb  Pb12  1  0.749974  0.999246  0.604952  1
  Pb  Pb13  1  0.249986  0.397233  0.000188  1
  Pb  Pb14  1  0.250005  0.603814  0.601900  1
  Pb  Pb15  1  0.250004  0.001770  0.397441  1
