# generated using pymatgen
data_ErLu3(ThIr9)2
_symmetry_space_group_name_H-M   'P 1'
_cell_length_a   5.33110483
_cell_length_b   5.33110493
_cell_length_c   17.70065178
_cell_angle_alpha   98.66115873
_cell_angle_beta   98.66115873
_cell_angle_gamma   60.00000632
_symmetry_Int_Tables_number   1
_chemical_formula_structural   ErLu3(ThIr9)2
_chemical_formula_sum   'Er1 Lu3 Th2 Ir18'
_cell_volume   429.02957818
_cell_formula_units_Z   1
loop_
 _symmetry_equiv_pos_site_id
 _symmetry_equiv_pos_as_xyz
  1  'x, y, z'
loop_
 _atom_site_type_symbol
 _atom_site_label
 _atom_site_symmetry_multiplicity
 _atom_site_fract_x
 _atom_site_fract_y
 _atom_site_fract_z
 _atom_site_occupancy
  Er  Er0  1  0.570273  0.570273  0.710818  1
  Lu  Lu1  1  0.429237  0.429237  0.287713  1
  Lu  Lu2  1  0.930136  0.930136  0.790409  1
  Lu  Lu3  1  0.070557  0.070557  0.211671  1
  Th  Th4  1  0.000571  0.000571  0.001713  1
  Th  Th5  1  0.499272  0.499272  0.497815  1
  Ir  Ir6  1  0.456428  0.958917  0.374262  1
  Ir  Ir7  1  0.958460  0.458746  0.875953  1
  Ir  Ir8  1  0.958917  0.958917  0.374262  1
  Ir  Ir9  1  0.458746  0.458746  0.875953  1
  Ir  Ir10  1  0.958917  0.456428  0.374262  1
  Ir  Ir11  1  0.458746  0.958460  0.875953  1
  Ir  Ir12  1  0.042580  0.541449  0.125478  1
  Ir  Ir13  1  0.542370  0.040899  0.624169  1
  Ir  Ir14  1  0.541449  0.541449  0.125478  1
  Ir  Ir15  1  0.040899  0.040899  0.624169  1
  Ir  Ir16  1  0.541449  0.042580  0.125478  1
  Ir  Ir17  1  0.040899  0.542370  0.624169  1
  Ir  Ir18  1  0.333572  0.333572  0.000717  1
  Ir  Ir19  1  0.833039  0.833039  0.499118  1
  Ir  Ir20  1  0.166597  0.166597  0.499792  1
  Ir  Ir21  1  0.666850  0.666850  0.000548  1
  Ir  Ir22  1  0.750073  0.750073  0.250219  1
  Ir  Ir23  1  0.249962  0.249962  0.749887  1
