# generated using pymatgen
data_Th3Ni2B2N3
_symmetry_space_group_name_H-M   'P 1'
_cell_length_a   3.66247143
_cell_length_b   3.66247108
_cell_length_c   10.57115819
_cell_angle_alpha   99.97363018
_cell_angle_beta   99.97388223
_cell_angle_gamma   90.00117302
_symmetry_Int_Tables_number   1
_chemical_formula_structural   Th3Ni2B2N3
_chemical_formula_sum   'Th3 Ni2 B2 N3'
_cell_volume   137.47886725
_cell_formula_units_Z   1
loop_
 _symmetry_equiv_pos_site_id
 _symmetry_equiv_pos_as_xyz
  1  'x, y, z'
loop_
 _atom_site_type_symbol
 _atom_site_label
 _atom_site_symmetry_multiplicity
 _atom_site_fract_x
 _atom_site_fract_y
 _atom_site_fract_z
 _atom_site_occupancy
  Th  Th0  1  0.000005  0.000002  0.000000  1
  Th  Th1  1  0.630654  0.630661  0.261409  1
  Th  Th2  1  0.369347  0.369341  0.738591  1
  Ni  Ni3  1  0.749992  0.250006  0.499999  1
  Ni  Ni4  1  0.250003  0.749994  0.500001  1
  B  B5  1  0.193203  0.193210  0.386496  1
  B  B6  1  0.806794  0.806792  0.613506  1
  N  N7  1  0.500004  0.499999  0.999993  1
  N  N8  1  0.119919  0.119928  0.239973  1
  N  N9  1  0.880084  0.880075  0.760030  1
