# generated using pymatgen
data_Gd4Ho(OsO6)2
_symmetry_space_group_name_H-M   'P 1'
_cell_length_a   6.91163992
_cell_length_b   6.91164082
_cell_length_c   7.62218100
_cell_angle_alpha   73.69753400
_cell_angle_beta   73.69753181
_cell_angle_gamma   48.83422397
_symmetry_Int_Tables_number   1
_chemical_formula_structural   Gd4Ho(OsO6)2
_chemical_formula_sum   'Gd4 Ho1 Os2 O12'
_cell_volume   260.76020263
_cell_formula_units_Z   1
loop_
 _symmetry_equiv_pos_site_id
 _symmetry_equiv_pos_as_xyz
  1  'x, y, z'
loop_
 _atom_site_type_symbol
 _atom_site_label
 _atom_site_symmetry_multiplicity
 _atom_site_fract_x
 _atom_site_fract_y
 _atom_site_fract_z
 _atom_site_occupancy
  Gd  Gd0  1  0.313235  0.313235  0.828278  1
  Gd  Gd1  1  0.686765  0.686765  0.171722  1
  Gd  Gd2  1  0.698067  0.698067  0.642594  1
  Gd  Gd3  1  0.301933  0.301933  0.357406  1
  Ho  Ho4  1  0.000000  0.000000  0.500000  1
  Os  Os5  1  0.218024  0.781976  0.000000  1
  Os  Os6  1  0.781976  0.218024  0.000000  1
  O  O7  1  0.498598  0.498598  0.168549  1
  O  O8  1  0.501402  0.501402  0.831451  1
  O  O9  1  0.000923  0.000923  0.201979  1
  O  O10  1  0.999077  0.999077  0.798021  1
  O  O11  1  0.914316  0.417109  0.914785  1
  O  O12  1  0.582891  0.085684  0.085215  1
  O  O13  1  0.085684  0.582891  0.085215  1
  O  O14  1  0.599958  0.099165  0.571216  1
  O  O15  1  0.900835  0.400042  0.428784  1
  O  O16  1  0.400042  0.900835  0.428784  1
  O  O17  1  0.099165  0.599958  0.571216  1
  O  O18  1  0.417109  0.914316  0.914785  1
