# generated using pymatgen
data_AlGeCl5
_symmetry_space_group_name_H-M   'P 1'
_cell_length_a   6.34973198
_cell_length_b   6.66813465
_cell_length_c   8.26642912
_cell_angle_alpha   127.91124717
_cell_angle_beta   91.01066063
_cell_angle_gamma   109.52664886
_symmetry_Int_Tables_number   1
_chemical_formula_structural   AlGeCl5
_chemical_formula_sum   'Al1 Ge1 Cl5'
_cell_volume   248.28049040
_cell_formula_units_Z   1
loop_
 _symmetry_equiv_pos_site_id
 _symmetry_equiv_pos_as_xyz
  1  'x, y, z'
loop_
 _atom_site_type_symbol
 _atom_site_label
 _atom_site_symmetry_multiplicity
 _atom_site_fract_x
 _atom_site_fract_y
 _atom_site_fract_z
 _atom_site_occupancy
  Al  Al0  1  0.235983  0.429256  0.967843  1
  Ge  Ge1  1  0.944641  0.847562  0.423642  1
  Cl  Cl2  1  0.679937  0.635819  0.503117  1
  Cl  Cl3  1  0.559096  0.804185  0.153062  1
  Cl  Cl4  1  0.006003  0.412642  0.759189  1
  Cl  Cl5  1  0.051624  0.384179  0.170400  1
  Cl  Cl6  1  0.292184  0.051445  0.742175  1
