# generated using pymatgen
data_Ho2Lu9Th5(MgOs)4
_symmetry_space_group_name_H-M   'P 1'
_cell_length_a   9.68766151
_cell_length_b   9.70898379
_cell_length_c   9.70161539
_cell_angle_alpha   59.75831239
_cell_angle_beta   60.08221249
_cell_angle_gamma   60.00928003
_symmetry_Int_Tables_number   1
_chemical_formula_structural   Ho2Lu9Th5(MgOs)4
_chemical_formula_sum   'Ho2 Lu9 Th5 Mg4 Os4'
_cell_volume   644.49677313
_cell_formula_units_Z   1
loop_
 _symmetry_equiv_pos_site_id
 _symmetry_equiv_pos_as_xyz
  1  'x, y, z'
loop_
 _atom_site_type_symbol
 _atom_site_label
 _atom_site_symmetry_multiplicity
 _atom_site_fract_x
 _atom_site_fract_y
 _atom_site_fract_z
 _atom_site_occupancy
  Ho  Ho0  1  0.563426  0.566237  0.934427  1
  Ho  Ho1  1  0.935916  0.934392  0.566258  1
  Lu  Lu2  1  0.185845  0.814185  0.814107  1
  Lu  Lu3  1  0.191286  0.810395  0.184103  1
  Lu  Lu4  1  0.814284  0.184099  0.810360  1
  Lu  Lu5  1  0.191574  0.184010  0.810212  1
  Lu  Lu6  1  0.814178  0.810221  0.184009  1
  Lu  Lu7  1  0.933609  0.566429  0.566466  1
  Lu  Lu8  1  0.564585  0.935404  0.935400  1
  Lu  Lu9  1  0.561508  0.935967  0.565106  1
  Lu  Lu10  1  0.937401  0.565078  0.935970  1
  Th  Th11  1  0.342232  0.350507  0.350390  1
  Th  Th12  1  0.347597  0.348045  0.956526  1
  Th  Th13  1  0.347820  0.956515  0.348081  1
  Th  Th14  1  0.956834  0.350384  0.350494  1
  Th  Th15  1  0.816783  0.183288  0.183195  1
  Mg  Mg16  1  0.581910  0.580321  0.579613  1
  Mg  Mg17  1  0.580156  0.582693  0.257727  1
  Mg  Mg18  1  0.579411  0.257710  0.582710  1
  Mg  Mg19  1  0.258144  0.579583  0.580348  1
  Os  Os20  1  0.133207  0.144846  0.143497  1
  Os  Os21  1  0.142384  0.140917  0.575262  1
  Os  Os22  1  0.141461  0.575241  0.140921  1
  Os  Os23  1  0.578450  0.143533  0.144821  1
