# generated using pymatgen
data_TbYb6Er(Si3Au)4
_symmetry_space_group_name_H-M   'P 1'
_cell_length_a   8.29063600
_cell_length_b   8.29063616
_cell_length_c   8.21116700
_cell_angle_alpha   90.00000000
_cell_angle_beta   90.00000000
_cell_angle_gamma   120.00000733
_symmetry_Int_Tables_number   1
_chemical_formula_structural   TbYb6Er(Si3Au)4
_chemical_formula_sum   'Tb1 Yb6 Er1 Si12 Au4'
_cell_volume   488.77748103
_cell_formula_units_Z   1
loop_
 _symmetry_equiv_pos_site_id
 _symmetry_equiv_pos_as_xyz
  1  'x, y, z'
loop_
 _atom_site_type_symbol
 _atom_site_label
 _atom_site_symmetry_multiplicity
 _atom_site_fract_x
 _atom_site_fract_y
 _atom_site_fract_z
 _atom_site_occupancy
  Tb  Tb0  1  0.000000  0.000000  0.750000  1
  Yb  Yb1  1  0.501248  0.002495  0.250000  1
  Yb  Yb2  1  0.498656  0.997312  0.750000  1
  Yb  Yb3  1  0.997505  0.498752  0.250000  1
  Yb  Yb4  1  0.002688  0.501344  0.750000  1
  Yb  Yb5  1  0.501248  0.498752  0.250000  1
  Yb  Yb6  1  0.498656  0.501344  0.750000  1
  Er  Er7  1  0.000000  0.000000  0.250000  1
  Si  Si8  1  0.161456  0.322913  0.002089  1
  Si  Si9  1  0.838517  0.677034  0.999810  1
  Si  Si10  1  0.677087  0.838544  0.002089  1
  Si  Si11  1  0.838517  0.677034  0.500190  1
  Si  Si12  1  0.322966  0.161483  0.999810  1
  Si  Si13  1  0.161456  0.322913  0.497911  1
  Si  Si14  1  0.161456  0.838544  0.002089  1
  Si  Si15  1  0.322966  0.161483  0.500190  1
  Si  Si16  1  0.838517  0.161483  0.999810  1
  Si  Si17  1  0.677087  0.838544  0.497911  1
  Si  Si18  1  0.838517  0.161483  0.500190  1
  Si  Si19  1  0.161456  0.838544  0.497911  1
  Au  Au20  1  0.333333  0.666667  0.004406  1
  Au  Au21  1  0.666667  0.333333  0.995845  1
  Au  Au22  1  0.666667  0.333333  0.504155  1
  Au  Au23  1  0.333333  0.666667  0.495594  1
