# generated using pymatgen
data_CeNiPH
_symmetry_space_group_name_H-M   'P 1'
_cell_length_a   3.92122200
_cell_length_b   8.17982100
_cell_length_c   6.87556000
_cell_angle_alpha   90.00000000
_cell_angle_beta   90.00000000
_cell_angle_gamma   90.00000000
_symmetry_Int_Tables_number   1
_chemical_formula_structural   CeNiPH
_chemical_formula_sum   'Ce4 Ni4 P4 H4'
_cell_volume   220.53285861
_cell_formula_units_Z   4
loop_
 _symmetry_equiv_pos_site_id
 _symmetry_equiv_pos_as_xyz
  1  'x, y, z'
loop_
 _atom_site_type_symbol
 _atom_site_label
 _atom_site_symmetry_multiplicity
 _atom_site_fract_x
 _atom_site_fract_y
 _atom_site_fract_z
 _atom_site_occupancy
  Ce  Ce0  1  0.750000  0.504226  0.748661  1
  Ce  Ce1  1  0.250000  0.495774  0.251339  1
  Ce  Ce2  1  0.250000  0.995774  0.248661  1
  Ce  Ce3  1  0.750000  0.004226  0.751339  1
  Ni  Ni4  1  0.750000  0.238656  0.411800  1
  Ni  Ni5  1  0.250000  0.761344  0.588200  1
  Ni  Ni6  1  0.250000  0.261344  0.911800  1
  Ni  Ni7  1  0.750000  0.738656  0.088200  1
  P  P8  1  0.750000  0.229886  0.079104  1
  P  P9  1  0.250000  0.770114  0.920896  1
  P  P10  1  0.250000  0.270114  0.579104  1
  P  P11  1  0.750000  0.729886  0.420896  1
  H  H12  1  0.250000  0.959884  0.579519  1
  H  H13  1  0.750000  0.040116  0.420481  1
  H  H14  1  0.750000  0.540116  0.079519  1
  H  H15  1  0.250000  0.459884  0.920481  1
