# generated using pymatgen
data_Tb2Tm2ReB12Os
_symmetry_space_group_name_H-M   'P 1'
_cell_length_a   3.65287200
_cell_length_b   9.13030263
_cell_length_c   11.53042818
_cell_angle_alpha   90.12033515
_cell_angle_beta   90.00000000
_cell_angle_gamma   90.00000000
_symmetry_Int_Tables_number   1
_chemical_formula_structural   Tb2Tm2ReB12Os
_chemical_formula_sum   'Tb4 Tm4 Re2 B24 Os2'
_cell_volume   384.55999569
_cell_formula_units_Z   2
loop_
 _symmetry_equiv_pos_site_id
 _symmetry_equiv_pos_as_xyz
  1  'x, y, z'
loop_
 _atom_site_type_symbol
 _atom_site_label
 _atom_site_symmetry_multiplicity
 _atom_site_fract_x
 _atom_site_fract_y
 _atom_site_fract_z
 _atom_site_occupancy
  Tb  Tb0  1  0.000000  0.320501  0.412522  1
  Tb  Tb1  1  0.000000  0.679499  0.587478  1
  Tb  Tb2  1  0.000000  0.823961  0.084969  1
  Tb  Tb3  1  0.000000  0.176039  0.915031  1
  Tm  Tm4  1  0.000000  0.943464  0.370845  1
  Tm  Tm5  1  0.000000  0.056536  0.629155  1
  Tm  Tm6  1  0.000000  0.442535  0.128717  1
  Tm  Tm7  1  0.000000  0.557465  0.871283  1
  Re  Re8  1  0.000000  0.138902  0.180311  1
  Re  Re9  1  0.000000  0.861098  0.819689  1
  B  B10  1  0.500000  0.554091  0.432510  1
  B  B11  1  0.500000  0.445909  0.567490  1
  B  B12  1  0.500000  0.053421  0.067402  1
  B  B13  1  0.500000  0.946579  0.932598  1
  B  B14  1  0.500000  0.749565  0.418311  1
  B  B15  1  0.500000  0.250435  0.581689  1
  B  B16  1  0.500000  0.249687  0.081480  1
  B  B17  1  0.500000  0.750313  0.918520  1
  B  B18  1  0.500000  0.791067  0.266044  1
  B  B19  1  0.500000  0.208933  0.733956  1
  B  B20  1  0.500000  0.292025  0.234495  1
  B  B21  1  0.500000  0.707975  0.765505  1
  B  B22  1  0.500000  0.630114  0.185726  1
  B  B23  1  0.500000  0.369886  0.814274  1
  B  B24  1  0.500000  0.130560  0.315183  1
  B  B25  1  0.500000  0.869440  0.684817  1
  B  B26  1  0.500000  0.982423  0.213203  1
  B  B27  1  0.500000  0.017577  0.786797  1
  B  B28  1  0.500000  0.482837  0.287405  1
  B  B29  1  0.500000  0.517163  0.712595  1
  B  B30  1  0.500000  0.601112  0.028170  1
  B  B31  1  0.500000  0.398888  0.971830  1
  B  B32  1  0.500000  0.101588  0.472156  1
  B  B33  1  0.500000  0.898412  0.527844  1
  Os  Os34  1  0.000000  0.638089  0.320933  1
  Os  Os35  1  0.000000  0.361911  0.679067  1
