# generated using pymatgen
data_Tm5Lu15Bi11Ir
_symmetry_space_group_name_H-M   'P 1'
_cell_length_a   8.09193270
_cell_length_b   9.35807700
_cell_length_c   11.80969800
_cell_angle_alpha   90.00000000
_cell_angle_beta   89.72427309
_cell_angle_gamma   90.00000000
_symmetry_Int_Tables_number   1
_chemical_formula_structural   Tm5Lu15Bi11Ir
_chemical_formula_sum   'Tm5 Lu15 Bi11 Ir1'
_cell_volume   894.27819058
_cell_formula_units_Z   1
loop_
 _symmetry_equiv_pos_site_id
 _symmetry_equiv_pos_as_xyz
  1  'x, y, z'
loop_
 _atom_site_type_symbol
 _atom_site_label
 _atom_site_symmetry_multiplicity
 _atom_site_fract_x
 _atom_site_fract_y
 _atom_site_fract_z
 _atom_site_occupancy
  Tm  Tm0  1  0.143072  0.750000  0.780505  1
  Tm  Tm1  1  0.207257  0.250000  0.773699  1
  Tm  Tm2  1  0.808573  0.750000  0.216574  1
  Tm  Tm3  1  0.315060  0.750000  0.281484  1
  Tm  Tm4  1  0.647479  0.250000  0.703373  1
  Lu  Lu5  1  0.050311  0.250000  0.505902  1
  Lu  Lu6  1  0.985220  0.750000  0.492112  1
  Lu  Lu7  1  0.478540  0.750000  0.012127  1
  Lu  Lu8  1  0.526373  0.250000  0.990831  1
  Lu  Lu9  1  0.355752  0.250000  0.303139  1
  Lu  Lu10  1  0.658622  0.750000  0.719180  1
  Lu  Lu11  1  0.846626  0.250000  0.214535  1
  Lu  Lu12  1  0.192722  0.067461  0.063916  1
  Lu  Lu13  1  0.808069  0.932617  0.941389  1
  Lu  Lu14  1  0.315076  0.967911  0.558908  1
  Lu  Lu15  1  0.808069  0.567383  0.941389  1
  Lu  Lu16  1  0.677207  0.075317  0.445969  1
  Lu  Lu17  1  0.192722  0.432539  0.063916  1
  Lu  Lu18  1  0.677207  0.424683  0.445969  1
  Lu  Lu19  1  0.315076  0.532089  0.558908  1
  Bi  Bi20  1  0.597003  0.750000  0.460386  1
  Bi  Bi21  1  0.098668  0.750000  0.043311  1
  Bi  Bi22  1  0.909152  0.250000  0.950782  1
  Bi  Bi23  1  0.056201  0.000298  0.321895  1
  Bi  Bi24  1  0.931957  0.002328  0.674145  1
  Bi  Bi25  1  0.435197  0.990343  0.829502  1
  Bi  Bi26  1  0.931957  0.497672  0.674145  1
  Bi  Bi27  1  0.562995  0.005658  0.175249  1
  Bi  Bi28  1  0.056201  0.499702  0.321895  1
  Bi  Bi29  1  0.562995  0.494342  0.175249  1
  Bi  Bi30  1  0.435197  0.509657  0.829502  1
  Ir  Ir31  1  0.413444  0.250000  0.530117  1
