# generated using pymatgen
data_K2Ca2(SiO3)3
_symmetry_space_group_name_H-M   'P 1'
_cell_length_a   7.38645200
_cell_length_b   6.65143315
_cell_length_c   12.10671200
_cell_angle_alpha   61.13494656
_cell_angle_beta   90.00000000
_cell_angle_gamma   90.00000000
_symmetry_Int_Tables_number   1
_chemical_formula_structural   K2Ca2(SiO3)3
_chemical_formula_sum   'K4 Ca4 Si6 O18'
_cell_volume   520.90916326
_cell_formula_units_Z   2
loop_
 _symmetry_equiv_pos_site_id
 _symmetry_equiv_pos_as_xyz
  1  'x, y, z'
loop_
 _atom_site_type_symbol
 _atom_site_label
 _atom_site_symmetry_multiplicity
 _atom_site_fract_x
 _atom_site_fract_y
 _atom_site_fract_z
 _atom_site_occupancy
  K  K0  1  0.425439  0.448607  0.772467  1
  K  K1  1  0.574561  0.448607  0.272467  1
  K  K2  1  0.657941  0.839566  0.897162  1
  K  K3  1  0.342059  0.839566  0.397162  1
  Ca  Ca4  1  0.832591  0.871045  0.587518  1
  Ca  Ca5  1  0.167409  0.871045  0.087518  1
  Ca  Ca6  1  0.933543  0.336106  0.854615  1
  Ca  Ca7  1  0.066457  0.336106  0.354615  1
  Si  Si8  1  0.586659  0.112724  0.095009  1
  Si  Si9  1  0.413341  0.112724  0.595009  1
  Si  Si10  1  0.261809  0.431356  0.046272  1
  Si  Si11  1  0.738191  0.431356  0.546272  1
  Si  Si12  1  0.134598  0.870618  0.817112  1
  Si  Si13  1  0.865402  0.870618  0.317112  1
  O  O14  1  0.825663  0.476159  0.654720  1
  O  O15  1  0.174337  0.476159  0.154720  1
  O  O16  1  0.473612  0.337725  0.090475  1
  O  O17  1  0.526388  0.337725  0.590475  1
  O  O18  1  0.458506  0.887144  0.146453  1
  O  O19  1  0.541494  0.887144  0.646453  1
  O  O20  1  0.025849  0.978005  0.893067  1
  O  O21  1  0.974151  0.978005  0.393067  1
  O  O22  1  0.842376  0.268026  0.502544  1
  O  O23  1  0.157624  0.268026  0.002544  1
  O  O24  1  0.671309  0.197335  0.956006  1
  O  O25  1  0.328691  0.197335  0.456006  1
  O  O26  1  0.004473  0.732509  0.768330  1
  O  O27  1  0.995527  0.732509  0.268330  1
  O  O28  1  0.293076  0.691344  0.917567  1
  O  O29  1  0.706924  0.691344  0.417567  1
  O  O30  1  0.745393  0.075631  0.202124  1
  O  O31  1  0.254607  0.075631  0.702124  1
