# generated using pymatgen
data_Zr4V4GaAs3
_symmetry_space_group_name_H-M   'P 1'
_cell_length_a   3.57824400
_cell_length_b   6.87942708
_cell_length_c   8.24069711
_cell_angle_alpha   89.69762728
_cell_angle_beta   90.00000000
_cell_angle_gamma   90.00000000
_symmetry_Int_Tables_number   1
_chemical_formula_structural   Zr4V4GaAs3
_chemical_formula_sum   'Zr4 V4 Ga1 As3'
_cell_volume   202.85238922
_cell_formula_units_Z   1
loop_
 _symmetry_equiv_pos_site_id
 _symmetry_equiv_pos_as_xyz
  1  'x, y, z'
loop_
 _atom_site_type_symbol
 _atom_site_label
 _atom_site_symmetry_multiplicity
 _atom_site_fract_x
 _atom_site_fract_y
 _atom_site_fract_z
 _atom_site_occupancy
  Zr  Zr0  1  0.250000  0.046221  0.831403  1
  Zr  Zr1  1  0.250000  0.547632  0.667885  1
  Zr  Zr2  1  0.750000  0.953983  0.165110  1
  Zr  Zr3  1  0.750000  0.450556  0.332330  1
  V  V4  1  0.250000  0.124500  0.444543  1
  V  V5  1  0.250000  0.620951  0.054357  1
  V  V6  1  0.750000  0.881411  0.559685  1
  V  V7  1  0.750000  0.374391  0.942801  1
  Ga  Ga8  1  0.250000  0.755430  0.362237  1
  As  As9  1  0.250000  0.255953  0.138832  1
  As  As10  1  0.750000  0.246687  0.638157  1
  As  As11  1  0.750000  0.742283  0.862659  1
