# generated using pymatgen
data_NaYb2TcH6
_symmetry_space_group_name_H-M   'P 1'
_cell_length_a   5.31979732
_cell_length_b   5.31979748
_cell_length_c   5.31979800
_cell_angle_alpha   119.99999078
_cell_angle_beta   119.99999181
_cell_angle_gamma   60.00001008
_symmetry_Int_Tables_number   1
_chemical_formula_structural   NaYb2TcH6
_chemical_formula_sum   'Na1 Yb2 Tc1 H6'
_cell_volume   106.45606769
_cell_formula_units_Z   1
loop_
 _symmetry_equiv_pos_site_id
 _symmetry_equiv_pos_as_xyz
  1  'x, y, z'
loop_
 _atom_site_type_symbol
 _atom_site_label
 _atom_site_symmetry_multiplicity
 _atom_site_fract_x
 _atom_site_fract_y
 _atom_site_fract_z
 _atom_site_occupancy
  Na  Na0  1  0.499999  0.499999  0.500000  1
  Yb  Yb1  1  0.749999  0.749999  0.249999  1
  Yb  Yb2  1  0.249999  0.249999  0.749997  1
  Tc  Tc3  1  0.000000  0.000000  0.000000  1
  H  H4  1  0.233700  0.233700  0.233701  1
  H  H5  1  0.766298  0.233700  0.233701  1
  H  H6  1  0.233700  0.766298  0.233701  1
  H  H7  1  0.766297  0.233702  0.766300  1
  H  H8  1  0.233702  0.766297  0.766300  1
  H  H9  1  0.766299  0.766299  0.766300  1
