# generated using pymatgen
data_LiSc(Nb2B5)4
_symmetry_space_group_name_H-M   'P 1'
_cell_length_a   6.20686595
_cell_length_b   7.04552341
_cell_length_c   7.39179395
_cell_angle_alpha   93.75499261
_cell_angle_beta   102.15259727
_cell_angle_gamma   116.05691507
_symmetry_Int_Tables_number   1
_chemical_formula_structural   LiSc(Nb2B5)4
_chemical_formula_sum   'Li1 Sc1 Nb8 B20'
_cell_volume   279.25486613
_cell_formula_units_Z   1
loop_
 _symmetry_equiv_pos_site_id
 _symmetry_equiv_pos_as_xyz
  1  'x, y, z'
loop_
 _atom_site_type_symbol
 _atom_site_label
 _atom_site_symmetry_multiplicity
 _atom_site_fract_x
 _atom_site_fract_y
 _atom_site_fract_z
 _atom_site_occupancy
  Li  Li0  1  0.999748  0.997914  0.998280  1
  Sc  Sc1  1  0.000377  0.602778  0.801601  1
  Nb  Nb2  1  0.500569  0.000418  0.000459  1
  Nb  Nb3  1  0.500340  0.800332  0.399999  1
  Nb  Nb4  1  0.999858  0.396071  0.201295  1
  Nb  Nb5  1  0.501228  0.200148  0.599684  1
  Nb  Nb6  1  0.999350  0.798884  0.399548  1
  Nb  Nb7  1  0.501614  0.601277  0.800446  1
  Nb  Nb8  1  0.496494  0.397976  0.199341  1
  Nb  Nb9  1  0.000802  0.203197  0.598631  1
  B  B10  1  0.329944  0.230298  0.869390  1
  B  B11  1  0.332695  0.632492  0.066776  1
  B  B12  1  0.165334  0.363739  0.935222  1
  B  B13  1  0.329635  0.032568  0.262468  1
  B  B14  1  0.164571  0.768215  0.131766  1
  B  B15  1  0.834486  0.231387  0.867854  1
  B  B16  1  0.165292  0.164391  0.328360  1
  B  B17  1  0.835164  0.635895  0.065896  1
  B  B18  1  0.333786  0.433220  0.465359  1
  B  B19  1  0.666856  0.367211  0.932980  1
  B  B20  1  0.834076  0.031462  0.262685  1
  B  B21  1  0.669156  0.768724  0.130460  1
  B  B22  1  0.334227  0.834730  0.667797  1
  B  B23  1  0.167295  0.568510  0.534459  1
  B  B24  1  0.665562  0.165339  0.333689  1
  B  B25  1  0.833189  0.433898  0.468145  1
  B  B26  1  0.165260  0.967772  0.735849  1
  B  B27  1  0.835232  0.835578  0.670006  1
  B  B28  1  0.667197  0.568040  0.534813  1
  B  B29  1  0.670665  0.967535  0.736744  1
