# generated using pymatgen
data_Li3Ta(TiIr3)2
_symmetry_space_group_name_H-M   'P 1'
_cell_length_a   4.31454600
_cell_length_b   6.07278500
_cell_length_c   12.89288000
_cell_angle_alpha   90.00000000
_cell_angle_beta   89.99970727
_cell_angle_gamma   89.99978998
_symmetry_Int_Tables_number   1
_chemical_formula_structural   Li3Ta(TiIr3)2
_chemical_formula_sum   'Li6 Ta2 Ti4 Ir12'
_cell_volume   337.81034864
_cell_formula_units_Z   2
loop_
 _symmetry_equiv_pos_site_id
 _symmetry_equiv_pos_as_xyz
  1  'x, y, z'
loop_
 _atom_site_type_symbol
 _atom_site_label
 _atom_site_symmetry_multiplicity
 _atom_site_fract_x
 _atom_site_fract_y
 _atom_site_fract_z
 _atom_site_occupancy
  Li  Li0  1  0.999987  0.000000  0.999443  1
  Li  Li1  1  0.499538  0.500000  0.167137  1
  Li  Li2  1  0.999524  0.000000  0.335312  1
  Li  Li3  1  0.500003  0.500000  0.501568  1
  Li  Li4  1  0.000442  0.000000  0.665096  1
  Li  Li5  1  0.500470  0.500000  0.831381  1
  Ta  Ta6  1  0.000014  0.500000  0.997144  1
  Ta  Ta7  1  0.499604  0.999999  0.169557  1
  Ti  Ti8  1  0.999615  0.500001  0.337398  1
  Ti  Ti9  1  0.500006  0.000000  0.501716  1
  Ti  Ti10  1  0.000377  0.500000  0.664958  1
  Ti  Ti11  1  0.500401  0.000000  0.829282  1
  Ir  Ir12  1  0.500010  0.247047  0.998422  1
  Ir  Ir13  1  0.500010  0.752953  0.998423  1
  Ir  Ir14  1  0.999606  0.252947  0.168270  1
  Ir  Ir15  1  0.999605  0.747052  0.168271  1
  Ir  Ir16  1  0.499610  0.253166  0.335966  1
  Ir  Ir17  1  0.499609  0.746836  0.335966  1
  Ir  Ir18  1  0.999998  0.249088  0.500550  1
  Ir  Ir19  1  0.999998  0.750910  0.500549  1
  Ir  Ir20  1  0.500380  0.250911  0.666096  1
  Ir  Ir21  1  0.500380  0.749089  0.666097  1
  Ir  Ir22  1  0.000401  0.246848  0.830699  1
  Ir  Ir23  1  0.000400  0.753151  0.830699  1
