# generated using pymatgen
data_Er4FeTcOs6
_symmetry_space_group_name_H-M   'P 1'
_cell_length_a   5.23907886
_cell_length_b   5.23907923
_cell_length_c   8.80614100
_cell_angle_alpha   90.00000000
_cell_angle_beta   90.00000000
_cell_angle_gamma   118.53613403
_symmetry_Int_Tables_number   1
_chemical_formula_structural   Er4FeTcOs6
_chemical_formula_sum   'Er4 Fe1 Tc1 Os6'
_cell_volume   212.34655477
_cell_formula_units_Z   1
loop_
 _symmetry_equiv_pos_site_id
 _symmetry_equiv_pos_as_xyz
  1  'x, y, z'
loop_
 _atom_site_type_symbol
 _atom_site_label
 _atom_site_symmetry_multiplicity
 _atom_site_fract_x
 _atom_site_fract_y
 _atom_site_fract_z
 _atom_site_occupancy
  Er  Er0  1  0.330276  0.669724  0.437591  1
  Er  Er1  1  0.667493  0.332507  0.565940  1
  Er  Er2  1  0.667493  0.332507  0.934060  1
  Er  Er3  1  0.330276  0.669724  0.062409  1
  Fe  Fe4  1  0.169762  0.830238  0.750000  1
  Tc  Tc5  1  0.832795  0.167205  0.250000  1
  Os  Os6  1  0.998257  0.001743  0.502616  1
  Os  Os7  1  0.998257  0.001743  0.997384  1
  Os  Os8  1  0.825752  0.653674  0.250000  1
  Os  Os9  1  0.346326  0.174248  0.250000  1
  Os  Os10  1  0.176757  0.343447  0.750000  1
  Os  Os11  1  0.656553  0.823243  0.750000  1
