# generated using pymatgen
data_La4Lu2Al24GaOs7
_symmetry_space_group_name_H-M   'P 1'
_cell_length_a   8.97320130
_cell_length_b   8.97320130
_cell_length_c   9.64697887
_cell_angle_alpha   90.38777846
_cell_angle_beta   89.61222041
_cell_angle_gamma   120.25570415
_symmetry_Int_Tables_number   1
_chemical_formula_structural   La4Lu2Al24GaOs7
_chemical_formula_sum   'La4 Lu2 Al24 Ga1 Os7'
_cell_volume   670.93238063
_cell_formula_units_Z   1
loop_
 _symmetry_equiv_pos_site_id
 _symmetry_equiv_pos_as_xyz
  1  'x, y, z'
loop_
 _atom_site_type_symbol
 _atom_site_label
 _atom_site_symmetry_multiplicity
 _atom_site_fract_x
 _atom_site_fract_y
 _atom_site_fract_z
 _atom_site_occupancy
  La  La0  1  0.192445  0.380134  0.245047  1
  La  La1  1  0.807555  0.619866  0.754953  1
  La  La2  1  0.619866  0.807555  0.245047  1
  La  La3  1  0.380134  0.192445  0.754953  1
  Lu  Lu4  1  0.198055  0.801945  0.257955  1
  Lu  Lu5  1  0.801945  0.198055  0.742045  1
  Al  Al6  1  0.325680  0.674320  0.014176  1
  Al  Al7  1  0.674320  0.325680  0.985824  1
  Al  Al8  1  0.667010  0.332990  0.511629  1
  Al  Al9  1  0.332990  0.667010  0.488371  1
  Al  Al10  1  0.158535  0.325312  0.573442  1
  Al  Al11  1  0.841465  0.674688  0.426558  1
  Al  Al12  1  0.674688  0.841465  0.573442  1
  Al  Al13  1  0.858971  0.679687  0.084844  1
  Al  Al14  1  0.325312  0.158535  0.426558  1
  Al  Al15  1  0.141029  0.320313  0.915156  1
  Al  Al16  1  0.162677  0.837323  0.575322  1
  Al  Al17  1  0.320313  0.141029  0.084844  1
  Al  Al18  1  0.837323  0.162677  0.424678  1
  Al  Al19  1  0.679687  0.858971  0.915156  1
  Al  Al20  1  0.836944  0.163056  0.074683  1
  Al  Al21  1  0.163056  0.836944  0.925317  1
  Al  Al22  1  0.561357  0.120161  0.249502  1
  Al  Al23  1  0.438643  0.879839  0.750498  1
  Al  Al24  1  0.879839  0.438643  0.249502  1
  Al  Al25  1  0.120161  0.561357  0.750498  1
  Al  Al26  1  0.569037  0.430963  0.259414  1
  Al  Al27  1  0.430963  0.569037  0.740586  1
  Al  Al28  1  0.005628  0.994372  0.250826  1
  Al  Al29  1  0.994372  0.005628  0.749174  1
  Ga  Ga30  1  0.500000  0.500000  0.000000  1
  Os  Os31  1  0.500000  0.000000  0.000000  1
  Os  Os32  1  0.000000  0.500000  0.000000  1
  Os  Os33  1  0.500000  0.000000  0.500000  1
  Os  Os34  1  0.000000  0.500000  0.500000  1
  Os  Os35  1  0.500000  0.500000  0.500000  1
  Os  Os36  1  0.000000  0.000000  0.000000  1
  Os  Os37  1  0.000000  0.000000  0.500000  1
