# generated using pymatgen
data_Tm2Ta3Si4
_symmetry_space_group_name_H-M   'P 1'
_cell_length_a   7.00255600
_cell_length_b   6.83276232
_cell_length_c   6.99898358
_cell_angle_alpha   71.26284849
_cell_angle_beta   90.00000000
_cell_angle_gamma   90.00000000
_symmetry_Int_Tables_number   1
_chemical_formula_structural   Tm2Ta3Si4
_chemical_formula_sum   'Tm4 Ta6 Si8'
_cell_volume   317.13112025
_cell_formula_units_Z   2
loop_
 _symmetry_equiv_pos_site_id
 _symmetry_equiv_pos_as_xyz
  1  'x, y, z'
loop_
 _atom_site_type_symbol
 _atom_site_label
 _atom_site_symmetry_multiplicity
 _atom_site_fract_x
 _atom_site_fract_y
 _atom_site_fract_z
 _atom_site_occupancy
  Tm  Tm0  1  0.329751  0.564133  0.812809  1
  Tm  Tm1  1  0.829751  0.935867  0.187191  1
  Tm  Tm2  1  0.670249  0.435867  0.187191  1
  Tm  Tm3  1  0.170249  0.064133  0.812809  1
  Ta  Ta4  1  0.500000  0.000000  0.500000  1
  Ta  Ta5  1  0.000000  0.500000  0.500000  1
  Ta  Ta6  1  0.822970  0.747375  0.745848  1
  Ta  Ta7  1  0.322970  0.752625  0.254152  1
  Ta  Ta8  1  0.177030  0.252625  0.254152  1
  Ta  Ta9  1  0.677030  0.247375  0.745848  1
  Si  Si10  1  0.535161  0.865419  0.917509  1
  Si  Si11  1  0.035161  0.634581  0.082491  1
  Si  Si12  1  0.464839  0.134581  0.082491  1
  Si  Si13  1  0.964839  0.365419  0.917509  1
  Si  Si14  1  0.125660  0.870547  0.508194  1
  Si  Si15  1  0.625660  0.629453  0.491806  1
  Si  Si16  1  0.874340  0.129453  0.491806  1
  Si  Si17  1  0.374340  0.370547  0.508194  1
