# generated using pymatgen
data_YbDyHo2(B6Ru)2
_symmetry_space_group_name_H-M   'P 1'
_cell_length_a   3.65045000
_cell_length_b   9.13455608
_cell_length_c   11.52594500
_cell_angle_alpha   89.81939855
_cell_angle_beta   90.00000000
_cell_angle_gamma   90.00000000
_symmetry_Int_Tables_number   1
_chemical_formula_structural   YbDyHo2(B6Ru)2
_chemical_formula_sum   'Yb2 Dy2 Ho4 B24 Ru4'
_cell_volume   384.33349563
_cell_formula_units_Z   2
loop_
 _symmetry_equiv_pos_site_id
 _symmetry_equiv_pos_as_xyz
  1  'x, y, z'
loop_
 _atom_site_type_symbol
 _atom_site_label
 _atom_site_symmetry_multiplicity
 _atom_site_fract_x
 _atom_site_fract_y
 _atom_site_fract_z
 _atom_site_occupancy
  Yb  Yb0  1  0.000000  0.325115  0.414956  1
  Yb  Yb1  1  0.000000  0.674885  0.585044  1
  Dy  Dy2  1  0.000000  0.822524  0.086141  1
  Dy  Dy3  1  0.000000  0.177476  0.913859  1
  Ho  Ho4  1  0.000000  0.941668  0.369787  1
  Ho  Ho5  1  0.000000  0.058332  0.630213  1
  Ho  Ho6  1  0.000000  0.442487  0.131169  1
  Ho  Ho7  1  0.000000  0.557513  0.868831  1
  B  B8  1  0.500000  0.554125  0.432468  1
  B  B9  1  0.500000  0.445875  0.567532  1
  B  B10  1  0.500000  0.053826  0.066991  1
  B  B11  1  0.500000  0.946174  0.933009  1
  B  B12  1  0.500000  0.747709  0.417947  1
  B  B13  1  0.500000  0.252291  0.582053  1
  B  B14  1  0.500000  0.248222  0.081438  1
  B  B15  1  0.500000  0.751778  0.918562  1
  B  B16  1  0.500000  0.790792  0.264888  1
  B  B17  1  0.500000  0.209208  0.735112  1
  B  B18  1  0.500000  0.289848  0.234514  1
  B  B19  1  0.500000  0.710152  0.765486  1
  B  B20  1  0.500000  0.631259  0.185392  1
  B  B21  1  0.500000  0.368741  0.814608  1
  B  B22  1  0.500000  0.130741  0.314028  1
  B  B23  1  0.500000  0.869259  0.685972  1
  B  B24  1  0.500000  0.983385  0.211661  1
  B  B25  1  0.500000  0.016615  0.788339  1
  B  B26  1  0.500000  0.483988  0.288444  1
  B  B27  1  0.500000  0.516012  0.711556  1
  B  B28  1  0.500000  0.603378  0.028439  1
  B  B29  1  0.500000  0.396622  0.971561  1
  B  B30  1  0.500000  0.099792  0.472375  1
  B  B31  1  0.500000  0.900208  0.527625  1
  Ru  Ru32  1  0.000000  0.639734  0.319060  1
  Ru  Ru33  1  0.000000  0.360266  0.680940  1
  Ru  Ru34  1  0.000000  0.136987  0.178236  1
  Ru  Ru35  1  0.000000  0.863013  0.821764  1
