# generated using pymatgen
data_Er10Ga3FeBi2
_symmetry_space_group_name_H-M   'P 1'
_cell_length_a   8.61105791
_cell_length_b   8.73082217
_cell_length_c   7.91656936
_cell_angle_alpha   62.06991252
_cell_angle_beta   63.61241518
_cell_angle_gamma   54.31765666
_symmetry_Int_Tables_number   1
_chemical_formula_structural   Er10Ga3FeBi2
_chemical_formula_sum   'Er10 Ga3 Fe1 Bi2'
_cell_volume   414.79528026
_cell_formula_units_Z   1
loop_
 _symmetry_equiv_pos_site_id
 _symmetry_equiv_pos_as_xyz
  1  'x, y, z'
loop_
 _atom_site_type_symbol
 _atom_site_label
 _atom_site_symmetry_multiplicity
 _atom_site_fract_x
 _atom_site_fract_y
 _atom_site_fract_z
 _atom_site_occupancy
  Er  Er0  1  0.797054  0.481337  0.518663  1
  Er  Er1  1  0.451741  0.810096  0.189904  1
  Er  Er2  1  0.297188  0.981181  0.721334  1
  Er  Er3  1  0.999704  0.278666  0.018819  1
  Er  Er4  1  0.189904  0.548259  0.451741  1
  Er  Er5  1  0.518663  0.202946  0.797054  1
  Er  Er6  1  0.721334  0.000296  0.297188  1
  Er  Er7  1  0.018819  0.702812  0.999704  1
  Er  Er8  1  0.494327  0.505673  0.002244  1
  Er  Er9  1  0.002244  0.997756  0.494327  1
  Ga  Ga10  1  0.868810  0.131190  0.868810  1
  Ga  Ga11  1  0.641027  0.358973  0.362373  1
  Ga  Ga12  1  0.362373  0.637627  0.641027  1
  Fe  Fe13  1  0.123061  0.876939  0.123061  1
  Bi  Bi14  1  0.756875  0.743125  0.756875  1
  Bi  Bi15  1  0.256875  0.243125  0.256875  1
