# generated using pymatgen
data_Li3PrSmZn14
_symmetry_space_group_name_H-M   'P 1'
_cell_length_a   8.97916600
_cell_length_b   8.97916525
_cell_length_c   8.78317200
_cell_angle_alpha   90.00000000
_cell_angle_beta   90.00000000
_cell_angle_gamma   120.00000275
_symmetry_Int_Tables_number   1
_chemical_formula_structural   Li3PrSmZn14
_chemical_formula_sum   'Li6 Pr2 Sm2 Zn28'
_cell_volume   613.27317998
_cell_formula_units_Z   2
loop_
 _symmetry_equiv_pos_site_id
 _symmetry_equiv_pos_as_xyz
  1  'x, y, z'
loop_
 _atom_site_type_symbol
 _atom_site_label
 _atom_site_symmetry_multiplicity
 _atom_site_fract_x
 _atom_site_fract_y
 _atom_site_fract_z
 _atom_site_occupancy
  Li  Li0  1  0.500000  0.500000  0.500000  1
  Li  Li1  1  0.500000  0.000000  0.500000  1
  Li  Li2  1  0.000000  0.500000  0.500000  1
  Li  Li3  1  0.500000  0.500000  0.000000  1
  Li  Li4  1  0.500000  0.000000  0.000000  1
  Li  Li5  1  0.000000  0.500000  0.000000  1
  Pr  Pr6  1  0.000000  0.000000  0.250000  1
  Pr  Pr7  1  0.000000  0.000000  0.750000  1
  Sm  Sm8  1  0.333333  0.666667  0.750000  1
  Sm  Sm9  1  0.666667  0.333333  0.250000  1
  Zn  Zn10  1  0.333333  0.666667  0.401762  1
  Zn  Zn11  1  0.666667  0.333333  0.598238  1
  Zn  Zn12  1  0.666667  0.333333  0.901762  1
  Zn  Zn13  1  0.333333  0.666667  0.098238  1
  Zn  Zn14  1  0.334520  0.372817  0.250000  1
  Zn  Zn15  1  0.627183  0.961703  0.250000  1
  Zn  Zn16  1  0.038297  0.665480  0.250000  1
  Zn  Zn17  1  0.627183  0.665480  0.250000  1
  Zn  Zn18  1  0.038297  0.372817  0.250000  1
  Zn  Zn19  1  0.334520  0.961703  0.250000  1
  Zn  Zn20  1  0.665480  0.627183  0.750000  1
  Zn  Zn21  1  0.372817  0.038297  0.750000  1
  Zn  Zn22  1  0.961703  0.334520  0.750000  1
  Zn  Zn23  1  0.372817  0.334520  0.750000  1
  Zn  Zn24  1  0.961703  0.627183  0.750000  1
  Zn  Zn25  1  0.665480  0.038297  0.750000  1
  Zn  Zn26  1  0.165050  0.834950  0.516360  1
  Zn  Zn27  1  0.165050  0.330100  0.516360  1
  Zn  Zn28  1  0.669900  0.834950  0.516360  1
  Zn  Zn29  1  0.834950  0.165050  0.483640  1
  Zn  Zn30  1  0.834950  0.669900  0.483640  1
  Zn  Zn31  1  0.330100  0.165050  0.483640  1
  Zn  Zn32  1  0.834950  0.165050  0.016360  1
  Zn  Zn33  1  0.834950  0.669900  0.016360  1
  Zn  Zn34  1  0.330100  0.165050  0.016360  1
  Zn  Zn35  1  0.165050  0.834950  0.983640  1
  Zn  Zn36  1  0.165050  0.330100  0.983640  1
  Zn  Zn37  1  0.669900  0.834950  0.983640  1
