# generated using pymatgen
data_Tb4Gd2TaO12
_symmetry_space_group_name_H-M   'P 1'
_cell_length_a   6.52081059
_cell_length_b   6.54687834
_cell_length_c   6.51429007
_cell_angle_alpha   98.91613117
_cell_angle_beta   98.52700846
_cell_angle_gamma   98.74395168
_symmetry_Int_Tables_number   1
_chemical_formula_structural   Tb4Gd2TaO12
_chemical_formula_sum   'Tb4 Gd2 Ta1 O12'
_cell_volume   267.30956111
_cell_formula_units_Z   1
loop_
 _symmetry_equiv_pos_site_id
 _symmetry_equiv_pos_as_xyz
  1  'x, y, z'
loop_
 _atom_site_type_symbol
 _atom_site_label
 _atom_site_symmetry_multiplicity
 _atom_site_fract_x
 _atom_site_fract_y
 _atom_site_fract_z
 _atom_site_occupancy
  Tb  Tb0  1  0.860092  0.387451  0.697416  1
  Tb  Tb1  1  0.612831  0.298095  0.139417  1
  Tb  Tb2  1  0.304237  0.140861  0.610594  1
  Tb  Tb3  1  0.700510  0.864829  0.390448  1
  Gd  Gd4  1  0.391598  0.695934  0.857960  1
  Gd  Gd5  1  0.137411  0.606634  0.304415  1
  Ta  Ta6  1  0.001676  0.998711  0.999183  1
  O  O7  1  0.926465  0.040368  0.698043  1
  O  O8  1  0.956874  0.301247  0.069956  1
  O  O9  1  0.588102  0.179084  0.438434  1
  O  O10  1  0.821590  0.563799  0.410043  1
  O  O11  1  0.301328  0.075317  0.959211  1
  O  O12  1  0.563514  0.413490  0.825603  1
  O  O13  1  0.435253  0.588621  0.177482  1
  O  O14  1  0.698125  0.930373  0.044542  1
  O  O15  1  0.175871  0.433913  0.586992  1
  O  O16  1  0.413456  0.821507  0.564183  1
  O  O17  1  0.038200  0.699376  0.924184  1
  O  O18  1  0.072867  0.960390  0.301894  1
