# generated using pymatgen
data_Ba2Cd14Rh3
_symmetry_space_group_name_H-M   'P 1'
_cell_length_a   7.62099622
_cell_length_b   7.62099550
_cell_length_c   7.62099628
_cell_angle_alpha   83.82799140
_cell_angle_beta   96.17198862
_cell_angle_gamma   96.17201432
_symmetry_Int_Tables_number   1
_chemical_formula_structural   Ba2Cd14Rh3
_chemical_formula_sum   'Ba2 Cd14 Rh3'
_cell_volume   435.44149309
_cell_formula_units_Z   1
loop_
 _symmetry_equiv_pos_site_id
 _symmetry_equiv_pos_as_xyz
  1  'x, y, z'
loop_
 _atom_site_type_symbol
 _atom_site_label
 _atom_site_symmetry_multiplicity
 _atom_site_fract_x
 _atom_site_fract_y
 _atom_site_fract_z
 _atom_site_occupancy
  Ba  Ba0  1  0.656205  0.343794  0.343795  1
  Ba  Ba1  1  0.343794  0.656205  0.656205  1
  Cd  Cd2  1  0.290851  0.290851  0.000000  1
  Cd  Cd3  1  0.709149  0.709149  0.000000  1
  Cd  Cd4  1  0.892809  0.107189  0.107190  1
  Cd  Cd5  1  0.344450  0.655551  0.134981  1
  Cd  Cd6  1  0.000000  0.709149  0.290850  1
  Cd  Cd7  1  0.290851  0.000000  0.290851  1
  Cd  Cd8  1  0.655551  0.865019  0.344448  1
  Cd  Cd9  1  0.134981  0.344449  0.344450  1
  Cd  Cd10  1  0.865019  0.655551  0.655550  1
  Cd  Cd11  1  0.344449  0.134980  0.655551  1
  Cd  Cd12  1  0.000000  0.290851  0.709148  1
  Cd  Cd13  1  0.709149  0.000000  0.709149  1
  Cd  Cd14  1  0.655551  0.344449  0.865019  1
  Cd  Cd15  1  0.107189  0.892811  0.892810  1
  Rh  Rh16  1  0.500000  0.000000  0.000000  1
  Rh  Rh17  1  0.000000  0.499999  0.000000  1
  Rh  Rh18  1  0.000000  0.000000  0.500000  1
