# generated using pymatgen
data_BaSc2(CO3)4
_symmetry_space_group_name_H-M   'P 1'
_cell_length_a   6.67261650
_cell_length_b   10.17698789
_cell_length_c   8.47649886
_cell_angle_alpha   89.75087869
_cell_angle_beta   110.49112114
_cell_angle_gamma   89.94019140
_symmetry_Int_Tables_number   1
_chemical_formula_structural   BaSc2(CO3)4
_chemical_formula_sum   'Ba2 Sc4 C8 O24'
_cell_volume   539.18646130
_cell_formula_units_Z   2
loop_
 _symmetry_equiv_pos_site_id
 _symmetry_equiv_pos_as_xyz
  1  'x, y, z'
loop_
 _atom_site_type_symbol
 _atom_site_label
 _atom_site_symmetry_multiplicity
 _atom_site_fract_x
 _atom_site_fract_y
 _atom_site_fract_z
 _atom_site_occupancy
  Ba  Ba0  1  0.499968  0.250111  0.499885  1
  Ba  Ba1  1  0.500013  0.749859  0.500039  1
  Sc  Sc2  1  0.500037  0.750027  0.000072  1
  Sc  Sc3  1  0.500115  0.249993  0.999962  1
  Sc  Sc4  1  0.999741  0.999869  0.500084  1
  Sc  Sc5  1  0.000325  0.500058  0.499774  1
  C  C6  1  0.031428  0.249435  0.726271  1
  C  C7  1  0.031472  0.749199  0.726345  1
  C  C8  1  0.968806  0.250559  0.273784  1
  C  C9  1  0.968275  0.750825  0.273667  1
  C  C10  1  0.527817  0.998325  0.232161  1
  C  C11  1  0.528034  0.498354  0.231766  1
  C  C12  1  0.472272  0.501735  0.767914  1
  C  C13  1  0.471868  0.001569  0.768153  1
  O  O14  1  0.340175  0.468218  0.617145  1
  O  O15  1  0.339526  0.967465  0.617763  1
  O  O16  1  0.659807  0.031958  0.382907  1
  O  O17  1  0.660446  0.532322  0.382195  1
  O  O18  1  0.569836  0.412951  0.873466  1
  O  O19  1  0.570060  0.913221  0.874176  1
  O  O20  1  0.430324  0.087030  0.126443  1
  O  O21  1  0.429789  0.586825  0.125984  1
  O  O22  1  0.016496  0.372510  0.312346  1
  O  O23  1  0.015090  0.872861  0.311895  1
  O  O24  1  0.983924  0.127471  0.687787  1
  O  O25  1  0.984397  0.627187  0.687975  1
  O  O26  1  0.494410  0.373929  0.201613  1
  O  O27  1  0.493807  0.873988  0.201640  1
  O  O28  1  0.505444  0.126027  0.798076  1
  O  O29  1  0.506278  0.626043  0.798568  1
  O  O30  1  0.915585  0.339565  0.622036  1
  O  O31  1  0.915374  0.839242  0.622089  1
  O  O32  1  0.084494  0.160379  0.377942  1
  O  O33  1  0.084483  0.660902  0.378022  1
  O  O34  1  0.180490  0.283557  0.860720  1
  O  O35  1  0.180434  0.783522  0.860737  1
  O  O36  1  0.819736  0.216552  0.139307  1
  O  O37  1  0.819422  0.716355  0.139288  1
