# generated using pymatgen
data_Tm3Ni5(BIr)2
_symmetry_space_group_name_H-M   'P 1'
_cell_length_a   5.02039700
_cell_length_b   5.13506405
_cell_length_c   14.64875900
_cell_angle_alpha   90.00000000
_cell_angle_beta   90.00000000
_cell_angle_gamma   119.26403779
_symmetry_Int_Tables_number   1
_chemical_formula_structural   Tm3Ni5(BIr)2
_chemical_formula_sum   'Tm6 Ni10 B4 Ir4'
_cell_volume   329.44930967
_cell_formula_units_Z   2
loop_
 _symmetry_equiv_pos_site_id
 _symmetry_equiv_pos_as_xyz
  1  'x, y, z'
loop_
 _atom_site_type_symbol
 _atom_site_label
 _atom_site_symmetry_multiplicity
 _atom_site_fract_x
 _atom_site_fract_y
 _atom_site_fract_z
 _atom_site_occupancy
  Tm  Tm0  1  0.333818  0.667638  0.532690  1
  Tm  Tm1  1  0.666182  0.332362  0.032690  1
  Tm  Tm2  1  0.664988  0.329976  0.468709  1
  Tm  Tm3  1  0.335012  0.670024  0.968709  1
  Tm  Tm4  1  0.332471  0.664943  0.751112  1
  Tm  Tm5  1  0.667529  0.335057  0.251112  1
  Ni  Ni6  1  0.668745  0.833267  0.150946  1
  Ni  Ni7  1  0.164523  0.833267  0.150946  1
  Ni  Ni8  1  0.835477  0.166733  0.650946  1
  Ni  Ni9  1  0.331255  0.166733  0.650946  1
  Ni  Ni10  1  0.834215  0.668430  0.846734  1
  Ni  Ni11  1  0.832982  0.162994  0.849416  1
  Ni  Ni12  1  0.330011  0.162994  0.849416  1
  Ni  Ni13  1  0.669989  0.837006  0.349416  1
  Ni  Ni14  1  0.167018  0.837006  0.349416  1
  Ni  Ni15  1  0.165785  0.331570  0.346734  1
  B  B16  1  0.338458  0.676918  0.251742  1
  B  B17  1  0.661542  0.323082  0.751742  1
  B  B18  1  0.996759  0.993519  0.251392  1
  B  B19  1  0.003241  0.006481  0.751392  1
  Ir  Ir20  1  0.994550  0.989101  0.996870  1
  Ir  Ir21  1  0.005450  0.010899  0.496870  1
  Ir  Ir22  1  0.165348  0.330697  0.150027  1
  Ir  Ir23  1  0.834652  0.669303  0.650027  1
