# generated using pymatgen
data_Tb4Ga4Ni2IrRh
_symmetry_space_group_name_H-M   'P 1'
_cell_length_a   4.32004400
_cell_length_b   6.84564715
_cell_length_c   7.58750621
_cell_angle_alpha   90.06566300
_cell_angle_beta   90.00000000
_cell_angle_gamma   90.00000000
_symmetry_Int_Tables_number   1
_chemical_formula_structural   Tb4Ga4Ni2IrRh
_chemical_formula_sum   'Tb4 Ga4 Ni2 Ir1 Rh1'
_cell_volume   224.38894421
_cell_formula_units_Z   1
loop_
 _symmetry_equiv_pos_site_id
 _symmetry_equiv_pos_as_xyz
  1  'x, y, z'
loop_
 _atom_site_type_symbol
 _atom_site_label
 _atom_site_symmetry_multiplicity
 _atom_site_fract_x
 _atom_site_fract_y
 _atom_site_fract_z
 _atom_site_occupancy
  Tb  Tb0  1  0.250000  0.024818  0.811481  1
  Tb  Tb1  1  0.250000  0.525121  0.688073  1
  Tb  Tb2  1  0.750000  0.979407  0.189845  1
  Tb  Tb3  1  0.750000  0.477087  0.309485  1
  Ga  Ga4  1  0.250000  0.163029  0.438111  1
  Ga  Ga5  1  0.250000  0.663042  0.061845  1
  Ga  Ga6  1  0.750000  0.841717  0.578292  1
  Ga  Ga7  1  0.750000  0.341584  0.921256  1
  Ni  Ni8  1  0.750000  0.217683  0.609116  1
  Ni  Ni9  1  0.750000  0.718060  0.890433  1
  Ir  Ir10  1  0.250000  0.274206  0.108893  1
  Rh  Rh11  1  0.250000  0.774244  0.393171  1
