# generated using pymatgen
data_Y5Tm5(Bi2Sb)2
_symmetry_space_group_name_H-M   'P 1'
_cell_length_a   8.13069500
_cell_length_b   9.39760801
_cell_length_c   11.96266701
_cell_angle_alpha   89.99432869
_cell_angle_beta   90.00000000
_cell_angle_gamma   90.00000000
_symmetry_Int_Tables_number   1
_chemical_formula_structural   Y5Tm5(Bi2Sb)2
_chemical_formula_sum   'Y10 Tm10 Bi8 Sb4'
_cell_volume   914.05642994
_cell_formula_units_Z   2
loop_
 _symmetry_equiv_pos_site_id
 _symmetry_equiv_pos_as_xyz
  1  'x, y, z'
loop_
 _atom_site_type_symbol
 _atom_site_label
 _atom_site_symmetry_multiplicity
 _atom_site_fract_x
 _atom_site_fract_y
 _atom_site_fract_z
 _atom_site_occupancy
  Y  Y0  1  0.182412  0.749914  0.718209  1
  Y  Y1  1  0.682412  0.750086  0.781791  1
  Y  Y2  1  0.817175  0.249601  0.281507  1
  Y  Y3  1  0.317175  0.250399  0.218493  1
  Y  Y4  1  0.311258  0.060860  0.942142  1
  Y  Y5  1  0.811258  0.439140  0.557858  1
  Y  Y6  1  0.352714  0.750165  0.213642  1
  Y  Y7  1  0.852714  0.749835  0.286358  1
  Y  Y8  1  0.646822  0.249788  0.786585  1
  Y  Y9  1  0.146822  0.250212  0.713415  1
  Tm  Tm10  1  0.027204  0.749893  0.989033  1
  Tm  Tm11  1  0.527204  0.750107  0.510967  1
  Tm  Tm12  1  0.972066  0.250283  0.011276  1
  Tm  Tm13  1  0.472066  0.249717  0.488724  1
  Tm  Tm14  1  0.310926  0.435801  0.942024  1
  Tm  Tm15  1  0.810926  0.064199  0.557976  1
  Tm  Tm16  1  0.689051  0.935926  0.057964  1
  Tm  Tm17  1  0.189051  0.564074  0.442036  1
  Tm  Tm18  1  0.689614  0.563706  0.058324  1
  Tm  Tm19  1  0.189614  0.936294  0.441676  1
  Bi  Bi20  1  0.434018  0.003601  0.672043  1
  Bi  Bi21  1  0.934018  0.496399  0.827957  1
  Bi  Bi22  1  0.566022  0.503602  0.327474  1
  Bi  Bi23  1  0.066022  0.996398  0.172526  1
  Bi  Bi24  1  0.566196  0.996185  0.327784  1
  Bi  Bi25  1  0.066196  0.503815  0.172216  1
  Bi  Bi26  1  0.433316  0.496198  0.672216  1
  Bi  Bi27  1  0.933316  0.003802  0.827784  1
  Sb  Sb28  1  0.406835  0.746959  0.959249  1
  Sb  Sb29  1  0.906835  0.753041  0.540751  1
  Sb  Sb30  1  0.594372  0.250572  0.041860  1
  Sb  Sb31  1  0.094372  0.249428  0.458140  1
