# generated using pymatgen
data_SmTm5Fe4(Co7P6)2
_symmetry_space_group_name_H-M   'P 1'
_cell_length_a   3.70067400
_cell_length_b   10.56588100
_cell_length_c   12.10469700
_cell_angle_alpha   90.00000000
_cell_angle_beta   90.00000000
_cell_angle_gamma   90.00000000
_symmetry_Int_Tables_number   1
_chemical_formula_structural   SmTm5Fe4(Co7P6)2
_chemical_formula_sum   'Sm1 Tm5 Fe4 Co14 P12'
_cell_volume   473.30431819
_cell_formula_units_Z   1
loop_
 _symmetry_equiv_pos_site_id
 _symmetry_equiv_pos_as_xyz
  1  'x, y, z'
loop_
 _atom_site_type_symbol
 _atom_site_label
 _atom_site_symmetry_multiplicity
 _atom_site_fract_x
 _atom_site_fract_y
 _atom_site_fract_z
 _atom_site_occupancy
  Sm  Sm0  1  0.000000  0.500000  0.523184  1
  Tm  Tm1  1  0.500000  0.000000  0.477132  1
  Tm  Tm2  1  0.500000  0.819955  0.204027  1
  Tm  Tm3  1  0.500000  0.180045  0.204027  1
  Tm  Tm4  1  0.000000  0.680823  0.796639  1
  Tm  Tm5  1  0.000000  0.319177  0.796639  1
  Fe  Fe6  1  0.500000  0.500000  0.154414  1
  Fe  Fe7  1  0.000000  0.000000  0.843498  1
  Fe  Fe8  1  0.000000  0.500000  0.988730  1
  Fe  Fe9  1  0.500000  0.000000  0.011846  1
  Co  Co10  1  0.500000  0.500000  0.703840  1
  Co  Co11  1  0.000000  0.000000  0.298335  1
  Co  Co12  1  0.500000  0.331250  0.994170  1
  Co  Co13  1  0.500000  0.668750  0.994170  1
  Co  Co14  1  0.000000  0.167981  0.005637  1
  Co  Co15  1  0.000000  0.832019  0.005637  1
  Co  Co16  1  0.500000  0.293473  0.430100  1
  Co  Co17  1  0.500000  0.706527  0.430100  1
  Co  Co18  1  0.000000  0.201069  0.570118  1
  Co  Co19  1  0.000000  0.798931  0.570118  1
  Co  Co20  1  0.500000  0.879127  0.709886  1
  Co  Co21  1  0.500000  0.120873  0.709886  1
  Co  Co22  1  0.000000  0.622345  0.289553  1
  Co  Co23  1  0.000000  0.377655  0.289553  1
  P  P24  1  0.500000  0.500000  0.884780  1
  P  P25  1  0.000000  0.000000  0.116171  1
  P  P26  1  0.500000  0.500000  0.339307  1
  P  P27  1  0.000000  0.000000  0.656823  1
  P  P28  1  0.500000  0.308220  0.618399  1
  P  P29  1  0.500000  0.691780  0.618399  1
  P  P30  1  0.000000  0.188272  0.382820  1
  P  P31  1  0.000000  0.811728  0.382820  1
  P  P32  1  0.500000  0.847376  0.893031  1
  P  P33  1  0.500000  0.152624  0.893031  1
  P  P34  1  0.000000  0.653615  0.106591  1
  P  P35  1  0.000000  0.346385  0.106591  1
