# generated using pymatgen
data_NdMnNi3(AgO4)3
_symmetry_space_group_name_H-M   'P 1'
_cell_length_a   6.56458647
_cell_length_b   6.56458684
_cell_length_c   6.56458737
_cell_angle_alpha   109.55695507
_cell_angle_beta   109.55694646
_cell_angle_gamma   109.55694348
_symmetry_Int_Tables_number   1
_chemical_formula_structural   NdMnNi3(AgO4)3
_chemical_formula_sum   'Nd1 Mn1 Ni3 Ag3 O12'
_cell_volume   217.07718108
_cell_formula_units_Z   1
loop_
 _symmetry_equiv_pos_site_id
 _symmetry_equiv_pos_as_xyz
  1  'x, y, z'
loop_
 _atom_site_type_symbol
 _atom_site_label
 _atom_site_symmetry_multiplicity
 _atom_site_fract_x
 _atom_site_fract_y
 _atom_site_fract_z
 _atom_site_occupancy
  Nd  Nd0  1  0.000000  0.000000  0.000000  1
  Mn  Mn1  1  0.500000  0.500000  0.500000  1
  Ni  Ni2  1  0.000000  0.000000  0.500000  1
  Ni  Ni3  1  0.000000  0.500000  0.000000  1
  Ni  Ni4  1  0.500000  0.000000  0.000000  1
  Ag  Ag5  1  0.000000  0.500000  0.500000  1
  Ag  Ag6  1  0.500000  0.000000  0.500000  1
  Ag  Ag7  1  0.500000  0.500000  0.000000  1
  O  O8  1  0.293806  0.116637  0.820353  1
  O  O9  1  0.706194  0.883363  0.179647  1
  O  O10  1  0.694293  0.525716  0.813503  1
  O  O11  1  0.474284  0.186497  0.305707  1
  O  O12  1  0.186497  0.305707  0.474284  1
  O  O13  1  0.820353  0.293806  0.116637  1
  O  O14  1  0.883363  0.179647  0.706194  1
  O  O15  1  0.813503  0.694293  0.525716  1
  O  O16  1  0.305707  0.474284  0.186497  1
  O  O17  1  0.525716  0.813503  0.694293  1
  O  O18  1  0.179647  0.706194  0.883363  1
  O  O19  1  0.116637  0.820353  0.293806  1
