# generated using pymatgen
data_TmTh2(GeIr)3
_symmetry_space_group_name_H-M   'P 1'
_cell_length_a   7.30316900
_cell_length_b   7.25140898
_cell_length_c   3.96111600
_cell_angle_alpha   90.00000000
_cell_angle_beta   90.00000000
_cell_angle_gamma   120.23640749
_symmetry_Int_Tables_number   1
_chemical_formula_structural   TmTh2(GeIr)3
_chemical_formula_sum   'Tm1 Th2 Ge3 Ir3'
_cell_volume   181.23514962
_cell_formula_units_Z   1
loop_
 _symmetry_equiv_pos_site_id
 _symmetry_equiv_pos_as_xyz
  1  'x, y, z'
loop_
 _atom_site_type_symbol
 _atom_site_label
 _atom_site_symmetry_multiplicity
 _atom_site_fract_x
 _atom_site_fract_y
 _atom_site_fract_z
 _atom_site_occupancy
  Tm  Tm0  1  0.403867  0.000000  0.500000  1
  Th  Th1  1  0.999227  0.413146  0.500000  1
  Th  Th2  1  0.586082  0.586854  0.500000  1
  Ge  Ge3  1  0.011361  0.761144  0.000000  1
  Ge  Ge4  1  0.250216  0.238856  0.000000  1
  Ge  Ge5  1  0.742584  0.000000  0.000000  1
  Ir  Ir6  1  0.334372  0.663276  0.000000  1
  Ir  Ir7  1  0.671097  0.336724  0.000000  1
  Ir  Ir8  1  0.001195  0.000000  0.500000  1
