# generated using pymatgen
data_YbSm7(Si3Pt)4
_symmetry_space_group_name_H-M   'P 1'
_cell_length_a   8.19462500
_cell_length_b   8.20315594
_cell_length_c   8.38851600
_cell_angle_alpha   90.00000000
_cell_angle_beta   90.00000000
_cell_angle_gamma   120.03443623
_symmetry_Int_Tables_number   1
_chemical_formula_structural   YbSm7(Si3Pt)4
_chemical_formula_sum   'Yb1 Sm7 Si12 Pt4'
_cell_volume   488.17441552
_cell_formula_units_Z   1
loop_
 _symmetry_equiv_pos_site_id
 _symmetry_equiv_pos_as_xyz
  1  'x, y, z'
loop_
 _atom_site_type_symbol
 _atom_site_label
 _atom_site_symmetry_multiplicity
 _atom_site_fract_x
 _atom_site_fract_y
 _atom_site_fract_z
 _atom_site_occupancy
  Yb  Yb0  1  0.000998  0.500498  0.750000  1
  Sm  Sm1  1  0.000109  0.000054  0.250000  1
  Sm  Sm2  1  0.000004  0.000003  0.750000  1
  Sm  Sm3  1  0.500452  0.499355  0.250000  1
  Sm  Sm4  1  0.500452  0.001098  0.250000  1
  Sm  Sm5  1  0.999009  0.499504  0.250000  1
  Sm  Sm6  1  0.499388  0.500624  0.750000  1
  Sm  Sm7  1  0.499388  0.998764  0.750000  1
  Si  Si8  1  0.165474  0.834192  0.499482  1
  Si  Si9  1  0.165474  0.331284  0.499482  1
  Si  Si10  1  0.668444  0.834223  0.498482  1
  Si  Si11  1  0.834539  0.165792  0.501082  1
  Si  Si12  1  0.834539  0.668747  0.501082  1
  Si  Si13  1  0.331578  0.165789  0.500312  1
  Si  Si14  1  0.834539  0.165792  0.998918  1
  Si  Si15  1  0.834539  0.668747  0.998918  1
  Si  Si16  1  0.331578  0.165789  0.999688  1
  Si  Si17  1  0.165474  0.834192  0.000518  1
  Si  Si18  1  0.165474  0.331284  0.000518  1
  Si  Si19  1  0.668444  0.834223  0.001518  1
  Pt  Pt20  1  0.332516  0.666258  0.500640  1
  Pt  Pt21  1  0.667535  0.333766  0.502146  1
  Pt  Pt22  1  0.667535  0.333766  0.997854  1
  Pt  Pt23  1  0.332516  0.666258  0.999360  1
