# generated using pymatgen
data_CaTb2Er(Ga2Ag)4
_symmetry_space_group_name_H-M   'P 1'
_cell_length_a   4.37481400
_cell_length_b   6.99594630
_cell_length_c   10.29541311
_cell_angle_alpha   89.61313609
_cell_angle_beta   90.00000000
_cell_angle_gamma   90.00000000
_symmetry_Int_Tables_number   1
_chemical_formula_structural   CaTb2Er(Ga2Ag)4
_chemical_formula_sum   'Ca1 Tb2 Er1 Ga8 Ag4'
_cell_volume   315.09385838
_cell_formula_units_Z   1
loop_
 _symmetry_equiv_pos_site_id
 _symmetry_equiv_pos_as_xyz
  1  'x, y, z'
loop_
 _atom_site_type_symbol
 _atom_site_label
 _atom_site_symmetry_multiplicity
 _atom_site_fract_x
 _atom_site_fract_y
 _atom_site_fract_z
 _atom_site_occupancy
  Ca  Ca0  1  0.250000  0.776854  0.827293  1
  Tb  Tb1  1  0.750000  0.721519  0.328072  1
  Tb  Tb2  1  0.250000  0.280651  0.672675  1
  Er  Er3  1  0.750000  0.220211  0.171508  1
  Ga  Ga4  1  0.250000  0.928937  0.156085  1
  Ga  Ga5  1  0.750000  0.074625  0.849247  1
  Ga  Ga6  1  0.750000  0.571438  0.649439  1
  Ga  Ga7  1  0.250000  0.425040  0.344842  1
  Ga  Ga8  1  0.250000  0.702313  0.534686  1
  Ga  Ga9  1  0.750000  0.293002  0.461594  1
  Ga  Ga10  1  0.750000  0.797706  0.037480  1
  Ga  Ga11  1  0.250000  0.205051  0.965238  1
  Ag  Ag12  1  0.250000  0.544209  0.098284  1
  Ag  Ag13  1  0.750000  0.457311  0.903262  1
  Ag  Ag14  1  0.750000  0.956950  0.597448  1
  Ag  Ag15  1  0.250000  0.044183  0.402849  1
