# generated using pymatgen
data_LaYbNi9Ge
_symmetry_space_group_name_H-M   'P 1'
_cell_length_a   3.97536400
_cell_length_b   4.97289000
_cell_length_c   8.46135600
_cell_angle_alpha   90.00000000
_cell_angle_beta   90.00000000
_cell_angle_gamma   90.00000000
_symmetry_Int_Tables_number   1
_chemical_formula_structural   LaYbNi9Ge
_chemical_formula_sum   'La1 Yb1 Ni9 Ge1'
_cell_volume   167.27295191
_cell_formula_units_Z   1
loop_
 _symmetry_equiv_pos_site_id
 _symmetry_equiv_pos_as_xyz
  1  'x, y, z'
loop_
 _atom_site_type_symbol
 _atom_site_label
 _atom_site_symmetry_multiplicity
 _atom_site_fract_x
 _atom_site_fract_y
 _atom_site_fract_z
 _atom_site_occupancy
  La  La0  1  0.000000  0.500000  0.000000  1
  Yb  Yb1  1  0.000000  0.000000  0.500000  1
  Ni  Ni2  1  0.000000  0.500000  0.338407  1
  Ni  Ni3  1  0.000000  0.000000  0.826480  1
  Ni  Ni4  1  0.000000  0.000000  0.173520  1
  Ni  Ni5  1  0.000000  0.500000  0.661593  1
  Ni  Ni6  1  0.500000  0.000000  0.000000  1
  Ni  Ni7  1  0.500000  0.758795  0.258377  1
  Ni  Ni8  1  0.500000  0.241205  0.741623  1
  Ni  Ni9  1  0.500000  0.241205  0.258377  1
  Ni  Ni10  1  0.500000  0.758795  0.741623  1
  Ge  Ge11  1  0.500000  0.500000  0.500000  1
