# generated using pymatgen
data_Mn2Cd2P6SN12
_symmetry_space_group_name_H-M   'P 1'
_cell_length_a   7.32920809
_cell_length_b   7.32920906
_cell_length_c   7.31788362
_cell_angle_alpha   109.46338872
_cell_angle_beta   109.46339689
_cell_angle_gamma   109.54947146
_symmetry_Int_Tables_number   1
_chemical_formula_structural   Mn2Cd2P6SN12
_chemical_formula_sum   'Mn2 Cd2 P6 S1 N12'
_cell_volume   302.37200115
_cell_formula_units_Z   1
loop_
 _symmetry_equiv_pos_site_id
 _symmetry_equiv_pos_as_xyz
  1  'x, y, z'
loop_
 _atom_site_type_symbol
 _atom_site_label
 _atom_site_symmetry_multiplicity
 _atom_site_fract_x
 _atom_site_fract_y
 _atom_site_fract_z
 _atom_site_occupancy
  Mn  Mn0  1  0.352547  0.352547  0.354407  1
  Mn  Mn1  1  0.998140  0.998140  0.645594  1
  Cd  Cd2  1  0.683256  0.998173  0.000000  1
  Cd  Cd3  1  0.998173  0.683256  0.000000  1
  P  P4  1  0.495340  0.246269  0.749090  1
  P  P5  1  0.497178  0.746248  0.250909  1
  P  P6  1  0.746248  0.497178  0.250909  1
  P  P7  1  0.247004  0.747003  0.500000  1
  P  P8  1  0.246269  0.495340  0.749090  1
  P  P9  1  0.747003  0.247004  0.500000  1
  S  S10  1  0.030305  0.030305  0.000000  1
  N  N11  1  0.566256  0.566256  0.293629  1
  N  N12  1  0.272626  0.272626  0.706370  1
  N  N13  1  0.432107  0.712825  0.000000  1
  N  N14  1  0.712825  0.432107  0.000000  1
  N  N15  1  0.283902  0.562476  0.565452  1
  N  N16  1  0.562476  0.283902  0.565452  1
  N  N17  1  0.997024  0.718451  0.434548  1
  N  N18  1  0.278114  0.709268  0.280948  1
  N  N19  1  0.709268  0.278114  0.280948  1
  N  N20  1  0.718451  0.997024  0.434548  1
  N  N21  1  0.997166  0.428321  0.719052  1
  N  N22  1  0.428321  0.997166  0.719052  1
