# generated using pymatgen
data_Lu3Al3ZnCoSi
_symmetry_space_group_name_H-M   'P 1'
_cell_length_a   6.82249800
_cell_length_b   6.82249886
_cell_length_c   4.08320200
_cell_angle_alpha   90.00000000
_cell_angle_beta   90.00000000
_cell_angle_gamma   120.00000553
_symmetry_Int_Tables_number   1
_chemical_formula_structural   Lu3Al3ZnCoSi
_chemical_formula_sum   'Lu3 Al3 Zn1 Co1 Si1'
_cell_volume   164.59565316
_cell_formula_units_Z   1
loop_
 _symmetry_equiv_pos_site_id
 _symmetry_equiv_pos_as_xyz
  1  'x, y, z'
loop_
 _atom_site_type_symbol
 _atom_site_label
 _atom_site_symmetry_multiplicity
 _atom_site_fract_x
 _atom_site_fract_y
 _atom_site_fract_z
 _atom_site_occupancy
  Lu  Lu0  1  0.406295  0.997840  0.000000  1
  Lu  Lu1  1  0.002160  0.408455  0.000000  1
  Lu  Lu2  1  0.591546  0.593706  0.000000  1
  Al  Al3  1  0.769400  0.001110  0.499999  1
  Al  Al4  1  0.231710  0.230601  0.499999  1
  Al  Al5  1  0.998890  0.768290  0.499999  1
  Zn  Zn6  1  0.666667  0.333334  0.499999  1
  Co  Co7  1  0.000000  0.000000  0.000000  1
  Si  Si8  1  0.333333  0.666666  0.499999  1
