# generated using pymatgen
data_Tm5Lu11Co4Ag3Hg
_symmetry_space_group_name_H-M   'P 1'
_cell_length_a   9.25403494
_cell_length_b   9.26351040
_cell_length_c   9.26351010
_cell_angle_alpha   59.98500812
_cell_angle_beta   59.93457361
_cell_angle_gamma   59.93457493
_symmetry_Int_Tables_number   1
_chemical_formula_structural   Tm5Lu11Co4Ag3Hg
_chemical_formula_sum   'Tm5 Lu11 Co4 Ag3 Hg1'
_cell_volume   560.90329369
_cell_formula_units_Z   1
loop_
 _symmetry_equiv_pos_site_id
 _symmetry_equiv_pos_as_xyz
  1  'x, y, z'
loop_
 _atom_site_type_symbol
 _atom_site_label
 _atom_site_symmetry_multiplicity
 _atom_site_fract_x
 _atom_site_fract_y
 _atom_site_fract_z
 _atom_site_occupancy
  Tm  Tm0  1  0.559715  0.939312  0.939312  1
  Tm  Tm1  1  0.560570  0.938474  0.561639  1
  Tm  Tm2  1  0.934936  0.562814  0.938730  1
  Tm  Tm3  1  0.560570  0.561639  0.938474  1
  Tm  Tm4  1  0.934936  0.938730  0.562814  1
  Lu  Lu5  1  0.347505  0.348834  0.348834  1
  Lu  Lu6  1  0.347133  0.348813  0.955516  1
  Lu  Lu7  1  0.347133  0.955516  0.348813  1
  Lu  Lu8  1  0.958444  0.347231  0.347231  1
  Lu  Lu9  1  0.812924  0.187420  0.187420  1
  Lu  Lu10  1  0.186805  0.812528  0.812528  1
  Lu  Lu11  1  0.187035  0.812073  0.188483  1
  Lu  Lu12  1  0.812880  0.187813  0.811927  1
  Lu  Lu13  1  0.187035  0.188483  0.812073  1
  Lu  Lu14  1  0.812880  0.811927  0.187813  1
  Lu  Lu15  1  0.935952  0.562316  0.562316  1
  Co  Co16  1  0.143970  0.140548  0.140548  1
  Co  Co17  1  0.143382  0.141532  0.574785  1
  Co  Co18  1  0.143382  0.574785  0.141532  1
  Co  Co19  1  0.575596  0.141522  0.141522  1
  Ag  Ag20  1  0.585017  0.580716  0.580716  1
  Ag  Ag21  1  0.584618  0.580659  0.253701  1
  Ag  Ag22  1  0.584618  0.253701  0.580659  1
  Hg  Hg23  1  0.252967  0.582613  0.582613  1
