# generated using pymatgen
data_Tb4Zn4Ir3Au
_symmetry_space_group_name_H-M   'P 1'
_cell_length_a   4.13776600
_cell_length_b   7.01927143
_cell_length_c   8.20087087
_cell_angle_alpha   90.16873387
_cell_angle_beta   90.00000000
_cell_angle_gamma   90.00000000
_symmetry_Int_Tables_number   1
_chemical_formula_structural   Tb4Zn4Ir3Au
_chemical_formula_sum   'Tb4 Zn4 Ir3 Au1'
_cell_volume   238.18590256
_cell_formula_units_Z   1
loop_
 _symmetry_equiv_pos_site_id
 _symmetry_equiv_pos_as_xyz
  1  'x, y, z'
loop_
 _atom_site_type_symbol
 _atom_site_label
 _atom_site_symmetry_multiplicity
 _atom_site_fract_x
 _atom_site_fract_y
 _atom_site_fract_z
 _atom_site_occupancy
  Tb  Tb0  1  0.250000  0.026550  0.325184  1
  Tb  Tb1  1  0.250000  0.549410  0.187971  1
  Tb  Tb2  1  0.750000  0.965196  0.685741  1
  Tb  Tb3  1  0.750000  0.474078  0.804342  1
  Zn  Zn4  1  0.250000  0.138857  0.925420  1
  Zn  Zn5  1  0.250000  0.644196  0.566531  1
  Zn  Zn6  1  0.750000  0.845040  0.066043  1
  Zn  Zn7  1  0.750000  0.359660  0.440220  1
  Ir  Ir8  1  0.250000  0.258326  0.618825  1
  Ir  Ir9  1  0.250000  0.758088  0.881876  1
  Ir  Ir10  1  0.750000  0.741752  0.380879  1
  Au  Au11  1  0.750000  0.238848  0.116966  1
