# generated using pymatgen
data_PrTh(PPt)2
_symmetry_space_group_name_H-M   'P 1'
_cell_length_a   4.19105485
_cell_length_b   4.19102510
_cell_length_c   8.20232845
_cell_angle_alpha   89.99958148
_cell_angle_beta   90.00052259
_cell_angle_gamma   119.99899106
_symmetry_Int_Tables_number   1
_chemical_formula_structural   PrTh(PPt)2
_chemical_formula_sum   'Pr1 Th1 P2 Pt2'
_cell_volume   124.77161873
_cell_formula_units_Z   1
loop_
 _symmetry_equiv_pos_site_id
 _symmetry_equiv_pos_as_xyz
  1  'x, y, z'
loop_
 _atom_site_type_symbol
 _atom_site_label
 _atom_site_symmetry_multiplicity
 _atom_site_fract_x
 _atom_site_fract_y
 _atom_site_fract_z
 _atom_site_occupancy
  Pr  Pr0  1  0.000000  0.000000  0.500001  1
  Th  Th1  1  0.000000  0.000000  0.999999  1
  P  P2  1  0.333347  0.666647  0.740330  1
  P  P3  1  0.666653  0.333353  0.259670  1
  Pt  Pt4  1  0.666691  0.333305  0.767876  1
  Pt  Pt5  1  0.333309  0.666695  0.232124  1
