# generated using pymatgen
data_Tm3Zn3Ag2Ir
_symmetry_space_group_name_H-M   'P 1'
_cell_length_a   7.46313000
_cell_length_b   7.46312985
_cell_length_c   3.78934800
_cell_angle_alpha   90.00000000
_cell_angle_beta   90.00000000
_cell_angle_gamma   119.99999298
_symmetry_Int_Tables_number   1
_chemical_formula_structural   Tm3Zn3Ag2Ir
_chemical_formula_sum   'Tm3 Zn3 Ag2 Ir1'
_cell_volume   182.78357117
_cell_formula_units_Z   1
loop_
 _symmetry_equiv_pos_site_id
 _symmetry_equiv_pos_as_xyz
  1  'x, y, z'
loop_
 _atom_site_type_symbol
 _atom_site_label
 _atom_site_symmetry_multiplicity
 _atom_site_fract_x
 _atom_site_fract_y
 _atom_site_fract_z
 _atom_site_occupancy
  Tm  Tm0  1  0.419025  0.392793  0.000000  1
  Tm  Tm1  1  0.607207  0.026232  0.000000  1
  Tm  Tm2  1  0.973768  0.580975  0.000000  1
  Zn  Zn3  1  0.735402  0.730485  0.500000  1
  Zn  Zn4  1  0.269515  0.004917  0.500000  1
  Zn  Zn5  1  0.995083  0.264598  0.500000  1
  Ag  Ag6  1  0.000000  0.000000  0.000000  1
  Ag  Ag7  1  0.333333  0.666667  0.500000  1
  Ir  Ir8  1  0.666667  0.333333  0.500000  1
