# generated using pymatgen
data_TbZrReB6
_symmetry_space_group_name_H-M   'P 1'
_cell_length_a   3.61920700
_cell_length_b   9.05420800
_cell_length_c   11.45096500
_cell_angle_alpha   90.00000000
_cell_angle_beta   90.00000000
_cell_angle_gamma   90.00000000
_symmetry_Int_Tables_number   1
_chemical_formula_structural   TbZrReB6
_chemical_formula_sum   'Tb4 Zr4 Re4 B24'
_cell_volume   375.23727868
_cell_formula_units_Z   4
loop_
 _symmetry_equiv_pos_site_id
 _symmetry_equiv_pos_as_xyz
  1  'x, y, z'
loop_
 _atom_site_type_symbol
 _atom_site_label
 _atom_site_symmetry_multiplicity
 _atom_site_fract_x
 _atom_site_fract_y
 _atom_site_fract_z
 _atom_site_occupancy
  Tb  Tb0  1  0.000000  0.322436  0.413995  1
  Tb  Tb1  1  0.000000  0.677564  0.586005  1
  Tb  Tb2  1  0.000000  0.822436  0.086005  1
  Tb  Tb3  1  0.000000  0.177564  0.913995  1
  Zr  Zr4  1  0.000000  0.944807  0.372238  1
  Zr  Zr5  1  0.000000  0.055193  0.627762  1
  Zr  Zr6  1  0.000000  0.444807  0.127762  1
  Zr  Zr7  1  0.000000  0.555193  0.872238  1
  Re  Re8  1  0.000000  0.640118  0.318155  1
  Re  Re9  1  0.000000  0.359882  0.681845  1
  Re  Re10  1  0.000000  0.140118  0.181845  1
  Re  Re11  1  0.000000  0.859882  0.818155  1
  B  B12  1  0.500000  0.554381  0.433008  1
  B  B13  1  0.500000  0.445619  0.566992  1
  B  B14  1  0.500000  0.054381  0.066992  1
  B  B15  1  0.500000  0.945619  0.933008  1
  B  B16  1  0.500000  0.751743  0.417865  1
  B  B17  1  0.500000  0.248257  0.582135  1
  B  B18  1  0.500000  0.251743  0.082135  1
  B  B19  1  0.500000  0.748257  0.917865  1
  B  B20  1  0.500000  0.794313  0.264437  1
  B  B21  1  0.500000  0.205687  0.735563  1
  B  B22  1  0.500000  0.294313  0.235563  1
  B  B23  1  0.500000  0.705687  0.764437  1
  B  B24  1  0.500000  0.630350  0.183672  1
  B  B25  1  0.500000  0.369650  0.816328  1
  B  B26  1  0.500000  0.130350  0.316328  1
  B  B27  1  0.500000  0.869650  0.683672  1
  B  B28  1  0.500000  0.982238  0.213390  1
  B  B29  1  0.500000  0.017762  0.786610  1
  B  B30  1  0.500000  0.482238  0.286610  1
  B  B31  1  0.500000  0.517762  0.713390  1
  B  B32  1  0.500000  0.600376  0.026884  1
  B  B33  1  0.500000  0.399624  0.973116  1
  B  B34  1  0.500000  0.100376  0.473116  1
  B  B35  1  0.500000  0.899624  0.526884  1
