# generated using pymatgen
data_BaNb2Cr2(PO4)6
_symmetry_space_group_name_H-M   'P 1'
_cell_length_a   8.60014100
_cell_length_b   9.27141464
_cell_length_c   12.63222808
_cell_angle_alpha   84.63339302
_cell_angle_beta   90.00000000
_cell_angle_gamma   90.00000000
_symmetry_Int_Tables_number   1
_chemical_formula_structural   BaNb2Cr2(PO4)6
_chemical_formula_sum   'Ba2 Nb4 Cr4 P12 O48'
_cell_volume   1002.82160527
_cell_formula_units_Z   2
loop_
 _symmetry_equiv_pos_site_id
 _symmetry_equiv_pos_as_xyz
  1  'x, y, z'
loop_
 _atom_site_type_symbol
 _atom_site_label
 _atom_site_symmetry_multiplicity
 _atom_site_fract_x
 _atom_site_fract_y
 _atom_site_fract_z
 _atom_site_occupancy
  Ba  Ba0  1  0.000000  0.000000  0.500000  1
  Ba  Ba1  1  0.500000  0.500000  0.500000  1
  Nb  Nb2  1  0.499395  0.214545  0.852358  1
  Nb  Nb3  1  0.999395  0.285455  0.147642  1
  Nb  Nb4  1  0.500605  0.785455  0.147642  1
  Nb  Nb5  1  0.000605  0.714545  0.852358  1
  Cr  Cr6  1  0.500850  0.806078  0.647478  1
  Cr  Cr7  1  0.000850  0.693922  0.352522  1
  Cr  Cr8  1  0.499150  0.193922  0.352522  1
  Cr  Cr9  1  0.999150  0.306078  0.647478  1
  P  P10  1  0.354396  0.857991  0.393915  1
  P  P11  1  0.281466  0.506395  0.742840  1
  P  P12  1  0.145604  0.357991  0.393915  1
  P  P13  1  0.863523  0.363325  0.888212  1
  P  P14  1  0.363523  0.136675  0.111788  1
  P  P15  1  0.781466  0.993605  0.257160  1
  P  P16  1  0.218534  0.006395  0.742840  1
  P  P17  1  0.636477  0.863325  0.888212  1
  P  P18  1  0.136477  0.636675  0.111788  1
  P  P19  1  0.854396  0.642009  0.606085  1
  P  P20  1  0.718534  0.493605  0.257160  1
  P  P21  1  0.645604  0.142009  0.606085  1
  O  O22  1  0.310849  0.925491  0.663430  1
  O  O23  1  0.180843  0.819162  0.392178  1
  O  O24  1  0.435488  0.787250  0.494265  1
  O  O25  1  0.436383  0.788526  0.299050  1
  O  O26  1  0.392466  0.610155  0.679732  1
  O  O27  1  0.136425  0.523550  0.384235  1
  O  O28  1  0.189151  0.425491  0.663430  1
  O  O29  1  0.378974  0.392396  0.815656  1
  O  O30  1  0.125148  0.469767  0.116194  1
  O  O31  1  0.820165  0.413308  0.180298  1
  O  O32  1  0.319157  0.319162  0.392178  1
  O  O33  1  0.064512  0.287250  0.494265  1
  O  O34  1  0.063617  0.288526  0.299050  1
  O  O35  1  0.687019  0.325555  0.885680  1
  O  O36  1  0.926720  0.299415  0.998209  1
  O  O37  1  0.952438  0.297457  0.801744  1
  O  O38  1  0.452438  0.202543  0.198256  1
  O  O39  1  0.426720  0.200585  0.001791  1
  O  O40  1  0.187019  0.174445  0.114320  1
  O  O41  1  0.878974  0.107604  0.184344  1
  O  O42  1  0.363575  0.023550  0.384235  1
  O  O43  1  0.107534  0.110155  0.679732  1
  O  O44  1  0.320165  0.086692  0.819702  1
  O  O45  1  0.625148  0.030233  0.883806  1
  O  O46  1  0.374852  0.969767  0.116194  1
  O  O47  1  0.679835  0.913308  0.180298  1
  O  O48  1  0.892466  0.889845  0.320268  1
  O  O49  1  0.636425  0.976450  0.615765  1
  O  O50  1  0.121026  0.892396  0.815656  1
  O  O51  1  0.812981  0.825555  0.885680  1
  O  O52  1  0.573280  0.799415  0.998209  1
  O  O53  1  0.547562  0.797457  0.801744  1
  O  O54  1  0.047562  0.702543  0.198256  1
  O  O55  1  0.073280  0.700585  0.001791  1
  O  O56  1  0.312981  0.674445  0.114320  1
  O  O57  1  0.936383  0.711474  0.700950  1
  O  O58  1  0.935488  0.712750  0.505735  1
  O  O59  1  0.680843  0.680838  0.607822  1
  O  O60  1  0.179835  0.586692  0.819702  1
  O  O61  1  0.874852  0.530233  0.883806  1
  O  O62  1  0.621026  0.607604  0.184344  1
  O  O63  1  0.810849  0.574509  0.336570  1
  O  O64  1  0.863575  0.476450  0.615765  1
  O  O65  1  0.607534  0.389845  0.320268  1
  O  O66  1  0.563617  0.211474  0.700950  1
  O  O67  1  0.564512  0.212750  0.505735  1
  O  O68  1  0.819157  0.180838  0.607822  1
  O  O69  1  0.689151  0.074509  0.336570  1
