# generated using pymatgen
data_La16Cd4OsRu3
_symmetry_space_group_name_H-M   'P 1'
_cell_length_a   10.08975325
_cell_length_b   10.06034425
_cell_length_c   10.06034500
_cell_angle_alpha   60.00000081
_cell_angle_beta   60.09637287
_cell_angle_gamma   60.09636561
_symmetry_Int_Tables_number   1
_chemical_formula_structural   La16Cd4OsRu3
_chemical_formula_sum   'La16 Cd4 Os1 Ru3'
_cell_volume   723.13991712
_cell_formula_units_Z   1
loop_
 _symmetry_equiv_pos_site_id
 _symmetry_equiv_pos_as_xyz
  1  'x, y, z'
loop_
 _atom_site_type_symbol
 _atom_site_label
 _atom_site_symmetry_multiplicity
 _atom_site_fract_x
 _atom_site_fract_y
 _atom_site_fract_z
 _atom_site_occupancy
  La  La0  1  0.939576  0.944735  0.557844  1
  La  La1  1  0.559621  0.940432  0.559516  1
  La  La2  1  0.559621  0.940432  0.940432  1
  La  La3  1  0.686537  0.689846  0.311809  1
  La  La4  1  0.154396  0.153700  0.538202  1
  La  La5  1  0.310402  0.688818  0.688818  1
  La  La6  1  0.154396  0.153700  0.153700  1
  La  La7  1  0.538891  0.153703  0.153703  1
  La  La8  1  0.310402  0.688818  0.311962  1
  La  La9  1  0.310402  0.311962  0.688818  1
  La  La10  1  0.686537  0.311809  0.689846  1
  La  La11  1  0.939576  0.557844  0.557844  1
  La  La12  1  0.559621  0.559516  0.940432  1
  La  La13  1  0.154396  0.538202  0.153700  1
  La  La14  1  0.686537  0.311809  0.311809  1
  La  La15  1  0.939576  0.557844  0.944735  1
  Cd  Cd16  1  0.237787  0.920738  0.920738  1
  Cd  Cd17  1  0.920136  0.921212  0.921212  1
  Cd  Cd18  1  0.920136  0.921212  0.237437  1
  Cd  Cd19  1  0.920136  0.237437  0.921212  1
  Os  Os20  1  0.915100  0.361633  0.361633  1
  Ru  Ru21  1  0.365403  0.362343  0.909911  1
  Ru  Ru22  1  0.365403  0.909911  0.362343  1
  Ru  Ru23  1  0.365403  0.362343  0.362343  1
