# generated using pymatgen
data_AcPdF7
_symmetry_space_group_name_H-M   'P 1'
_cell_length_a   5.82501200
_cell_length_b   9.49608268
_cell_length_c   12.64592259
_cell_angle_alpha   61.63091965
_cell_angle_beta   90.00000000
_cell_angle_gamma   90.00000000
_symmetry_Int_Tables_number   1
_chemical_formula_structural   AcPdF7
_chemical_formula_sum   'Ac4 Pd4 F28'
_cell_volume   615.49945530
_cell_formula_units_Z   4
loop_
 _symmetry_equiv_pos_site_id
 _symmetry_equiv_pos_as_xyz
  1  'x, y, z'
loop_
 _atom_site_type_symbol
 _atom_site_label
 _atom_site_symmetry_multiplicity
 _atom_site_fract_x
 _atom_site_fract_y
 _atom_site_fract_z
 _atom_site_occupancy
  Ac  Ac0  1  0.760192  0.807455  0.764543  1
  Ac  Ac1  1  0.260192  0.192545  0.735457  1
  Ac  Ac2  1  0.239808  0.192545  0.235457  1
  Ac  Ac3  1  0.739808  0.807455  0.264543  1
  Pd  Pd4  1  0.756237  0.273555  0.957382  1
  Pd  Pd5  1  0.256237  0.726445  0.542618  1
  Pd  Pd6  1  0.243763  0.726445  0.042618  1
  Pd  Pd7  1  0.743763  0.273555  0.457382  1
  F  F8  1  0.423092  0.708116  0.919690  1
  F  F9  1  0.923092  0.291884  0.580310  1
  F  F10  1  0.576908  0.291884  0.080310  1
  F  F11  1  0.076908  0.708116  0.419690  1
  F  F12  1  0.458359  0.282098  0.534846  1
  F  F13  1  0.958359  0.717902  0.965154  1
  F  F14  1  0.541641  0.717902  0.465154  1
  F  F15  1  0.041641  0.282098  0.034846  1
  F  F16  1  0.764714  0.506103  0.864850  1
  F  F17  1  0.264714  0.493897  0.635150  1
  F  F18  1  0.235286  0.493897  0.135150  1
  F  F19  1  0.735286  0.506103  0.364850  1
  F  F20  1  0.757004  0.040626  0.045354  1
  F  F21  1  0.257004  0.959374  0.454646  1
  F  F22  1  0.242996  0.959374  0.954646  1
  F  F23  1  0.742996  0.040626  0.545354  1
  F  F24  1  0.975095  0.727591  0.625363  1
  F  F25  1  0.475095  0.272409  0.874637  1
  F  F26  1  0.024905  0.272409  0.374637  1
  F  F27  1  0.524905  0.727591  0.125363  1
  F  F28  1  0.067957  0.739664  0.168651  1
  F  F29  1  0.567957  0.260336  0.331349  1
  F  F30  1  0.932043  0.260336  0.831349  1
  F  F31  1  0.432043  0.739664  0.668651  1
  F  F32  1  0.398287  0.964434  0.229890  1
  F  F33  1  0.898287  0.035566  0.270110  1
  F  F34  1  0.601713  0.035566  0.770110  1
  F  F35  1  0.101713  0.964434  0.729890  1
