# generated using pymatgen
data_KRb11(MnN2)8
_symmetry_space_group_name_H-M   'P 1'
_cell_length_a   6.20742600
_cell_length_b   9.56989491
_cell_length_c   10.32056200
_cell_angle_alpha   90.00000000
_cell_angle_beta   90.00000000
_cell_angle_gamma   90.45284990
_symmetry_Int_Tables_number   1
_chemical_formula_structural   KRb11(MnN2)8
_chemical_formula_sum   'K1 Rb11 Mn8 N16'
_cell_volume   613.06779332
_cell_formula_units_Z   1
loop_
 _symmetry_equiv_pos_site_id
 _symmetry_equiv_pos_as_xyz
  1  'x, y, z'
loop_
 _atom_site_type_symbol
 _atom_site_label
 _atom_site_symmetry_multiplicity
 _atom_site_fract_x
 _atom_site_fract_y
 _atom_site_fract_z
 _atom_site_occupancy
  K  K0  1  0.250000  0.000000  0.907347  1
  Rb  Rb1  1  0.651231  0.157883  0.419097  1
  Rb  Rb2  1  0.848769  0.842117  0.419097  1
  Rb  Rb3  1  0.651287  0.342360  0.083594  1
  Rb  Rb4  1  0.848713  0.657640  0.083594  1
  Rb  Rb5  1  0.348707  0.842657  0.582308  1
  Rb  Rb6  1  0.151293  0.157343  0.582308  1
  Rb  Rb7  1  0.346803  0.657965  0.917157  1
  Rb  Rb8  1  0.153197  0.342035  0.917157  1
  Rb  Rb9  1  0.750000  0.500000  0.405704  1
  Rb  Rb10  1  0.750000  0.000000  0.096067  1
  Rb  Rb11  1  0.250000  0.500000  0.593742  1
  Mn  Mn12  1  0.750000  0.500000  0.737434  1
  Mn  Mn13  1  0.750000  0.000000  0.765612  1
  Mn  Mn14  1  0.250000  0.500000  0.262440  1
  Mn  Mn15  1  0.250000  0.000000  0.233452  1
  Mn  Mn16  1  0.704195  0.249504  0.752242  1
  Mn  Mn17  1  0.795805  0.750496  0.752242  1
  Mn  Mn18  1  0.299034  0.750459  0.247778  1
  Mn  Mn19  1  0.200966  0.249541  0.247778  1
  N  N20  1  0.862839  0.357464  0.646465  1
  N  N21  1  0.637161  0.642536  0.646465  1
  N  N22  1  0.866974  0.141319  0.855884  1
  N  N23  1  0.633026  0.858681  0.855884  1
  N  N24  1  0.137466  0.643242  0.352577  1
  N  N25  1  0.362534  0.356758  0.352577  1
  N  N26  1  0.141624  0.857077  0.140730  1
  N  N27  1  0.358376  0.142923  0.140730  1
  N  N28  1  0.566655  0.395664  0.829064  1
  N  N29  1  0.933345  0.604336  0.829064  1
  N  N30  1  0.564391  0.102854  0.675264  1
  N  N31  1  0.935609  0.897146  0.675264  1
  N  N32  1  0.436025  0.603470  0.171727  1
  N  N33  1  0.063975  0.396530  0.171727  1
  N  N34  1  0.435535  0.898343  0.325214  1
  N  N35  1  0.064465  0.101657  0.325214  1
