# generated using pymatgen
data_CsK4F13
_symmetry_space_group_name_H-M   'P 1'
_cell_length_a   8.22545174
_cell_length_b   8.22545252
_cell_length_c   8.22545191
_cell_angle_alpha   100.65311129
_cell_angle_beta   100.65311673
_cell_angle_gamma   129.07041298
_symmetry_Int_Tables_number   1
_chemical_formula_structural   CsK4F13
_chemical_formula_sum   'Cs1 K4 F13'
_cell_volume   390.08983658
_cell_formula_units_Z   1
loop_
 _symmetry_equiv_pos_site_id
 _symmetry_equiv_pos_as_xyz
  1  'x, y, z'
loop_
 _atom_site_type_symbol
 _atom_site_label
 _atom_site_symmetry_multiplicity
 _atom_site_fract_x
 _atom_site_fract_y
 _atom_site_fract_z
 _atom_site_occupancy
  Cs  Cs0  1  0.000000  0.000000  0.000000  1
  K  K1  1  0.839900  0.565706  0.402484  1
  K  K2  1  0.434294  0.836779  0.274194  1
  K  K3  1  0.562585  0.160100  0.725806  1
  K  K4  1  0.163221  0.437415  0.597516  1
  F  F5  1  0.060050  0.409359  0.240290  1
  F  F6  1  0.590641  0.830930  0.650692  1
  F  F7  1  0.180239  0.939950  0.349308  1
  F  F8  1  0.169070  0.819761  0.759710  1
  F  F9  1  0.360193  0.817639  0.891510  1
  F  F10  1  0.750000  0.250000  0.500000  1
  F  F11  1  0.548156  0.805569  0.005999  1
  F  F12  1  0.194431  0.200431  0.742587  1
  F  F13  1  0.457843  0.451844  0.257413  1
  F  F14  1  0.799569  0.542157  0.994001  1
  F  F15  1  0.926129  0.468683  0.108490  1
  F  F16  1  0.531317  0.639807  0.457446  1
  F  F17  1  0.182361  0.073871  0.542554  1
