# generated using pymatgen
data_Tb6Dy8Tm2Cd3InPt4
_symmetry_space_group_name_H-M   'P 1'
_cell_length_a   9.70187803
_cell_length_b   9.70187764
_cell_length_c   9.69615500
_cell_angle_alpha   60.01950671
_cell_angle_beta   60.01950805
_cell_angle_gamma   59.96096868
_symmetry_Int_Tables_number   1
_chemical_formula_structural   Tb6Dy8Tm2Cd3InPt4
_chemical_formula_sum   'Tb6 Dy8 Tm2 Cd3 In1 Pt4'
_cell_volume   645.35071972
_cell_formula_units_Z   1
loop_
 _symmetry_equiv_pos_site_id
 _symmetry_equiv_pos_as_xyz
  1  'x, y, z'
loop_
 _atom_site_type_symbol
 _atom_site_label
 _atom_site_symmetry_multiplicity
 _atom_site_fract_x
 _atom_site_fract_y
 _atom_site_fract_z
 _atom_site_occupancy
  Tb  Tb0  1  0.936182  0.564206  0.564191  1
  Tb  Tb1  1  0.564447  0.935767  0.935883  1
  Tb  Tb2  1  0.564206  0.936182  0.564191  1
  Tb  Tb3  1  0.935767  0.564447  0.935883  1
  Tb  Tb4  1  0.564355  0.564355  0.936003  1
  Tb  Tb5  1  0.935735  0.935735  0.564550  1
  Dy  Dy6  1  0.351785  0.351785  0.352428  1
  Dy  Dy7  1  0.351760  0.351760  0.944207  1
  Dy  Dy8  1  0.352425  0.944138  0.351809  1
  Dy  Dy9  1  0.944138  0.352425  0.351809  1
  Dy  Dy10  1  0.811040  0.188776  0.188758  1
  Dy  Dy11  1  0.189052  0.810933  0.810949  1
  Dy  Dy12  1  0.188776  0.811040  0.188758  1
  Dy  Dy13  1  0.810933  0.189052  0.810949  1
  Tm  Tm14  1  0.189258  0.189258  0.810585  1
  Tm  Tm15  1  0.810494  0.810494  0.189520  1
  Cd  Cd16  1  0.581709  0.581709  0.254701  1
  Cd  Cd17  1  0.581295  0.254791  0.581681  1
  Cd  Cd18  1  0.254791  0.581295  0.581681  1
  In  In19  1  0.581802  0.581802  0.581319  1
  Pt  Pt20  1  0.143580  0.143580  0.141759  1
  Pt  Pt21  1  0.143570  0.143570  0.571223  1
  Pt  Pt22  1  0.141723  0.571181  0.143583  1
  Pt  Pt23  1  0.571181  0.141723  0.143583  1
