# generated using pymatgen
data_Pr6Dy6Tm4Cd3HgIr4
_symmetry_space_group_name_H-M   'P 1'
_cell_length_a   9.75150108
_cell_length_b   9.74597708
_cell_length_c   9.74597700
_cell_angle_alpha   60.03750243
_cell_angle_beta   59.98124265
_cell_angle_gamma   59.98124447
_symmetry_Int_Tables_number   1
_chemical_formula_structural   Pr6Dy6Tm4Cd3HgIr4
_chemical_formula_sum   'Pr6 Dy6 Tm4 Cd3 Hg1 Ir4'
_cell_volume   654.94816535
_cell_formula_units_Z   1
loop_
 _symmetry_equiv_pos_site_id
 _symmetry_equiv_pos_as_xyz
  1  'x, y, z'
loop_
 _atom_site_type_symbol
 _atom_site_label
 _atom_site_symmetry_multiplicity
 _atom_site_fract_x
 _atom_site_fract_y
 _atom_site_fract_z
 _atom_site_occupancy
  Pr  Pr0  1  0.940946  0.558252  0.558252  1
  Pr  Pr1  1  0.558385  0.941503  0.941503  1
  Pr  Pr2  1  0.558124  0.941075  0.558142  1
  Pr  Pr3  1  0.941614  0.558227  0.941660  1
  Pr  Pr4  1  0.558124  0.558142  0.941075  1
  Pr  Pr5  1  0.941614  0.941660  0.558227  1
  Dy  Dy6  1  0.346867  0.347742  0.347742  1
  Dy  Dy7  1  0.348130  0.347243  0.956698  1
  Dy  Dy8  1  0.348130  0.956698  0.347243  1
  Dy  Dy9  1  0.956661  0.348170  0.348170  1
  Dy  Dy10  1  0.814332  0.185567  0.185567  1
  Dy  Dy11  1  0.185745  0.814077  0.814077  1
  Tm  Tm12  1  0.186713  0.813198  0.186695  1
  Tm  Tm13  1  0.812994  0.186734  0.812980  1
  Tm  Tm14  1  0.186713  0.186695  0.813198  1
  Tm  Tm15  1  0.812994  0.812980  0.186734  1
  Cd  Cd16  1  0.578864  0.579471  0.262234  1
  Cd  Cd17  1  0.578864  0.262234  0.579471  1
  Cd  Cd18  1  0.262203  0.578839  0.578839  1
  Hg  Hg19  1  0.581985  0.581505  0.581505  1
  Ir  Ir20  1  0.142253  0.140105  0.140105  1
  Ir  Ir21  1  0.140075  0.142225  0.577602  1
  Ir  Ir22  1  0.140075  0.577602  0.142225  1
  Ir  Ir23  1  0.577592  0.140053  0.140053  1
