# generated using pymatgen
data_Nd4Fe2CoSiBr2
_symmetry_space_group_name_H-M   'P 1'
_cell_length_a   4.03621800
_cell_length_b   4.03621549
_cell_length_c   16.96349000
_cell_angle_alpha   90.00000000
_cell_angle_beta   90.00000000
_cell_angle_gamma   120.00000420
_symmetry_Int_Tables_number   1
_chemical_formula_structural   Nd4Fe2CoSiBr2
_chemical_formula_sum   'Nd4 Fe2 Co1 Si1 Br2'
_cell_volume   239.32869894
_cell_formula_units_Z   1
loop_
 _symmetry_equiv_pos_site_id
 _symmetry_equiv_pos_as_xyz
  1  'x, y, z'
loop_
 _atom_site_type_symbol
 _atom_site_label
 _atom_site_symmetry_multiplicity
 _atom_site_fract_x
 _atom_site_fract_y
 _atom_site_fract_z
 _atom_site_occupancy
  Nd  Nd0  1  0.000000  0.000000  0.111018  1
  Nd  Nd1  1  0.000000  0.000000  0.888429  1
  Nd  Nd2  1  0.000000  0.000000  0.610065  1
  Nd  Nd3  1  0.000000  0.000000  0.392301  1
  Fe  Fe4  1  0.666667  0.333333  0.002733  1
  Fe  Fe5  1  0.333333  0.666667  0.996517  1
  Co  Co6  1  0.666667  0.333333  0.497161  1
  Si  Si7  1  0.333333  0.666667  0.502748  1
  Br  Br8  1  0.333333  0.666667  0.252693  1
  Br  Br9  1  0.666667  0.333333  0.746334  1
