# generated using pymatgen
data_Cs2Pb(WO4)3
_symmetry_space_group_name_H-M   'P 1'
_cell_length_a   7.48721415
_cell_length_b   7.48721453
_cell_length_c   7.59169854
_cell_angle_alpha   60.47934959
_cell_angle_beta   60.47934839
_cell_angle_gamma   59.99286791
_symmetry_Int_Tables_number   1
_chemical_formula_structural   Cs2Pb(WO4)3
_chemical_formula_sum   'Cs2 Pb1 W3 O12'
_cell_volume   303.07467824
_cell_formula_units_Z   1
loop_
 _symmetry_equiv_pos_site_id
 _symmetry_equiv_pos_as_xyz
  1  'x, y, z'
loop_
 _atom_site_type_symbol
 _atom_site_label
 _atom_site_symmetry_multiplicity
 _atom_site_fract_x
 _atom_site_fract_y
 _atom_site_fract_z
 _atom_site_occupancy
  Cs  Cs0  1  0.887229  0.856864  0.877538  1
  Cs  Cs1  1  0.143136  0.112771  0.122462  1
  Pb  Pb2  1  0.502903  0.497097  0.000000  1
  W  W3  1  0.503615  0.996674  0.498994  1
  W  W4  1  0.003326  0.496385  0.501006  1
  W  W5  1  0.502600  0.497400  0.500000  1
  O  O6  1  0.198621  0.194391  0.544193  1
  O  O7  1  0.573200  0.574073  0.197982  1
  O  O8  1  0.573922  0.152678  0.197105  1
  O  O9  1  0.198315  0.561534  0.543954  1
  O  O10  1  0.157199  0.571189  0.198971  1
  O  O11  1  0.565090  0.195290  0.542293  1
  O  O12  1  0.805609  0.801379  0.455807  1
  O  O13  1  0.425927  0.426800  0.802018  1
  O  O14  1  0.428811  0.842801  0.801029  1
  O  O15  1  0.804710  0.434910  0.457707  1
  O  O16  1  0.847322  0.426078  0.802895  1
  O  O17  1  0.438466  0.801685  0.456046  1
