# generated using pymatgen
data_Nd4Cd2AgPd3
_symmetry_space_group_name_H-M   'P 1'
_cell_length_a   7.92903488
_cell_length_b   7.92903488
_cell_length_c   3.93929000
_cell_angle_alpha   90.00000000
_cell_angle_beta   90.00000000
_cell_angle_gamma   89.82853969
_symmetry_Int_Tables_number   1
_chemical_formula_structural   Nd4Cd2AgPd3
_chemical_formula_sum   'Nd4 Cd2 Ag1 Pd3'
_cell_volume   247.66045425
_cell_formula_units_Z   1
loop_
 _symmetry_equiv_pos_site_id
 _symmetry_equiv_pos_as_xyz
  1  'x, y, z'
loop_
 _atom_site_type_symbol
 _atom_site_label
 _atom_site_symmetry_multiplicity
 _atom_site_fract_x
 _atom_site_fract_y
 _atom_site_fract_z
 _atom_site_occupancy
  Nd  Nd0  1  0.676755  0.176755  0.500000  1
  Nd  Nd1  1  0.336942  0.836942  0.500000  1
  Nd  Nd2  1  0.171259  0.312536  0.500000  1
  Nd  Nd3  1  0.812536  0.671259  0.500000  1
  Cd  Cd4  1  0.998958  0.998991  0.000000  1
  Cd  Cd5  1  0.498991  0.498958  0.000000  1
  Ag  Ag6  1  0.125531  0.625531  0.000000  1
  Pd  Pd7  1  0.874081  0.374081  0.000000  1
  Pd  Pd8  1  0.628313  0.876634  0.000000  1
  Pd  Pd9  1  0.376634  0.128313  0.000000  1
