# generated using pymatgen
data_Ho3Bi(OsO4)4
_symmetry_space_group_name_H-M   'P 1'
_cell_length_a   5.41523811
_cell_length_b   7.48392591
_cell_length_c   7.69883100
_cell_angle_alpha   79.51308971
_cell_angle_beta   93.75285737
_cell_angle_gamma   91.02600447
_symmetry_Int_Tables_number   1
_chemical_formula_structural   Ho3Bi(OsO4)4
_chemical_formula_sum   'Ho3 Bi1 Os4 O16'
_cell_volume   306.13708838
_cell_formula_units_Z   1
loop_
 _symmetry_equiv_pos_site_id
 _symmetry_equiv_pos_as_xyz
  1  'x, y, z'
loop_
 _atom_site_type_symbol
 _atom_site_label
 _atom_site_symmetry_multiplicity
 _atom_site_fract_x
 _atom_site_fract_y
 _atom_site_fract_z
 _atom_site_occupancy
  Ho  Ho0  1  0.265331  0.114488  0.617975  1
  Ho  Ho1  1  0.809080  0.397590  0.330077  1
  Ho  Ho2  1  0.196902  0.598176  0.675830  1
  Bi  Bi3  1  0.747715  0.888685  0.383836  1
  Os  Os4  1  0.754561  0.293393  0.835903  1
  Os  Os5  1  0.246520  0.705856  0.162770  1
  Os  Os6  1  0.285286  0.202656  0.165038  1
  Os  Os7  1  0.716326  0.798093  0.835849  1
  O  O8  1  0.943102  0.786906  0.033641  1
  O  O9  1  0.055826  0.210192  0.966048  1
  O  O10  1  0.354560  0.951162  0.171122  1
  O  O11  1  0.616292  0.049919  0.823989  1
  O  O12  1  0.150582  0.447325  0.171953  1
  O  O13  1  0.842061  0.554027  0.818954  1
  O  O14  1  0.593684  0.299957  0.060163  1
  O  O15  1  0.405426  0.700723  0.938338  1
  O  O16  1  0.950020  0.322545  0.614980  1
  O  O17  1  0.058234  0.666941  0.390585  1
  O  O18  1  0.506419  0.186155  0.389018  1
  O  O19  1  0.492155  0.819151  0.610919  1
  O  O20  1  0.548331  0.626554  0.295186  1
  O  O21  1  0.447932  0.367950  0.699101  1
  O  O22  1  0.034234  0.131156  0.344720  1
  O  O23  1  0.979419  0.880400  0.664004  1
