# generated using pymatgen
data_ReRu3Pt5
_symmetry_space_group_name_H-M   'P 1'
_cell_length_a   6.24897726
_cell_length_b   6.24897714
_cell_length_c   6.20554400
_cell_angle_alpha   95.57640366
_cell_angle_beta   95.57640355
_cell_angle_gamma   143.80431710
_symmetry_Int_Tables_number   1
_chemical_formula_structural   ReRu3Pt5
_chemical_formula_sum   'Re1 Ru3 Pt5'
_cell_volume   135.92184080
_cell_formula_units_Z   1
loop_
 _symmetry_equiv_pos_site_id
 _symmetry_equiv_pos_as_xyz
  1  'x, y, z'
loop_
 _atom_site_type_symbol
 _atom_site_label
 _atom_site_symmetry_multiplicity
 _atom_site_fract_x
 _atom_site_fract_y
 _atom_site_fract_z
 _atom_site_occupancy
  Re  Re0  1  0.006663  0.993337  0.000000  1
  Ru  Ru1  1  0.341276  0.339181  0.680457  1
  Ru  Ru2  1  0.660819  0.658724  0.319543  1
  Ru  Ru3  1  0.655086  0.344914  0.000000  1
  Pt  Pt4  1  0.337249  0.662751  0.000000  1
  Pt  Pt5  1  0.003838  0.326700  0.330537  1
  Pt  Pt6  1  0.996350  0.674582  0.670932  1
  Pt  Pt7  1  0.673300  0.996162  0.669463  1
  Pt  Pt8  1  0.325418  0.003650  0.329068  1
