# generated using pymatgen
data_Er8Ta2Ti9Si16Ru
_symmetry_space_group_name_H-M   'P 1'
_cell_length_a   6.99986676
_cell_length_b   6.99986591
_cell_length_c   12.85387938
_cell_angle_alpha   90.08692341
_cell_angle_beta   89.91307875
_cell_angle_gamma   89.79125157
_symmetry_Int_Tables_number   1
_chemical_formula_structural   Er8Ta2Ti9Si16Ru
_chemical_formula_sum   'Er8 Ta2 Ti9 Si16 Ru1'
_cell_volume   629.81040119
_cell_formula_units_Z   1
loop_
 _symmetry_equiv_pos_site_id
 _symmetry_equiv_pos_as_xyz
  1  'x, y, z'
loop_
 _atom_site_type_symbol
 _atom_site_label
 _atom_site_symmetry_multiplicity
 _atom_site_fract_x
 _atom_site_fract_y
 _atom_site_fract_z
 _atom_site_occupancy
  Er  Er0  1  0.341456  0.003819  0.467258  1
  Er  Er1  1  0.497147  0.841835  0.718122  1
  Er  Er2  1  0.500866  0.158676  0.215553  1
  Er  Er3  1  0.841835  0.497147  0.281878  1
  Er  Er4  1  0.158676  0.500866  0.784447  1
  Er  Er5  1  0.658019  0.998852  0.968739  1
  Er  Er6  1  0.003819  0.341456  0.532742  1
  Er  Er7  1  0.998852  0.658019  0.031261  1
  Ta  Ta8  1  0.174174  0.827111  0.248221  1
  Ta  Ta9  1  0.827111  0.174174  0.751779  1
  Ti  Ti10  1  0.673811  0.673811  0.500000  1
  Ti  Ti11  1  0.148780  0.002732  0.874339  1
  Ti  Ti12  1  0.492339  0.656653  0.125270  1
  Ti  Ti13  1  0.507805  0.348111  0.628520  1
  Ti  Ti14  1  0.656653  0.492339  0.874730  1
  Ti  Ti15  1  0.348111  0.507805  0.371480  1
  Ti  Ti16  1  0.849180  0.994027  0.373935  1
  Ti  Ti17  1  0.002732  0.148780  0.125661  1
  Ti  Ti18  1  0.994027  0.849180  0.626065  1
  Si  Si19  1  0.203472  0.133013  0.684252  1
  Si  Si20  1  0.371886  0.700385  0.933154  1
  Si  Si21  1  0.631546  0.296603  0.433907  1
  Si  Si22  1  0.700385  0.371886  0.066846  1
  Si  Si23  1  0.296603  0.631546  0.566093  1
  Si  Si24  1  0.796055  0.867264  0.183472  1
  Si  Si25  1  0.133013  0.203472  0.315748  1
  Si  Si26  1  0.867264  0.796055  0.816528  1
  Si  Si27  1  0.288587  0.954937  0.062916  1
  Si  Si28  1  0.547583  0.792687  0.315567  1
  Si  Si29  1  0.449612  0.208364  0.818187  1
  Si  Si30  1  0.792687  0.547583  0.684433  1
  Si  Si31  1  0.208364  0.449612  0.181813  1
  Si  Si32  1  0.707113  0.047305  0.564983  1
  Si  Si33  1  0.954937  0.288587  0.937084  1
  Si  Si34  1  0.047305  0.707113  0.435017  1
  Ru  Ru35  1  0.328193  0.328193  0.000000  1
