# generated using pymatgen
data_Zr2Sc7(In2Co)7
_symmetry_space_group_name_H-M   'P 1'
_cell_length_a   9.45148738
_cell_length_b   9.46771207
_cell_length_c   9.46771264
_cell_angle_alpha   60.03468322
_cell_angle_beta   60.05667206
_cell_angle_gamma   60.05667771
_symmetry_Int_Tables_number   1
_chemical_formula_structural   Zr2Sc7(In2Co)7
_chemical_formula_sum   'Zr2 Sc7 In14 Co7'
_cell_volume   599.73677010
_cell_formula_units_Z   1
loop_
 _symmetry_equiv_pos_site_id
 _symmetry_equiv_pos_as_xyz
  1  'x, y, z'
loop_
 _atom_site_type_symbol
 _atom_site_label
 _atom_site_symmetry_multiplicity
 _atom_site_fract_x
 _atom_site_fract_y
 _atom_site_fract_z
 _atom_site_occupancy
  Zr  Zr0  1  0.879776  0.357705  0.882742  1
  Zr  Zr1  1  0.120224  0.117258  0.642295  1
  Sc  Sc2  1  0.117716  0.644910  0.119660  1
  Sc  Sc3  1  0.355416  0.879293  0.884604  1
  Sc  Sc4  1  0.880685  0.879293  0.884604  1
  Sc  Sc5  1  0.644584  0.115396  0.120707  1
  Sc  Sc6  1  0.500000  0.501125  0.498875  1
  Sc  Sc7  1  0.882284  0.880340  0.355090  1
  Sc  Sc8  1  0.119315  0.115396  0.120707  1
  In  In9  1  0.500000  0.841758  0.158242  1
  In  In10  1  0.501190  0.841834  0.499652  1
  In  In11  1  0.501075  0.157722  0.499928  1
  In  In12  1  0.498925  0.500072  0.842278  1
  In  In13  1  0.157445  0.500930  0.499070  1
  In  In14  1  0.841275  0.157722  0.499928  1
  In  In15  1  0.157324  0.841834  0.499652  1
  In  In16  1  0.500000  0.158701  0.841299  1
  In  In17  1  0.158725  0.500072  0.842278  1
  In  In18  1  0.498810  0.500348  0.158166  1
  In  In19  1  0.842555  0.500930  0.499070  1
  In  In20  1  0.842676  0.500348  0.158166  1
  In  In21  1  0.249073  0.251898  0.249955  1
  In  In22  1  0.750927  0.750045  0.748102  1
  Co  Co23  1  0.772675  0.773369  0.226631  1
  Co  Co24  1  0.000000  0.000768  0.999232  1
  Co  Co25  1  0.227325  0.773369  0.226631  1
  Co  Co26  1  0.223988  0.779814  0.772211  1
  Co  Co27  1  0.219157  0.224980  0.775020  1
  Co  Co28  1  0.780843  0.224980  0.775020  1
  Co  Co29  1  0.776012  0.227789  0.220186  1
