# generated using pymatgen
data_CsK2SbTe3
_symmetry_space_group_name_H-M   'P 1'
_cell_length_a   10.82046900
_cell_length_b   10.82046900
_cell_length_c   10.82046900
_cell_angle_alpha   90.00000000
_cell_angle_beta   90.00000000
_cell_angle_gamma   90.00000000
_symmetry_Int_Tables_number   1
_chemical_formula_structural   CsK2SbTe3
_chemical_formula_sum   'Cs4 K8 Sb4 Te12'
_cell_volume   1266.88809601
_cell_formula_units_Z   4
loop_
 _symmetry_equiv_pos_site_id
 _symmetry_equiv_pos_as_xyz
  1  'x, y, z'
loop_
 _atom_site_type_symbol
 _atom_site_label
 _atom_site_symmetry_multiplicity
 _atom_site_fract_x
 _atom_site_fract_y
 _atom_site_fract_z
 _atom_site_occupancy
  Cs  Cs0  1  0.575903  0.575903  0.575903  1
  Cs  Cs1  1  0.924097  0.424097  0.075903  1
  Cs  Cs2  1  0.075903  0.924097  0.424097  1
  Cs  Cs3  1  0.424097  0.075903  0.924097  1
  K  K4  1  0.320392  0.320392  0.320392  1
  K  K5  1  0.179608  0.679608  0.820392  1
  K  K6  1  0.820392  0.179608  0.679608  1
  K  K7  1  0.679608  0.820392  0.179608  1
  K  K8  1  0.815607  0.815607  0.815607  1
  K  K9  1  0.684393  0.184393  0.315607  1
  K  K10  1  0.315607  0.684393  0.184393  1
  K  K11  1  0.184393  0.315607  0.684393  1
  Sb  Sb12  1  0.026233  0.026233  0.026233  1
  Sb  Sb13  1  0.473767  0.973767  0.526233  1
  Sb  Sb14  1  0.526233  0.473767  0.973767  1
  Sb  Sb15  1  0.973767  0.526233  0.473767  1
  Te  Te16  1  0.222648  0.598348  0.497721  1
  Te  Te17  1  0.497721  0.222648  0.598348  1
  Te  Te18  1  0.598348  0.497721  0.222648  1
  Te  Te19  1  0.901652  0.502279  0.722648  1
  Te  Te20  1  0.997721  0.277352  0.401652  1
  Te  Te21  1  0.401652  0.997721  0.277352  1
  Te  Te22  1  0.002279  0.777352  0.098348  1
  Te  Te23  1  0.502279  0.722648  0.901652  1
  Te  Te24  1  0.098348  0.002279  0.777352  1
  Te  Te25  1  0.722648  0.901652  0.502279  1
  Te  Te26  1  0.777352  0.098348  0.002279  1
  Te  Te27  1  0.277352  0.401652  0.997721  1
