# generated using pymatgen
data_Ce12Si12Ir3Os
_symmetry_space_group_name_H-M   'P 1'
_cell_length_a   4.34145400
_cell_length_b   10.46531007
_cell_length_c   12.83958231
_cell_angle_alpha   90.05180340
_cell_angle_beta   90.00000000
_cell_angle_gamma   90.00000000
_symmetry_Int_Tables_number   1
_chemical_formula_structural   Ce12Si12Ir3Os
_chemical_formula_sum   'Ce12 Si12 Ir3 Os1'
_cell_volume   583.36184749
_cell_formula_units_Z   1
loop_
 _symmetry_equiv_pos_site_id
 _symmetry_equiv_pos_as_xyz
  1  'x, y, z'
loop_
 _atom_site_type_symbol
 _atom_site_label
 _atom_site_symmetry_multiplicity
 _atom_site_fract_x
 _atom_site_fract_y
 _atom_site_fract_z
 _atom_site_occupancy
  Ce  Ce0  1  0.250000  0.901382  0.027835  1
  Ce  Ce1  1  0.250000  0.596511  0.528443  1
  Ce  Ce2  1  0.750000  0.097773  0.971819  1
  Ce  Ce3  1  0.750000  0.402626  0.472788  1
  Ce  Ce4  1  0.250000  0.914607  0.594933  1
  Ce  Ce5  1  0.250000  0.585879  0.094563  1
  Ce  Ce6  1  0.750000  0.085405  0.405753  1
  Ce  Ce7  1  0.750000  0.415121  0.905106  1
  Ce  Ce8  1  0.250000  0.662652  0.805837  1
  Ce  Ce9  1  0.250000  0.835845  0.306506  1
  Ce  Ce10  1  0.750000  0.336311  0.194018  1
  Ce  Ce11  1  0.750000  0.165491  0.692660  1
  Si  Si12  1  0.250000  0.997170  0.811503  1
  Si  Si13  1  0.250000  0.502950  0.311378  1
  Si  Si14  1  0.750000  0.002928  0.188821  1
  Si  Si15  1  0.750000  0.493967  0.689059  1
  Si  Si16  1  0.250000  0.237645  0.841387  1
  Si  Si17  1  0.250000  0.264461  0.343137  1
  Si  Si18  1  0.750000  0.764511  0.157408  1
  Si  Si19  1  0.750000  0.735701  0.657090  1
  Si  Si20  1  0.250000  0.218491  0.541061  1
  Si  Si21  1  0.250000  0.283244  0.040327  1
  Si  Si22  1  0.750000  0.783448  0.459496  1
  Si  Si23  1  0.750000  0.716723  0.959203  1
  Ir  Ir24  1  0.250000  0.118081  0.187651  1
  Ir  Ir25  1  0.750000  0.617921  0.312261  1
  Ir  Ir26  1  0.750000  0.881737  0.812872  1
  Os  Os27  1  0.250000  0.381420  0.687086  1
