# generated using pymatgen
data_Nd12Ni3IrBr12
_symmetry_space_group_name_H-M   'P 1'
_cell_length_a   10.34115265
_cell_length_b   10.31075626
_cell_length_c   10.31075702
_cell_angle_alpha   109.41142218
_cell_angle_beta   109.53094282
_cell_angle_gamma   109.53094496
_symmetry_Int_Tables_number   1
_chemical_formula_structural   Nd12Ni3IrBr12
_chemical_formula_sum   'Nd12 Ni3 Ir1 Br12'
_cell_volume   845.68289470
_cell_formula_units_Z   1
loop_
 _symmetry_equiv_pos_site_id
 _symmetry_equiv_pos_as_xyz
  1  'x, y, z'
loop_
 _atom_site_type_symbol
 _atom_site_label
 _atom_site_symmetry_multiplicity
 _atom_site_fract_x
 _atom_site_fract_y
 _atom_site_fract_z
 _atom_site_occupancy
  Nd  Nd0  1  0.471318  0.485305  0.237252  1
  Nd  Nd1  1  0.750000  0.234253  0.265747  1
  Nd  Nd2  1  0.750000  0.016672  0.483328  1
  Nd  Nd3  1  0.233328  0.466655  0.483328  1
  Nd  Nd4  1  0.265935  0.751947  0.237252  1
  Nd  Nd5  1  0.028682  0.262748  0.014695  1
  Nd  Nd6  1  0.015747  0.031491  0.265747  1
  Nd  Nd7  1  0.486012  0.751947  0.014695  1
  Nd  Nd8  1  0.484253  0.234253  0.468509  1
  Nd  Nd9  1  0.013988  0.485305  0.748053  1
  Nd  Nd10  1  0.266672  0.016672  0.033345  1
  Nd  Nd11  1  0.234065  0.262748  0.748053  1
  Ni  Ni12  1  0.250000  0.249274  0.250726  1
  Ni  Ni13  1  0.500726  0.001452  0.250726  1
  Ni  Ni14  1  0.999274  0.249274  0.498548  1
  Ir  Ir15  1  0.250000  0.500000  0.000000  1
  Br  Br16  1  0.250000  0.757853  0.742147  1
  Br  Br17  1  0.515101  0.506355  0.755715  1
  Br  Br18  1  0.984899  0.744285  0.993645  1
  Br  Br19  1  0.740613  0.249361  0.755715  1
  Br  Br20  1  0.992147  0.984296  0.742147  1
  Br  Br21  1  0.250000  0.992478  0.507522  1
  Br  Br22  1  0.757522  0.515041  0.507522  1
  Br  Br23  1  0.508748  0.249361  0.993645  1
  Br  Br24  1  0.759387  0.744285  0.250639  1
  Br  Br25  1  0.742478  0.992478  0.984959  1
  Br  Br26  1  0.991252  0.506355  0.250639  1
  Br  Br27  1  0.507853  0.757853  0.515704  1
