# generated using pymatgen
data_PrDy6CoSn23Ir5
_symmetry_space_group_name_H-M   'P 1'
_cell_length_a   9.85706895
_cell_length_b   9.88179393
_cell_length_c   10.09735508
_cell_angle_alpha   90.00000060
_cell_angle_beta   89.95503591
_cell_angle_gamma   120.08300996
_symmetry_Int_Tables_number   1
_chemical_formula_structural   PrDy6CoSn23Ir5
_chemical_formula_sum   'Pr1 Dy6 Co1 Sn23 Ir5'
_cell_volume   851.05531831
_cell_formula_units_Z   1
loop_
 _symmetry_equiv_pos_site_id
 _symmetry_equiv_pos_as_xyz
  1  'x, y, z'
loop_
 _atom_site_type_symbol
 _atom_site_label
 _atom_site_symmetry_multiplicity
 _atom_site_fract_x
 _atom_site_fract_y
 _atom_site_fract_z
 _atom_site_occupancy
  Pr  Pr0  1  0.004620  0.002310  0.003293  1
  Dy  Dy1  1  0.480436  0.520216  0.308222  1
  Dy  Dy2  1  0.519427  0.479329  0.691030  1
  Dy  Dy3  1  0.480436  0.960220  0.308222  1
  Dy  Dy4  1  0.519427  0.040098  0.691030  1
  Dy  Dy5  1  0.039490  0.519745  0.307352  1
  Dy  Dy6  1  0.959522  0.479762  0.692374  1
  Co  Co7  1  0.661161  0.830581  0.800927  1
  Sn  Sn8  1  0.356003  0.000113  0.999255  1
  Sn  Sn9  1  0.648229  0.994163  0.994653  1
  Sn  Sn10  1  0.999695  0.353134  0.999714  1
  Sn  Sn11  1  0.999695  0.646561  0.999714  1
  Sn  Sn12  1  0.648229  0.654065  0.994653  1
  Sn  Sn13  1  0.356003  0.355889  0.999255  1
  Sn  Sn14  1  0.338618  0.669310  0.823590  1
  Sn  Sn15  1  0.666178  0.333088  0.173387  1
  Sn  Sn16  1  0.000046  0.000023  0.500524  1
  Sn  Sn17  1  0.780474  0.220827  0.457828  1
  Sn  Sn18  1  0.220058  0.778775  0.542180  1
  Sn  Sn19  1  0.780474  0.559647  0.457828  1
  Sn  Sn20  1  0.220058  0.441284  0.542180  1
  Sn  Sn21  1  0.442356  0.221177  0.457760  1
  Sn  Sn22  1  0.562967  0.781484  0.548719  1
  Sn  Sn23  1  0.334622  0.667312  0.117586  1
  Sn  Sn24  1  0.665112  0.332556  0.880662  1
  Sn  Sn25  1  0.117671  0.879881  0.284670  1
  Sn  Sn26  1  0.875970  0.111163  0.721567  1
  Sn  Sn27  1  0.117671  0.237790  0.284670  1
  Sn  Sn28  1  0.875970  0.764807  0.721567  1
  Sn  Sn29  1  0.760504  0.880252  0.284796  1
  Sn  Sn30  1  0.237477  0.118739  0.715172  1
  Ir  Ir31  1  0.828181  0.167762  0.198597  1
  Ir  Ir32  1  0.168469  0.829849  0.799396  1
  Ir  Ir33  1  0.828181  0.660418  0.198597  1
  Ir  Ir34  1  0.168469  0.338622  0.799396  1
  Ir  Ir35  1  0.338110  0.169054  0.199636  1
