# generated using pymatgen
data_La5YNp2O14
_symmetry_space_group_name_H-M   'P 1'
_cell_length_a   6.81335300
_cell_length_b   6.81299443
_cell_length_c   8.00035000
_cell_angle_alpha   90.00000000
_cell_angle_beta   90.00000000
_cell_angle_gamma   109.79819840
_symmetry_Int_Tables_number   1
_chemical_formula_structural   La5YNp2O14
_chemical_formula_sum   'La5 Y1 Np2 O14'
_cell_volume   349.41972625
_cell_formula_units_Z   1
loop_
 _symmetry_equiv_pos_site_id
 _symmetry_equiv_pos_as_xyz
  1  'x, y, z'
loop_
 _atom_site_type_symbol
 _atom_site_label
 _atom_site_symmetry_multiplicity
 _atom_site_fract_x
 _atom_site_fract_y
 _atom_site_fract_z
 _atom_site_occupancy
  La  La0  1  0.494143  0.496800  0.502554  1
  La  La1  1  0.494143  0.496800  0.997446  1
  La  La2  1  0.528376  0.000400  0.750000  1
  La  La3  1  0.000563  0.531723  0.250000  1
  La  La4  1  0.471998  0.997955  0.250000  1
  Y  Y5  1  0.994771  0.464746  0.750000  1
  Np  Np6  1  0.001137  0.000443  0.503252  1
  Np  Np7  1  0.001137  0.000443  0.996748  1
  O  O8  1  0.670348  0.908292  0.475603  1
  O  O9  1  0.938842  0.681901  0.541207  1
  O  O10  1  0.670348  0.908292  0.024397  1
  O  O11  1  0.938842  0.681901  0.958793  1
  O  O12  1  0.331184  0.091237  0.526801  1
  O  O13  1  0.072396  0.324226  0.476014  1
  O  O14  1  0.331184  0.091237  0.973199  1
  O  O15  1  0.072396  0.324226  0.023986  1
  O  O16  1  0.919339  0.092438  0.750000  1
  O  O17  1  0.078117  0.918202  0.250000  1
  O  O18  1  0.352010  0.618757  0.750000  1
  O  O19  1  0.630847  0.371336  0.250000  1
  O  O20  1  0.644988  0.368144  0.750000  1
  O  O21  1  0.362888  0.630498  0.250000  1
