# generated using pymatgen
data_Er4P7Ir7Rh
_symmetry_space_group_name_H-M   'P 1'
_cell_length_a   3.94203600
_cell_length_b   12.61899552
_cell_length_c   13.09452188
_cell_angle_alpha   80.66465329
_cell_angle_beta   90.00000000
_cell_angle_gamma   90.00000000
_symmetry_Int_Tables_number   1
_chemical_formula_structural   Er4P7Ir7Rh
_chemical_formula_sum   'Er8 P14 Ir14 Rh2'
_cell_volume   642.75389931
_cell_formula_units_Z   2
loop_
 _symmetry_equiv_pos_site_id
 _symmetry_equiv_pos_as_xyz
  1  'x, y, z'
loop_
 _atom_site_type_symbol
 _atom_site_label
 _atom_site_symmetry_multiplicity
 _atom_site_fract_x
 _atom_site_fract_y
 _atom_site_fract_z
 _atom_site_occupancy
  Er  Er0  1  0.750000  0.790928  0.562265  1
  Er  Er1  1  0.250000  0.209072  0.437735  1
  Er  Er2  1  0.750000  0.479490  0.706758  1
  Er  Er3  1  0.250000  0.520510  0.293242  1
  Er  Er4  1  0.750000  0.720263  0.899132  1
  Er  Er5  1  0.250000  0.101912  0.789410  1
  Er  Er6  1  0.750000  0.898088  0.210590  1
  Er  Er7  1  0.250000  0.279737  0.100868  1
  P  P8  1  0.250000  0.907265  0.412586  1
  P  P9  1  0.750000  0.471159  0.129581  1
  P  P10  1  0.250000  0.528841  0.870419  1
  P  P11  1  0.750000  0.092735  0.587414  1
  P  P12  1  0.250000  0.741513  0.079378  1
  P  P13  1  0.750000  0.258487  0.920622  1
  P  P14  1  0.750000  0.157179  0.281386  1
  P  P15  1  0.250000  0.842821  0.718614  1
  P  P16  1  0.250000  0.051858  0.101227  1
  P  P17  1  0.750000  0.948142  0.898773  1
  P  P18  1  0.250000  0.311571  0.690186  1
  P  P19  1  0.750000  0.688429  0.309814  1
  P  P20  1  0.250000  0.608326  0.566501  1
  P  P21  1  0.750000  0.391674  0.433499  1
  Ir  Ir22  1  0.250000  0.661723  0.728912  1
  Ir  Ir23  1  0.750000  0.338277  0.271088  1
  Ir  Ir24  1  0.250000  0.553668  0.045910  1
  Ir  Ir25  1  0.750000  0.446332  0.954090  1
  Ir  Ir26  1  0.250000  0.059939  0.274430  1
  Ir  Ir27  1  0.750000  0.940061  0.725570  1
  Ir  Ir28  1  0.250000  0.421175  0.523367  1
  Ir  Ir29  1  0.750000  0.578825  0.476633  1
  Ir  Ir30  1  0.250000  0.915158  0.997625  1
  Ir  Ir31  1  0.750000  0.084842  0.002375  1
  Ir  Ir32  1  0.250000  0.729495  0.394228  1
  Ir  Ir33  1  0.750000  0.270505  0.605772  1
  Ir  Ir34  1  0.250000  0.341995  0.858264  1
  Ir  Ir35  1  0.750000  0.658005  0.141736  1
  Rh  Rh36  1  0.250000  0.989854  0.575013  1
  Rh  Rh37  1  0.750000  0.010146  0.424987  1
