# generated using pymatgen
data_Lu4Sc4Ga3Rh
_symmetry_space_group_name_H-M   'P 1'
_cell_length_a   9.59510000
_cell_length_b   9.59509970
_cell_length_c   6.84455300
_cell_angle_alpha   90.00000000
_cell_angle_beta   90.00000000
_cell_angle_gamma   120.00000105
_symmetry_Int_Tables_number   1
_chemical_formula_structural   Lu4Sc4Ga3Rh
_chemical_formula_sum   'Lu8 Sc8 Ga6 Rh2'
_cell_volume   545.72608711
_cell_formula_units_Z   2
loop_
 _symmetry_equiv_pos_site_id
 _symmetry_equiv_pos_as_xyz
  1  'x, y, z'
loop_
 _atom_site_type_symbol
 _atom_site_label
 _atom_site_symmetry_multiplicity
 _atom_site_fract_x
 _atom_site_fract_y
 _atom_site_fract_z
 _atom_site_occupancy
  Lu  Lu0  1  0.467877  0.532123  0.291318  1
  Lu  Lu1  1  0.935754  0.467877  0.791318  1
  Lu  Lu2  1  0.532123  0.064246  0.791318  1
  Lu  Lu3  1  0.467877  0.935754  0.291318  1
  Lu  Lu4  1  0.064246  0.532123  0.291318  1
  Lu  Lu5  1  0.532123  0.467877  0.791318  1
  Lu  Lu6  1  0.000000  0.000000  0.268850  1
  Lu  Lu7  1  0.000000  0.000000  0.768850  1
  Sc  Sc8  1  0.171321  0.828679  0.989164  1
  Sc  Sc9  1  0.342641  0.171321  0.489164  1
  Sc  Sc10  1  0.828679  0.657359  0.489164  1
  Sc  Sc11  1  0.171321  0.342641  0.989164  1
  Sc  Sc12  1  0.657359  0.828679  0.989164  1
  Sc  Sc13  1  0.828679  0.171321  0.489164  1
  Sc  Sc14  1  0.333333  0.666667  0.662371  1
  Sc  Sc15  1  0.666667  0.333333  0.162371  1
  Ga  Ga16  1  0.163641  0.836359  0.549067  1
  Ga  Ga17  1  0.327283  0.163641  0.049067  1
  Ga  Ga18  1  0.836359  0.672717  0.049067  1
  Ga  Ga19  1  0.163641  0.327283  0.549067  1
  Ga  Ga20  1  0.672717  0.836359  0.549067  1
  Ga  Ga21  1  0.836359  0.163641  0.049067  1
  Rh  Rh22  1  0.333333  0.666667  0.042133  1
  Rh  Rh23  1  0.666667  0.333333  0.542133  1
