# generated using pymatgen
data_Y2LuIn5
_symmetry_space_group_name_H-M   'P 1'
_cell_length_a   6.53736600
_cell_length_b   10.35013400
_cell_length_c   12.18070100
_cell_angle_alpha   90.00000000
_cell_angle_beta   90.00000000
_cell_angle_gamma   90.00000000
_symmetry_Int_Tables_number   1
_chemical_formula_structural   Y2LuIn5
_chemical_formula_sum   'Y8 Lu4 In20'
_cell_volume   824.17807132
_cell_formula_units_Z   4
loop_
 _symmetry_equiv_pos_site_id
 _symmetry_equiv_pos_as_xyz
  1  'x, y, z'
loop_
 _atom_site_type_symbol
 _atom_site_label
 _atom_site_symmetry_multiplicity
 _atom_site_fract_x
 _atom_site_fract_y
 _atom_site_fract_z
 _atom_site_occupancy
  Y  Y0  1  0.887206  0.488894  0.142009  1
  Y  Y1  1  0.612794  0.011106  0.642009  1
  Y  Y2  1  0.112794  0.988894  0.857991  1
  Y  Y3  1  0.387206  0.511106  0.357991  1
  Y  Y4  1  0.112794  0.511106  0.857991  1
  Y  Y5  1  0.387206  0.988894  0.357991  1
  Y  Y6  1  0.887206  0.011106  0.142009  1
  Y  Y7  1  0.612794  0.488894  0.642009  1
  Lu  Lu8  1  0.352752  0.750000  0.052401  1
  Lu  Lu9  1  0.147248  0.750000  0.552401  1
  Lu  Lu10  1  0.647248  0.250000  0.947599  1
  Lu  Lu11  1  0.852752  0.250000  0.447599  1
  In  In12  1  0.609997  0.750000  0.505404  1
  In  In13  1  0.890003  0.750000  0.005404  1
  In  In14  1  0.390003  0.250000  0.494596  1
  In  In15  1  0.109997  0.250000  0.994596  1
  In  In16  1  0.650391  0.750000  0.241792  1
  In  In17  1  0.849609  0.750000  0.741792  1
  In  In18  1  0.349609  0.250000  0.758208  1
  In  In19  1  0.150391  0.250000  0.258208  1
  In  In20  1  0.117276  0.750000  0.278047  1
  In  In21  1  0.382724  0.750000  0.778047  1
  In  In22  1  0.882724  0.250000  0.721953  1
  In  In23  1  0.617276  0.250000  0.221953  1
  In  In24  1  0.871771  0.543215  0.401758  1
  In  In25  1  0.628229  0.956785  0.901758  1
  In  In26  1  0.128229  0.043215  0.598242  1
  In  In27  1  0.371771  0.456785  0.098242  1
  In  In28  1  0.128229  0.456785  0.598242  1
  In  In29  1  0.371771  0.043215  0.098242  1
  In  In30  1  0.871771  0.956785  0.401758  1
  In  In31  1  0.628229  0.543215  0.901758  1
