# generated using pymatgen
data_TbTiAlO5
_symmetry_space_group_name_H-M   'P 1'
_cell_length_a   5.71067200
_cell_length_b   7.45537000
_cell_length_c   8.48154500
_cell_angle_alpha   90.00000000
_cell_angle_beta   90.00000000
_cell_angle_gamma   90.00000000
_symmetry_Int_Tables_number   1
_chemical_formula_structural   TbTiAlO5
_chemical_formula_sum   'Tb4 Ti4 Al4 O20'
_cell_volume   361.10324321
_cell_formula_units_Z   4
loop_
 _symmetry_equiv_pos_site_id
 _symmetry_equiv_pos_as_xyz
  1  'x, y, z'
loop_
 _atom_site_type_symbol
 _atom_site_label
 _atom_site_symmetry_multiplicity
 _atom_site_fract_x
 _atom_site_fract_y
 _atom_site_fract_z
 _atom_site_occupancy
  Tb  Tb0  1  0.000000  0.858347  0.829965  1
  Tb  Tb1  1  0.000000  0.358347  0.670035  1
  Tb  Tb2  1  0.000000  0.141653  0.170035  1
  Tb  Tb3  1  0.000000  0.641653  0.329965  1
  Ti  Ti4  1  0.500000  0.875299  0.146123  1
  Ti  Ti5  1  0.500000  0.624701  0.646123  1
  Ti  Ti6  1  0.500000  0.375299  0.353877  1
  Ti  Ti7  1  0.500000  0.124701  0.853877  1
  Al  Al8  1  0.757072  0.500000  0.000000  1
  Al  Al9  1  0.242928  0.500000  0.000000  1
  Al  Al10  1  0.757072  0.000000  0.500000  1
  Al  Al11  1  0.242928  0.000000  0.500000  1
  O  O12  1  0.500000  0.649350  0.072532  1
  O  O13  1  0.000000  0.159229  0.441656  1
  O  O14  1  0.251794  0.891121  0.294258  1
  O  O15  1  0.722189  0.000000  0.000000  1
  O  O16  1  0.748206  0.608879  0.794258  1
  O  O17  1  0.748206  0.108879  0.705742  1
  O  O18  1  0.500000  0.350650  0.927468  1
  O  O19  1  0.277811  0.500000  0.500000  1
  O  O20  1  0.000000  0.840771  0.558344  1
  O  O21  1  0.251794  0.108879  0.705742  1
  O  O22  1  0.000000  0.659229  0.058344  1
  O  O23  1  0.748206  0.391121  0.205742  1
  O  O24  1  0.748206  0.891121  0.294258  1
  O  O25  1  0.251794  0.608879  0.794258  1
  O  O26  1  0.277811  0.000000  0.000000  1
  O  O27  1  0.500000  0.850650  0.572532  1
  O  O28  1  0.500000  0.149350  0.427468  1
  O  O29  1  0.722189  0.500000  0.500000  1
  O  O30  1  0.251794  0.391121  0.205742  1
  O  O31  1  0.000000  0.340771  0.941656  1
