# generated using pymatgen
data_Ho8Ta3Ti8Si16Pt
_symmetry_space_group_name_H-M   'P 1'
_cell_length_a   7.02535734
_cell_length_b   7.02535621
_cell_length_c   12.86593137
_cell_angle_alpha   90.29123375
_cell_angle_beta   89.70876745
_cell_angle_gamma   89.50363200
_symmetry_Int_Tables_number   1
_chemical_formula_structural   Ho8Ta3Ti8Si16Pt
_chemical_formula_sum   'Ho8 Ta3 Ti8 Si16 Pt1'
_cell_volume   634.96587139
_cell_formula_units_Z   1
loop_
 _symmetry_equiv_pos_site_id
 _symmetry_equiv_pos_as_xyz
  1  'x, y, z'
loop_
 _atom_site_type_symbol
 _atom_site_label
 _atom_site_symmetry_multiplicity
 _atom_site_fract_x
 _atom_site_fract_y
 _atom_site_fract_z
 _atom_site_occupancy
  Ho  Ho0  1  0.341005  0.002275  0.467614  1
  Ho  Ho1  1  0.497386  0.841428  0.718324  1
  Ho  Ho2  1  0.501698  0.158096  0.215146  1
  Ho  Ho3  1  0.841428  0.497386  0.281676  1
  Ho  Ho4  1  0.158096  0.501698  0.784854  1
  Ho  Ho5  1  0.657473  0.998910  0.968529  1
  Ho  Ho6  1  0.002275  0.341005  0.532386  1
  Ho  Ho7  1  0.998910  0.657473  0.031471  1
  Ta  Ta8  1  0.174883  0.826119  0.248446  1
  Ta  Ta9  1  0.826119  0.174883  0.751554  1
  Ta  Ta10  1  0.673301  0.673301  0.500000  1
  Ti  Ti11  1  0.148075  0.004134  0.876132  1
  Ti  Ti12  1  0.493337  0.655307  0.124725  1
  Ti  Ti13  1  0.508101  0.349957  0.627167  1
  Ti  Ti14  1  0.655307  0.493337  0.875275  1
  Ti  Ti15  1  0.349957  0.508101  0.372833  1
  Ti  Ti16  1  0.848748  0.991263  0.374422  1
  Ti  Ti17  1  0.004134  0.148075  0.123868  1
  Ti  Ti18  1  0.991263  0.848748  0.625578  1
  Si  Si19  1  0.202551  0.132659  0.684760  1
  Si  Si20  1  0.372267  0.708789  0.932274  1
  Si  Si21  1  0.631344  0.296063  0.433866  1
  Si  Si22  1  0.708789  0.372267  0.067726  1
  Si  Si23  1  0.296063  0.631344  0.566134  1
  Si  Si24  1  0.797868  0.867695  0.183509  1
  Si  Si25  1  0.132659  0.202551  0.315240  1
  Si  Si26  1  0.867695  0.797868  0.816491  1
  Si  Si27  1  0.287816  0.946530  0.062730  1
  Si  Si28  1  0.547185  0.793497  0.314581  1
  Si  Si29  1  0.450178  0.208875  0.815379  1
  Si  Si30  1  0.793497  0.547185  0.685419  1
  Si  Si31  1  0.208875  0.450178  0.184621  1
  Si  Si32  1  0.707461  0.047399  0.564599  1
  Si  Si33  1  0.946530  0.287816  0.937270  1
  Si  Si34  1  0.047399  0.707461  0.435401  1
  Pt  Pt35  1  0.330328  0.330328  0.000000  1
