# generated using pymatgen
data_La4Nd6Os3Ru
_symmetry_space_group_name_H-M   'P 1'
_cell_length_a   9.02255987
_cell_length_b   9.00464537
_cell_length_c   7.40793500
_cell_angle_alpha   84.05366183
_cell_angle_beta   84.01086325
_cell_angle_gamma   43.57871747
_symmetry_Int_Tables_number   1
_chemical_formula_structural   La4Nd6Os3Ru
_chemical_formula_sum   'La4 Nd6 Os3 Ru1'
_cell_volume   412.28152844
_cell_formula_units_Z   1
loop_
 _symmetry_equiv_pos_site_id
 _symmetry_equiv_pos_as_xyz
  1  'x, y, z'
loop_
 _atom_site_type_symbol
 _atom_site_label
 _atom_site_symmetry_multiplicity
 _atom_site_fract_x
 _atom_site_fract_y
 _atom_site_fract_z
 _atom_site_occupancy
  La  La0  1  0.016247  0.797584  0.909540  1
  La  La1  1  0.203030  0.983821  0.590257  1
  La  La2  1  0.985277  0.202652  0.090103  1
  La  La3  1  0.796613  0.017184  0.406117  1
  Nd  Nd4  1  0.357997  0.210457  0.817154  1
  Nd  Nd5  1  0.789422  0.642814  0.682610  1
  Nd  Nd6  1  0.641191  0.788456  0.183354  1
  Nd  Nd7  1  0.207617  0.359918  0.319421  1
  Nd  Nd8  1  0.570298  0.431253  0.747667  1
  Nd  Nd9  1  0.430267  0.569766  0.249744  1
  Os  Os10  1  0.169436  0.609292  0.579468  1
  Os  Os11  1  0.392888  0.828670  0.921796  1
  Os  Os12  1  0.829141  0.392357  0.420737  1
  Ru  Ru13  1  0.610575  0.165774  0.082029  1
