# generated using pymatgen
data_DyErZr2(Al8Pt3)3
_symmetry_space_group_name_H-M   'P 1'
_cell_length_a   7.49955041
_cell_length_b   7.50414307
_cell_length_c   13.03717172
_cell_angle_alpha   84.41571478
_cell_angle_beta   101.04859788
_cell_angle_gamma   119.92870737
_symmetry_Int_Tables_number   1
_chemical_formula_structural   DyErZr2(Al8Pt3)3
_chemical_formula_sum   'Dy1 Er1 Zr2 Al24 Pt9'
_cell_volume   624.07365001
_cell_formula_units_Z   1
loop_
 _symmetry_equiv_pos_site_id
 _symmetry_equiv_pos_as_xyz
  1  'x, y, z'
loop_
 _atom_site_type_symbol
 _atom_site_label
 _atom_site_symmetry_multiplicity
 _atom_site_fract_x
 _atom_site_fract_y
 _atom_site_fract_z
 _atom_site_occupancy
  Dy  Dy0  1  0.062079  0.667999  0.191913  1
  Er  Er1  1  0.937874  0.331973  0.807886  1
  Zr  Zr2  1  0.731837  0.999879  0.190305  1
  Zr  Zr3  1  0.268202  0.000167  0.809673  1
  Al  Al4  1  0.811993  0.869476  0.815233  1
  Al  Al5  1  0.188066  0.130810  0.184776  1
  Al  Al6  1  0.983789  0.668649  0.942217  1
  Al  Al7  1  0.016102  0.331109  0.057519  1
  Al  Al8  1  0.398638  0.669056  0.816504  1
  Al  Al9  1  0.601068  0.330694  0.183495  1
  Al  Al10  1  0.885145  0.667241  0.673038  1
  Al  Al11  1  0.114878  0.332531  0.327086  1
  Al  Al12  1  0.597799  0.452895  0.815781  1
  Al  Al13  1  0.402425  0.547053  0.184214  1
  Al  Al14  1  0.230233  0.337658  0.671536  1
  Al  Al15  1  0.769601  0.662347  0.328610  1
  Al  Al16  1  0.852706  0.333101  0.559524  1
  Al  Al17  1  0.186891  0.999635  0.560920  1
  Al  Al18  1  0.813114  0.000374  0.439102  1
  Al  Al19  1  0.354512  0.998549  0.056495  1
  Al  Al20  1  0.645702  0.001674  0.943349  1
  Al  Al21  1  0.554505  0.993448  0.673200  1
  Al  Al22  1  0.445735  0.006757  0.326932  1
  Al  Al23  1  0.521286  0.667214  0.562953  1
  Al  Al24  1  0.478732  0.332777  0.437065  1
  Al  Al25  1  0.683915  0.670136  0.048747  1
  Al  Al26  1  0.315837  0.329916  0.951101  1
  Al  Al27  1  0.147293  0.666885  0.440569  1
  Pt  Pt28  1  0.327398  0.670787  0.000059  1
  Pt  Pt29  1  0.545759  0.323986  0.637584  1
  Pt  Pt30  1  0.454483  0.675997  0.362557  1
  Pt  Pt31  1  0.888238  0.009171  0.638811  1
  Pt  Pt32  1  0.111821  0.991086  0.361347  1
  Pt  Pt33  1  0.672567  0.329139  0.999832  1
  Pt  Pt34  1  0.202906  0.666021  0.639363  1
  Pt  Pt35  1  0.796863  0.333727  0.360752  1
  Pt  Pt36  1  0.000010  0.000084  0.999950  1
