# generated using pymatgen
data_Cd4CoIr3O14
_symmetry_space_group_name_H-M   'P 1'
_cell_length_a   7.25409104
_cell_length_b   7.25409106
_cell_length_c   7.12289213
_cell_angle_alpha   59.38880048
_cell_angle_beta   59.38879878
_cell_angle_gamma   59.99999594
_symmetry_Int_Tables_number   1
_chemical_formula_structural   Cd4CoIr3O14
_chemical_formula_sum   'Cd4 Co1 Ir3 O14'
_cell_volume   262.56257827
_cell_formula_units_Z   1
loop_
 _symmetry_equiv_pos_site_id
 _symmetry_equiv_pos_as_xyz
  1  'x, y, z'
loop_
 _atom_site_type_symbol
 _atom_site_label
 _atom_site_symmetry_multiplicity
 _atom_site_fract_x
 _atom_site_fract_y
 _atom_site_fract_z
 _atom_site_occupancy
  Cd  Cd0  1  0.125000  0.125000  0.125000  1
  Cd  Cd1  1  0.625000  0.125000  0.125000  1
  Cd  Cd2  1  0.125000  0.625000  0.125000  1
  Cd  Cd3  1  0.125000  0.125000  0.625000  1
  Co  Co4  1  0.625000  0.625000  0.125000  1
  Ir  Ir5  1  0.625000  0.625000  0.625000  1
  Ir  Ir6  1  0.125000  0.625000  0.625000  1
  Ir  Ir7  1  0.625000  0.125000  0.625000  1
  O  O8  1  0.252228  0.252228  0.243317  1
  O  O9  1  0.997772  0.997772  0.006683  1
  O  O10  1  0.546679  0.949613  0.554095  1
  O  O11  1  0.306833  0.696317  0.300532  1
  O  O12  1  0.553683  0.553683  0.949468  1
  O  O13  1  0.949613  0.546679  0.554095  1
  O  O14  1  0.553683  0.943167  0.949468  1
  O  O15  1  0.949613  0.949613  0.554095  1
  O  O16  1  0.943167  0.553683  0.949468  1
  O  O17  1  0.696317  0.306833  0.300532  1
  O  O18  1  0.300387  0.703321  0.695905  1
  O  O19  1  0.703321  0.300387  0.695905  1
  O  O20  1  0.300387  0.300387  0.695905  1
  O  O21  1  0.696317  0.696317  0.300532  1
