# generated using pymatgen
data_Ac2LuMgSn2
_symmetry_space_group_name_H-M   'P 1'
_cell_length_a   9.25937994
_cell_length_b   9.25937946
_cell_length_c   9.25938017
_cell_angle_alpha   150.50670492
_cell_angle_beta   150.08002460
_cell_angle_gamma   42.51197196
_symmetry_Int_Tables_number   1
_chemical_formula_structural   Ac2LuMgSn2
_chemical_formula_sum   'Ac2 Lu1 Mg1 Sn2'
_cell_volume   194.46237233
_cell_formula_units_Z   1
loop_
 _symmetry_equiv_pos_site_id
 _symmetry_equiv_pos_as_xyz
  1  'x, y, z'
loop_
 _atom_site_type_symbol
 _atom_site_label
 _atom_site_symmetry_multiplicity
 _atom_site_fract_x
 _atom_site_fract_y
 _atom_site_fract_z
 _atom_site_occupancy
  Ac  Ac0  1  0.670112  0.670112  0.000000  1
  Ac  Ac1  1  0.329888  0.329888  0.000000  1
  Lu  Lu2  1  0.000000  0.500000  0.500000  1
  Mg  Mg3  1  0.500000  0.000000  0.500000  1
  Sn  Sn4  1  0.876592  0.876592  0.000000  1
  Sn  Sn5  1  0.123408  0.123408  0.000000  1
