# generated using pymatgen
data_Pr4Ga18Ir3Pd2Ru
_symmetry_space_group_name_H-M   'P 1'
_cell_length_a   7.70527107
_cell_length_b   7.70567853
_cell_length_c   9.68973450
_cell_angle_alpha   89.97899559
_cell_angle_beta   89.98474664
_cell_angle_gamma   119.46822338
_symmetry_Int_Tables_number   1
_chemical_formula_structural   Pr4Ga18Ir3Pd2Ru
_chemical_formula_sum   'Pr4 Ga18 Ir3 Pd2 Ru1'
_cell_volume   500.89138302
_cell_formula_units_Z   1
loop_
 _symmetry_equiv_pos_site_id
 _symmetry_equiv_pos_as_xyz
  1  'x, y, z'
loop_
 _atom_site_type_symbol
 _atom_site_label
 _atom_site_symmetry_multiplicity
 _atom_site_fract_x
 _atom_site_fract_y
 _atom_site_fract_z
 _atom_site_occupancy
  Pr  Pr0  1  0.998178  0.673058  0.249894  1
  Pr  Pr1  1  0.003126  0.328111  0.750400  1
  Pr  Pr2  1  0.671858  0.996842  0.249595  1
  Pr  Pr3  1  0.326934  0.001816  0.750106  1
  Ga  Ga4  1  0.133696  0.134326  0.250191  1
  Ga  Ga5  1  0.865752  0.866380  0.749908  1
  Ga  Ga6  1  0.002702  0.339275  0.078925  1
  Ga  Ga7  1  0.996603  0.661298  0.920977  1
  Ga  Ga8  1  0.995126  0.658464  0.577266  1
  Ga  Ga9  1  0.341524  0.004864  0.422703  1
  Ga  Ga10  1  0.000608  0.339487  0.422452  1
  Ga  Ga11  1  0.660493  0.999387  0.577518  1
  Ga  Ga12  1  0.660764  0.997290  0.921065  1
  Ga  Ga13  1  0.338729  0.003384  0.079012  1
  Ga  Ga14  1  0.340830  0.338278  0.559380  1
  Ga  Ga15  1  0.661705  0.659151  0.440587  1
  Ga  Ga16  1  0.661087  0.661286  0.061392  1
  Ga  Ga17  1  0.338697  0.338894  0.938588  1
  Ga  Ga18  1  0.337401  0.545736  0.250276  1
  Ga  Ga19  1  0.661735  0.450796  0.748331  1
  Ga  Ga20  1  0.549195  0.338254  0.251646  1
  Ga  Ga21  1  0.454258  0.662588  0.749699  1
  Ir  Ir22  1  0.670977  0.329006  0.999988  1
  Ir  Ir23  1  0.328523  0.671475  0.999985  1
  Ir  Ir24  1  0.328629  0.671348  0.499985  1
  Pd  Pd25  1  0.999617  0.000473  0.000165  1
  Pd  Pd26  1  0.999695  0.000303  0.499976  1
  Ru  Ru27  1  0.671558  0.328431  0.499992  1
