# generated using pymatgen
data_Er3Sc2InPb2
_symmetry_space_group_name_H-M   'P 1'
_cell_length_a   8.83544656
_cell_length_b   8.84454468
_cell_length_c   6.35535600
_cell_angle_alpha   90.00000000
_cell_angle_beta   90.00000000
_cell_angle_gamma   120.03407587
_symmetry_Int_Tables_number   1
_chemical_formula_structural   Er3Sc2InPb2
_chemical_formula_sum   'Er6 Sc4 In2 Pb4'
_cell_volume   429.95724644
_cell_formula_units_Z   2
loop_
 _symmetry_equiv_pos_site_id
 _symmetry_equiv_pos_as_xyz
  1  'x, y, z'
loop_
 _atom_site_type_symbol
 _atom_site_label
 _atom_site_symmetry_multiplicity
 _atom_site_fract_x
 _atom_site_fract_y
 _atom_site_fract_z
 _atom_site_occupancy
  Er  Er0  1  0.238510  0.000102  0.250000  1
  Er  Er1  1  0.238510  0.238408  0.750000  1
  Er  Er2  1  0.996991  0.762235  0.750000  1
  Er  Er3  1  0.996991  0.234757  0.250000  1
  Er  Er4  1  0.762115  0.765090  0.250000  1
  Er  Er5  1  0.762115  0.997025  0.750000  1
  Sc  Sc6  1  0.335987  0.667994  0.000000  1
  Sc  Sc7  1  0.666146  0.333073  0.500000  1
  Sc  Sc8  1  0.666146  0.333073  0.000000  1
  Sc  Sc9  1  0.335987  0.667994  0.500000  1
  In  In10  1  0.599386  0.000567  0.250000  1
  In  In11  1  0.599386  0.598819  0.750000  1
  Pb  Pb12  1  0.000654  0.399238  0.750000  1
  Pb  Pb13  1  0.000654  0.601416  0.250000  1
  Pb  Pb14  1  0.400210  0.400257  0.250000  1
  Pb  Pb15  1  0.400210  0.999954  0.750000  1
