# generated using pymatgen
data_Ca10PdRh
_symmetry_space_group_name_H-M   'P 1'
_cell_length_a   6.88457979
_cell_length_b   7.53289608
_cell_length_c   16.16525200
_cell_angle_alpha   90.00000000
_cell_angle_beta   90.00000000
_cell_angle_gamma   89.71097560
_symmetry_Int_Tables_number   1
_chemical_formula_structural   Ca10PdRh
_chemical_formula_sum   'Ca20 Pd2 Rh2'
_cell_volume   838.33262431
_cell_formula_units_Z   2
loop_
 _symmetry_equiv_pos_site_id
 _symmetry_equiv_pos_as_xyz
  1  'x, y, z'
loop_
 _atom_site_type_symbol
 _atom_site_label
 _atom_site_symmetry_multiplicity
 _atom_site_fract_x
 _atom_site_fract_y
 _atom_site_fract_z
 _atom_site_occupancy
  Ca  Ca0  1  0.352499  0.310503  0.060744  1
  Ca  Ca1  1  0.647501  0.689497  0.939256  1
  Ca  Ca2  1  0.852254  0.189532  0.936604  1
  Ca  Ca3  1  0.647501  0.689497  0.560744  1
  Ca  Ca4  1  0.147746  0.810468  0.063396  1
  Ca  Ca5  1  0.352499  0.310503  0.439256  1
  Ca  Ca6  1  0.147746  0.810468  0.436604  1
  Ca  Ca7  1  0.852254  0.189532  0.563396  1
  Ca  Ca8  1  0.149713  0.091545  0.250000  1
  Ca  Ca9  1  0.850287  0.908455  0.750000  1
  Ca  Ca10  1  0.661133  0.399936  0.750000  1
  Ca  Ca11  1  0.338867  0.600064  0.250000  1
  Ca  Ca12  1  0.321328  0.042166  0.643213  1
  Ca  Ca13  1  0.678672  0.957834  0.356787  1
  Ca  Ca14  1  0.828357  0.467402  0.356636  1
  Ca  Ca15  1  0.678672  0.957834  0.143213  1
  Ca  Ca16  1  0.171643  0.532598  0.643364  1
  Ca  Ca17  1  0.321328  0.042166  0.856787  1
  Ca  Ca18  1  0.171643  0.532598  0.856636  1
  Ca  Ca19  1  0.828357  0.467402  0.143364  1
  Pd  Pd20  1  0.539583  0.258979  0.250000  1
  Pd  Pd21  1  0.460417  0.741021  0.750000  1
  Rh  Rh22  1  0.038582  0.239745  0.750000  1
  Rh  Rh23  1  0.961418  0.760255  0.250000  1
