# generated using pymatgen
data_BaP3Pd2
_symmetry_space_group_name_H-M   'P 1'
_cell_length_a   5.84516400
_cell_length_b   8.57004664
_cell_length_c   11.64669371
_cell_angle_alpha   72.64730975
_cell_angle_beta   90.00000000
_cell_angle_gamma   90.00000000
_symmetry_Int_Tables_number   1
_chemical_formula_structural   BaP3Pd2
_chemical_formula_sum   'Ba4 P12 Pd8'
_cell_volume   556.86833590
_cell_formula_units_Z   4
loop_
 _symmetry_equiv_pos_site_id
 _symmetry_equiv_pos_as_xyz
  1  'x, y, z'
loop_
 _atom_site_type_symbol
 _atom_site_label
 _atom_site_symmetry_multiplicity
 _atom_site_fract_x
 _atom_site_fract_y
 _atom_site_fract_z
 _atom_site_occupancy
  Ba  Ba0  1  0.079102  0.760210  0.352578  1
  Ba  Ba1  1  0.920898  0.239790  0.647422  1
  Ba  Ba2  1  0.579102  0.239790  0.147422  1
  Ba  Ba3  1  0.420898  0.760210  0.852578  1
  P  P4  1  0.391540  0.275905  0.418540  1
  P  P5  1  0.891540  0.724095  0.081460  1
  P  P6  1  0.608460  0.724095  0.581460  1
  P  P7  1  0.108460  0.275905  0.918540  1
  P  P8  1  0.882843  0.068390  0.428481  1
  P  P9  1  0.382843  0.931610  0.071519  1
  P  P10  1  0.117157  0.931610  0.571519  1
  P  P11  1  0.841316  0.451275  0.826860  1
  P  P12  1  0.658684  0.451275  0.326860  1
  P  P13  1  0.158684  0.548725  0.173140  1
  P  P14  1  0.341316  0.548725  0.673140  1
  P  P15  1  0.617157  0.068390  0.928481  1
  Pd  Pd16  1  0.500000  0.000000  0.500000  1
  Pd  Pd17  1  0.000000  0.500000  0.000000  1
  Pd  Pd18  1  0.500000  0.500000  0.500000  1
  Pd  Pd19  1  0.000000  0.000000  0.000000  1
  Pd  Pd20  1  0.477335  0.336171  0.836579  1
  Pd  Pd21  1  0.977335  0.663829  0.663421  1
  Pd  Pd22  1  0.522665  0.663829  0.163421  1
  Pd  Pd23  1  0.022665  0.336171  0.336579  1
