# generated using pymatgen
data_Nd6PtBrCl9
_symmetry_space_group_name_H-M   'P 1'
_cell_length_a   7.40771945
_cell_length_b   9.29253032
_cell_length_c   9.32954482
_cell_angle_alpha   108.93109528
_cell_angle_beta   96.56433250
_cell_angle_gamma   106.18944855
_symmetry_Int_Tables_number   1
_chemical_formula_structural   Nd6PtBrCl9
_chemical_formula_sum   'Nd6 Pt1 Br1 Cl9'
_cell_volume   568.36990153
_cell_formula_units_Z   1
loop_
 _symmetry_equiv_pos_site_id
 _symmetry_equiv_pos_as_xyz
  1  'x, y, z'
loop_
 _atom_site_type_symbol
 _atom_site_label
 _atom_site_symmetry_multiplicity
 _atom_site_fract_x
 _atom_site_fract_y
 _atom_site_fract_z
 _atom_site_occupancy
  Nd  Nd0  1  0.859798  0.945212  0.251776  1
  Nd  Nd1  1  0.142323  0.059348  0.751495  1
  Nd  Nd2  1  0.373218  0.146679  0.195037  1
  Nd  Nd3  1  0.629927  0.855057  0.807062  1
  Nd  Nd4  1  0.967947  0.311270  0.103674  1
  Nd  Nd5  1  0.032961  0.690189  0.902207  1
  Pt  Pt6  1  0.001520  0.001120  0.001265  1
  Br  Br7  1  0.196155  0.732770  0.632199  1
  Cl  Cl8  1  0.349539  0.451460  0.266635  1
  Cl  Cl9  1  0.653635  0.550158  0.735453  1
  Cl  Cl10  1  0.915690  0.637159  0.167571  1
  Cl  Cl11  1  0.081298  0.365121  0.837398  1
  Cl  Cl12  1  0.453672  0.833498  0.076099  1
  Cl  Cl13  1  0.548087  0.167870  0.925682  1
  Cl  Cl14  1  0.238097  0.077936  0.446767  1
  Cl  Cl15  1  0.764527  0.926719  0.556338  1
  Cl  Cl16  1  0.791607  0.248435  0.343342  1
