# generated using pymatgen
data_Pr16Nd3SmSi16
_symmetry_space_group_name_H-M   'P 1'
_cell_length_a   7.91772501
_cell_length_b   7.91772501
_cell_length_c   15.33071400
_cell_angle_alpha   90.00170596
_cell_angle_beta   89.99829404
_cell_angle_gamma   89.99418195
_symmetry_Int_Tables_number   1
_chemical_formula_structural   Pr16Nd3SmSi16
_chemical_formula_sum   'Pr16 Nd3 Sm1 Si16'
_cell_volume   961.08811748
_cell_formula_units_Z   1
loop_
 _symmetry_equiv_pos_site_id
 _symmetry_equiv_pos_as_xyz
  1  'x, y, z'
loop_
 _atom_site_type_symbol
 _atom_site_label
 _atom_site_symmetry_multiplicity
 _atom_site_fract_x
 _atom_site_fract_y
 _atom_site_fract_z
 _atom_site_occupancy
  Pr  Pr0  1  0.480605  0.373446  0.126774  1
  Pr  Pr1  1  0.980615  0.126599  0.623213  1
  Pr  Pr2  1  0.873444  0.019265  0.876626  1
  Pr  Pr3  1  0.126599  0.980615  0.376787  1
  Pr  Pr4  1  0.519229  0.626806  0.626515  1
  Pr  Pr5  1  0.373446  0.480605  0.873226  1
  Pr  Pr6  1  0.626806  0.519229  0.373485  1
  Pr  Pr7  1  0.019265  0.873444  0.123374  1
  Pr  Pr8  1  0.621184  0.988283  0.447485  1
  Pr  Pr9  1  0.378800  0.011547  0.947492  1
  Pr  Pr10  1  0.988283  0.621184  0.552515  1
  Pr  Pr11  1  0.488408  0.878910  0.197457  1
  Pr  Pr12  1  0.511341  0.121415  0.697275  1
  Pr  Pr13  1  0.878910  0.488408  0.802543  1
  Pr  Pr14  1  0.121415  0.511341  0.302725  1
  Pr  Pr15  1  0.011547  0.378800  0.052508  1
  Nd  Nd16  1  0.191083  0.808956  0.750089  1
  Nd  Nd17  1  0.808956  0.191083  0.249911  1
  Nd  Nd18  1  0.691152  0.691152  0.000000  1
  Sm  Sm19  1  0.309471  0.309471  0.500000  1
  Si  Si20  1  0.287807  0.922157  0.559923  1
  Si  Si21  1  0.712532  0.079086  0.060223  1
  Si  Si22  1  0.922157  0.287807  0.440077  1
  Si  Si23  1  0.420127  0.213056  0.311182  1
  Si  Si24  1  0.578980  0.787469  0.810123  1
  Si  Si25  1  0.213056  0.420127  0.688818  1
  Si  Si26  1  0.787469  0.578980  0.189877  1
  Si  Si27  1  0.079086  0.712532  0.939777  1
  Si  Si28  1  0.805416  0.830828  0.703131  1
  Si  Si29  1  0.194648  0.169181  0.203405  1
  Si  Si30  1  0.830828  0.805416  0.296869  1
  Si  Si31  1  0.330293  0.693438  0.453507  1
  Si  Si32  1  0.668998  0.305428  0.953130  1
  Si  Si33  1  0.693438  0.330293  0.546493  1
  Si  Si34  1  0.305428  0.668998  0.046870  1
  Si  Si35  1  0.169181  0.194648  0.796595  1
