# generated using pymatgen
data_Cs6SmLu3Br18
_symmetry_space_group_name_H-M   'P 1'
_cell_length_a   10.43110364
_cell_length_b   10.43110291
_cell_length_c   10.43110339
_cell_angle_alpha   83.16343816
_cell_angle_beta   83.16343655
_cell_angle_gamma   83.16344752
_symmetry_Int_Tables_number   1
_chemical_formula_structural   Cs6SmLu3Br18
_chemical_formula_sum   'Cs6 Sm1 Lu3 Br18'
_cell_volume   1112.55537197
_cell_formula_units_Z   1
loop_
 _symmetry_equiv_pos_site_id
 _symmetry_equiv_pos_as_xyz
  1  'x, y, z'
loop_
 _atom_site_type_symbol
 _atom_site_label
 _atom_site_symmetry_multiplicity
 _atom_site_fract_x
 _atom_site_fract_y
 _atom_site_fract_z
 _atom_site_occupancy
  Cs  Cs0  1  0.588213  0.912096  0.249077  1
  Cs  Cs1  1  0.249077  0.588213  0.912096  1
  Cs  Cs2  1  0.912096  0.249077  0.588213  1
  Cs  Cs3  1  0.750164  0.411507  0.088804  1
  Cs  Cs4  1  0.088804  0.750164  0.411507  1
  Cs  Cs5  1  0.411507  0.088804  0.750164  1
  Sm  Sm6  1  0.651927  0.651927  0.651927  1
  Lu  Lu7  1  0.846795  0.846795  0.846795  1
  Lu  Lu8  1  0.345575  0.345575  0.345575  1
  Lu  Lu9  1  0.154283  0.154283  0.154283  1
  Br  Br10  1  0.097160  0.402954  0.249851  1
  Br  Br11  1  0.249851  0.097160  0.402954  1
  Br  Br12  1  0.402954  0.249851  0.097160  1
  Br  Br13  1  0.752715  0.909278  0.596910  1
  Br  Br14  1  0.596910  0.752715  0.909278  1
  Br  Br15  1  0.909278  0.596910  0.752715  1
  Br  Br16  1  0.236905  0.413806  0.575825  1
  Br  Br17  1  0.575825  0.236905  0.413806  1
  Br  Br18  1  0.413806  0.575825  0.236905  1
  Br  Br19  1  0.076239  0.914405  0.737038  1
  Br  Br20  1  0.737038  0.076239  0.914405  1
  Br  Br21  1  0.914405  0.737038  0.076239  1
  Br  Br22  1  0.768419  0.583218  0.413381  1
  Br  Br23  1  0.413381  0.768419  0.583218  1
  Br  Br24  1  0.583218  0.413381  0.768419  1
  Br  Br25  1  0.924110  0.086210  0.263134  1
  Br  Br26  1  0.263134  0.924110  0.086210  1
  Br  Br27  1  0.086210  0.263134  0.924110  1
