# generated using pymatgen
data_La5NbMoO12
_symmetry_space_group_name_H-M   'P 1'
_cell_length_a   7.22736487
_cell_length_b   7.22736384
_cell_length_c   7.82140590
_cell_angle_alpha   74.34036227
_cell_angle_beta   74.34036608
_cell_angle_gamma   50.91041793
_symmetry_Int_Tables_number   1
_chemical_formula_structural   La5NbMoO12
_chemical_formula_sum   'La5 Nb1 Mo1 O12'
_cell_volume   302.59954842
_cell_formula_units_Z   1
loop_
 _symmetry_equiv_pos_site_id
 _symmetry_equiv_pos_as_xyz
  1  'x, y, z'
loop_
 _atom_site_type_symbol
 _atom_site_label
 _atom_site_symmetry_multiplicity
 _atom_site_fract_x
 _atom_site_fract_y
 _atom_site_fract_z
 _atom_site_occupancy
  La  La0  1  0.302697  0.306980  0.359196  1
  La  La1  1  0.693020  0.697303  0.640804  1
  La  La2  1  0.306168  0.307600  0.832187  1
  La  La3  1  0.692400  0.693832  0.167813  1
  La  La4  1  0.999397  0.000603  0.500000  1
  Nb  Nb5  1  0.768250  0.231750  0.000000  1
  Mo  Mo6  1  0.248925  0.751075  0.000000  1
  O  O7  1  0.894116  0.424926  0.920521  1
  O  O8  1  0.423121  0.900076  0.919641  1
  O  O9  1  0.099924  0.576879  0.080359  1
  O  O10  1  0.575074  0.105884  0.079479  1
  O  O11  1  0.093730  0.597295  0.576733  1
  O  O12  1  0.597168  0.093992  0.576585  1
  O  O13  1  0.906008  0.402832  0.423415  1
  O  O14  1  0.402705  0.906270  0.423267  1
  O  O15  1  0.992691  0.009503  0.819782  1
  O  O16  1  0.990497  0.007309  0.180218  1
  O  O17  1  0.506122  0.492010  0.825788  1
  O  O18  1  0.507990  0.493878  0.174212  1
