# generated using pymatgen
data_FeSe(ClO)2
_symmetry_space_group_name_H-M   'P 1'
_cell_length_a   5.82066807
_cell_length_b   13.59773724
_cell_length_c   7.47856267
_cell_angle_alpha   89.95299697
_cell_angle_beta   89.94263155
_cell_angle_gamma   121.53669099
_symmetry_Int_Tables_number   1
_chemical_formula_structural   FeSe(ClO)2
_chemical_formula_sum   'Fe4 Se4 Cl8 O8'
_cell_volume   504.48945683
_cell_formula_units_Z   4
loop_
 _symmetry_equiv_pos_site_id
 _symmetry_equiv_pos_as_xyz
  1  'x, y, z'
loop_
 _atom_site_type_symbol
 _atom_site_label
 _atom_site_symmetry_multiplicity
 _atom_site_fract_x
 _atom_site_fract_y
 _atom_site_fract_z
 _atom_site_occupancy
  Fe  Fe0  1  0.499952  0.499982  0.000269  1
  Fe  Fe1  1  0.000517  0.000122  0.499916  1
  Fe  Fe2  1  0.999739  0.999891  0.999691  1
  Fe  Fe3  1  0.499911  0.499998  0.500328  1
  Se  Se4  1  0.575096  0.191677  0.249497  1
  Se  Se5  1  0.074632  0.691521  0.249861  1
  Se  Se6  1  0.924820  0.308287  0.750417  1
  Se  Se7  1  0.425284  0.808450  0.749958  1
  Cl  Cl8  1  0.503456  0.374123  0.250182  1
  Cl  Cl9  1  0.003951  0.874274  0.249838  1
  Cl  Cl10  1  0.688765  0.435855  0.750324  1
  Cl  Cl11  1  0.189468  0.936098  0.749935  1
  Cl  Cl12  1  0.811326  0.064161  0.249717  1
  Cl  Cl13  1  0.310685  0.563944  0.250092  1
  Cl  Cl14  1  0.996617  0.125926  0.749871  1
  Cl  Cl15  1  0.496141  0.625784  0.750172  1
  O  O16  1  0.391053  0.130652  0.066251  1
  O  O17  1  0.890827  0.630564  0.066535  1
  O  O18  1  0.391217  0.130593  0.433295  1
  O  O19  1  0.890426  0.630418  0.433545  1
  O  O20  1  0.108848  0.369433  0.566726  1
  O  O21  1  0.609627  0.869613  0.566440  1
  O  O22  1  0.108704  0.369271  0.933727  1
  O  O23  1  0.608938  0.869364  0.933413  1
