# generated using pymatgen
data_Y14Ho2Tl3InRh4
_symmetry_space_group_name_H-M   'P 1'
_cell_length_a   9.71939548
_cell_length_b   9.72854543
_cell_length_c   9.71939686
_cell_angle_alpha   59.87749729
_cell_angle_beta   59.87068924
_cell_angle_gamma   59.87750222
_symmetry_Int_Tables_number   1
_chemical_formula_structural   Y14Ho2Tl3InRh4
_chemical_formula_sum   'Y14 Ho2 Tl3 In1 Rh4'
_cell_volume   648.00777553
_cell_formula_units_Z   1
loop_
 _symmetry_equiv_pos_site_id
 _symmetry_equiv_pos_as_xyz
  1  'x, y, z'
loop_
 _atom_site_type_symbol
 _atom_site_label
 _atom_site_symmetry_multiplicity
 _atom_site_fract_x
 _atom_site_fract_y
 _atom_site_fract_z
 _atom_site_occupancy
  Y  Y0  1  0.189169  0.190082  0.811336  1
  Y  Y1  1  0.601993  0.601396  0.198390  1
  Y  Y2  1  0.439224  0.059678  0.439224  1
  Y  Y3  1  0.440055  0.438419  0.059654  1
  Y  Y4  1  0.810943  0.190470  0.810943  1
  Y  Y5  1  0.189747  0.811529  0.189747  1
  Y  Y6  1  0.438370  0.061030  0.060984  1
  Y  Y7  1  0.189750  0.811306  0.811018  1
  Y  Y8  1  0.060979  0.437493  0.060979  1
  Y  Y9  1  0.811018  0.811306  0.189750  1
  Y  Y10  1  0.198390  0.601396  0.601993  1
  Y  Y11  1  0.059654  0.438419  0.440055  1
  Y  Y12  1  0.060984  0.061030  0.438370  1
  Y  Y13  1  0.811336  0.190082  0.189169  1
  Ho  Ho14  1  0.600840  0.201034  0.600840  1
  Ho  Ho15  1  0.598230  0.597617  0.598230  1
  Tl  Tl16  1  0.836374  0.835283  0.836374  1
  Tl  Tl17  1  0.835017  0.834101  0.493623  1
  Tl  Tl18  1  0.493623  0.834101  0.835017  1
  In  In19  1  0.833137  0.498872  0.833137  1
  Rh  Rh20  1  0.393011  0.821241  0.393011  1
  Rh  Rh21  1  0.393655  0.391004  0.393655  1
  Rh  Rh22  1  0.820274  0.391555  0.394226  1
  Rh  Rh23  1  0.394226  0.391555  0.820274  1
