# generated using pymatgen
data_Te4Ir2Pd
_symmetry_space_group_name_H-M   'P 1'
_cell_length_a   7.92129724
_cell_length_b   7.92129750
_cell_length_c   7.92129700
_cell_angle_alpha   60.00000625
_cell_angle_beta   60.00000518
_cell_angle_gamma   90.00000181
_symmetry_Int_Tables_number   1
_chemical_formula_structural   Te4Ir2Pd
_chemical_formula_sum   'Te8 Ir4 Pd2'
_cell_volume   351.45845998
_cell_formula_units_Z   2
loop_
 _symmetry_equiv_pos_site_id
 _symmetry_equiv_pos_as_xyz
  1  'x, y, z'
loop_
 _atom_site_type_symbol
 _atom_site_label
 _atom_site_symmetry_multiplicity
 _atom_site_fract_x
 _atom_site_fract_y
 _atom_site_fract_z
 _atom_site_occupancy
  Te  Te0  1  0.262013  0.737988  0.024026  1
  Te  Te1  1  0.713960  0.737988  0.024026  1
  Te  Te2  1  0.262014  0.286041  0.475973  1
  Te  Te3  1  0.262014  0.737988  0.475973  1
  Te  Te4  1  0.737988  0.262015  0.524026  1
  Te  Te5  1  0.737988  0.713962  0.524026  1
  Te  Te6  1  0.737988  0.262014  0.975973  1
  Te  Te7  1  0.286040  0.262014  0.975973  1
  Ir  Ir8  1  0.500001  0.000000  0.000000  1
  Ir  Ir9  1  0.499999  0.499999  0.000000  1
  Ir  Ir10  1  0.500000  0.500000  0.500000  1
  Ir  Ir11  1  0.000000  0.500001  0.500000  1
  Pd  Pd12  1  0.875001  0.125000  0.250001  1
  Pd  Pd13  1  0.125001  0.875001  0.749999  1
