# generated using pymatgen
data_Tm10In6Se
_symmetry_space_group_name_H-M   'P 1'
_cell_length_a   9.00072900
_cell_length_b   9.00073101
_cell_length_c   6.56158100
_cell_angle_alpha   90.00000000
_cell_angle_beta   90.00000000
_cell_angle_gamma   119.99999628
_symmetry_Int_Tables_number   1
_chemical_formula_structural   Tm10In6Se
_chemical_formula_sum   'Tm10 In6 Se1'
_cell_volume   460.35685146
_cell_formula_units_Z   1
loop_
 _symmetry_equiv_pos_site_id
 _symmetry_equiv_pos_as_xyz
  1  'x, y, z'
loop_
 _atom_site_type_symbol
 _atom_site_label
 _atom_site_symmetry_multiplicity
 _atom_site_fract_x
 _atom_site_fract_y
 _atom_site_fract_z
 _atom_site_occupancy
  Tm  Tm0  1  0.666667  0.333333  0.500000  1
  Tm  Tm1  1  0.333333  0.666667  0.500000  1
  Tm  Tm2  1  0.333333  0.666667  0.000000  1
  Tm  Tm3  1  0.666667  0.333333  0.000000  1
  Tm  Tm4  1  0.747982  0.747982  0.243247  1
  Tm  Tm5  1  0.252018  0.000000  0.243247  1
  Tm  Tm6  1  0.000000  0.252018  0.243247  1
  Tm  Tm7  1  0.252018  0.252018  0.756753  1
  Tm  Tm8  1  0.747982  0.000000  0.756753  1
  Tm  Tm9  1  0.000000  0.747982  0.756753  1
  In  In10  1  0.396063  0.396063  0.248311  1
  In  In11  1  0.603937  0.000000  0.248311  1
  In  In12  1  0.000000  0.603937  0.248311  1
  In  In13  1  0.603937  0.603937  0.751689  1
  In  In14  1  0.396063  0.000000  0.751689  1
  In  In15  1  0.000000  0.396063  0.751689  1
  Se  Se16  1  0.000000  0.000000  0.500000  1
