# generated using pymatgen
data_Pr2Hg5
_symmetry_space_group_name_H-M   'P 1'
_cell_length_a   18.91990617
_cell_length_b   18.91990622
_cell_length_c   5.18022800
_cell_angle_alpha   90.00000000
_cell_angle_beta   90.00000000
_cell_angle_gamma   168.30535899
_symmetry_Int_Tables_number   1
_chemical_formula_structural   Pr2Hg5
_chemical_formula_sum   'Pr4 Hg10'
_cell_volume   375.86456219
_cell_formula_units_Z   2
loop_
 _symmetry_equiv_pos_site_id
 _symmetry_equiv_pos_as_xyz
  1  'x, y, z'
loop_
 _atom_site_type_symbol
 _atom_site_label
 _atom_site_symmetry_multiplicity
 _atom_site_fract_x
 _atom_site_fract_y
 _atom_site_fract_z
 _atom_site_occupancy
  Pr  Pr0  1  0.930515  0.069485  0.500000  1
  Pr  Pr1  1  0.069485  0.930515  0.500000  1
  Pr  Pr2  1  0.793867  0.206133  0.500000  1
  Pr  Pr3  1  0.206133  0.793867  0.500000  1
  Hg  Hg4  1  0.638021  0.361979  0.500000  1
  Hg  Hg5  1  0.361979  0.638021  0.500000  1
  Hg  Hg6  1  0.717896  0.282104  0.000000  1
  Hg  Hg7  1  0.282104  0.717896  0.000000  1
  Hg  Hg8  1  0.500000  0.500000  0.500000  1
  Hg  Hg9  1  0.568794  0.431206  0.000000  1
  Hg  Hg10  1  0.431206  0.568794  0.000000  1
  Hg  Hg11  1  0.853420  0.146580  0.000000  1
  Hg  Hg12  1  0.146580  0.853420  0.000000  1
  Hg  Hg13  1  0.000000  0.000000  0.000000  1
