# generated using pymatgen
data_Dy4Hf3TcF28
_symmetry_space_group_name_H-M   'P 1'
_cell_length_a   5.67296096
_cell_length_b   9.00922383
_cell_length_c   12.12400640
_cell_angle_alpha   62.42790611
_cell_angle_beta   89.95474280
_cell_angle_gamma   89.98337499
_symmetry_Int_Tables_number   1
_chemical_formula_structural   Dy4Hf3TcF28
_chemical_formula_sum   'Dy4 Hf3 Tc1 F28'
_cell_volume   549.27168045
_cell_formula_units_Z   1
loop_
 _symmetry_equiv_pos_site_id
 _symmetry_equiv_pos_as_xyz
  1  'x, y, z'
loop_
 _atom_site_type_symbol
 _atom_site_label
 _atom_site_symmetry_multiplicity
 _atom_site_fract_x
 _atom_site_fract_y
 _atom_site_fract_z
 _atom_site_occupancy
  Dy  Dy0  1  0.757641  0.815563  0.765164  1
  Dy  Dy1  1  0.257460  0.185557  0.732254  1
  Dy  Dy2  1  0.241681  0.185178  0.237534  1
  Dy  Dy3  1  0.743367  0.814033  0.266604  1
  Hf  Hf4  1  0.756041  0.273395  0.956370  1
  Hf  Hf5  1  0.256388  0.725670  0.544050  1
  Hf  Hf6  1  0.244377  0.725981  0.044551  1
  Tc  Tc7  1  0.741462  0.273457  0.455606  1
  F  F8  1  0.460560  0.709344  0.920122  1
  F  F9  1  0.940068  0.292095  0.581110  1
  F  F10  1  0.537229  0.289574  0.080086  1
  F  F11  1  0.040761  0.710289  0.419479  1
  F  F12  1  0.449218  0.277923  0.543091  1
  F  F13  1  0.950891  0.723362  0.950993  1
  F  F14  1  0.550486  0.719076  0.452741  1
  F  F15  1  0.047966  0.276502  0.050634  1
  F  F16  1  0.773759  0.523212  0.860380  1
  F  F17  1  0.269729  0.475389  0.639054  1
  F  F18  1  0.224698  0.476166  0.141575  1
  F  F19  1  0.729118  0.519005  0.358919  1
  F  F20  1  0.758652  0.023722  0.057727  1
  F  F21  1  0.260897  0.975445  0.444420  1
  F  F22  1  0.242495  0.975362  0.941364  1
  F  F23  1  0.742926  0.028289  0.551224  1
  F  F24  1  0.981895  0.731450  0.646381  1
  F  F25  1  0.484905  0.267746  0.852230  1
  F  F26  1  0.022582  0.270740  0.361457  1
  F  F27  1  0.518119  0.731540  0.146766  1
  F  F28  1  0.039064  0.747605  0.172366  1
  F  F29  1  0.547683  0.255995  0.326273  1
  F  F30  1  0.965888  0.253313  0.828866  1
  F  F31  1  0.463876  0.745118  0.672300  1
  F  F32  1  0.422055  0.971682  0.235000  1
  F  F33  1  0.921746  0.028893  0.268735  1
  F  F34  1  0.576710  0.029717  0.764283  1
  F  F35  1  0.077605  0.972612  0.730295  1
