# generated using pymatgen
data_Nd2Gd4TaWO14
_symmetry_space_group_name_H-M   'P 1'
_cell_length_a   6.57481065
_cell_length_b   6.57481141
_cell_length_c   7.67953490
_cell_angle_alpha   89.75259685
_cell_angle_beta   90.24740839
_cell_angle_gamma   109.60805776
_symmetry_Int_Tables_number   1
_chemical_formula_structural   Nd2Gd4TaWO14
_chemical_formula_sum   'Nd2 Gd4 Ta1 W1 O14'
_cell_volume   312.71667649
_cell_formula_units_Z   1
loop_
 _symmetry_equiv_pos_site_id
 _symmetry_equiv_pos_as_xyz
  1  'x, y, z'
loop_
 _atom_site_type_symbol
 _atom_site_label
 _atom_site_symmetry_multiplicity
 _atom_site_fract_x
 _atom_site_fract_y
 _atom_site_fract_z
 _atom_site_occupancy
  Nd  Nd0  1  0.500000  0.500000  0.500000  1
  Nd  Nd1  1  0.500000  0.500000  0.000000  1
  Gd  Gd2  1  0.000234  0.532661  0.249551  1
  Gd  Gd3  1  0.999766  0.467339  0.750449  1
  Gd  Gd4  1  0.532661  0.000234  0.750449  1
  Gd  Gd5  1  0.467339  0.999766  0.249551  1
  Ta  Ta6  1  0.000000  0.000000  0.000000  1
  W  W7  1  0.000000  0.000000  0.500000  1
  O  O8  1  0.936751  0.063249  0.750348  1
  O  O9  1  0.063249  0.936751  0.249652  1
  O  O10  1  0.360132  0.639868  0.249306  1
  O  O11  1  0.639868  0.360132  0.750694  1
  O  O12  1  0.366264  0.633736  0.749998  1
  O  O13  1  0.633736  0.366264  0.250002  1
  O  O14  1  0.317591  0.069796  0.969009  1
  O  O15  1  0.680360  0.927374  0.472339  1
  O  O16  1  0.319640  0.072626  0.527661  1
  O  O17  1  0.682409  0.930204  0.030991  1
  O  O18  1  0.072626  0.319640  0.472339  1
  O  O19  1  0.930204  0.682409  0.969009  1
  O  O20  1  0.927374  0.680360  0.527661  1
  O  O21  1  0.069796  0.317591  0.030991  1
