# generated using pymatgen
data_MgOsI18
_symmetry_space_group_name_H-M   'P 1'
_cell_length_a   10.16270144
_cell_length_b   10.16270078
_cell_length_c   10.16270272
_cell_angle_alpha   92.60823489
_cell_angle_beta   92.60824024
_cell_angle_gamma   92.60824570
_symmetry_Int_Tables_number   1
_chemical_formula_structural   MgOsI18
_chemical_formula_sum   'Mg1 Os1 I18'
_cell_volume   1046.24426711
_cell_formula_units_Z   1
loop_
 _symmetry_equiv_pos_site_id
 _symmetry_equiv_pos_as_xyz
  1  'x, y, z'
loop_
 _atom_site_type_symbol
 _atom_site_label
 _atom_site_symmetry_multiplicity
 _atom_site_fract_x
 _atom_site_fract_y
 _atom_site_fract_z
 _atom_site_occupancy
  Mg  Mg0  1  0.000000  0.000000  0.000000  1
  Os  Os1  1  0.500000  0.500000  0.500000  1
  I  I2  1  0.745702  0.135097  0.607786  1
  I  I3  1  0.985194  0.029894  0.715324  1
  I  I4  1  0.607786  0.745702  0.135097  1
  I  I5  1  0.970106  0.284676  0.014806  1
  I  I6  1  0.715324  0.985194  0.029894  1
  I  I7  1  0.029894  0.715324  0.985194  1
  I  I8  1  0.014806  0.970106  0.284676  1
  I  I9  1  0.864903  0.392214  0.254298  1
  I  I10  1  0.284676  0.014806  0.970106  1
  I  I11  1  0.254298  0.864903  0.392214  1
  I  I12  1  0.135097  0.607786  0.745702  1
  I  I13  1  0.392214  0.254298  0.864903  1
  I  I14  1  0.764575  0.530014  0.493777  1
  I  I15  1  0.530014  0.493777  0.764575  1
  I  I16  1  0.235425  0.469986  0.506223  1
  I  I17  1  0.469986  0.506223  0.235425  1
  I  I18  1  0.493777  0.764575  0.530014  1
  I  I19  1  0.506223  0.235425  0.469986  1
