# generated using pymatgen
data_Tb2Ho8AlSb5
_symmetry_space_group_name_H-M   'P 1'
_cell_length_a   8.92817000
_cell_length_b   8.91122031
_cell_length_c   6.36214300
_cell_angle_alpha   90.00000000
_cell_angle_beta   90.00000000
_cell_angle_gamma   120.06293968
_symmetry_Int_Tables_number   1
_chemical_formula_structural   Tb2Ho8AlSb5
_chemical_formula_sum   'Tb2 Ho8 Al1 Sb5'
_cell_volume   438.08451362
_cell_formula_units_Z   1
loop_
 _symmetry_equiv_pos_site_id
 _symmetry_equiv_pos_as_xyz
  1  'x, y, z'
loop_
 _atom_site_type_symbol
 _atom_site_label
 _atom_site_symmetry_multiplicity
 _atom_site_fract_x
 _atom_site_fract_y
 _atom_site_fract_z
 _atom_site_occupancy
  Tb  Tb0  1  0.755076  0.755819  0.250000  1
  Tb  Tb1  1  0.999258  0.244181  0.250000  1
  Ho  Ho2  1  0.334774  0.673360  0.998874  1
  Ho  Ho3  1  0.661415  0.326640  0.501126  1
  Ho  Ho4  1  0.661415  0.326640  0.998874  1
  Ho  Ho5  1  0.334774  0.673360  0.501126  1
  Ho  Ho6  1  0.752229  0.000000  0.750000  1
  Ho  Ho7  1  0.009503  0.763713  0.750000  1
  Ho  Ho8  1  0.245790  0.236287  0.750000  1
  Ho  Ho9  1  0.242167  0.000000  0.250000  1
  Al  Al10  1  0.396838  0.000000  0.750000  1
  Sb  Sb11  1  0.389782  0.392208  0.250000  1
  Sb  Sb12  1  0.997575  0.607792  0.250000  1
  Sb  Sb13  1  0.001944  0.390640  0.750000  1
  Sb  Sb14  1  0.611304  0.609360  0.750000  1
  Sb  Sb15  1  0.606154  0.000000  0.250000  1
