# generated using pymatgen
data_RbHo(CO3)2
_symmetry_space_group_name_H-M   'P 1'
_cell_length_a   6.44749580
_cell_length_b   6.44749639
_cell_length_c   7.17036534
_cell_angle_alpha   75.79179155
_cell_angle_beta   75.79179121
_cell_angle_gamma   94.73252181
_symmetry_Int_Tables_number   1
_chemical_formula_structural   RbHo(CO3)2
_chemical_formula_sum   'Rb2 Ho2 C4 O12'
_cell_volume   276.86598918
_cell_formula_units_Z   2
loop_
 _symmetry_equiv_pos_site_id
 _symmetry_equiv_pos_as_xyz
  1  'x, y, z'
loop_
 _atom_site_type_symbol
 _atom_site_label
 _atom_site_symmetry_multiplicity
 _atom_site_fract_x
 _atom_site_fract_y
 _atom_site_fract_z
 _atom_site_occupancy
  Rb  Rb0  1  0.616147  0.383853  0.750000  1
  Rb  Rb1  1  0.383853  0.616147  0.250000  1
  Ho  Ho2  1  0.096281  0.903719  0.750000  1
  Ho  Ho3  1  0.903719  0.096281  0.250000  1
  C  C4  1  0.649180  0.894643  0.747386  1
  C  C5  1  0.350820  0.105357  0.252614  1
  C  C6  1  0.105357  0.350820  0.752614  1
  C  C7  1  0.894643  0.649180  0.247386  1
  O  O8  1  0.446650  0.893586  0.766258  1
  O  O9  1  0.553350  0.106414  0.233742  1
  O  O10  1  0.106414  0.553350  0.733742  1
  O  O11  1  0.893586  0.446650  0.266258  1
  O  O12  1  0.722565  0.764223  0.876275  1
  O  O13  1  0.277435  0.235777  0.123725  1
  O  O14  1  0.235777  0.277435  0.623725  1
  O  O15  1  0.764223  0.722565  0.376275  1
  O  O16  1  0.798005  0.033003  0.598650  1
  O  O17  1  0.201995  0.966997  0.401350  1
  O  O18  1  0.966997  0.201995  0.901350  1
  O  O19  1  0.033003  0.798005  0.098650  1
