# generated using pymatgen
data_Ta4Tc3B4Ir
_symmetry_space_group_name_H-M   'P 1'
_cell_length_a   3.18658000
_cell_length_b   9.06347498
_cell_length_c   15.65832333
_cell_angle_alpha   89.87955839
_cell_angle_beta   90.00000000
_cell_angle_gamma   90.00000000
_symmetry_Int_Tables_number   1
_chemical_formula_structural   Ta4Tc3B4Ir
_chemical_formula_sum   'Ta12 Tc9 B12 Ir3'
_cell_volume   452.23467978
_cell_formula_units_Z   3
loop_
 _symmetry_equiv_pos_site_id
 _symmetry_equiv_pos_as_xyz
  1  'x, y, z'
loop_
 _atom_site_type_symbol
 _atom_site_label
 _atom_site_symmetry_multiplicity
 _atom_site_fract_x
 _atom_site_fract_y
 _atom_site_fract_z
 _atom_site_occupancy
  Ta  Ta0  1  0.000000  0.802982  0.493573  1
  Ta  Ta1  1  0.000000  0.196476  0.506086  1
  Ta  Ta2  1  0.000000  0.302715  0.006801  1
  Ta  Ta3  1  0.000000  0.696762  0.993126  1
  Ta  Ta4  1  0.000000  0.515139  0.595127  1
  Ta  Ta5  1  0.000000  0.484414  0.405366  1
  Ta  Ta6  1  0.000000  0.015758  0.905987  1
  Ta  Ta7  1  0.000000  0.984806  0.094429  1
  Ta  Ta8  1  0.000000  0.681170  0.203961  1
  Ta  Ta9  1  0.000000  0.325440  0.794274  1
  Ta  Ta10  1  0.000000  0.181121  0.296148  1
  Ta  Ta11  1  0.000000  0.813630  0.704085  1
  Tc  Tc12  1  0.500000  0.716618  0.356198  1
  Tc  Tc13  1  0.500000  0.281192  0.642342  1
  Tc  Tc14  1  0.500000  0.216715  0.144402  1
  Tc  Tc15  1  0.500000  0.785367  0.857536  1
  Tc  Tc16  1  0.500000  0.519211  0.097366  1
  Tc  Tc17  1  0.500000  0.481624  0.906149  1
  Tc  Tc18  1  0.500000  0.018512  0.403260  1
  Tc  Tc19  1  0.500000  0.980967  0.595680  1
  Tc  Tc20  1  0.500000  0.569135  0.732536  1
  B  B21  1  0.500000  0.604718  0.494853  1
  B  B22  1  0.500000  0.394330  0.504438  1
  B  B23  1  0.500000  0.104712  0.004918  1
  B  B24  1  0.500000  0.895581  0.996026  1
  B  B25  1  0.000000  0.611171  0.833451  1
  B  B26  1  0.000000  0.387383  0.165496  1
  B  B27  1  0.000000  0.112520  0.663000  1
  B  B28  1  0.000000  0.887150  0.334941  1
  B  B29  1  0.500000  0.714510  0.600689  1
  B  B30  1  0.500000  0.284008  0.400312  1
  B  B31  1  0.500000  0.217588  0.899809  1
  B  B32  1  0.500000  0.784578  0.099635  1
  Ir  Ir33  1  0.500000  0.431604  0.267718  1
  Ir  Ir34  1  0.500000  0.068819  0.767358  1
  Ir  Ir35  1  0.500000  0.931571  0.232928  1
