# generated using pymatgen
data_Pt4I7Br5
_symmetry_space_group_name_H-M   'P 1'
_cell_length_a   6.95465064
_cell_length_b   6.92499679
_cell_length_c   13.29137127
_cell_angle_alpha   84.49766316
_cell_angle_beta   83.63641443
_cell_angle_gamma   119.60327029
_symmetry_Int_Tables_number   1
_chemical_formula_structural   Pt4I7Br5
_chemical_formula_sum   'Pt4 I7 Br5'
_cell_volume   544.66809478
_cell_formula_units_Z   1
loop_
 _symmetry_equiv_pos_site_id
 _symmetry_equiv_pos_as_xyz
  1  'x, y, z'
loop_
 _atom_site_type_symbol
 _atom_site_label
 _atom_site_symmetry_multiplicity
 _atom_site_fract_x
 _atom_site_fract_y
 _atom_site_fract_z
 _atom_site_occupancy
  Pt  Pt0  1  0.906471  0.087964  0.251176  1
  Pt  Pt1  1  0.093395  0.911059  0.748774  1
  Pt  Pt2  1  0.499527  0.007079  0.502557  1
  Pt  Pt3  1  0.001459  0.492267  0.996963  1
  I  I4  1  0.347133  0.843522  0.873647  1
  I  I5  1  0.844888  0.345987  0.378150  1
  I  I6  1  0.653609  0.149583  0.123097  1
  I  I7  1  0.752927  0.546149  0.874738  1
  I  I8  1  0.444891  0.263915  0.621742  1
  I  I9  1  0.250168  0.441425  0.120201  1
  I  I10  1  0.550969  0.748186  0.383235  1
  Br  Br11  1  0.174354  0.057624  0.356301  1
  Br  Br12  1  0.934075  0.816385  0.145338  1
  Br  Br13  1  0.825243  0.938277  0.644016  1
  Br  Br14  1  0.051469  0.167928  0.858411  1
  Br  Br15  1  0.169423  0.682650  0.621656  1
