# generated using pymatgen
data_Hf6AlFeTe
_symmetry_space_group_name_H-M   'P 1'
_cell_length_a   3.43385500
_cell_length_b   7.79713361
_cell_length_c   7.79707400
_cell_angle_alpha   60.00308975
_cell_angle_beta   90.00000000
_cell_angle_gamma   90.00000000
_symmetry_Int_Tables_number   1
_chemical_formula_structural   Hf6AlFeTe
_chemical_formula_sum   'Hf6 Al1 Fe1 Te1'
_cell_volume   180.79763156
_cell_formula_units_Z   1
loop_
 _symmetry_equiv_pos_site_id
 _symmetry_equiv_pos_as_xyz
  1  'x, y, z'
loop_
 _atom_site_type_symbol
 _atom_site_label
 _atom_site_symmetry_multiplicity
 _atom_site_fract_x
 _atom_site_fract_y
 _atom_site_fract_z
 _atom_site_occupancy
  Hf  Hf0  1  0.500000  0.606428  0.399061  1
  Hf  Hf1  1  0.500000  0.399037  0.994557  1
  Hf  Hf2  1  0.500000  0.994460  0.606455  1
  Hf  Hf3  1  0.000000  0.247548  0.758953  1
  Hf  Hf4  1  0.000000  0.758966  0.993522  1
  Hf  Hf5  1  0.000000  0.993463  0.247537  1
  Al  Al6  1  0.000000  0.666622  0.666713  1
  Fe  Fe7  1  0.500000  0.000085  0.999932  1
  Te  Te8  1  0.000000  0.333291  0.333370  1
