# generated using pymatgen
data_Er6Zr5Al11Os7
_symmetry_space_group_name_H-M   'P 1'
_cell_length_a   9.17336865
_cell_length_b   9.17336813
_cell_length_c   9.15388951
_cell_angle_alpha   59.92958551
_cell_angle_beta   59.92957986
_cell_angle_gamma   60.00000354
_symmetry_Int_Tables_number   1
_chemical_formula_structural   Er6Zr5Al11Os7
_chemical_formula_sum   'Er6 Zr5 Al11 Os7'
_cell_volume   544.10821589
_cell_formula_units_Z   1
loop_
 _symmetry_equiv_pos_site_id
 _symmetry_equiv_pos_as_xyz
  1  'x, y, z'
loop_
 _atom_site_type_symbol
 _atom_site_label
 _atom_site_symmetry_multiplicity
 _atom_site_fract_x
 _atom_site_fract_y
 _atom_site_fract_z
 _atom_site_occupancy
  Er  Er0  1  0.704199  0.704199  0.297371  1
  Er  Er1  1  0.294230  0.704199  0.297371  1
  Er  Er2  1  0.704199  0.294230  0.297371  1
  Er  Er3  1  0.296243  0.296243  0.713867  1
  Er  Er4  1  0.693645  0.296243  0.713867  1
  Er  Er5  1  0.296243  0.693645  0.713867  1
  Zr  Zr6  1  0.880773  0.880773  0.357679  1
  Zr  Zr7  1  0.876733  0.363797  0.882736  1
  Zr  Zr8  1  0.363797  0.876733  0.882736  1
  Zr  Zr9  1  0.876733  0.876733  0.882736  1
  Zr  Zr10  1  0.124995  0.124995  0.625015  1
  Al  Al11  1  0.119809  0.639995  0.120388  1
  Al  Al12  1  0.639995  0.119809  0.120388  1
  Al  Al13  1  0.119809  0.119809  0.120388  1
  Al  Al14  1  0.665773  0.665773  0.002683  1
  Al  Al15  1  0.668020  0.997600  0.666361  1
  Al  Al16  1  0.997600  0.668020  0.666361  1
  Al  Al17  1  0.668020  0.668020  0.666361  1
  Al  Al18  1  0.328182  0.328182  0.015451  1
  Al  Al19  1  0.336944  0.001495  0.324617  1
  Al  Al20  1  0.001495  0.336944  0.324617  1
  Al  Al21  1  0.336944  0.336944  0.324617  1
  Os  Os22  1  0.002744  0.002744  0.991768  1
  Os  Os23  1  0.000566  0.000566  0.499010  1
  Os  Os24  1  0.499857  0.000566  0.499010  1
  Os  Os25  1  0.000566  0.499857  0.499010  1
  Os  Os26  1  0.499194  0.499194  0.998116  1
  Os  Os27  1  0.003497  0.499194  0.998116  1
  Os  Os28  1  0.499194  0.003497  0.998116  1
