# generated using pymatgen
data_Tb4Ga3SnRu4
_symmetry_space_group_name_H-M   'P 1'
_cell_length_a   4.59417400
_cell_length_b   7.19409383
_cell_length_c   7.29694052
_cell_angle_alpha   89.07369520
_cell_angle_beta   90.00000000
_cell_angle_gamma   90.00000000
_symmetry_Int_Tables_number   1
_chemical_formula_structural   Tb4Ga3SnRu4
_chemical_formula_sum   'Tb4 Ga3 Sn1 Ru4'
_cell_volume   241.13907160
_cell_formula_units_Z   1
loop_
 _symmetry_equiv_pos_site_id
 _symmetry_equiv_pos_as_xyz
  1  'x, y, z'
loop_
 _atom_site_type_symbol
 _atom_site_label
 _atom_site_symmetry_multiplicity
 _atom_site_fract_x
 _atom_site_fract_y
 _atom_site_fract_z
 _atom_site_occupancy
  Tb  Tb0  1  0.250000  0.808242  0.476999  1
  Tb  Tb1  1  0.750000  0.191437  0.530176  1
  Tb  Tb2  1  0.750000  0.301090  0.012740  1
  Tb  Tb3  1  0.250000  0.700929  0.974279  1
  Ga  Ga4  1  0.750000  0.609194  0.697021  1
  Ga  Ga5  1  0.750000  0.894637  0.196269  1
  Ga  Ga6  1  0.250000  0.105663  0.801459  1
  Sn  Sn7  1  0.250000  0.389374  0.300725  1
  Ru  Ru8  1  0.750000  0.570405  0.350210  1
  Ru  Ru9  1  0.750000  0.937174  0.842788  1
  Ru  Ru10  1  0.250000  0.052468  0.150091  1
  Ru  Ru11  1  0.250000  0.439389  0.667243  1
