# generated using pymatgen
data_Hf18Cr2Re6GeRh
_symmetry_space_group_name_H-M   'P 1'
_cell_length_a   8.61016200
_cell_length_b   8.61016111
_cell_length_c   8.51135300
_cell_angle_alpha   90.00000000
_cell_angle_beta   90.00000000
_cell_angle_gamma   120.00000340
_symmetry_Int_Tables_number   1
_chemical_formula_structural   Hf18Cr2Re6GeRh
_chemical_formula_sum   'Hf18 Cr2 Re6 Ge1 Rh1'
_cell_volume   546.45174922
_cell_formula_units_Z   1
loop_
 _symmetry_equiv_pos_site_id
 _symmetry_equiv_pos_as_xyz
  1  'x, y, z'
loop_
 _atom_site_type_symbol
 _atom_site_label
 _atom_site_symmetry_multiplicity
 _atom_site_fract_x
 _atom_site_fract_y
 _atom_site_fract_z
 _atom_site_occupancy
  Hf  Hf0  1  0.195764  0.804236  0.447373  1
  Hf  Hf1  1  0.195764  0.391527  0.447373  1
  Hf  Hf2  1  0.608473  0.804236  0.447373  1
  Hf  Hf3  1  0.809363  0.190637  0.547950  1
  Hf  Hf4  1  0.809363  0.618726  0.547950  1
  Hf  Hf5  1  0.381274  0.190637  0.547950  1
  Hf  Hf6  1  0.809363  0.190637  0.952050  1
  Hf  Hf7  1  0.809363  0.618726  0.952050  1
  Hf  Hf8  1  0.381274  0.190637  0.952050  1
  Hf  Hf9  1  0.195764  0.804236  0.052627  1
  Hf  Hf10  1  0.195764  0.391527  0.052627  1
  Hf  Hf11  1  0.608473  0.804236  0.052627  1
  Hf  Hf12  1  0.542198  0.457802  0.250000  1
  Hf  Hf13  1  0.542198  0.084396  0.250000  1
  Hf  Hf14  1  0.915604  0.457802  0.250000  1
  Hf  Hf15  1  0.459588  0.540412  0.750000  1
  Hf  Hf16  1  0.459588  0.919176  0.750000  1
  Hf  Hf17  1  0.080824  0.540412  0.750000  1
  Cr  Cr18  1  0.000000  0.000000  0.498187  1
  Cr  Cr19  1  0.000000  0.000000  0.001813  1
  Re  Re20  1  0.891849  0.108151  0.250000  1
  Re  Re21  1  0.891849  0.783700  0.250000  1
  Re  Re22  1  0.216300  0.108151  0.250000  1
  Re  Re23  1  0.108170  0.891830  0.750000  1
  Re  Re24  1  0.108170  0.216340  0.750000  1
  Re  Re25  1  0.783660  0.891830  0.750000  1
  Ge  Ge26  1  0.666667  0.333333  0.750000  1
  Rh  Rh27  1  0.333333  0.666667  0.250000  1
