# generated using pymatgen
data_Dy16MgIn3(IrRu)2
_symmetry_space_group_name_H-M   'P 1'
_cell_length_a   9.67721822
_cell_length_b   9.67721952
_cell_length_c   9.67947074
_cell_angle_alpha   59.74142611
_cell_angle_beta   59.74142027
_cell_angle_gamma   59.72402613
_symmetry_Int_Tables_number   1
_chemical_formula_structural   Dy16MgIn3(IrRu)2
_chemical_formula_sum   'Dy16 Mg1 In3 Ir2 Ru2'
_cell_volume   637.12166320
_cell_formula_units_Z   1
loop_
 _symmetry_equiv_pos_site_id
 _symmetry_equiv_pos_as_xyz
  1  'x, y, z'
loop_
 _atom_site_type_symbol
 _atom_site_label
 _atom_site_symmetry_multiplicity
 _atom_site_fract_x
 _atom_site_fract_y
 _atom_site_fract_z
 _atom_site_occupancy
  Dy  Dy0  1  0.598748  0.598748  0.599811  1
  Dy  Dy1  1  0.598088  0.598088  0.206089  1
  Dy  Dy2  1  0.597002  0.207617  0.597854  1
  Dy  Dy3  1  0.207617  0.597002  0.597854  1
  Dy  Dy4  1  0.059255  0.441425  0.441786  1
  Dy  Dy5  1  0.437626  0.062080  0.059122  1
  Dy  Dy6  1  0.441425  0.059255  0.441786  1
  Dy  Dy7  1  0.062080  0.437626  0.059122  1
  Dy  Dy8  1  0.441267  0.441267  0.057998  1
  Dy  Dy9  1  0.059712  0.059712  0.438970  1
  Dy  Dy10  1  0.189406  0.809379  0.811982  1
  Dy  Dy11  1  0.808809  0.190005  0.190447  1
  Dy  Dy12  1  0.809379  0.189406  0.811982  1
  Dy  Dy13  1  0.190005  0.808809  0.190447  1
  Dy  Dy14  1  0.811211  0.811211  0.189484  1
  Dy  Dy15  1  0.190680  0.190680  0.809897  1
  Mg  Mg16  1  0.826376  0.826376  0.826742  1
  In  In17  1  0.831889  0.831889  0.502942  1
  In  In18  1  0.832375  0.502231  0.832440  1
  In  In19  1  0.502231  0.832375  0.832440  1
  Ir  Ir20  1  0.392547  0.828063  0.391461  1
  Ir  Ir21  1  0.828063  0.392547  0.391461  1
  Ru  Ru22  1  0.391570  0.391570  0.388599  1
  Ru  Ru23  1  0.392637  0.392637  0.829283  1
