# generated using pymatgen
data_Ca10AgBiPt4
_symmetry_space_group_name_H-M   'P 1'
_cell_length_a   9.15563325
_cell_length_b   9.15563372
_cell_length_c   9.15563300
_cell_angle_alpha   128.08441136
_cell_angle_beta   128.08441365
_cell_angle_gamma   76.48832877
_symmetry_Int_Tables_number   1
_chemical_formula_structural   Ca10AgBiPt4
_chemical_formula_sum   'Ca10 Ag1 Bi1 Pt4'
_cell_volume   461.92964068
_cell_formula_units_Z   1
loop_
 _symmetry_equiv_pos_site_id
 _symmetry_equiv_pos_as_xyz
  1  'x, y, z'
loop_
 _atom_site_type_symbol
 _atom_site_label
 _atom_site_symmetry_multiplicity
 _atom_site_fract_x
 _atom_site_fract_y
 _atom_site_fract_z
 _atom_site_occupancy
  Ca  Ca0  1  0.996432  0.996431  0.000000  1
  Ca  Ca1  1  0.503569  0.503568  0.000000  1
  Ca  Ca2  1  0.801339  0.293284  0.830593  1
  Ca  Ca3  1  0.206716  0.698661  0.169407  1
  Ca  Ca4  1  0.462689  0.970748  0.169404  1
  Ca  Ca5  1  0.293273  0.462691  0.491940  1
  Ca  Ca6  1  0.037309  0.206727  0.508060  1
  Ca  Ca7  1  0.529252  0.037311  0.830596  1
  Ca  Ca8  1  0.698666  0.529246  0.491938  1
  Ca  Ca9  1  0.970754  0.801334  0.508062  1
  Ag  Ag10  1  0.249999  0.250001  0.000000  1
  Bi  Bi11  1  0.750001  0.749999  0.000000  1
  Pt  Pt12  1  0.129693  0.629693  0.759386  1
  Pt  Pt13  1  0.870307  0.370307  0.240614  1
  Pt  Pt14  1  0.629688  0.870312  0.500000  1
  Pt  Pt15  1  0.370313  0.129687  0.500000  1
