# generated using pymatgen
data_Ca8AlV3O16
_symmetry_space_group_name_H-M   'P 1'
_cell_length_a   5.35716568
_cell_length_b   6.82363300
_cell_length_c   11.49381526
_cell_angle_alpha   90.00000000
_cell_angle_beta   90.07404040
_cell_angle_gamma   90.00000000
_symmetry_Int_Tables_number   1
_chemical_formula_structural   Ca8AlV3O16
_chemical_formula_sum   'Ca8 Al1 V3 O16'
_cell_volume   420.15988796
_cell_formula_units_Z   1
loop_
 _symmetry_equiv_pos_site_id
 _symmetry_equiv_pos_as_xyz
  1  'x, y, z'
loop_
 _atom_site_type_symbol
 _atom_site_label
 _atom_site_symmetry_multiplicity
 _atom_site_fract_x
 _atom_site_fract_y
 _atom_site_fract_z
 _atom_site_occupancy
  Ca  Ca0  1  0.023224  0.750000  0.721800  1
  Ca  Ca1  1  0.017025  0.250000  0.281996  1
  Ca  Ca2  1  0.501398  0.250000  0.771356  1
  Ca  Ca3  1  0.484819  0.750000  0.213781  1
  Ca  Ca4  1  0.491010  0.489952  0.509061  1
  Ca  Ca5  1  0.993288  0.000348  0.999936  1
  Ca  Ca6  1  0.993288  0.499652  0.999936  1
  Ca  Ca7  1  0.491010  0.010048  0.509061  1
  Al  Al8  1  0.067528  0.250000  0.596317  1
  V  V9  1  0.435701  0.250000  0.093181  1
  V  V10  1  0.926565  0.750000  0.403998  1
  V  V11  1  0.562875  0.750000  0.900769  1
  O  O12  1  0.789524  0.750000  0.542162  1
  O  O13  1  0.787708  0.549420  0.335885  1
  O  O14  1  0.724930  0.542419  0.836029  1
  O  O15  1  0.737436  0.250000  0.590145  1
  O  O16  1  0.714173  0.750000  0.048007  1
  O  O17  1  0.278787  0.461226  0.162699  1
  O  O18  1  0.219073  0.459659  0.661962  1
  O  O19  1  0.255500  0.750000  0.404418  1
  O  O20  1  0.787708  0.950580  0.335885  1
  O  O21  1  0.226769  0.750000  0.912716  1
  O  O22  1  0.217734  0.250000  0.453360  1
  O  O23  1  0.724930  0.957581  0.836029  1
  O  O24  1  0.219073  0.040341  0.661962  1
  O  O25  1  0.277255  0.250000  0.953205  1
  O  O26  1  0.278787  0.038774  0.162699  1
  O  O27  1  0.772878  0.250000  0.101643  1
