# generated using pymatgen
data_Er8MgInIr2
_symmetry_space_group_name_H-M   'P 1'
_cell_length_a   9.61132533
_cell_length_b   9.60272466
_cell_length_c   9.61132552
_cell_angle_alpha   60.02959492
_cell_angle_beta   60.25729687
_cell_angle_gamma   60.02959212
_symmetry_Int_Tables_number   1
_chemical_formula_structural   Er8MgInIr2
_chemical_formula_sum   'Er16 Mg2 In2 Ir4'
_cell_volume   628.75044242
_cell_formula_units_Z   2
loop_
 _symmetry_equiv_pos_site_id
 _symmetry_equiv_pos_as_xyz
  1  'x, y, z'
loop_
 _atom_site_type_symbol
 _atom_site_label
 _atom_site_symmetry_multiplicity
 _atom_site_fract_x
 _atom_site_fract_y
 _atom_site_fract_z
 _atom_site_occupancy
  Er  Er0  1  0.062725  0.062427  0.437114  1
  Er  Er1  1  0.652129  0.040313  0.652129  1
  Er  Er2  1  0.192857  0.807143  0.192857  1
  Er  Er3  1  0.436948  0.063052  0.436948  1
  Er  Er4  1  0.190106  0.188538  0.811716  1
  Er  Er5  1  0.652129  0.655430  0.652129  1
  Er  Er6  1  0.045744  0.652412  0.649434  1
  Er  Er7  1  0.437114  0.062427  0.062725  1
  Er  Er8  1  0.649434  0.652412  0.045744  1
  Er  Er9  1  0.190106  0.809640  0.811716  1
  Er  Er10  1  0.812958  0.187042  0.812958  1
  Er  Er11  1  0.811716  0.188538  0.190106  1
  Er  Er12  1  0.811716  0.809640  0.190106  1
  Er  Er13  1  0.062725  0.437733  0.437114  1
  Er  Er14  1  0.437114  0.437733  0.062725  1
  Er  Er15  1  0.060810  0.439190  0.060810  1
  Mg  Mg16  1  0.735786  0.421831  0.420553  1
  Mg  Mg17  1  0.420553  0.421831  0.735786  1
  In  In18  1  0.417964  0.747145  0.417964  1
  In  In19  1  0.417964  0.416926  0.417964  1
  Ir  Ir20  1  0.859340  0.857061  0.859340  1
  Ir  Ir21  1  0.423016  0.858639  0.859707  1
  Ir  Ir22  1  0.859707  0.858639  0.423016  1
  Ir  Ir23  1  0.859340  0.424260  0.859340  1
