# generated using pymatgen
data_Li3Eu4ZnPt4
_symmetry_space_group_name_H-M   'P 1'
_cell_length_a   4.26025600
_cell_length_b   7.25036188
_cell_length_c   8.42285378
_cell_angle_alpha   90.18547260
_cell_angle_beta   90.00000000
_cell_angle_gamma   90.00000000
_symmetry_Int_Tables_number   1
_chemical_formula_structural   Li3Eu4ZnPt4
_chemical_formula_sum   'Li3 Eu4 Zn1 Pt4'
_cell_volume   260.16709416
_cell_formula_units_Z   1
loop_
 _symmetry_equiv_pos_site_id
 _symmetry_equiv_pos_as_xyz
  1  'x, y, z'
loop_
 _atom_site_type_symbol
 _atom_site_label
 _atom_site_symmetry_multiplicity
 _atom_site_fract_x
 _atom_site_fract_y
 _atom_site_fract_z
 _atom_site_occupancy
  Li  Li0  1  0.250000  0.633358  0.560829  1
  Li  Li1  1  0.250000  0.134475  0.940347  1
  Li  Li2  1  0.750000  0.366041  0.441767  1
  Eu  Eu3  1  0.750000  0.467953  0.818389  1
  Eu  Eu4  1  0.250000  0.032273  0.314941  1
  Eu  Eu5  1  0.750000  0.965513  0.682880  1
  Eu  Eu6  1  0.250000  0.534694  0.182573  1
  Zn  Zn7  1  0.750000  0.865717  0.060686  1
  Pt  Pt8  1  0.250000  0.767131  0.885458  1
  Pt  Pt9  1  0.250000  0.259988  0.621906  1
  Pt  Pt10  1  0.750000  0.740507  0.370924  1
  Pt  Pt11  1  0.750000  0.232350  0.119300  1
