# generated using pymatgen
data_Y3SnBRh6
_symmetry_space_group_name_H-M   'P 1'
_cell_length_a   5.83110600
_cell_length_b   5.83110520
_cell_length_c   13.84765700
_cell_angle_alpha   90.00000000
_cell_angle_beta   90.00000000
_cell_angle_gamma   120.00000456
_symmetry_Int_Tables_number   1
_chemical_formula_structural   Y3SnBRh6
_chemical_formula_sum   'Y6 Sn2 B2 Rh12'
_cell_volume   407.76385096
_cell_formula_units_Z   2
loop_
 _symmetry_equiv_pos_site_id
 _symmetry_equiv_pos_as_xyz
  1  'x, y, z'
loop_
 _atom_site_type_symbol
 _atom_site_label
 _atom_site_symmetry_multiplicity
 _atom_site_fract_x
 _atom_site_fract_y
 _atom_site_fract_z
 _atom_site_occupancy
  Y  Y0  1  0.000000  0.000000  0.750000  1
  Y  Y1  1  0.000000  0.000000  0.250000  1
  Y  Y2  1  0.333333  0.666667  0.409267  1
  Y  Y3  1  0.666667  0.333333  0.909267  1
  Y  Y4  1  0.666667  0.333333  0.590733  1
  Y  Y5  1  0.333333  0.666667  0.090733  1
  Sn  Sn6  1  0.333333  0.666667  0.750000  1
  Sn  Sn7  1  0.666667  0.333333  0.250000  1
  B  B8  1  0.000000  0.000000  0.500000  1
  B  B9  1  0.000000  0.000000  0.000000  1
  Rh  Rh10  1  0.344638  0.172319  0.413951  1
  Rh  Rh11  1  0.827681  0.172319  0.413951  1
  Rh  Rh12  1  0.827681  0.655362  0.413951  1
  Rh  Rh13  1  0.172319  0.344638  0.913951  1
  Rh  Rh14  1  0.655362  0.827681  0.586049  1
  Rh  Rh15  1  0.655362  0.827681  0.913951  1
  Rh  Rh16  1  0.344638  0.172319  0.086049  1
  Rh  Rh17  1  0.172319  0.344638  0.586049  1
  Rh  Rh18  1  0.172319  0.827681  0.586049  1
  Rh  Rh19  1  0.827681  0.172319  0.086049  1
  Rh  Rh20  1  0.827681  0.655362  0.086049  1
  Rh  Rh21  1  0.172319  0.827681  0.913951  1
