# generated using pymatgen
data_Li3TmLu2Si2Ge
_symmetry_space_group_name_H-M   'P 1'
_cell_length_a   6.85751100
_cell_length_b   6.89160379
_cell_length_c   4.19753900
_cell_angle_alpha   90.00000000
_cell_angle_beta   90.00000000
_cell_angle_gamma   119.83649372
_symmetry_Int_Tables_number   1
_chemical_formula_structural   Li3TmLu2Si2Ge
_chemical_formula_sum   'Li3 Tm1 Lu2 Si2 Ge1'
_cell_volume   172.07800912
_cell_formula_units_Z   1
loop_
 _symmetry_equiv_pos_site_id
 _symmetry_equiv_pos_as_xyz
  1  'x, y, z'
loop_
 _atom_site_type_symbol
 _atom_site_label
 _atom_site_symmetry_multiplicity
 _atom_site_fract_x
 _atom_site_fract_y
 _atom_site_fract_z
 _atom_site_occupancy
  Li  Li0  1  0.234686  0.000000  0.500000  1
  Li  Li1  1  0.000374  0.234850  0.500000  1
  Li  Li2  1  0.765524  0.765150  0.500000  1
  Tm  Tm3  1  0.569693  0.000000  0.000000  1
  Lu  Lu4  1  0.999917  0.571282  0.000000  1
  Lu  Lu5  1  0.428634  0.428718  0.000000  1
  Si  Si6  1  0.331746  0.664706  0.500000  1
  Si  Si7  1  0.667041  0.335294  0.500000  1
  Ge  Ge8  1  0.002384  0.000000  0.000000  1
