# generated using pymatgen
data_CsNa(TaBr3)3
_symmetry_space_group_name_H-M   'P 1'
_cell_length_a   10.32129194
_cell_length_b   10.44587280
_cell_length_c   10.47415544
_cell_angle_alpha   119.02724597
_cell_angle_beta   104.95578324
_cell_angle_gamma   98.19331238
_symmetry_Int_Tables_number   1
_chemical_formula_structural   CsNa(TaBr3)3
_chemical_formula_sum   'Cs2 Na2 Ta6 Br18'
_cell_volume   904.79274416
_cell_formula_units_Z   2
loop_
 _symmetry_equiv_pos_site_id
 _symmetry_equiv_pos_as_xyz
  1  'x, y, z'
loop_
 _atom_site_type_symbol
 _atom_site_label
 _atom_site_symmetry_multiplicity
 _atom_site_fract_x
 _atom_site_fract_y
 _atom_site_fract_z
 _atom_site_occupancy
  Cs  Cs0  1  0.326796  0.265864  0.476106  1
  Cs  Cs1  1  0.673204  0.734136  0.523894  1
  Na  Na2  1  0.633624  0.049787  0.198209  1
  Na  Na3  1  0.366376  0.950213  0.801791  1
  Ta  Ta4  1  0.128666  0.562950  0.222554  1
  Ta  Ta5  1  0.871334  0.437050  0.777446  1
  Ta  Ta6  1  0.118522  0.362974  0.901199  1
  Ta  Ta7  1  0.867773  0.314565  0.976348  1
  Ta  Ta8  1  0.881478  0.637026  0.098801  1
  Ta  Ta9  1  0.132227  0.685435  0.023652  1
  Br  Br10  1  0.006974  0.650622  0.751634  1
  Br  Br11  1  0.693369  0.592627  0.845754  1
  Br  Br12  1  0.320432  0.950446  0.064553  1
  Br  Br13  1  0.985628  0.100646  0.853909  1
  Br  Br14  1  0.015273  0.749747  0.398927  1
  Br  Br15  1  0.688120  0.352776  0.470290  1
  Br  Br16  1  0.312247  0.563004  0.911192  1
  Br  Br17  1  0.306631  0.407373  0.154246  1
  Br  Br18  1  0.280620  0.178791  0.762949  1
  Br  Br19  1  0.993026  0.349378  0.248366  1
  Br  Br20  1  0.687753  0.436996  0.088808  1
  Br  Br21  1  0.676044  0.188670  0.692142  1
  Br  Br22  1  0.719380  0.821209  0.237051  1
  Br  Br23  1  0.014372  0.899354  0.146091  1
  Br  Br24  1  0.984727  0.250253  0.601073  1
  Br  Br25  1  0.311880  0.647224  0.529710  1
  Br  Br26  1  0.679568  0.049554  0.935447  1
  Br  Br27  1  0.323956  0.811330  0.307858  1
