# generated using pymatgen
data_La8Yb3Hg3Au20
_symmetry_space_group_name_H-M   'P 1'
_cell_length_a   8.82028810
_cell_length_b   8.82028805
_cell_length_c   10.48006400
_cell_angle_alpha   90.10948860
_cell_angle_beta   89.89051141
_cell_angle_gamma   107.95974971
_symmetry_Int_Tables_number   1
_chemical_formula_structural   La8Yb3Hg3Au20
_chemical_formula_sum   'La8 Yb3 Hg3 Au20'
_cell_volume   775.59249753
_cell_formula_units_Z   1
loop_
 _symmetry_equiv_pos_site_id
 _symmetry_equiv_pos_as_xyz
  1  'x, y, z'
loop_
 _atom_site_type_symbol
 _atom_site_label
 _atom_site_symmetry_multiplicity
 _atom_site_fract_x
 _atom_site_fract_y
 _atom_site_fract_z
 _atom_site_occupancy
  La  La0  1  0.707459  0.304091  0.993029  1
  La  La1  1  0.293325  0.698847  0.996115  1
  La  La2  1  0.804091  0.207459  0.506971  1
  La  La3  1  0.198847  0.793325  0.503885  1
  La  La4  1  0.296558  0.306403  0.202917  1
  La  La5  1  0.700545  0.700919  0.796710  1
  La  La6  1  0.200919  0.200545  0.703290  1
  La  La7  1  0.806403  0.796558  0.297083  1
  Yb  Yb8  1  0.515988  0.015988  0.250000  1
  Yb  Yb9  1  0.003441  0.002661  0.004829  1
  Yb  Yb10  1  0.502661  0.503441  0.495171  1
  Hg  Hg11  1  0.017889  0.517889  0.250000  1
  Hg  Hg12  1  0.980736  0.480736  0.750000  1
  Hg  Hg13  1  0.478752  0.978752  0.750000  1
  Au  Au14  1  0.096367  0.093866  0.404002  1
  Au  Au15  1  0.903361  0.904953  0.593664  1
  Au  Au16  1  0.404953  0.403361  0.906336  1
  Au  Au17  1  0.593866  0.596367  0.095998  1
  Au  Au18  1  0.876951  0.161343  0.211631  1
  Au  Au19  1  0.105592  0.839087  0.794970  1
  Au  Au20  1  0.604358  0.337591  0.704772  1
  Au  Au21  1  0.661343  0.376951  0.288369  1
  Au  Au22  1  0.390122  0.669761  0.290216  1
  Au  Au23  1  0.339087  0.605592  0.705030  1
  Au  Au24  1  0.837591  0.104358  0.795228  1
  Au  Au25  1  0.169761  0.890122  0.209784  1
  Au  Au26  1  0.926977  0.660228  0.021494  1
  Au  Au27  1  0.072578  0.340827  0.978395  1
  Au  Au28  1  0.570308  0.851776  0.512213  1
  Au  Au29  1  0.160228  0.426977  0.478506  1
  Au  Au30  1  0.430102  0.156240  0.477432  1
  Au  Au31  1  0.840827  0.572578  0.521605  1
  Au  Au32  1  0.351776  0.070308  0.987787  1
  Au  Au33  1  0.656240  0.930102  0.022568  1
