# generated using pymatgen
data_Tb5DyBiO12
_symmetry_space_group_name_H-M   'P 1'
_cell_length_a   6.59801729
_cell_length_b   6.59286554
_cell_length_c   6.59209380
_cell_angle_alpha   99.05988024
_cell_angle_beta   99.00112203
_cell_angle_gamma   99.04979443
_symmetry_Int_Tables_number   1
_chemical_formula_structural   Tb5DyBiO12
_chemical_formula_sum   'Tb5 Dy1 Bi1 O12'
_cell_volume   274.78183826
_cell_formula_units_Z   1
loop_
 _symmetry_equiv_pos_site_id
 _symmetry_equiv_pos_as_xyz
  1  'x, y, z'
loop_
 _atom_site_type_symbol
 _atom_site_label
 _atom_site_symmetry_multiplicity
 _atom_site_fract_x
 _atom_site_fract_y
 _atom_site_fract_z
 _atom_site_occupancy
  Tb  Tb0  1  0.858522  0.692761  0.390610  1
  Tb  Tb1  1  0.390825  0.859513  0.694224  1
  Tb  Tb2  1  0.307356  0.608477  0.141450  1
  Tb  Tb3  1  0.140529  0.306576  0.609436  1
  Tb  Tb4  1  0.609316  0.141192  0.306251  1
  Dy  Dy5  1  0.692445  0.391660  0.858726  1
  Bi  Bi6  1  0.999595  0.999654  0.999738  1
  O  O7  1  0.434783  0.179197  0.585616  1
  O  O8  1  0.586055  0.434341  0.177529  1
  O  O9  1  0.177675  0.585762  0.434824  1
  O  O10  1  0.565360  0.821968  0.415341  1
  O  O11  1  0.416111  0.565527  0.821359  1
  O  O12  1  0.821368  0.414057  0.566701  1
  O  O13  1  0.072187  0.314726  0.950405  1
  O  O14  1  0.685600  0.052949  0.929422  1
  O  O15  1  0.050332  0.930118  0.684743  1
  O  O16  1  0.928045  0.684151  0.048839  1
  O  O17  1  0.314680  0.948212  0.069862  1
  O  O18  1  0.949216  0.069161  0.314925  1
