# generated using pymatgen
data_Ca5DySi24Ir3Ru5
_symmetry_space_group_name_H-M   'P 1'
_cell_length_a   10.13626601
_cell_length_b   10.13626426
_cell_length_c   8.18557300
_cell_angle_alpha   90.00535758
_cell_angle_beta   90.00535003
_cell_angle_gamma   132.38356478
_symmetry_Int_Tables_number   1
_chemical_formula_structural   Ca5DySi24Ir3Ru5
_chemical_formula_sum   'Ca5 Dy1 Si24 Ir3 Ru5'
_cell_volume   621.21646138
_cell_formula_units_Z   1
loop_
 _symmetry_equiv_pos_site_id
 _symmetry_equiv_pos_as_xyz
  1  'x, y, z'
loop_
 _atom_site_type_symbol
 _atom_site_label
 _atom_site_symmetry_multiplicity
 _atom_site_fract_x
 _atom_site_fract_y
 _atom_site_fract_z
 _atom_site_occupancy
  Ca  Ca0  1  0.499895  0.500105  0.500000  1
  Ca  Ca1  1  0.502046  0.001425  0.749911  1
  Ca  Ca2  1  0.998575  0.497954  0.250089  1
  Ca  Ca3  1  0.498819  0.998247  0.249297  1
  Ca  Ca4  1  0.001753  0.501181  0.750703  1
  Dy  Dy5  1  0.999310  0.000690  0.000000  1
  Si  Si6  1  0.795664  0.204336  0.500000  1
  Si  Si7  1  0.295198  0.704802  0.000000  1
  Si  Si8  1  0.205549  0.794451  0.500000  1
  Si  Si9  1  0.706773  0.293227  0.000000  1
  Si  Si10  1  0.332327  0.335559  0.831592  1
  Si  Si11  1  0.664441  0.667673  0.168408  1
  Si  Si12  1  0.167951  0.168880  0.333641  1
  Si  Si13  1  0.831120  0.832049  0.666359  1
  Si  Si14  1  0.120082  0.887187  0.724457  1
  Si  Si15  1  0.112813  0.879918  0.275543  1
  Si  Si16  1  0.610949  0.379186  0.225592  1
  Si  Si17  1  0.620814  0.389051  0.774408  1
  Si  Si18  1  0.876555  0.109381  0.271197  1
  Si  Si19  1  0.890619  0.123445  0.728803  1
  Si  Si20  1  0.387262  0.619811  0.775164  1
  Si  Si21  1  0.380189  0.612738  0.224836  1
  Si  Si22  1  0.341872  0.110213  0.501706  1
  Si  Si23  1  0.889787  0.658128  0.498294  1
  Si  Si24  1  0.392183  0.160163  0.003526  1
  Si  Si25  1  0.839837  0.607817  0.996474  1
  Si  Si26  1  0.659159  0.890362  0.496428  1
  Si  Si27  1  0.109638  0.340841  0.503572  1
  Si  Si28  1  0.611715  0.844711  0.997009  1
  Si  Si29  1  0.155289  0.388285  0.002991  1
  Ir  Ir30  1  0.668677  0.331323  0.500000  1
  Ir  Ir31  1  0.167348  0.832652  0.000000  1
  Ir  Ir32  1  0.332016  0.667984  0.500000  1
  Ru  Ru33  1  0.831873  0.168127  0.000000  1
  Ru  Ru34  1  0.125623  0.123935  0.627537  1
  Ru  Ru35  1  0.876065  0.874377  0.372463  1
  Ru  Ru36  1  0.372659  0.372444  0.124696  1
  Ru  Ru37  1  0.627556  0.627341  0.875304  1
