# generated using pymatgen
data_TbYb5(OsO6)3
_symmetry_space_group_name_H-M   'P 1'
_cell_length_a   9.00477301
_cell_length_b   9.00477260
_cell_length_c   5.26816827
_cell_angle_alpha   89.96936081
_cell_angle_beta   90.03063961
_cell_angle_gamma   120.19252302
_symmetry_Int_Tables_number   1
_chemical_formula_structural   TbYb5(OsO6)3
_chemical_formula_sum   'Tb1 Yb5 Os3 O18'
_cell_volume   369.22398623
_cell_formula_units_Z   1
loop_
 _symmetry_equiv_pos_site_id
 _symmetry_equiv_pos_as_xyz
  1  'x, y, z'
loop_
 _atom_site_type_symbol
 _atom_site_label
 _atom_site_symmetry_multiplicity
 _atom_site_fract_x
 _atom_site_fract_y
 _atom_site_fract_z
 _atom_site_occupancy
  Tb  Tb0  1  0.729930  0.729930  0.500000  1
  Yb  Yb1  1  0.996107  0.274438  0.502325  1
  Yb  Yb2  1  0.274438  0.996107  0.497675  1
  Yb  Yb3  1  0.385616  0.385616  0.000000  1
  Yb  Yb4  1  0.994385  0.615251  0.999267  1
  Yb  Yb5  1  0.615251  0.994385  0.000733  1
  Os  Os6  1  0.664022  0.329248  0.507742  1
  Os  Os7  1  0.329248  0.664022  0.492258  1
  Os  Os8  1  0.005815  0.005815  0.000000  1
  O  O9  1  0.757767  0.233393  0.723090  1
  O  O10  1  0.767788  0.532410  0.715756  1
  O  O11  1  0.467695  0.240774  0.710757  1
  O  O12  1  0.532410  0.767788  0.284244  1
  O  O13  1  0.240774  0.467695  0.289243  1
  O  O14  1  0.233393  0.757767  0.276910  1
  O  O15  1  0.597580  0.459295  0.302092  1
  O  O16  1  0.543105  0.137966  0.301601  1
  O  O17  1  0.860614  0.404420  0.306569  1
  O  O18  1  0.059841  0.873849  0.785655  1
  O  O19  1  0.126731  0.198176  0.793613  1
  O  O20  1  0.806280  0.937502  0.786178  1
  O  O21  1  0.198176  0.126731  0.206387  1
  O  O22  1  0.937502  0.806280  0.213822  1
  O  O23  1  0.873849  0.059841  0.214345  1
  O  O24  1  0.459295  0.597580  0.697908  1
  O  O25  1  0.404420  0.860614  0.693431  1
  O  O26  1  0.137966  0.543105  0.698399  1
