# generated using pymatgen
data_Ce2Ho4TcOs
_symmetry_space_group_name_H-M   'P 1'
_cell_length_a   6.33337300
_cell_length_b   7.18046700
_cell_length_c   9.42101200
_cell_angle_alpha   90.00000000
_cell_angle_beta   90.00000000
_cell_angle_gamma   90.00000000
_symmetry_Int_Tables_number   1
_chemical_formula_structural   Ce2Ho4TcOs
_chemical_formula_sum   'Ce4 Ho8 Tc2 Os2'
_cell_volume   428.43536657
_cell_formula_units_Z   2
loop_
 _symmetry_equiv_pos_site_id
 _symmetry_equiv_pos_as_xyz
  1  'x, y, z'
loop_
 _atom_site_type_symbol
 _atom_site_label
 _atom_site_symmetry_multiplicity
 _atom_site_fract_x
 _atom_site_fract_y
 _atom_site_fract_z
 _atom_site_occupancy
  Ce  Ce0  1  0.864418  0.555533  0.250000  1
  Ce  Ce1  1  0.635582  0.055533  0.250000  1
  Ce  Ce2  1  0.143646  0.451240  0.750000  1
  Ce  Ce3  1  0.356354  0.951240  0.750000  1
  Ho  Ho4  1  0.333490  0.675991  0.062917  1
  Ho  Ho5  1  0.166510  0.175991  0.437083  1
  Ho  Ho6  1  0.666073  0.325321  0.566256  1
  Ho  Ho7  1  0.833927  0.825321  0.933744  1
  Ho  Ho8  1  0.666073  0.325321  0.933744  1
  Ho  Ho9  1  0.833927  0.825321  0.566256  1
  Ho  Ho10  1  0.333490  0.675991  0.437083  1
  Ho  Ho11  1  0.166510  0.175991  0.062917  1
  Tc  Tc12  1  0.005258  0.861843  0.250000  1
  Tc  Tc13  1  0.494742  0.361843  0.250000  1
  Os  Os14  1  0.974673  0.128760  0.750000  1
  Os  Os15  1  0.525327  0.628760  0.750000  1
