# generated using pymatgen
data_Nd6ScZn22S
_symmetry_space_group_name_H-M   'P 1'
_cell_length_a   9.32108130
_cell_length_b   9.32108135
_cell_length_c   9.32108100
_cell_angle_alpha   59.99999769
_cell_angle_beta   59.99999753
_cell_angle_gamma   60.00000056
_symmetry_Int_Tables_number   1
_chemical_formula_structural   Nd6ScZn22S
_chemical_formula_sum   'Nd6 Sc1 Zn22 S1'
_cell_volume   572.64287949
_cell_formula_units_Z   1
loop_
 _symmetry_equiv_pos_site_id
 _symmetry_equiv_pos_as_xyz
  1  'x, y, z'
loop_
 _atom_site_type_symbol
 _atom_site_label
 _atom_site_symmetry_multiplicity
 _atom_site_fract_x
 _atom_site_fract_y
 _atom_site_fract_z
 _atom_site_occupancy
  Nd  Nd0  1  0.716081  0.283919  0.283919  1
  Nd  Nd1  1  0.716081  0.283919  0.716081  1
  Nd  Nd2  1  0.716081  0.716081  0.283919  1
  Nd  Nd3  1  0.283919  0.716081  0.716081  1
  Nd  Nd4  1  0.283919  0.716081  0.283919  1
  Nd  Nd5  1  0.283919  0.283919  0.716081  1
  Sc  Sc6  1  0.000000  0.000000  0.000000  1
  Zn  Zn7  1  0.616857  0.127714  0.127714  1
  Zn  Zn8  1  0.127714  0.616857  0.127714  1
  Zn  Zn9  1  0.127714  0.127714  0.616857  1
  Zn  Zn10  1  0.127714  0.127714  0.127714  1
  Zn  Zn11  1  0.383143  0.872286  0.872286  1
  Zn  Zn12  1  0.872286  0.383143  0.872286  1
  Zn  Zn13  1  0.872286  0.872286  0.383143  1
  Zn  Zn14  1  0.872286  0.872286  0.872286  1
  Zn  Zn15  1  0.500000  0.000000  0.000000  1
  Zn  Zn16  1  0.500000  0.000000  0.500000  1
  Zn  Zn17  1  0.500000  0.500000  0.000000  1
  Zn  Zn18  1  0.000000  0.500000  0.500000  1
  Zn  Zn19  1  0.000000  0.500000  0.000000  1
  Zn  Zn20  1  0.000000  0.000000  0.500000  1
  Zn  Zn21  1  0.018013  0.327329  0.327329  1
  Zn  Zn22  1  0.327329  0.018013  0.327329  1
  Zn  Zn23  1  0.327329  0.327329  0.018013  1
  Zn  Zn24  1  0.327329  0.327329  0.327329  1
  Zn  Zn25  1  0.981987  0.672671  0.672671  1
  Zn  Zn26  1  0.672671  0.981987  0.672671  1
  Zn  Zn27  1  0.672671  0.672671  0.981987  1
  Zn  Zn28  1  0.672671  0.672671  0.672671  1
  S  S29  1  0.500000  0.500000  0.500000  1
