# generated using pymatgen
data_HoU(PPt)2
_symmetry_space_group_name_H-M   'P 1'
_cell_length_a   4.13618500
_cell_length_b   4.13618500
_cell_length_c   15.41480600
_cell_angle_alpha   90.00000000
_cell_angle_beta   90.00000000
_cell_angle_gamma   120.00000797
_symmetry_Int_Tables_number   1
_chemical_formula_structural   HoU(PPt)2
_chemical_formula_sum   'Ho2 U2 P4 Pt4'
_cell_volume   228.38552297
_cell_formula_units_Z   2
loop_
 _symmetry_equiv_pos_site_id
 _symmetry_equiv_pos_as_xyz
  1  'x, y, z'
loop_
 _atom_site_type_symbol
 _atom_site_label
 _atom_site_symmetry_multiplicity
 _atom_site_fract_x
 _atom_site_fract_y
 _atom_site_fract_z
 _atom_site_occupancy
  Ho  Ho0  1  0.000000  0.000000  0.250000  1
  Ho  Ho1  1  0.000000  0.000000  0.750000  1
  U  U2  1  0.000000  0.000000  0.500000  1
  U  U3  1  0.000000  0.000000  0.000000  1
  P  P4  1  0.333333  0.666667  0.886192  1
  P  P5  1  0.666667  0.333333  0.113808  1
  P  P6  1  0.666667  0.333333  0.386192  1
  P  P7  1  0.333333  0.666667  0.613808  1
  Pt  Pt8  1  0.333333  0.666667  0.363391  1
  Pt  Pt9  1  0.666667  0.333333  0.636609  1
  Pt  Pt10  1  0.666667  0.333333  0.863391  1
  Pt  Pt11  1  0.333333  0.666667  0.136609  1
