# generated using pymatgen
data_DyLu2Al2Co9B4
_symmetry_space_group_name_H-M   'P 1'
_cell_length_a   5.11363000
_cell_length_b   5.11453225
_cell_length_c   9.50297500
_cell_angle_alpha   89.99998125
_cell_angle_beta   90.00007928
_cell_angle_gamma   119.99719618
_symmetry_Int_Tables_number   1
_chemical_formula_structural   DyLu2Al2Co9B4
_chemical_formula_sum   'Dy1 Lu2 Al2 Co9 B4'
_cell_volume   215.24729923
_cell_formula_units_Z   1
loop_
 _symmetry_equiv_pos_site_id
 _symmetry_equiv_pos_as_xyz
  1  'x, y, z'
loop_
 _atom_site_type_symbol
 _atom_site_label
 _atom_site_symmetry_multiplicity
 _atom_site_fract_x
 _atom_site_fract_y
 _atom_site_fract_z
 _atom_site_occupancy
  Dy  Dy0  1  0.999986  0.000001  0.000005  1
  Lu  Lu1  1  0.999990  0.999995  0.339802  1
  Lu  Lu2  1  0.000004  0.999999  0.660080  1
  Al  Al3  1  0.333336  0.666710  0.000060  1
  Al  Al4  1  0.666643  0.333293  0.000059  1
  Co  Co5  1  0.499997  0.000000  0.499992  1
  Co  Co6  1  0.499998  0.500001  0.499995  1
  Co  Co7  1  0.999997  0.499999  0.499991  1
  Co  Co8  1  0.499993  0.000002  0.207406  1
  Co  Co9  1  0.499992  0.500000  0.207390  1
  Co  Co10  1  0.999993  0.500001  0.207396  1
  Co  Co11  1  0.500000  0.999999  0.792622  1
  Co  Co12  1  0.499997  0.500002  0.792630  1
  Co  Co13  1  0.999995  0.499998  0.792634  1
  B  B14  1  0.333315  0.666629  0.349077  1
  B  B15  1  0.666673  0.333373  0.349077  1
  B  B16  1  0.666684  0.333368  0.650893  1
  B  B17  1  0.333305  0.666631  0.650893  1
