# generated using pymatgen
data_Ba3ZrPt2O9
_symmetry_space_group_name_H-M   'P 1'
_cell_length_a   5.88303100
_cell_length_b   5.88303013
_cell_length_c   14.91236900
_cell_angle_alpha   90.00000000
_cell_angle_beta   90.00000000
_cell_angle_gamma   120.00001053
_symmetry_Int_Tables_number   1
_chemical_formula_structural   Ba3ZrPt2O9
_chemical_formula_sum   'Ba6 Zr2 Pt4 O18'
_cell_volume   446.97109252
_cell_formula_units_Z   2
loop_
 _symmetry_equiv_pos_site_id
 _symmetry_equiv_pos_as_xyz
  1  'x, y, z'
loop_
 _atom_site_type_symbol
 _atom_site_label
 _atom_site_symmetry_multiplicity
 _atom_site_fract_x
 _atom_site_fract_y
 _atom_site_fract_z
 _atom_site_occupancy
  Ba  Ba0  1  0.333333  0.666667  0.089563  1
  Ba  Ba1  1  0.666667  0.333333  0.910437  1
  Ba  Ba2  1  0.666667  0.333333  0.589563  1
  Ba  Ba3  1  0.333333  0.666667  0.410437  1
  Ba  Ba4  1  0.000000  0.000000  0.250000  1
  Ba  Ba5  1  0.000000  0.000000  0.750000  1
  Zr  Zr6  1  0.000000  0.000000  0.000000  1
  Zr  Zr7  1  0.000000  0.000000  0.500000  1
  Pt  Pt8  1  0.333333  0.666667  0.657443  1
  Pt  Pt9  1  0.666667  0.333333  0.342557  1
  Pt  Pt10  1  0.666667  0.333333  0.157443  1
  Pt  Pt11  1  0.333333  0.666667  0.842557  1
  O  O12  1  0.168442  0.336884  0.580487  1
  O  O13  1  0.831558  0.663116  0.419513  1
  O  O14  1  0.663116  0.831558  0.580487  1
  O  O15  1  0.831558  0.663116  0.080487  1
  O  O16  1  0.336884  0.168442  0.419513  1
  O  O17  1  0.168442  0.336884  0.919513  1
  O  O18  1  0.168442  0.831558  0.580487  1
  O  O19  1  0.336884  0.168442  0.080487  1
  O  O20  1  0.831558  0.168442  0.419513  1
  O  O21  1  0.663116  0.831558  0.919513  1
  O  O22  1  0.831558  0.168442  0.080487  1
  O  O23  1  0.168442  0.831558  0.919513  1
  O  O24  1  0.516394  0.032788  0.250000  1
  O  O25  1  0.483606  0.967212  0.750000  1
  O  O26  1  0.967212  0.483606  0.250000  1
  O  O27  1  0.032788  0.516394  0.750000  1
  O  O28  1  0.516394  0.483606  0.250000  1
  O  O29  1  0.483606  0.516394  0.750000  1
