# generated using pymatgen
data_TbAgRh2O7
_symmetry_space_group_name_H-M   'P 1'
_cell_length_a   7.11542243
_cell_length_b   7.20346833
_cell_length_c   7.20346823
_cell_angle_alpha   61.57219811
_cell_angle_beta   60.40350720
_cell_angle_gamma   60.40350472
_symmetry_Int_Tables_number   1
_chemical_formula_structural   TbAgRh2O7
_chemical_formula_sum   'Tb2 Ag2 Rh4 O14'
_cell_volume   265.67500355
_cell_formula_units_Z   2
loop_
 _symmetry_equiv_pos_site_id
 _symmetry_equiv_pos_as_xyz
  1  'x, y, z'
loop_
 _atom_site_type_symbol
 _atom_site_label
 _atom_site_symmetry_multiplicity
 _atom_site_fract_x
 _atom_site_fract_y
 _atom_site_fract_z
 _atom_site_occupancy
  Tb  Tb0  1  0.625000  0.625000  0.125000  1
  Tb  Tb1  1  0.625000  0.125000  0.625000  1
  Ag  Ag2  1  0.625000  0.625000  0.625000  1
  Ag  Ag3  1  0.125000  0.625000  0.625000  1
  Rh  Rh4  1  0.125000  0.125000  0.125000  1
  Rh  Rh5  1  0.625000  0.125000  0.125000  1
  Rh  Rh6  1  0.125000  0.625000  0.125000  1
  Rh  Rh7  1  0.125000  0.125000  0.625000  1
  O  O8  1  0.051240  0.448760  0.448760  1
  O  O9  1  0.793706  0.798294  0.195017  1
  O  O10  1  0.784255  0.215745  0.215745  1
  O  O11  1  0.456294  0.054983  0.451706  1
  O  O12  1  0.037017  0.451706  0.054983  1
  O  O13  1  0.761058  0.738942  0.738942  1
  O  O14  1  0.037017  0.054983  0.451706  1
  O  O15  1  0.212983  0.798294  0.195017  1
  O  O16  1  0.212983  0.195017  0.798294  1
  O  O17  1  0.488942  0.511058  0.511058  1
  O  O18  1  0.793706  0.195017  0.798294  1
  O  O19  1  0.465745  0.034255  0.034255  1
  O  O20  1  0.456294  0.451706  0.054983  1
  O  O21  1  0.198760  0.801240  0.801240  1
