# generated using pymatgen
data_Tb2Ho5Cd(Co3Sn11)2
_symmetry_space_group_name_H-M   'P 1'
_cell_length_a   9.67600706
_cell_length_b   9.67600517
_cell_length_c   10.01310406
_cell_angle_alpha   90.01088896
_cell_angle_beta   89.98911074
_cell_angle_gamma   119.99434810
_symmetry_Int_Tables_number   1
_chemical_formula_structural   Tb2Ho5Cd(Co3Sn11)2
_chemical_formula_sum   'Tb2 Ho5 Cd1 Co6 Sn22'
_cell_volume   811.92581515
_cell_formula_units_Z   1
loop_
 _symmetry_equiv_pos_site_id
 _symmetry_equiv_pos_as_xyz
  1  'x, y, z'
loop_
 _atom_site_type_symbol
 _atom_site_label
 _atom_site_symmetry_multiplicity
 _atom_site_fract_x
 _atom_site_fract_y
 _atom_site_fract_z
 _atom_site_occupancy
  Tb  Tb0  1  0.999992  0.000008  0.000025  1
  Tb  Tb1  1  0.521112  0.478888  0.693659  1
  Ho  Ho2  1  0.520943  0.041892  0.693663  1
  Ho  Ho3  1  0.958108  0.479057  0.693663  1
  Ho  Ho4  1  0.041893  0.520951  0.306332  1
  Ho  Ho5  1  0.479049  0.958107  0.306332  1
  Ho  Ho6  1  0.479050  0.520950  0.306253  1
  Cd  Cd7  1  0.999996  0.000004  0.499985  1
  Co  Co8  1  0.168067  0.831933  0.803067  1
  Co  Co9  1  0.167833  0.336027  0.803136  1
  Co  Co10  1  0.663973  0.832167  0.803136  1
  Co  Co11  1  0.336123  0.168072  0.196945  1
  Co  Co12  1  0.831928  0.663877  0.196945  1
  Co  Co13  1  0.831955  0.168045  0.196963  1
  Sn  Sn14  1  0.666678  0.333322  0.181435  1
  Sn  Sn15  1  0.666881  0.333119  0.880901  1
  Sn  Sn16  1  0.333324  0.666676  0.119363  1
  Sn  Sn17  1  0.346219  0.346215  0.000089  1
  Sn  Sn18  1  0.000004  0.653739  0.000015  1
  Sn  Sn19  1  0.653771  0.000051  0.000010  1
  Sn  Sn20  1  0.653785  0.653781  0.000089  1
  Sn  Sn21  1  0.333266  0.666734  0.818585  1
  Sn  Sn22  1  0.435250  0.217490  0.452859  1
  Sn  Sn23  1  0.217641  0.782359  0.546941  1
  Sn  Sn24  1  0.217313  0.435263  0.546792  1
  Sn  Sn25  1  0.564737  0.782687  0.546792  1
  Sn  Sn26  1  0.116659  0.883341  0.271107  1
  Sn  Sn27  1  0.782510  0.564750  0.452859  1
  Sn  Sn28  1  0.782355  0.217645  0.453041  1
  Sn  Sn29  1  0.346261  0.999996  0.000015  1
  Sn  Sn30  1  0.116655  0.233320  0.271120  1
  Sn  Sn31  1  0.766680  0.883345  0.271120  1
  Sn  Sn32  1  0.233093  0.116381  0.728920  1
  Sn  Sn33  1  0.883619  0.766907  0.728920  1
  Sn  Sn34  1  0.883327  0.116673  0.728912  1
  Sn  Sn35  1  0.999949  0.346229  0.000010  1
