# generated using pymatgen
data_Pr3Nd3OsRuI6
_symmetry_space_group_name_H-M   'P 1'
_cell_length_a   4.35124600
_cell_length_b   9.39930226
_cell_length_c   12.65810562
_cell_angle_alpha   87.39418117
_cell_angle_beta   90.00000000
_cell_angle_gamma   90.00000000
_symmetry_Int_Tables_number   1
_chemical_formula_structural   Pr3Nd3OsRuI6
_chemical_formula_sum   'Pr3 Nd3 Os1 Ru1 I6'
_cell_volume   517.16444148
_cell_formula_units_Z   1
loop_
 _symmetry_equiv_pos_site_id
 _symmetry_equiv_pos_as_xyz
  1  'x, y, z'
loop_
 _atom_site_type_symbol
 _atom_site_label
 _atom_site_symmetry_multiplicity
 _atom_site_fract_x
 _atom_site_fract_y
 _atom_site_fract_z
 _atom_site_occupancy
  Pr  Pr0  1  0.750000  0.691636  0.117284  1
  Pr  Pr1  1  0.750000  0.114537  0.670444  1
  Pr  Pr2  1  0.750000  0.097210  0.109553  1
  Nd  Nd3  1  0.250000  0.307468  0.882201  1
  Nd  Nd4  1  0.250000  0.885062  0.330413  1
  Nd  Nd5  1  0.250000  0.903830  0.891289  1
  Os  Os6  1  0.250000  0.891789  0.118766  1
  Ru  Ru7  1  0.750000  0.108558  0.879692  1
  I  I8  1  0.250000  0.867363  0.617926  1
  I  I9  1  0.750000  0.129781  0.382620  1
  I  I10  1  0.750000  0.637762  0.375197  1
  I  I11  1  0.250000  0.365340  0.626701  1
  I  I12  1  0.250000  0.396755  0.132027  1
  I  I13  1  0.750000  0.602909  0.865887  1
