# generated using pymatgen
data_CaSmFe4(CoB2)4
_symmetry_space_group_name_H-M   'P 1'
_cell_length_a   6.97725102
_cell_length_b   6.97565402
_cell_length_c   3.80585900
_cell_angle_alpha   90.00000000
_cell_angle_beta   90.00000000
_cell_angle_gamma   90.00939537
_symmetry_Int_Tables_number   1
_chemical_formula_structural   CaSmFe4(CoB2)4
_chemical_formula_sum   'Ca1 Sm1 Fe4 Co4 B8'
_cell_volume   185.23453911
_cell_formula_units_Z   1
loop_
 _symmetry_equiv_pos_site_id
 _symmetry_equiv_pos_as_xyz
  1  'x, y, z'
loop_
 _atom_site_type_symbol
 _atom_site_label
 _atom_site_symmetry_multiplicity
 _atom_site_fract_x
 _atom_site_fract_y
 _atom_site_fract_z
 _atom_site_occupancy
  Ca  Ca0  1  0.000000  0.000000  0.001794  1
  Sm  Sm1  1  0.500000  0.500000  0.501648  1
  Fe  Fe2  1  0.383701  0.132465  0.891700  1
  Fe  Fe3  1  0.616299  0.867535  0.891700  1
  Fe  Fe4  1  0.368796  0.883939  0.392620  1
  Fe  Fe5  1  0.631204  0.116061  0.392620  1
  Co  Co6  1  0.115856  0.365709  0.609533  1
  Co  Co7  1  0.884144  0.634291  0.609533  1
  Co  Co8  1  0.135196  0.616495  0.109825  1
  Co  Co9  1  0.864804  0.383505  0.109825  1
  B  B10  1  0.800117  0.666655  0.103601  1
  B  B11  1  0.199883  0.333345  0.103601  1
  B  B12  1  0.835019  0.297641  0.605424  1
  B  B13  1  0.164981  0.702359  0.605424  1
  B  B14  1  0.697150  0.834870  0.391968  1
  B  B15  1  0.302850  0.165130  0.391968  1
  B  B16  1  0.666605  0.194947  0.893609  1
  B  B17  1  0.333395  0.805053  0.893609  1
