# generated using pymatgen
data_Cs3Bi2(SbSe3)3
_symmetry_space_group_name_H-M   'P 1'
_cell_length_a   14.26405601
_cell_length_b   14.26405507
_cell_length_c   9.91401142
_cell_angle_alpha   84.36049343
_cell_angle_beta   84.36049344
_cell_angle_gamma   139.60160106
_symmetry_Int_Tables_number   1
_chemical_formula_structural   Cs3Bi2(SbSe3)3
_chemical_formula_sum   'Cs6 Bi4 Sb6 Se18'
_cell_volume   1253.24102467
_cell_formula_units_Z   2
loop_
 _symmetry_equiv_pos_site_id
 _symmetry_equiv_pos_as_xyz
  1  'x, y, z'
loop_
 _atom_site_type_symbol
 _atom_site_label
 _atom_site_symmetry_multiplicity
 _atom_site_fract_x
 _atom_site_fract_y
 _atom_site_fract_z
 _atom_site_occupancy
  Cs  Cs0  1  0.417046  0.582954  0.500000  1
  Cs  Cs1  1  0.582954  0.417046  0.500000  1
  Cs  Cs2  1  0.020470  0.450753  0.233369  1
  Cs  Cs3  1  0.450753  0.020470  0.233369  1
  Cs  Cs4  1  0.979530  0.549247  0.766631  1
  Cs  Cs5  1  0.549247  0.979530  0.766631  1
  Bi  Bi6  1  0.424796  0.575204  0.000000  1
  Bi  Bi7  1  0.575204  0.424796  0.000000  1
  Bi  Bi8  1  0.923093  0.076907  0.500000  1
  Bi  Bi9  1  0.076907  0.923093  0.500000  1
  Sb  Sb10  1  0.035197  0.279679  0.837976  1
  Sb  Sb11  1  0.279679  0.035197  0.837976  1
  Sb  Sb12  1  0.964803  0.720321  0.162024  1
  Sb  Sb13  1  0.720321  0.964803  0.162024  1
  Sb  Sb14  1  0.883741  0.883741  0.875291  1
  Sb  Sb15  1  0.116259  0.116259  0.124709  1
  Se  Se16  1  0.126830  0.126830  0.634319  1
  Se  Se17  1  0.873170  0.873170  0.365681  1
  Se  Se18  1  0.807652  0.192348  0.000000  1
  Se  Se19  1  0.192348  0.807652  0.000000  1
  Se  Se20  1  0.243858  0.558477  0.838080  1
  Se  Se21  1  0.558477  0.243858  0.838080  1
  Se  Se22  1  0.756142  0.441523  0.161920  1
  Se  Se23  1  0.441523  0.756142  0.161920  1
  Se  Se24  1  0.993851  0.313774  0.598866  1
  Se  Se25  1  0.313774  0.993851  0.598866  1
  Se  Se26  1  0.006149  0.686226  0.401134  1
  Se  Se27  1  0.686226  0.006149  0.401134  1
  Se  Se28  1  0.363353  0.363353  0.875479  1
  Se  Se29  1  0.636647  0.636647  0.124521  1
  Se  Se30  1  0.697659  0.849735  0.772493  1
  Se  Se31  1  0.849735  0.697659  0.772493  1
  Se  Se32  1  0.302341  0.150265  0.227507  1
  Se  Se33  1  0.150265  0.302341  0.227507  1
