# generated using pymatgen
data_Pr17Eu3Si15Ag
_symmetry_space_group_name_H-M   'P 1'
_cell_length_a   7.94951891
_cell_length_b   7.93717683
_cell_length_c   15.31164600
_cell_angle_alpha   89.96811518
_cell_angle_beta   89.73518284
_cell_angle_gamma   90.10193066
_symmetry_Int_Tables_number   1
_chemical_formula_structural   Pr17Eu3Si15Ag
_chemical_formula_sum   'Pr17 Eu3 Si15 Ag1'
_cell_volume   966.10290273
_cell_formula_units_Z   1
loop_
 _symmetry_equiv_pos_site_id
 _symmetry_equiv_pos_as_xyz
  1  'x, y, z'
loop_
 _atom_site_type_symbol
 _atom_site_label
 _atom_site_symmetry_multiplicity
 _atom_site_fract_x
 _atom_site_fract_y
 _atom_site_fract_z
 _atom_site_occupancy
  Pr  Pr0  1  0.691125  0.689258  0.498737  1
  Pr  Pr1  1  0.375048  0.011250  0.447804  1
  Pr  Pr2  1  0.494019  0.868228  0.700039  1
  Pr  Pr3  1  0.509173  0.123808  0.197543  1
  Pr  Pr4  1  0.874663  0.489568  0.299149  1
  Pr  Pr5  1  0.120194  0.517442  0.803776  1
  Pr  Pr6  1  0.628041  0.990036  0.950489  1
  Pr  Pr7  1  0.999776  0.379971  0.548249  1
  Pr  Pr8  1  0.989324  0.625097  0.051221  1
  Pr  Pr9  1  0.132063  0.988118  0.878011  1
  Pr  Pr10  1  0.514954  0.627779  0.125734  1
  Pr  Pr11  1  0.485430  0.373296  0.627816  1
  Pr  Pr12  1  0.628888  0.516227  0.875816  1
  Pr  Pr13  1  0.373487  0.482417  0.373431  1
  Pr  Pr14  1  0.872449  0.018318  0.375536  1
  Pr  Pr15  1  0.985065  0.126250  0.124326  1
  Pr  Pr16  1  0.013571  0.866436  0.622220  1
  Eu  Eu17  1  0.308017  0.308610  0.998919  1
  Eu  Eu18  1  0.191052  0.808167  0.250165  1
  Eu  Eu19  1  0.802073  0.188119  0.751018  1
  Si  Si20  1  0.334256  0.699831  0.949758  1
  Si  Si21  1  0.663573  0.301847  0.451162  1
  Si  Si22  1  0.702037  0.334770  0.051403  1
  Si  Si23  1  0.306205  0.669065  0.547436  1
  Si  Si24  1  0.799847  0.834891  0.199917  1
  Si  Si25  1  0.165186  0.201206  0.298978  1
  Si  Si26  1  0.837650  0.800580  0.801009  1
  Si  Si27  1  0.289036  0.919555  0.058644  1
  Si  Si28  1  0.580826  0.786420  0.309010  1
  Si  Si29  1  0.430989  0.208359  0.814958  1
  Si  Si30  1  0.787991  0.581066  0.691102  1
  Si  Si31  1  0.211660  0.420845  0.190702  1
  Si  Si32  1  0.705860  0.075515  0.558099  1
  Si  Si33  1  0.920574  0.289182  0.942074  1
  Si  Si34  1  0.078714  0.711612  0.441026  1
  Ag  Ag35  1  0.197187  0.166856  0.694725  1
