# generated using pymatgen
data_KBaCrO4
_symmetry_space_group_name_H-M   'P 1'
_cell_length_a   6.00316500
_cell_length_b   7.90613200
_cell_length_c   10.42958100
_cell_angle_alpha   90.00000000
_cell_angle_beta   90.00000000
_cell_angle_gamma   90.00000000
_symmetry_Int_Tables_number   1
_chemical_formula_structural   KBaCrO4
_chemical_formula_sum   'K4 Ba4 Cr4 O16'
_cell_volume   495.00684299
_cell_formula_units_Z   4
loop_
 _symmetry_equiv_pos_site_id
 _symmetry_equiv_pos_as_xyz
  1  'x, y, z'
loop_
 _atom_site_type_symbol
 _atom_site_label
 _atom_site_symmetry_multiplicity
 _atom_site_fract_x
 _atom_site_fract_y
 _atom_site_fract_z
 _atom_site_occupancy
  K  K0  1  0.250000  0.834442  0.421665  1
  K  K1  1  0.250000  0.334442  0.078335  1
  K  K2  1  0.750000  0.165558  0.578335  1
  K  K3  1  0.750000  0.665558  0.921665  1
  Ba  Ba4  1  0.250000  0.504627  0.695287  1
  Ba  Ba5  1  0.250000  0.004627  0.804713  1
  Ba  Ba6  1  0.750000  0.495373  0.304713  1
  Ba  Ba7  1  0.750000  0.995373  0.195287  1
  Cr  Cr8  1  0.250000  0.269946  0.417728  1
  Cr  Cr9  1  0.250000  0.769946  0.082272  1
  Cr  Cr10  1  0.750000  0.730054  0.582272  1
  Cr  Cr11  1  0.750000  0.230054  0.917728  1
  O  O12  1  0.250000  0.188353  0.572478  1
  O  O13  1  0.250000  0.688353  0.927522  1
  O  O14  1  0.750000  0.811647  0.427522  1
  O  O15  1  0.750000  0.311647  0.072478  1
  O  O16  1  0.008499  0.206316  0.342141  1
  O  O17  1  0.491501  0.706316  0.157859  1
  O  O18  1  0.508499  0.793684  0.657859  1
  O  O19  1  0.991501  0.293684  0.842141  1
  O  O20  1  0.991501  0.793684  0.657859  1
  O  O21  1  0.508499  0.293684  0.842141  1
  O  O22  1  0.491501  0.206316  0.342141  1
  O  O23  1  0.008499  0.706316  0.157859  1
  O  O24  1  0.250000  0.487861  0.421592  1
  O  O25  1  0.250000  0.987861  0.078408  1
  O  O26  1  0.750000  0.512139  0.578408  1
  O  O27  1  0.750000  0.012139  0.921592  1
