# generated using pymatgen
data_Li2Sc5Co17P12
_symmetry_space_group_name_H-M   'P 1'
_cell_length_a   11.84169599
_cell_length_b   11.84169606
_cell_length_c   3.59944500
_cell_angle_alpha   90.00000000
_cell_angle_beta   90.00000000
_cell_angle_gamma   119.84307175
_symmetry_Int_Tables_number   1
_chemical_formula_structural   Li2Sc5Co17P12
_chemical_formula_sum   'Li2 Sc5 Co17 P12'
_cell_volume   437.80284225
_cell_formula_units_Z   1
loop_
 _symmetry_equiv_pos_site_id
 _symmetry_equiv_pos_as_xyz
  1  'x, y, z'
loop_
 _atom_site_type_symbol
 _atom_site_label
 _atom_site_symmetry_multiplicity
 _atom_site_fract_x
 _atom_site_fract_y
 _atom_site_fract_z
 _atom_site_occupancy
  Li  Li0  1  0.441099  0.999703  0.000000  1
  Li  Li1  1  0.999703  0.441099  0.000000  1
  Sc  Sc2  1  0.332949  0.666359  0.000000  1
  Sc  Sc3  1  0.666359  0.332949  0.000000  1
  Sc  Sc4  1  0.812718  0.999504  0.500000  1
  Sc  Sc5  1  0.999504  0.812718  0.500000  1
  Sc  Sc6  1  0.187861  0.187861  0.500000  1
  Co  Co7  1  0.550880  0.550880  0.000000  1
  Co  Co8  1  0.359159  0.484632  0.500000  1
  Co  Co9  1  0.515022  0.869959  0.500000  1
  Co  Co10  1  0.124542  0.643488  0.500000  1
  Co  Co11  1  0.869959  0.515022  0.500000  1
  Co  Co12  1  0.643488  0.124542  0.500000  1
  Co  Co13  1  0.484632  0.359159  0.500000  1
  Co  Co14  1  0.181472  0.377876  0.000000  1
  Co  Co15  1  0.624862  0.800942  0.000000  1
  Co  Co16  1  0.196288  0.822014  0.000000  1
  Co  Co17  1  0.800942  0.624862  0.000000  1
  Co  Co18  1  0.822014  0.196288  0.000000  1
  Co  Co19  1  0.377876  0.181472  0.000000  1
  Co  Co20  1  0.283733  0.002086  0.500000  1
  Co  Co21  1  0.002086  0.283733  0.500000  1
  Co  Co22  1  0.717527  0.717527  0.500000  1
  Co  Co23  1  0.001663  0.001663  0.000000  1
  P  P24  1  0.180246  0.001819  0.000000  1
  P  P25  1  0.001819  0.180246  0.000000  1
  P  P26  1  0.822890  0.822890  0.000000  1
  P  P27  1  0.171780  0.486041  0.500000  1
  P  P28  1  0.517976  0.684362  0.500000  1
  P  P29  1  0.311435  0.828332  0.500000  1
  P  P30  1  0.684362  0.517976  0.500000  1
  P  P31  1  0.828332  0.311435  0.500000  1
  P  P32  1  0.486041  0.171780  0.500000  1
  P  P33  1  0.636036  0.998196  0.000000  1
  P  P34  1  0.998196  0.636036  0.000000  1
  P  P35  1  0.364551  0.364551  0.000000  1
