# generated using pymatgen
data_LuZrBIr6
_symmetry_space_group_name_H-M   'P 1'
_cell_length_a   5.76983329
_cell_length_b   5.76983323
_cell_length_c   5.76983300
_cell_angle_alpha   59.99999556
_cell_angle_beta   59.99999593
_cell_angle_gamma   60.00000023
_symmetry_Int_Tables_number   1
_chemical_formula_structural   LuZrBIr6
_chemical_formula_sum   'Lu1 Zr1 B1 Ir6'
_cell_volume   135.82344564
_cell_formula_units_Z   1
loop_
 _symmetry_equiv_pos_site_id
 _symmetry_equiv_pos_as_xyz
  1  'x, y, z'
loop_
 _atom_site_type_symbol
 _atom_site_label
 _atom_site_symmetry_multiplicity
 _atom_site_fract_x
 _atom_site_fract_y
 _atom_site_fract_z
 _atom_site_occupancy
  Lu  Lu0  1  0.750000  0.750000  0.750000  1
  Zr  Zr1  1  0.250000  0.250000  0.250000  1
  B  B2  1  0.000000  0.000000  0.000000  1
  Ir  Ir3  1  0.741771  0.741771  0.258229  1
  Ir  Ir4  1  0.258229  0.741771  0.258229  1
  Ir  Ir5  1  0.741771  0.258229  0.258229  1
  Ir  Ir6  1  0.258229  0.258229  0.741771  1
  Ir  Ir7  1  0.741771  0.258229  0.741771  1
  Ir  Ir8  1  0.258229  0.741771  0.741771  1
