# generated using pymatgen
data_SmDyTh3Sn3C
_symmetry_space_group_name_H-M   'P 1'
_cell_length_a   9.26992800
_cell_length_b   9.26992701
_cell_length_c   6.53011800
_cell_angle_alpha   90.00000000
_cell_angle_beta   90.00000000
_cell_angle_gamma   120.00000352
_symmetry_Int_Tables_number   1
_chemical_formula_structural   SmDyTh3Sn3C
_chemical_formula_sum   'Sm2 Dy2 Th6 Sn6 C2'
_cell_volume   485.96424953
_cell_formula_units_Z   2
loop_
 _symmetry_equiv_pos_site_id
 _symmetry_equiv_pos_as_xyz
  1  'x, y, z'
loop_
 _atom_site_type_symbol
 _atom_site_label
 _atom_site_symmetry_multiplicity
 _atom_site_fract_x
 _atom_site_fract_y
 _atom_site_fract_z
 _atom_site_occupancy
  Sm  Sm0  1  0.333333  0.666667  0.000000  1
  Sm  Sm1  1  0.666667  0.333333  0.000000  1
  Dy  Dy2  1  0.666667  0.333333  0.500000  1
  Dy  Dy3  1  0.333333  0.666667  0.500000  1
  Th  Th4  1  0.777856  0.777856  0.250481  1
  Th  Th5  1  0.222144  0.000000  0.250481  1
  Th  Th6  1  0.000000  0.222144  0.250481  1
  Th  Th7  1  0.222144  0.222144  0.749519  1
  Th  Th8  1  0.777856  0.000000  0.749519  1
  Th  Th9  1  0.000000  0.777856  0.749519  1
  Sn  Sn10  1  0.404686  0.404686  0.253363  1
  Sn  Sn11  1  0.595314  0.000000  0.253363  1
  Sn  Sn12  1  0.000000  0.595314  0.253363  1
  Sn  Sn13  1  0.595314  0.595314  0.746637  1
  Sn  Sn14  1  0.404686  0.000000  0.746637  1
  Sn  Sn15  1  0.000000  0.404686  0.746637  1
  C  C16  1  0.000000  0.000000  0.500000  1
  C  C17  1  0.000000  0.000000  0.000000  1
