# generated using pymatgen
data_Tm12Ga2Fe2Os
_symmetry_space_group_name_H-M   'P 1'
_cell_length_a   8.11770259
_cell_length_b   8.11770333
_cell_length_c   8.11770300
_cell_angle_alpha   109.12726283
_cell_angle_beta   109.12725724
_cell_angle_gamma   110.16134824
_symmetry_Int_Tables_number   1
_chemical_formula_structural   Tm12Ga2Fe2Os
_chemical_formula_sum   'Tm12 Ga2 Fe2 Os1'
_cell_volume   411.74684842
_cell_formula_units_Z   1
loop_
 _symmetry_equiv_pos_site_id
 _symmetry_equiv_pos_as_xyz
  1  'x, y, z'
loop_
 _atom_site_type_symbol
 _atom_site_label
 _atom_site_symmetry_multiplicity
 _atom_site_fract_x
 _atom_site_fract_y
 _atom_site_fract_z
 _atom_site_occupancy
  Tm  Tm0  1  0.189759  0.433782  0.244022  1
  Tm  Tm1  1  0.810241  0.566218  0.755978  1
  Tm  Tm2  1  0.189759  0.945739  0.755978  1
  Tm  Tm3  1  0.945739  0.189759  0.755978  1
  Tm  Tm4  1  0.810241  0.054261  0.244022  1
  Tm  Tm5  1  0.054261  0.810241  0.244022  1
  Tm  Tm6  1  0.433782  0.189759  0.244022  1
  Tm  Tm7  1  0.566218  0.810241  0.755978  1
  Tm  Tm8  1  0.307639  0.307639  0.615276  1
  Tm  Tm9  1  0.692361  0.692361  0.384724  1
  Tm  Tm10  1  0.692361  0.307639  0.000000  1
  Tm  Tm11  1  0.307639  0.692361  0.000000  1
  Ga  Ga12  1  0.000000  0.500000  0.500000  1
  Ga  Ga13  1  0.500000  0.000000  0.500000  1
  Fe  Fe14  1  0.383110  0.383110  0.000000  1
  Fe  Fe15  1  0.616890  0.616890  0.000000  1
  Os  Os16  1  0.000000  0.000000  0.000000  1
