# generated using pymatgen
data_Pr2LuCoSn6
_symmetry_space_group_name_H-M   'P 1'
_cell_length_a   8.50150843
_cell_length_b   8.50150874
_cell_length_c   13.42221400
_cell_angle_alpha   90.00000000
_cell_angle_beta   90.00000000
_cell_angle_gamma   148.48416080
_symmetry_Int_Tables_number   1
_chemical_formula_structural   Pr2LuCoSn6
_chemical_formula_sum   'Pr4 Lu2 Co2 Sn12'
_cell_volume   507.10409056
_cell_formula_units_Z   2
loop_
 _symmetry_equiv_pos_site_id
 _symmetry_equiv_pos_as_xyz
  1  'x, y, z'
loop_
 _atom_site_type_symbol
 _atom_site_label
 _atom_site_symmetry_multiplicity
 _atom_site_fract_x
 _atom_site_fract_y
 _atom_site_fract_z
 _atom_site_occupancy
  Pr  Pr0  1  0.901227  0.098773  0.092327  1
  Pr  Pr1  1  0.098773  0.901227  0.592327  1
  Pr  Pr2  1  0.098773  0.901227  0.907673  1
  Pr  Pr3  1  0.901227  0.098773  0.407673  1
  Lu  Lu4  1  0.898393  0.101607  0.750000  1
  Lu  Lu5  1  0.101607  0.898393  0.250000  1
  Co  Co6  1  0.295530  0.704470  0.250000  1
  Co  Co7  1  0.704470  0.295530  0.750000  1
  Sn  Sn8  1  0.754946  0.245054  0.571918  1
  Sn  Sn9  1  0.426618  0.573382  0.581246  1
  Sn  Sn10  1  0.573382  0.426618  0.418754  1
  Sn  Sn11  1  0.731551  0.268449  0.250000  1
  Sn  Sn12  1  0.268449  0.731551  0.750000  1
  Sn  Sn13  1  0.245054  0.754946  0.071918  1
  Sn  Sn14  1  0.245054  0.754946  0.428082  1
  Sn  Sn15  1  0.573382  0.426618  0.081246  1
  Sn  Sn16  1  0.453685  0.546315  0.250000  1
  Sn  Sn17  1  0.546315  0.453685  0.750000  1
  Sn  Sn18  1  0.754946  0.245054  0.928082  1
  Sn  Sn19  1  0.426618  0.573382  0.918754  1
