# generated using pymatgen
data_Tb6HoCd(Co3Sn11)2
_symmetry_space_group_name_H-M   'P 1'
_cell_length_a   9.69927202
_cell_length_b   9.69927087
_cell_length_c   10.03353603
_cell_angle_alpha   89.99258859
_cell_angle_beta   90.00740992
_cell_angle_gamma   120.00144096
_symmetry_Int_Tables_number   1
_chemical_formula_structural   Tb6HoCd(Co3Sn11)2
_chemical_formula_sum   'Tb6 Ho1 Cd1 Co6 Sn22'
_cell_volume   817.44127489
_cell_formula_units_Z   1
loop_
 _symmetry_equiv_pos_site_id
 _symmetry_equiv_pos_as_xyz
  1  'x, y, z'
loop_
 _atom_site_type_symbol
 _atom_site_label
 _atom_site_symmetry_multiplicity
 _atom_site_fract_x
 _atom_site_fract_y
 _atom_site_fract_z
 _atom_site_occupancy
  Tb  Tb0  1  0.999996  0.000004  0.000010  1
  Tb  Tb1  1  0.521075  0.478925  0.693641  1
  Tb  Tb2  1  0.521073  0.042156  0.693703  1
  Tb  Tb3  1  0.957844  0.478927  0.693703  1
  Tb  Tb4  1  0.042164  0.521080  0.306293  1
  Tb  Tb5  1  0.478920  0.957836  0.306293  1
  Ho  Ho6  1  0.479006  0.520994  0.306318  1
  Cd  Cd7  1  0.999998  0.000002  0.499996  1
  Co  Co8  1  0.167929  0.832071  0.803155  1
  Co  Co9  1  0.167923  0.335848  0.803149  1
  Co  Co10  1  0.664152  0.832077  0.803149  1
  Co  Co11  1  0.335903  0.168068  0.196898  1
  Co  Co12  1  0.831932  0.664097  0.196898  1
  Co  Co13  1  0.832082  0.167918  0.196859  1
  Sn  Sn14  1  0.666630  0.333370  0.181403  1
  Sn  Sn15  1  0.666661  0.333339  0.881142  1
  Sn  Sn16  1  0.333459  0.666541  0.119012  1
  Sn  Sn17  1  0.346162  0.346148  0.000065  1
  Sn  Sn18  1  0.999961  0.653866  0.000006  1
  Sn  Sn19  1  0.653887  0.000002  0.000020  1
  Sn  Sn20  1  0.653852  0.653838  0.000065  1
  Sn  Sn21  1  0.333335  0.666665  0.818607  1
  Sn  Sn22  1  0.435349  0.217862  0.452892  1
  Sn  Sn23  1  0.217667  0.782333  0.546995  1
  Sn  Sn24  1  0.217760  0.435354  0.546899  1
  Sn  Sn25  1  0.564646  0.782240  0.546899  1
  Sn  Sn26  1  0.116507  0.883493  0.271215  1
  Sn  Sn27  1  0.782138  0.564651  0.452892  1
  Sn  Sn28  1  0.782333  0.217667  0.452983  1
  Sn  Sn29  1  0.346134  0.000039  0.000006  1
  Sn  Sn30  1  0.116680  0.233157  0.271220  1
  Sn  Sn31  1  0.766843  0.883320  0.271220  1
  Sn  Sn32  1  0.233036  0.116518  0.728790  1
  Sn  Sn33  1  0.883482  0.766964  0.728790  1
  Sn  Sn34  1  0.883482  0.116518  0.728790  1
  Sn  Sn35  1  0.999998  0.346113  0.000020  1
