# generated using pymatgen
data_TbHo(Er4Bi3)2
_symmetry_space_group_name_H-M   'P 1'
_cell_length_a   8.21077100
_cell_length_b   9.47331400
_cell_length_c   11.96710000
_cell_angle_alpha   90.00000000
_cell_angle_beta   90.00000000
_cell_angle_gamma   90.00000000
_symmetry_Int_Tables_number   1
_chemical_formula_structural   TbHo(Er4Bi3)2
_chemical_formula_sum   'Tb2 Ho2 Er16 Bi12'
_cell_volume   930.83947471
_cell_formula_units_Z   2
loop_
 _symmetry_equiv_pos_site_id
 _symmetry_equiv_pos_as_xyz
  1  'x, y, z'
loop_
 _atom_site_type_symbol
 _atom_site_label
 _atom_site_symmetry_multiplicity
 _atom_site_fract_x
 _atom_site_fract_y
 _atom_site_fract_z
 _atom_site_occupancy
  Tb  Tb0  1  0.314335  0.250000  0.218401  1
  Tb  Tb1  1  0.814335  0.250000  0.281599  1
  Ho  Ho2  1  0.685935  0.750000  0.781994  1
  Ho  Ho3  1  0.185935  0.750000  0.718006  1
  Er  Er4  1  0.353518  0.750000  0.216701  1
  Er  Er5  1  0.853518  0.750000  0.283299  1
  Er  Er6  1  0.646430  0.250000  0.783251  1
  Er  Er7  1  0.146430  0.250000  0.716749  1
  Er  Er8  1  0.692073  0.564951  0.059218  1
  Er  Er9  1  0.192073  0.935049  0.440782  1
  Er  Er10  1  0.307863  0.064939  0.940600  1
  Er  Er11  1  0.807863  0.435061  0.559400  1
  Er  Er12  1  0.307863  0.435061  0.940600  1
  Er  Er13  1  0.807863  0.064939  0.559400  1
  Er  Er14  1  0.692073  0.935049  0.059218  1
  Er  Er15  1  0.192073  0.564951  0.440782  1
  Er  Er16  1  0.476537  0.250000  0.489194  1
  Er  Er17  1  0.976537  0.250000  0.010806  1
  Er  Er18  1  0.523434  0.750000  0.511112  1
  Er  Er19  1  0.023434  0.750000  0.988888  1
  Bi  Bi20  1  0.405135  0.750000  0.957830  1
  Bi  Bi21  1  0.905135  0.750000  0.542170  1
  Bi  Bi22  1  0.595108  0.250000  0.041541  1
  Bi  Bi23  1  0.095108  0.250000  0.458459  1
  Bi  Bi24  1  0.566049  0.995200  0.326096  1
  Bi  Bi25  1  0.066049  0.504800  0.173904  1
  Bi  Bi26  1  0.433799  0.495872  0.674121  1
  Bi  Bi27  1  0.933799  0.004128  0.825879  1
  Bi  Bi28  1  0.433799  0.004128  0.674121  1
  Bi  Bi29  1  0.933799  0.495872  0.825879  1
  Bi  Bi30  1  0.566049  0.504800  0.326096  1
  Bi  Bi31  1  0.066049  0.995200  0.173904  1
