# generated using pymatgen
data_Cs6DyNpI12
_symmetry_space_group_name_H-M   'P 1'
_cell_length_a   10.72913486
_cell_length_b   10.73757652
_cell_length_c   8.88016500
_cell_angle_alpha   90.00000000
_cell_angle_beta   90.00000000
_cell_angle_gamma   89.47988663
_symmetry_Int_Tables_number   1
_chemical_formula_structural   Cs6DyNpI12
_chemical_formula_sum   'Cs6 Dy1 Np1 I12'
_cell_volume   1022.99642740
_cell_formula_units_Z   1
loop_
 _symmetry_equiv_pos_site_id
 _symmetry_equiv_pos_as_xyz
  1  'x, y, z'
loop_
 _atom_site_type_symbol
 _atom_site_label
 _atom_site_symmetry_multiplicity
 _atom_site_fract_x
 _atom_site_fract_y
 _atom_site_fract_z
 _atom_site_occupancy
  Cs  Cs0  1  0.000000  0.000000  0.500000  1
  Cs  Cs1  1  0.000000  0.000000  0.000000  1
  Cs  Cs2  1  0.232696  0.587067  0.500000  1
  Cs  Cs3  1  0.767304  0.412933  0.500000  1
  Cs  Cs4  1  0.412795  0.233932  0.000000  1
  Cs  Cs5  1  0.587205  0.766068  0.000000  1
  Dy  Dy6  1  0.000000  0.500000  0.000000  1
  Np  Np7  1  0.500000  0.000000  0.500000  1
  I  I8  1  0.698279  0.060753  0.747239  1
  I  I9  1  0.301721  0.939247  0.747239  1
  I  I10  1  0.941274  0.693525  0.242494  1
  I  I11  1  0.058726  0.306475  0.242494  1
  I  I12  1  0.301721  0.939247  0.252761  1
  I  I13  1  0.698279  0.060753  0.252761  1
  I  I14  1  0.058726  0.306475  0.757506  1
  I  I15  1  0.941274  0.693525  0.757506  1
  I  I16  1  0.569760  0.718795  0.500000  1
  I  I17  1  0.430240  0.281205  0.500000  1
  I  I18  1  0.273552  0.568841  0.000000  1
  I  I19  1  0.726448  0.431159  0.000000  1
