# generated using pymatgen
data_Li4Dy3YSnSb3
_symmetry_space_group_name_H-M   'P 1'
_cell_length_a   9.45402013
_cell_length_b   9.45131931
_cell_length_c   7.04986600
_cell_angle_alpha   90.00000447
_cell_angle_beta   90.00219216
_cell_angle_gamma   119.99054714
_symmetry_Int_Tables_number   1
_chemical_formula_structural   Li4Dy3YSnSb3
_chemical_formula_sum   'Li8 Dy6 Y2 Sn2 Sb6'
_cell_volume   545.58423465
_cell_formula_units_Z   2
loop_
 _symmetry_equiv_pos_site_id
 _symmetry_equiv_pos_as_xyz
  1  'x, y, z'
loop_
 _atom_site_type_symbol
 _atom_site_label
 _atom_site_symmetry_multiplicity
 _atom_site_fract_x
 _atom_site_fract_y
 _atom_site_fract_z
 _atom_site_occupancy
  Li  Li0  1  0.166980  0.334048  0.274321  1
  Li  Li1  1  0.166980  0.832932  0.274321  1
  Li  Li2  1  0.665878  0.832939  0.274260  1
  Li  Li3  1  0.833015  0.665939  0.774304  1
  Li  Li4  1  0.833015  0.167076  0.774304  1
  Li  Li5  1  0.334118  0.167059  0.774368  1
  Li  Li6  1  0.333343  0.666672  0.693106  1
  Li  Li7  1  0.666658  0.333328  0.192976  1
  Dy  Dy8  1  0.983022  0.491511  0.494121  1
  Dy  Dy9  1  0.491496  0.983041  0.994162  1
  Dy  Dy10  1  0.491496  0.508456  0.994162  1
  Dy  Dy11  1  0.016920  0.508461  0.994094  1
  Dy  Dy12  1  0.000006  0.000003  0.501132  1
  Dy  Dy13  1  0.000007  0.000004  0.001119  1
  Y  Y14  1  0.508549  0.017109  0.494154  1
  Y  Y15  1  0.508549  0.491440  0.494154  1
  Sn  Sn16  1  0.333276  0.666639  0.258336  1
  Sn  Sn17  1  0.666758  0.333379  0.759198  1
  Sb  Sb18  1  0.166239  0.332631  0.737759  1
  Sb  Sb19  1  0.166239  0.833607  0.737759  1
  Sb  Sb20  1  0.667388  0.833694  0.737958  1
  Sb  Sb21  1  0.833763  0.667370  0.237399  1
  Sb  Sb22  1  0.833763  0.166393  0.237399  1
  Sb  Sb23  1  0.332543  0.166272  0.237125  1
