# generated using pymatgen
data_Tb3BiO7
_symmetry_space_group_name_H-M   'P 1'
_cell_length_a   6.59820557
_cell_length_b   6.58021060
_cell_length_c   7.75996219
_cell_angle_alpha   106.88165763
_cell_angle_beta   89.72052545
_cell_angle_gamma   98.65340949
_symmetry_Int_Tables_number   1
_chemical_formula_structural   Tb3BiO7
_chemical_formula_sum   'Tb6 Bi2 O14'
_cell_volume   318.46141122
_cell_formula_units_Z   2
loop_
 _symmetry_equiv_pos_site_id
 _symmetry_equiv_pos_as_xyz
  1  'x, y, z'
loop_
 _atom_site_type_symbol
 _atom_site_label
 _atom_site_symmetry_multiplicity
 _atom_site_fract_x
 _atom_site_fract_y
 _atom_site_fract_z
 _atom_site_occupancy
  Tb  Tb0  1  0.461625  0.005412  0.251748  1
  Tb  Tb1  1  0.538375  0.994588  0.748252  1
  Tb  Tb2  1  0.272112  0.537300  0.882705  1
  Tb  Tb3  1  0.727888  0.462700  0.117295  1
  Tb  Tb4  1  0.733326  0.474785  0.612209  1
  Tb  Tb5  1  0.266674  0.525215  0.387791  1
  Bi  Bi6  1  0.000000  0.000000  0.500000  1
  Bi  Bi7  1  0.000000  0.000000  0.000000  1
  O  O8  1  0.445466  0.648065  0.167134  1
  O  O9  1  0.554534  0.351935  0.832866  1
  O  O10  1  0.301302  0.921527  0.951171  1
  O  O11  1  0.698698  0.078473  0.048829  1
  O  O12  1  0.297894  0.922514  0.512389  1
  O  O13  1  0.702106  0.077486  0.487611  1
  O  O14  1  0.545108  0.363478  0.344886  1
  O  O15  1  0.454892  0.636522  0.655114  1
  O  O16  1  0.925197  0.667712  0.960497  1
  O  O17  1  0.074803  0.332288  0.039503  1
  O  O18  1  0.070551  0.348739  0.619834  1
  O  O19  1  0.929449  0.651261  0.380166  1
  O  O20  1  0.875436  0.902488  0.724939  1
  O  O21  1  0.124564  0.097512  0.275061  1
