# generated using pymatgen
data_Y16MgCd2Ni4Ag
_symmetry_space_group_name_H-M   'P 1'
_cell_length_a   9.57227288
_cell_length_b   9.57227354
_cell_length_c   9.56951861
_cell_angle_alpha   60.20253496
_cell_angle_beta   60.20253561
_cell_angle_gamma   60.08837766
_symmetry_Int_Tables_number   1
_chemical_formula_structural   Y16MgCd2Ni4Ag
_chemical_formula_sum   'Y16 Mg1 Cd2 Ni4 Ag1'
_cell_volume   622.32753185
_cell_formula_units_Z   1
loop_
 _symmetry_equiv_pos_site_id
 _symmetry_equiv_pos_as_xyz
  1  'x, y, z'
loop_
 _atom_site_type_symbol
 _atom_site_label
 _atom_site_symmetry_multiplicity
 _atom_site_fract_x
 _atom_site_fract_y
 _atom_site_fract_z
 _atom_site_occupancy
  Y  Y0  1  0.596644  0.596644  0.596286  1
  Y  Y1  1  0.600887  0.600887  0.198468  1
  Y  Y2  1  0.598280  0.203494  0.600233  1
  Y  Y3  1  0.203494  0.598280  0.600233  1
  Y  Y4  1  0.062217  0.439567  0.439234  1
  Y  Y5  1  0.439143  0.060392  0.060478  1
  Y  Y6  1  0.439567  0.062217  0.439234  1
  Y  Y7  1  0.060392  0.439143  0.060478  1
  Y  Y8  1  0.441014  0.441014  0.060024  1
  Y  Y9  1  0.062300  0.062300  0.437555  1
  Y  Y10  1  0.184528  0.813733  0.812602  1
  Y  Y11  1  0.812806  0.186870  0.185268  1
  Y  Y12  1  0.813733  0.184528  0.812602  1
  Y  Y13  1  0.186870  0.812806  0.185268  1
  Y  Y14  1  0.814025  0.814025  0.182690  1
  Y  Y15  1  0.186591  0.186591  0.811293  1
  Mg  Mg16  1  0.825961  0.825961  0.524486  1
  Cd  Cd17  1  0.831601  0.506296  0.831862  1
  Cd  Cd18  1  0.506296  0.831601  0.831862  1
  Ni  Ni19  1  0.393458  0.393458  0.392623  1
  Ni  Ni20  1  0.391726  0.391726  0.824444  1
  Ni  Ni21  1  0.392312  0.822950  0.390903  1
  Ni  Ni22  1  0.822950  0.392312  0.390903  1
  Ag  Ag23  1  0.833208  0.833208  0.830968  1
