# generated using pymatgen
data_YHo5Er10(CdPt)4
_symmetry_space_group_name_H-M   'P 1'
_cell_length_a   9.62391926
_cell_length_b   9.62391881
_cell_length_c   9.62524200
_cell_angle_alpha   59.99544489
_cell_angle_beta   59.99544643
_cell_angle_gamma   59.98214525
_symmetry_Int_Tables_number   1
_chemical_formula_structural   YHo5Er10(CdPt)4
_chemical_formula_sum   'Y1 Ho5 Er10 Cd4 Pt4'
_cell_volume   630.24883610
_cell_formula_units_Z   1
loop_
 _symmetry_equiv_pos_site_id
 _symmetry_equiv_pos_as_xyz
  1  'x, y, z'
loop_
 _atom_site_type_symbol
 _atom_site_label
 _atom_site_symmetry_multiplicity
 _atom_site_fract_x
 _atom_site_fract_y
 _atom_site_fract_z
 _atom_site_occupancy
  Y  Y0  1  0.936047  0.936047  0.563953  1
  Ho  Ho1  1  0.935871  0.563571  0.564481  1
  Ho  Ho2  1  0.563571  0.935871  0.936076  1
  Ho  Ho3  1  0.563571  0.935871  0.564481  1
  Ho  Ho4  1  0.935871  0.563571  0.936076  1
  Ho  Ho5  1  0.564706  0.564706  0.935294  1
  Er  Er6  1  0.352361  0.352361  0.351305  1
  Er  Er7  1  0.352361  0.352361  0.943973  1
  Er  Er8  1  0.353850  0.941304  0.352422  1
  Er  Er9  1  0.941304  0.353850  0.352422  1
  Er  Er10  1  0.810846  0.189252  0.189317  1
  Er  Er11  1  0.189252  0.810846  0.810585  1
  Er  Er12  1  0.189252  0.810846  0.189317  1
  Er  Er13  1  0.810846  0.189252  0.810585  1
  Er  Er14  1  0.189677  0.189677  0.810323  1
  Er  Er15  1  0.811056  0.811056  0.188944  1
  Cd  Cd16  1  0.581716  0.581716  0.581833  1
  Cd  Cd17  1  0.581716  0.581716  0.254735  1
  Cd  Cd18  1  0.581614  0.254805  0.581790  1
  Cd  Cd19  1  0.254805  0.581614  0.581790  1
  Pt  Pt20  1  0.143345  0.143345  0.143782  1
  Pt  Pt21  1  0.143345  0.143345  0.569527  1
  Pt  Pt22  1  0.143003  0.570010  0.143494  1
  Pt  Pt23  1  0.570010  0.143003  0.143494  1
