# generated using pymatgen
data_LiY4Lu3(B6Os)4
_symmetry_space_group_name_H-M   'P 1'
_cell_length_a   3.60150300
_cell_length_b   9.03455602
_cell_length_c   11.42190429
_cell_angle_alpha   89.94543367
_cell_angle_beta   90.00000000
_cell_angle_gamma   90.00000000
_symmetry_Int_Tables_number   1
_chemical_formula_structural   LiY4Lu3(B6Os)4
_chemical_formula_sum   'Li1 Y4 Lu3 B24 Os4'
_cell_volume   371.64553211
_cell_formula_units_Z   1
loop_
 _symmetry_equiv_pos_site_id
 _symmetry_equiv_pos_as_xyz
  1  'x, y, z'
loop_
 _atom_site_type_symbol
 _atom_site_label
 _atom_site_symmetry_multiplicity
 _atom_site_fract_x
 _atom_site_fract_y
 _atom_site_fract_z
 _atom_site_occupancy
  Li  Li0  1  0.000000  0.944799  0.373207  1
  Y  Y1  1  0.000000  0.319994  0.411044  1
  Y  Y2  1  0.000000  0.680569  0.581437  1
  Y  Y3  1  0.000000  0.823356  0.091390  1
  Y  Y4  1  0.000000  0.177894  0.917001  1
  Lu  Lu5  1  0.000000  0.055347  0.624821  1
  Lu  Lu6  1  0.000000  0.443374  0.129707  1
  Lu  Lu7  1  0.000000  0.556601  0.872011  1
  B  B8  1  0.500000  0.556258  0.432018  1
  B  B9  1  0.500000  0.445934  0.566360  1
  B  B10  1  0.500000  0.053663  0.069112  1
  B  B11  1  0.500000  0.946086  0.932910  1
  B  B12  1  0.500000  0.755779  0.417471  1
  B  B13  1  0.500000  0.248575  0.580082  1
  B  B14  1  0.500000  0.249458  0.082280  1
  B  B15  1  0.500000  0.749966  0.918907  1
  B  B16  1  0.500000  0.795612  0.266847  1
  B  B17  1  0.500000  0.206954  0.733766  1
  B  B18  1  0.500000  0.289512  0.235061  1
  B  B19  1  0.500000  0.708148  0.764894  1
  B  B20  1  0.500000  0.631409  0.186315  1
  B  B21  1  0.500000  0.369123  0.815288  1
  B  B22  1  0.500000  0.124770  0.317164  1
  B  B23  1  0.500000  0.869947  0.682906  1
  B  B24  1  0.500000  0.980403  0.215735  1
  B  B25  1  0.500000  0.017647  0.785689  1
  B  B26  1  0.500000  0.482880  0.287589  1
  B  B27  1  0.500000  0.517472  0.712714  1
  B  B28  1  0.500000  0.602907  0.028747  1
  B  B29  1  0.500000  0.397796  0.972414  1
  B  B30  1  0.500000  0.093731  0.469809  1
  B  B31  1  0.500000  0.902403  0.522561  1
  Os  Os32  1  0.000000  0.641953  0.320582  1
  Os  Os33  1  0.000000  0.360402  0.679982  1
  Os  Os34  1  0.000000  0.137074  0.182006  1
  Os  Os35  1  0.000000  0.862203  0.820173  1
