# generated using pymatgen
data_Pa4Al24Pt7Rh2
_symmetry_space_group_name_H-M   'P 1'
_cell_length_a   7.56759751
_cell_length_b   7.56519525
_cell_length_c   13.10800896
_cell_angle_alpha   84.51419014
_cell_angle_beta   101.09007323
_cell_angle_gamma   119.87986613
_symmetry_Int_Tables_number   1
_chemical_formula_structural   Pa4Al24Pt7Rh2
_chemical_formula_sum   'Pa4 Al24 Pt7 Rh2'
_cell_volume   638.53290590
_cell_formula_units_Z   1
loop_
 _symmetry_equiv_pos_site_id
 _symmetry_equiv_pos_as_xyz
  1  'x, y, z'
loop_
 _atom_site_type_symbol
 _atom_site_label
 _atom_site_symmetry_multiplicity
 _atom_site_fract_x
 _atom_site_fract_y
 _atom_site_fract_z
 _atom_site_occupancy
  Pa  Pa0  1  0.733437  0.999607  0.193651  1
  Pa  Pa1  1  0.267616  0.001682  0.806304  1
  Pa  Pa2  1  0.062926  0.667664  0.193527  1
  Pa  Pa3  1  0.936368  0.331171  0.806328  1
  Al  Al4  1  0.809989  0.869539  0.819235  1
  Al  Al5  1  0.190758  0.130179  0.180848  1
  Al  Al6  1  0.986091  0.669390  0.946614  1
  Al  Al7  1  0.020158  0.333891  0.052370  1
  Al  Al8  1  0.398243  0.662579  0.820715  1
  Al  Al9  1  0.598427  0.336225  0.181554  1
  Al  Al10  1  0.880457  0.665364  0.670535  1
  Al  Al11  1  0.120573  0.334323  0.329462  1
  Al  Al12  1  0.603343  0.460661  0.818358  1
  Al  Al13  1  0.396881  0.542343  0.179624  1
  Al  Al14  1  0.232984  0.343458  0.668979  1
  Al  Al15  1  0.766719  0.656595  0.331423  1
  Al  Al16  1  0.851746  0.333003  0.558270  1
  Al  Al17  1  0.186514  0.999723  0.558027  1
  Al  Al18  1  0.814071  0.000081  0.441987  1
  Al  Al19  1  0.347964  0.996451  0.052592  1
  Al  Al20  1  0.648724  0.998024  0.946784  1
  Al  Al21  1  0.556214  0.990242  0.671159  1
  Al  Al22  1  0.444246  0.009032  0.329562  1
  Al  Al23  1  0.521026  0.666660  0.560868  1
  Al  Al24  1  0.479138  0.333157  0.439106  1
  Al  Al25  1  0.682298  0.671340  0.043708  1
  Al  Al26  1  0.313720  0.331850  0.955822  1
  Al  Al27  1  0.148451  0.666305  0.442062  1
  Pt  Pt28  1  0.546616  0.324614  0.638799  1
  Pt  Pt29  1  0.453785  0.675177  0.360964  1
  Pt  Pt30  1  0.889057  0.008936  0.640216  1
  Pt  Pt31  1  0.110969  0.990609  0.359837  1
  Pt  Pt32  1  0.672150  0.328455  0.000238  1
  Pt  Pt33  1  0.204428  0.666580  0.639935  1
  Pt  Pt34  1  0.796162  0.332855  0.360296  1
  Rh  Rh35  1  0.328396  0.672020  0.000085  1
  Rh  Rh36  1  0.999358  0.000215  0.000156  1
