# generated using pymatgen
data_Rb4Zr6CBr18
_symmetry_space_group_name_H-M   'P 1'
_cell_length_a   10.60590644
_cell_length_b   10.82317195
_cell_length_c   10.93577448
_cell_angle_alpha   118.44993893
_cell_angle_beta   100.19429970
_cell_angle_gamma   104.02374722
_symmetry_Int_Tables_number   1
_chemical_formula_structural   Rb4Zr6CBr18
_chemical_formula_sum   'Rb4 Zr6 C1 Br18'
_cell_volume   1005.93046446
_cell_formula_units_Z   1
loop_
 _symmetry_equiv_pos_site_id
 _symmetry_equiv_pos_as_xyz
  1  'x, y, z'
loop_
 _atom_site_type_symbol
 _atom_site_label
 _atom_site_symmetry_multiplicity
 _atom_site_fract_x
 _atom_site_fract_y
 _atom_site_fract_z
 _atom_site_occupancy
  Rb  Rb0  1  0.188538  0.725362  0.563960  1
  Rb  Rb1  1  0.845127  0.962549  0.771986  1
  Rb  Rb2  1  0.154873  0.037451  0.228014  1
  Rb  Rb3  1  0.811462  0.274638  0.436040  1
  Zr  Zr4  1  0.355296  0.446006  0.779467  1
  Zr  Zr5  1  0.366723  0.620632  0.126887  1
  Zr  Zr6  1  0.640413  0.729260  0.043689  1
  Zr  Zr7  1  0.644704  0.553994  0.220533  1
  Zr  Zr8  1  0.359587  0.270740  0.956311  1
  Zr  Zr9  1  0.633277  0.379368  0.873113  1
  C  C10  1  0.500000  0.500000  0.000000  1
  Br  Br11  1  0.816959  0.424585  0.108563  1
  Br  Br12  1  0.514630  0.700677  0.400496  1
  Br  Br13  1  0.185506  0.988268  0.901916  1
  Br  Br14  1  0.183041  0.575415  0.891437  1
  Br  Br15  1  0.825798  0.828303  0.306335  1
  Br  Br16  1  0.503449  0.299234  0.204822  1
  Br  Br17  1  0.792748  0.232537  0.720005  1
  Br  Br18  1  0.174202  0.171697  0.693665  1
  Br  Br19  1  0.507681  0.901866  0.192909  1
  Br  Br20  1  0.813421  0.626069  0.905334  1
  Br  Br21  1  0.207252  0.767463  0.279995  1
  Br  Br22  1  0.174102  0.380797  0.508879  1
  Br  Br23  1  0.496551  0.700766  0.795178  1
  Br  Br24  1  0.814494  0.011732  0.098084  1
  Br  Br25  1  0.485370  0.299323  0.599504  1
  Br  Br26  1  0.186579  0.373931  0.094666  1
  Br  Br27  1  0.825898  0.619203  0.491121  1
  Br  Br28  1  0.492319  0.098134  0.807091  1
