# generated using pymatgen
data_Pr2Sc3Si7(Pt2Rh)3
_symmetry_space_group_name_H-M   'P 1'
_cell_length_a   10.10143000
_cell_length_b   10.10142864
_cell_length_c   3.98231000
_cell_angle_alpha   90.00000000
_cell_angle_beta   90.00000000
_cell_angle_gamma   119.99999791
_symmetry_Int_Tables_number   1
_chemical_formula_structural   Pr2Sc3Si7(Pt2Rh)3
_chemical_formula_sum   'Pr2 Sc3 Si7 Pt6 Rh3'
_cell_volume   351.90980219
_cell_formula_units_Z   1
loop_
 _symmetry_equiv_pos_site_id
 _symmetry_equiv_pos_as_xyz
  1  'x, y, z'
loop_
 _atom_site_type_symbol
 _atom_site_label
 _atom_site_symmetry_multiplicity
 _atom_site_fract_x
 _atom_site_fract_y
 _atom_site_fract_z
 _atom_site_occupancy
  Pr  Pr0  1  0.000000  0.000000  0.000000  1
  Pr  Pr1  1  0.333333  0.666667  0.500000  1
  Sc  Sc2  1  0.892698  0.452032  0.500000  1
  Sc  Sc3  1  0.559334  0.107302  0.500000  1
  Sc  Sc4  1  0.547968  0.440666  0.500000  1
  Si  Si5  1  0.250779  0.203876  0.500000  1
  Si  Si6  1  0.796124  0.046904  0.500000  1
  Si  Si7  1  0.953096  0.749221  0.500000  1
  Si  Si8  1  0.564024  0.650986  0.000000  1
  Si  Si9  1  0.349014  0.913037  0.000000  1
  Si  Si10  1  0.086963  0.435976  0.000000  1
  Si  Si11  1  0.666667  0.333333  0.000000  1
  Pt  Pt12  1  0.311609  0.406643  0.000000  1
  Pt  Pt13  1  0.593357  0.904966  0.000000  1
  Pt  Pt14  1  0.095034  0.688391  0.000000  1
  Pt  Pt15  1  0.386480  0.173863  0.000000  1
  Pt  Pt16  1  0.826137  0.212617  0.000000  1
  Pt  Pt17  1  0.787383  0.613520  0.000000  1
  Rh  Rh18  1  0.224021  0.940230  0.500000  1
  Rh  Rh19  1  0.059770  0.283792  0.500000  1
  Rh  Rh20  1  0.716208  0.775979  0.500000  1
