# generated using pymatgen
data_Y6Ho11Tm3Pb16
_symmetry_space_group_name_H-M   'P 1'
_cell_length_a   8.18554700
_cell_length_b   8.25723847
_cell_length_c   15.59082200
_cell_angle_alpha   90.01151156
_cell_angle_beta   90.00032898
_cell_angle_gamma   90.01554991
_symmetry_Int_Tables_number   1
_chemical_formula_structural   Y6Ho11Tm3Pb16
_chemical_formula_sum   'Y6 Ho11 Tm3 Pb16'
_cell_volume   1053.78381082
_cell_formula_units_Z   1
loop_
 _symmetry_equiv_pos_site_id
 _symmetry_equiv_pos_as_xyz
  1  'x, y, z'
loop_
 _atom_site_type_symbol
 _atom_site_label
 _atom_site_symmetry_multiplicity
 _atom_site_fract_x
 _atom_site_fract_y
 _atom_site_fract_z
 _atom_site_occupancy
  Y  Y0  1  0.464640  0.676185  0.399838  1
  Y  Y1  1  0.964856  0.823626  0.100069  1
  Y  Y2  1  0.464627  0.676210  0.100146  1
  Y  Y3  1  0.964857  0.823618  0.399951  1
  Y  Y4  1  0.535477  0.323708  0.599919  1
  Y  Y5  1  0.034855  0.176190  0.900137  1
  Ho  Ho6  1  0.377146  0.841538  0.879080  1
  Ho  Ho7  1  0.876647  0.658714  0.620920  1
  Ho  Ho8  1  0.622775  0.158600  0.378870  1
  Ho  Ho9  1  0.122807  0.341428  0.121263  1
  Ho  Ho10  1  0.622732  0.158722  0.120967  1
  Ho  Ho11  1  0.122756  0.341324  0.378837  1
  Ho  Ho12  1  0.377267  0.841513  0.620934  1
  Ho  Ho13  1  0.876753  0.658752  0.879072  1
  Ho  Ho14  1  0.535890  0.323935  0.900106  1
  Ho  Ho15  1  0.035558  0.175781  0.599932  1
  Ho  Ho16  1  0.208790  0.504123  0.750011  1
  Tm  Tm17  1  0.708929  0.995605  0.749995  1
  Tm  Tm18  1  0.791168  0.495498  0.249978  1
  Tm  Tm19  1  0.291041  0.004464  0.250030  1
  Pb  Pb20  1  0.281755  0.033737  0.043316  1
  Pb  Pb21  1  0.781866  0.466410  0.456679  1
  Pb  Pb22  1  0.718781  0.966942  0.543205  1
  Pb  Pb23  1  0.218752  0.533289  0.957112  1
  Pb  Pb24  1  0.717798  0.966710  0.956818  1
  Pb  Pb25  1  0.217773  0.533492  0.542869  1
  Pb  Pb26  1  0.281556  0.034030  0.456976  1
  Pb  Pb27  1  0.781662  0.466091  0.043010  1
  Pb  Pb28  1  0.572277  0.626553  0.750098  1
  Pb  Pb29  1  0.071627  0.874161  0.749927  1
  Pb  Pb30  1  0.428343  0.373447  0.249971  1
  Pb  Pb31  1  0.928149  0.126385  0.249985  1
  Pb  Pb32  1  0.348283  0.153343  0.750300  1
  Pb  Pb33  1  0.847691  0.345686  0.749728  1
  Pb  Pb34  1  0.652073  0.846303  0.249941  1
  Pb  Pb35  1  0.152037  0.653885  0.250010  1
