# generated using pymatgen
data_Yb8Be2FeN8
_symmetry_space_group_name_H-M   'P 1'
_cell_length_a   8.88632386
_cell_length_b   4.91563519
_cell_length_c   6.93808758
_cell_angle_alpha   90.00001065
_cell_angle_beta   75.39892898
_cell_angle_gamma   73.94356011
_symmetry_Int_Tables_number   1
_chemical_formula_structural   Yb8Be2FeN8
_chemical_formula_sum   'Yb8 Be2 Fe1 N8'
_cell_volume   281.04699546
_cell_formula_units_Z   1
loop_
 _symmetry_equiv_pos_site_id
 _symmetry_equiv_pos_as_xyz
  1  'x, y, z'
loop_
 _atom_site_type_symbol
 _atom_site_label
 _atom_site_symmetry_multiplicity
 _atom_site_fract_x
 _atom_site_fract_y
 _atom_site_fract_z
 _atom_site_occupancy
  Yb  Yb0  1  0.079194  0.960403  0.743509  1
  Yb  Yb1  1  0.952831  0.023584  0.254209  1
  Yb  Yb2  1  0.644251  0.677875  0.481744  1
  Yb  Yb3  1  0.327961  0.336020  0.520061  1
  Yb  Yb4  1  0.801381  0.599311  0.959113  1
  Yb  Yb5  1  0.183313  0.408343  0.038609  1
  Yb  Yb6  1  0.601364  0.199319  0.805725  1
  Yb  Yb7  1  0.405149  0.797425  0.170817  1
  Be  Be8  1  0.993065  0.503467  0.511998  1
  Be  Be9  1  0.377493  0.811253  0.793063  1
  Fe  Fe10  1  0.625225  0.187389  0.205407  1
  N  N11  1  0.207597  0.896201  0.996729  1
  N  N12  1  0.796742  0.101629  0.006083  1
  N  N13  1  0.354280  0.822860  0.559672  1
  N  N14  1  0.648060  0.175970  0.441949  1
  N  N15  1  0.568389  0.715806  0.830340  1
  N  N16  1  0.433723  0.283138  0.164592  1
  N  N17  1  0.044684  0.477659  0.709291  1
  N  N18  1  0.955299  0.522350  0.307088  1
