# generated using pymatgen
data_Y3Si2BRh6
_symmetry_space_group_name_H-M   'P 1'
_cell_length_a   5.53688400
_cell_length_b   5.53688383
_cell_length_c   14.68360400
_cell_angle_alpha   90.00000000
_cell_angle_beta   90.00000000
_cell_angle_gamma   120.00000104
_symmetry_Int_Tables_number   1
_chemical_formula_structural   Y3Si2BRh6
_chemical_formula_sum   'Y6 Si4 B2 Rh12'
_cell_volume   389.84693750
_cell_formula_units_Z   2
loop_
 _symmetry_equiv_pos_site_id
 _symmetry_equiv_pos_as_xyz
  1  'x, y, z'
loop_
 _atom_site_type_symbol
 _atom_site_label
 _atom_site_symmetry_multiplicity
 _atom_site_fract_x
 _atom_site_fract_y
 _atom_site_fract_z
 _atom_site_occupancy
  Y  Y0  1  0.666667  0.333333  0.971137  1
  Y  Y1  1  0.666667  0.333333  0.528863  1
  Y  Y2  1  0.333333  0.666667  0.042294  1
  Y  Y3  1  0.666667  0.333333  0.750000  1
  Y  Y4  1  0.333333  0.666667  0.457706  1
  Y  Y5  1  0.333333  0.666667  0.250000  1
  Si  Si6  1  0.000000  0.000000  0.488676  1
  Si  Si7  1  0.000000  0.000000  0.750000  1
  Si  Si8  1  0.333333  0.666667  0.750000  1
  Si  Si9  1  0.000000  0.000000  0.011324  1
  B  B10  1  0.666667  0.333333  0.250000  1
  B  B11  1  0.000000  0.000000  0.250000  1
  Rh  Rh12  1  0.166009  0.332019  0.873245  1
  Rh  Rh13  1  0.166009  0.332019  0.626755  1
  Rh  Rh14  1  0.667981  0.833991  0.873245  1
  Rh  Rh15  1  0.331956  0.165978  0.350846  1
  Rh  Rh16  1  0.834022  0.668044  0.350846  1
  Rh  Rh17  1  0.834022  0.165978  0.350846  1
  Rh  Rh18  1  0.834022  0.165978  0.149154  1
  Rh  Rh19  1  0.331956  0.165978  0.149154  1
  Rh  Rh20  1  0.667981  0.833991  0.626755  1
  Rh  Rh21  1  0.166009  0.833991  0.626755  1
  Rh  Rh22  1  0.834022  0.668044  0.149154  1
  Rh  Rh23  1  0.166009  0.833991  0.873245  1
