# generated using pymatgen
data_Hf4Mn3Fe5Si7Ge
_symmetry_space_group_name_H-M   'P 1'
_cell_length_a   5.04445022
_cell_length_b   7.07659818
_cell_length_c   7.46840005
_cell_angle_alpha   90.07391594
_cell_angle_beta   90.00640836
_cell_angle_gamma   89.96684717
_symmetry_Int_Tables_number   1
_chemical_formula_structural   Hf4Mn3Fe5Si7Ge
_chemical_formula_sum   'Hf4 Mn3 Fe5 Si7 Ge1'
_cell_volume   266.60329574
_cell_formula_units_Z   1
loop_
 _symmetry_equiv_pos_site_id
 _symmetry_equiv_pos_as_xyz
  1  'x, y, z'
loop_
 _atom_site_type_symbol
 _atom_site_label
 _atom_site_symmetry_multiplicity
 _atom_site_fract_x
 _atom_site_fract_y
 _atom_site_fract_z
 _atom_site_occupancy
  Hf  Hf0  1  0.751328  0.911448  0.249882  1
  Hf  Hf1  1  0.249905  0.094202  0.749128  1
  Hf  Hf2  1  0.749957  0.405488  0.749105  1
  Hf  Hf3  1  0.248654  0.590590  0.246912  1
  Mn  Mn4  1  0.003828  0.751153  0.618375  1
  Mn  Mn5  1  0.497493  0.244635  0.387555  1
  Mn  Mn6  1  0.002145  0.244133  0.385162  1
  Fe  Fe7  1  0.748836  0.515050  0.101661  1
  Fe  Fe8  1  0.250174  0.487736  0.889636  1
  Fe  Fe9  1  0.751303  0.014981  0.892085  1
  Fe  Fe10  1  0.251019  0.988365  0.112523  1
  Fe  Fe11  1  0.495973  0.752286  0.617653  1
  Si  Si12  1  0.249489  0.447852  0.586120  1
  Si  Si13  1  0.750069  0.049042  0.587821  1
  Si  Si14  1  0.250538  0.946997  0.415568  1
  Si  Si15  1  0.000247  0.751152  0.949254  1
  Si  Si16  1  0.499534  0.250850  0.052124  1
  Si  Si17  1  0.001055  0.251199  0.051719  1
  Si  Si18  1  0.499782  0.751463  0.945008  1
  Ge  Ge19  1  0.748672  0.551379  0.412710  1
