# generated using pymatgen
data_Ca2PrBe2(BRh2)4
_symmetry_space_group_name_H-M   'P 1'
_cell_length_a   10.09851483
_cell_length_b   9.28096252
_cell_length_c   5.63457851
_cell_angle_alpha   81.25312357
_cell_angle_beta   65.27883149
_cell_angle_gamma   33.46804440
_symmetry_Int_Tables_number   1
_chemical_formula_structural   Ca2PrBe2(BRh2)4
_chemical_formula_sum   'Ca2 Pr1 Be2 B4 Rh8'
_cell_volume   243.27071766
_cell_formula_units_Z   1
loop_
 _symmetry_equiv_pos_site_id
 _symmetry_equiv_pos_as_xyz
  1  'x, y, z'
loop_
 _atom_site_type_symbol
 _atom_site_label
 _atom_site_symmetry_multiplicity
 _atom_site_fract_x
 _atom_site_fract_y
 _atom_site_fract_z
 _atom_site_occupancy
  Ca  Ca0  1  0.676247  0.676247  0.323753  1
  Ca  Ca1  1  0.502982  0.502982  0.497018  1
  Pr  Pr2  1  0.320340  0.320340  0.679660  1
  Be  Be3  1  0.677698  0.977984  0.022016  1
  Be  Be4  1  0.977984  0.677698  0.322302  1
  B  B5  1  0.333900  0.002812  0.997188  1
  B  B6  1  0.002812  0.333900  0.666100  1
  B  B7  1  0.170860  0.828371  0.171629  1
  B  B8  1  0.828371  0.170860  0.829140  1
  Rh  Rh9  1  0.583557  0.583557  0.916443  1
  Rh  Rh10  1  0.926068  0.926068  0.073932  1
  Rh  Rh11  1  0.418903  0.418903  0.081097  1
  Rh  Rh12  1  0.083557  0.083557  0.416443  1
  Rh  Rh13  1  0.918903  0.918903  0.581097  1
  Rh  Rh14  1  0.243525  0.243525  0.256475  1
  Rh  Rh15  1  0.090769  0.090769  0.909231  1
  Rh  Rh16  1  0.743525  0.743525  0.756475  1
