# generated using pymatgen
data_Mg4Ga(SbPt)5
_symmetry_space_group_name_H-M   'P 1'
_cell_length_a   18.59901942
_cell_length_b   18.59901924
_cell_length_c   18.59901800
_cell_angle_alpha   13.79616413
_cell_angle_beta   13.79616577
_cell_angle_gamma   13.79616541
_symmetry_Int_Tables_number   1
_chemical_formula_structural   Mg4Ga(SbPt)5
_chemical_formula_sum   'Mg4 Ga1 Sb5 Pt5'
_cell_volume   318.38732890
_cell_formula_units_Z   1
loop_
 _symmetry_equiv_pos_site_id
 _symmetry_equiv_pos_as_xyz
  1  'x, y, z'
loop_
 _atom_site_type_symbol
 _atom_site_label
 _atom_site_symmetry_multiplicity
 _atom_site_fract_x
 _atom_site_fract_y
 _atom_site_fract_z
 _atom_site_occupancy
  Mg  Mg0  1  0.699666  0.699666  0.699666  1
  Mg  Mg1  1  0.100036  0.100036  0.100036  1
  Mg  Mg2  1  0.499810  0.499810  0.499810  1
  Mg  Mg3  1  0.899299  0.899299  0.899299  1
  Ga  Ga4  1  0.299355  0.299355  0.299355  1
  Sb  Sb5  1  0.599369  0.599369  0.599369  1
  Sb  Sb6  1  0.800898  0.800898  0.800898  1
  Sb  Sb7  1  0.201029  0.201029  0.201029  1
  Sb  Sb8  1  0.000817  0.000817  0.000817  1
  Sb  Sb9  1  0.400633  0.400633  0.400633  1
  Pt  Pt10  1  0.050003  0.050003  0.050003  1
  Pt  Pt11  1  0.449953  0.449953  0.449953  1
  Pt  Pt12  1  0.850063  0.850063  0.850063  1
  Pt  Pt13  1  0.251005  0.251005  0.251005  1
  Pt  Pt14  1  0.648063  0.648063  0.648063  1
