# generated using pymatgen
data_TbDy4Er3Al4
_symmetry_space_group_name_H-M   'P 1'
_cell_length_a   5.09542300
_cell_length_b   6.54602691
_cell_length_c   9.41221403
_cell_angle_alpha   89.81231160
_cell_angle_beta   90.00000000
_cell_angle_gamma   90.00000000
_symmetry_Int_Tables_number   1
_chemical_formula_structural   TbDy4Er3Al4
_chemical_formula_sum   'Tb1 Dy4 Er3 Al4'
_cell_volume   313.94060710
_cell_formula_units_Z   1
loop_
 _symmetry_equiv_pos_site_id
 _symmetry_equiv_pos_as_xyz
  1  'x, y, z'
loop_
 _atom_site_type_symbol
 _atom_site_label
 _atom_site_symmetry_multiplicity
 _atom_site_fract_x
 _atom_site_fract_y
 _atom_site_fract_z
 _atom_site_occupancy
  Tb  Tb0  1  0.750000  0.688172  0.428202  1
  Dy  Dy1  1  0.250000  0.810279  0.926711  1
  Dy  Dy2  1  0.250000  0.311084  0.573528  1
  Dy  Dy3  1  0.750000  0.189941  0.071644  1
  Dy  Dy4  1  0.250000  0.971081  0.288375  1
  Er  Er5  1  0.250000  0.470816  0.211623  1
  Er  Er6  1  0.750000  0.028641  0.710089  1
  Er  Er7  1  0.750000  0.528822  0.788912  1
  Al  Al8  1  0.250000  0.292551  0.897793  1
  Al  Al9  1  0.250000  0.792402  0.604051  1
  Al  Al10  1  0.750000  0.707490  0.101833  1
  Al  Al11  1  0.750000  0.208720  0.397239  1
