# generated using pymatgen
data_Nd3Th11(TcRu)3
_symmetry_space_group_name_H-M   'P 1'
_cell_length_a   9.86788128
_cell_length_b   9.97769995
_cell_length_c   6.42058535
_cell_angle_alpha   89.59077240
_cell_angle_beta   90.01965830
_cell_angle_gamma   120.28554828
_symmetry_Int_Tables_number   1
_chemical_formula_structural   Nd3Th11(TcRu)3
_chemical_formula_sum   'Nd3 Th11 Tc3 Ru3'
_cell_volume   545.86922185
_cell_formula_units_Z   1
loop_
 _symmetry_equiv_pos_site_id
 _symmetry_equiv_pos_as_xyz
  1  'x, y, z'
loop_
 _atom_site_type_symbol
 _atom_site_label
 _atom_site_symmetry_multiplicity
 _atom_site_fract_x
 _atom_site_fract_y
 _atom_site_fract_z
 _atom_site_occupancy
  Nd  Nd0  1  0.463058  0.537567  0.293031  1
  Nd  Nd1  1  0.070818  0.534461  0.293561  1
  Nd  Nd2  1  0.924496  0.460352  0.793264  1
  Th  Th3  1  0.249217  0.125406  0.507657  1
  Th  Th4  1  0.543187  0.079251  0.802751  1
  Th  Th5  1  0.752426  0.874316  0.012087  1
  Th  Th6  1  0.665937  0.334988  0.274414  1
  Th  Th7  1  0.125102  0.871868  0.004720  1
  Th  Th8  1  0.464993  0.925923  0.306161  1
  Th  Th9  1  0.538765  0.464734  0.796529  1
  Th  Th10  1  0.876505  0.125034  0.509992  1
  Th  Th11  1  0.123633  0.248049  0.007585  1
  Th  Th12  1  0.874965  0.753185  0.510111  1
  Th  Th13  1  0.333755  0.666586  0.775328  1
  Tc  Tc14  1  0.812309  0.636992  0.045960  1
  Tc  Tc15  1  0.807612  0.172806  0.054223  1
  Tc  Tc16  1  0.629782  0.819345  0.555258  1
  Ru  Ru17  1  0.368116  0.184880  0.039304  1
  Ru  Ru18  1  0.184149  0.358397  0.556342  1
  Ru  Ru19  1  0.191174  0.825860  0.545720  1
