# generated using pymatgen
data_Tm16ZnIn6Cu
_symmetry_space_group_name_H-M   'P 1'
_cell_length_a   10.47841800
_cell_length_b   10.47841784
_cell_length_c   6.73149500
_cell_angle_alpha   90.00000000
_cell_angle_beta   90.00000000
_cell_angle_gamma   120.00000049
_symmetry_Int_Tables_number   1
_chemical_formula_structural   Tm16ZnIn6Cu
_chemical_formula_sum   'Tm16 Zn1 In6 Cu1'
_cell_volume   640.07901473
_cell_formula_units_Z   1
loop_
 _symmetry_equiv_pos_site_id
 _symmetry_equiv_pos_as_xyz
  1  'x, y, z'
loop_
 _atom_site_type_symbol
 _atom_site_label
 _atom_site_symmetry_multiplicity
 _atom_site_fract_x
 _atom_site_fract_y
 _atom_site_fract_z
 _atom_site_occupancy
  Tm  Tm0  1  0.523613  0.047228  0.518256  1
  Tm  Tm1  1  0.952772  0.476387  0.518256  1
  Tm  Tm2  1  0.523613  0.476387  0.518256  1
  Tm  Tm3  1  0.479007  0.958012  0.018274  1
  Tm  Tm4  1  0.041988  0.520993  0.018274  1
  Tm  Tm5  1  0.479007  0.520993  0.018274  1
  Tm  Tm6  1  0.173011  0.346023  0.733774  1
  Tm  Tm7  1  0.653977  0.826989  0.733774  1
  Tm  Tm8  1  0.173011  0.826989  0.733774  1
  Tm  Tm9  1  0.823866  0.647733  0.231161  1
  Tm  Tm10  1  0.352267  0.176134  0.231161  1
  Tm  Tm11  1  0.823866  0.176134  0.231161  1
  Tm  Tm12  1  0.666667  0.333333  0.885103  1
  Tm  Tm13  1  0.333333  0.666667  0.373139  1
  Tm  Tm14  1  0.000000  0.000000  0.497200  1
  Tm  Tm15  1  0.000000  0.000000  0.998119  1
  Zn  Zn16  1  0.333333  0.666667  0.803172  1
  In  In17  1  0.835622  0.671243  0.750011  1
  In  In18  1  0.328757  0.164378  0.750011  1
  In  In19  1  0.835622  0.164378  0.750011  1
  In  In20  1  0.163877  0.327752  0.251696  1
  In  In21  1  0.672248  0.836123  0.251696  1
  In  In22  1  0.163877  0.836123  0.251696  1
  Cu  Cu23  1  0.666667  0.333333  0.291751  1
