# generated using pymatgen
data_DyLu9In8(CoPt)2
_symmetry_space_group_name_H-M   'P 1'
_cell_length_a   3.53618300
_cell_length_b   7.97492599
_cell_length_c   17.85639805
_cell_angle_alpha   90.04514164
_cell_angle_beta   90.00000000
_cell_angle_gamma   90.00000000
_symmetry_Int_Tables_number   1
_chemical_formula_structural   DyLu9In8(CoPt)2
_chemical_formula_sum   'Dy1 Lu9 In8 Co2 Pt2'
_cell_volume   503.56451300
_cell_formula_units_Z   1
loop_
 _symmetry_equiv_pos_site_id
 _symmetry_equiv_pos_as_xyz
  1  'x, y, z'
loop_
 _atom_site_type_symbol
 _atom_site_label
 _atom_site_symmetry_multiplicity
 _atom_site_fract_x
 _atom_site_fract_y
 _atom_site_fract_z
 _atom_site_occupancy
  Dy  Dy0  1  0.000000  0.500000  0.500000  1
  Lu  Lu1  1  0.000000  0.113374  0.409731  1
  Lu  Lu2  1  0.000000  0.886626  0.590269  1
  Lu  Lu3  1  0.000000  0.381491  0.913762  1
  Lu  Lu4  1  0.000000  0.618509  0.086238  1
  Lu  Lu5  1  0.000000  0.234498  0.223774  1
  Lu  Lu6  1  0.000000  0.765502  0.776226  1
  Lu  Lu7  1  0.000000  0.243815  0.719963  1
  Lu  Lu8  1  0.000000  0.756185  0.280037  1
  Lu  Lu9  1  0.000000  0.000000  0.000000  1
  In  In10  1  0.500000  0.422646  0.351621  1
  In  In11  1  0.500000  0.577354  0.648379  1
  In  In12  1  0.500000  0.070821  0.848943  1
  In  In13  1  0.500000  0.929179  0.151057  1
  In  In14  1  0.500000  0.292048  0.066520  1
  In  In15  1  0.500000  0.707952  0.933480  1
  In  In16  1  0.500000  0.202649  0.568027  1
  In  In17  1  0.500000  0.797351  0.431973  1
  Co  Co18  1  0.500000  0.021924  0.304606  1
  Co  Co19  1  0.500000  0.978076  0.695394  1
  Pt  Pt20  1  0.500000  0.476223  0.802994  1
  Pt  Pt21  1  0.500000  0.523777  0.197006  1
