# generated using pymatgen
data_Nd12FePI17
_symmetry_space_group_name_H-M   'P 1'
_cell_length_a   9.97731705
_cell_length_b   11.93926166
_cell_length_c   11.95197607
_cell_angle_alpha   93.55516793
_cell_angle_beta   104.76392104
_cell_angle_gamma   114.59784062
_symmetry_Int_Tables_number   1
_chemical_formula_structural   Nd12FePI17
_chemical_formula_sum   'Nd12 Fe1 P1 I17'
_cell_volume   1228.71104564
_cell_formula_units_Z   1
loop_
 _symmetry_equiv_pos_site_id
 _symmetry_equiv_pos_as_xyz
  1  'x, y, z'
loop_
 _atom_site_type_symbol
 _atom_site_label
 _atom_site_symmetry_multiplicity
 _atom_site_fract_x
 _atom_site_fract_y
 _atom_site_fract_z
 _atom_site_occupancy
  Nd  Nd0  1  0.054614  0.507495  0.321383  1
  Nd  Nd1  1  0.988851  0.810335  0.581042  1
  Nd  Nd2  1  0.648760  0.240837  0.283214  1
  Nd  Nd3  1  0.009096  0.190809  0.414578  1
  Nd  Nd4  1  0.221657  0.669235  0.990232  1
  Nd  Nd5  1  0.262996  0.987037  0.895620  1
  Nd  Nd6  1  0.357091  0.759560  0.717453  1
  Nd  Nd7  1  0.942437  0.487463  0.675590  1
  Nd  Nd8  1  0.742202  0.017674  0.108918  1
  Nd  Nd9  1  0.147210  0.286674  0.151110  1
  Nd  Nd10  1  0.778506  0.328811  0.013191  1
  Nd  Nd11  1  0.849890  0.713096  0.851086  1
  Fe  Fe12  1  0.895825  0.261920  0.214204  1
  P  P13  1  0.103853  0.737995  0.784348  1
  I  I14  1  0.785367  0.531500  0.421538  1
  I  I15  1  0.643911  0.421993  0.756020  1
  I  I16  1  0.842399  0.892758  0.325277  1
  I  I17  1  0.326052  0.212791  0.370300  1
  I  I18  1  0.157574  0.102051  0.678054  1
  I  I19  1  0.581584  0.049254  0.838969  1
  I  I20  1  0.753668  0.181953  0.539737  1
  I  I21  1  0.543162  0.703516  0.951606  1
  I  I22  1  0.361333  0.583208  0.241765  1
  I  I23  1  0.216447  0.474147  0.586421  1
  I  I24  1  0.057004  0.370990  0.893610  1
  I  I25  1  0.450492  0.293187  0.045366  1
  I  I26  1  0.999540  0.997051  0.996410  1
  I  I27  1  0.247001  0.819775  0.465941  1
  I  I28  1  0.407630  0.943364  0.154275  1
  I  I29  1  0.677062  0.787460  0.631186  1
  I  I30  1  0.946783  0.636061  0.101557  1
