# generated using pymatgen
data_Sr6FeTcRuO12
_symmetry_space_group_name_H-M   'P 1'
_cell_length_a   8.76405830
_cell_length_b   8.76405923
_cell_length_c   6.98679620
_cell_angle_alpha   67.91552971
_cell_angle_beta   67.91552468
_cell_angle_gamma   36.88182237
_symmetry_Int_Tables_number   1
_chemical_formula_structural   Sr6FeTcRuO12
_chemical_formula_sum   'Sr6 Fe1 Tc1 Ru1 O12'
_cell_volume   295.70276293
_cell_formula_units_Z   1
loop_
 _symmetry_equiv_pos_site_id
 _symmetry_equiv_pos_as_xyz
  1  'x, y, z'
loop_
 _atom_site_type_symbol
 _atom_site_label
 _atom_site_symmetry_multiplicity
 _atom_site_fract_x
 _atom_site_fract_y
 _atom_site_fract_z
 _atom_site_occupancy
  Sr  Sr0  1  0.217510  0.217510  0.712454  1
  Sr  Sr1  1  0.875689  0.875689  0.706423  1
  Sr  Sr2  1  0.552693  0.552693  0.702631  1
  Sr  Sr3  1  0.777948  0.777948  0.294794  1
  Sr  Sr4  1  0.454430  0.454430  0.296920  1
  Sr  Sr5  1  0.121985  0.121985  0.285651  1
  Fe  Fe6  1  0.667596  0.667596  0.999410  1
  Tc  Tc7  1  0.996683  0.996683  0.998907  1
  Ru  Ru8  1  0.337424  0.337424  0.001258  1
  O  O9  1  0.278694  0.278694  0.326923  1
  O  O10  1  0.947415  0.947415  0.319232  1
  O  O11  1  0.611384  0.611384  0.323577  1
  O  O12  1  0.719234  0.719234  0.676475  1
  O  O13  1  0.388048  0.388048  0.673144  1
  O  O14  1  0.053600  0.053600  0.681486  1
  O  O15  1  0.004744  0.498355  0.999765  1
  O  O16  1  0.670631  0.165042  0.000167  1
  O  O17  1  0.324706  0.836186  0.000426  1
  O  O18  1  0.498355  0.004744  0.999765  1
  O  O19  1  0.165042  0.670631  0.000167  1
  O  O20  1  0.836186  0.324706  0.000426  1
