# generated using pymatgen
data_Tb10Hg8Ir3Pt
_symmetry_space_group_name_H-M   'P 1'
_cell_length_a   3.70892600
_cell_length_b   7.95044013
_cell_length_c   18.03737184
_cell_angle_alpha   89.91610246
_cell_angle_beta   90.00000000
_cell_angle_gamma   90.00000000
_symmetry_Int_Tables_number   1
_chemical_formula_structural   Tb10Hg8Ir3Pt
_chemical_formula_sum   'Tb10 Hg8 Ir3 Pt1'
_cell_volume   531.87812930
_cell_formula_units_Z   1
loop_
 _symmetry_equiv_pos_site_id
 _symmetry_equiv_pos_as_xyz
  1  'x, y, z'
loop_
 _atom_site_type_symbol
 _atom_site_label
 _atom_site_symmetry_multiplicity
 _atom_site_fract_x
 _atom_site_fract_y
 _atom_site_fract_z
 _atom_site_occupancy
  Tb  Tb0  1  0.000000  0.111145  0.412114  1
  Tb  Tb1  1  0.000000  0.890265  0.589632  1
  Tb  Tb2  1  0.000000  0.389732  0.909917  1
  Tb  Tb3  1  0.000000  0.611269  0.087038  1
  Tb  Tb4  1  0.000000  0.230247  0.217699  1
  Tb  Tb5  1  0.000000  0.759539  0.781822  1
  Tb  Tb6  1  0.000000  0.258785  0.718865  1
  Tb  Tb7  1  0.000000  0.747135  0.282844  1
  Tb  Tb8  1  0.000000  0.000340  0.999711  1
  Tb  Tb9  1  0.000000  0.501470  0.500124  1
  Hg  Hg10  1  0.500000  0.418123  0.355672  1
  Hg  Hg11  1  0.500000  0.580302  0.644878  1
  Hg  Hg12  1  0.500000  0.079809  0.855033  1
  Hg  Hg13  1  0.500000  0.919260  0.144718  1
  Hg  Hg14  1  0.500000  0.289168  0.060493  1
  Hg  Hg15  1  0.500000  0.709262  0.938425  1
  Hg  Hg16  1  0.500000  0.210110  0.561815  1
  Hg  Hg17  1  0.500000  0.789482  0.438629  1
  Ir  Ir18  1  0.500000  0.024430  0.302936  1
  Ir  Ir19  1  0.500000  0.978152  0.698239  1
  Ir  Ir20  1  0.500000  0.478460  0.800632  1
  Pt  Pt21  1  0.500000  0.523517  0.198764  1
