# generated using pymatgen
data_Cs3RbUPaBr12
_symmetry_space_group_name_H-M   'P 1'
_cell_length_a   8.08828907
_cell_length_b   8.06544193
_cell_length_c   11.55638300
_cell_angle_alpha   90.00000000
_cell_angle_beta   90.00000000
_cell_angle_gamma   90.72920660
_symmetry_Int_Tables_number   1
_chemical_formula_structural   Cs3RbUPaBr12
_chemical_formula_sum   'Cs3 Rb1 U1 Pa1 Br12'
_cell_volume   753.82682107
_cell_formula_units_Z   1
loop_
 _symmetry_equiv_pos_site_id
 _symmetry_equiv_pos_as_xyz
  1  'x, y, z'
loop_
 _atom_site_type_symbol
 _atom_site_label
 _atom_site_symmetry_multiplicity
 _atom_site_fract_x
 _atom_site_fract_y
 _atom_site_fract_z
 _atom_site_occupancy
  Cs  Cs0  1  0.500000  0.000000  0.749263  1
  Cs  Cs1  1  0.500000  0.000000  0.250733  1
  Cs  Cs2  1  0.000000  0.500000  0.250855  1
  Rb  Rb3  1  0.000000  0.500000  0.749094  1
  U  U4  1  0.500000  0.500000  0.500841  1
  Pa  Pa5  1  0.000000  0.000000  0.999165  1
  Br  Br6  1  0.789595  0.273309  0.997764  1
  Br  Br7  1  0.210405  0.726691  0.997764  1
  Br  Br8  1  0.500000  0.500000  0.256872  1
  Br  Br9  1  0.285578  0.225297  0.500070  1
  Br  Br10  1  0.274016  0.214317  0.999902  1
  Br  Br11  1  0.773561  0.289261  0.502251  1
  Br  Br12  1  0.000000  0.000000  0.241500  1
  Br  Br13  1  0.714422  0.774703  0.500070  1
  Br  Br14  1  0.226439  0.710739  0.502251  1
  Br  Br15  1  0.500000  0.500000  0.744286  1
  Br  Br16  1  0.725984  0.785683  0.999902  1
  Br  Br17  1  0.000000  0.000000  0.757418  1
