# generated using pymatgen
data_Ti2V3Co
_symmetry_space_group_name_H-M   'P 1'
_cell_length_a   4.94153179
_cell_length_b   4.93213063
_cell_length_c   4.94153300
_cell_angle_alpha   59.93692506
_cell_angle_beta   59.99999858
_cell_angle_gamma   59.93691779
_symmetry_Int_Tables_number   1
_chemical_formula_structural   Ti2V3Co
_chemical_formula_sum   'Ti2 V3 Co1'
_cell_volume   85.08012752
_cell_formula_units_Z   1
loop_
 _symmetry_equiv_pos_site_id
 _symmetry_equiv_pos_as_xyz
  1  'x, y, z'
loop_
 _atom_site_type_symbol
 _atom_site_label
 _atom_site_symmetry_multiplicity
 _atom_site_fract_x
 _atom_site_fract_y
 _atom_site_fract_z
 _atom_site_occupancy
  Ti  Ti0  1  0.750808  0.747576  0.750808  1
  Ti  Ti1  1  0.499192  0.502424  0.499192  1
  V  V2  1  0.125000  0.125000  0.625000  1
  V  V3  1  0.625000  0.125000  0.125000  1
  V  V4  1  0.125000  0.125000  0.125000  1
  Co  Co5  1  0.125000  0.625000  0.125000  1
