# generated using pymatgen
data_V3Ag2Sn(PO4)6
_symmetry_space_group_name_H-M   'P 1'
_cell_length_a   8.61333816
_cell_length_b   8.61137279
_cell_length_c   8.94994666
_cell_angle_alpha   61.26342276
_cell_angle_beta   61.25644484
_cell_angle_gamma   60.00429523
_symmetry_Int_Tables_number   1
_chemical_formula_structural   V3Ag2Sn(PO4)6
_chemical_formula_sum   'V3 Ag2 Sn1 P6 O24'
_cell_volume   478.16441573
_cell_formula_units_Z   1
loop_
 _symmetry_equiv_pos_site_id
 _symmetry_equiv_pos_as_xyz
  1  'x, y, z'
loop_
 _atom_site_type_symbol
 _atom_site_label
 _atom_site_symmetry_multiplicity
 _atom_site_fract_x
 _atom_site_fract_y
 _atom_site_fract_z
 _atom_site_occupancy
  V  V0  1  0.850477  0.351124  0.436667  1
  V  V1  1  0.144136  0.644859  0.555533  1
  V  V2  1  0.644871  0.144377  0.055428  1
  Ag  Ag3  1  0.001190  0.486427  0.998309  1
  Ag  Ag4  1  0.490013  0.003726  0.489515  1
  Sn  Sn5  1  0.351983  0.851248  0.934292  1
  P  P6  1  0.030675  0.960716  0.744321  1
  P  P7  1  0.752877  0.531311  0.743876  1
  P  P8  1  0.537418  0.746728  0.248294  1
  P  P9  1  0.956112  0.036913  0.248673  1
  P  P10  1  0.461291  0.252661  0.743663  1
  P  P11  1  0.246541  0.457056  0.247820  1
  O  O12  1  0.922393  0.218438  0.272978  1
  O  O13  1  0.717728  0.365060  0.916705  1
  O  O14  1  0.522981  0.762679  0.076037  1
  O  O15  1  0.362996  0.721293  0.415085  1
  O  O16  1  0.214361  0.940204  0.755754  1
  O  O17  1  0.928463  0.555339  0.725508  1
  O  O18  1  0.559673  0.925791  0.224314  1
  O  O19  1  0.718618  0.575089  0.273494  1
  O  O20  1  0.127279  0.021411  0.076920  1
  O  O21  1  0.988166  0.863503  0.416160  1
  O  O22  1  0.579015  0.715157  0.755100  1
  O  O23  1  0.220850  0.490276  0.414651  1
  O  O24  1  0.786130  0.501096  0.573657  1
  O  O25  1  0.056408  0.779237  0.725380  1
  O  O26  1  0.999719  0.128490  0.574588  1
  O  O27  1  0.279584  0.427709  0.725697  1
  O  O28  1  0.865213  0.988322  0.917675  1
  O  O29  1  0.778616  0.060484  0.224179  1
  O  O30  1  0.075314  0.421667  0.272983  1
  O  O31  1  0.628079  0.286349  0.573356  1
  O  O32  1  0.490109  0.217120  0.916580  1
  O  O33  1  0.262974  0.627367  0.075477  1
  O  O34  1  0.425405  0.279529  0.223810  1
  O  O35  1  0.439761  0.078663  0.755348  1
