# generated using pymatgen
data_Tm9LuGa2(BiPt)2
_symmetry_space_group_name_H-M   'P 1'
_cell_length_a   8.62328815
_cell_length_b   8.62328805
_cell_length_c   8.67534503
_cell_angle_alpha   125.67126967
_cell_angle_beta   125.65821623
_cell_angle_gamma   80.03060820
_symmetry_Int_Tables_number   1
_chemical_formula_structural   Tm9LuGa2(BiPt)2
_chemical_formula_sum   'Tm9 Lu1 Ga2 Bi2 Pt2'
_cell_volume   411.98908567
_cell_formula_units_Z   1
loop_
 _symmetry_equiv_pos_site_id
 _symmetry_equiv_pos_as_xyz
  1  'x, y, z'
loop_
 _atom_site_type_symbol
 _atom_site_label
 _atom_site_symmetry_multiplicity
 _atom_site_fract_x
 _atom_site_fract_y
 _atom_site_fract_z
 _atom_site_occupancy
  Tm  Tm0  1  0.500000  0.500000  0.000000  1
  Tm  Tm1  1  0.786228  0.286123  0.798378  1
  Tm  Tm2  1  0.213772  0.713877  0.201622  1
  Tm  Tm3  1  0.487746  0.987850  0.201622  1
  Tm  Tm4  1  0.300853  0.473151  0.499904  1
  Tm  Tm5  1  0.026753  0.199051  0.499904  1
  Tm  Tm6  1  0.512254  0.012150  0.798378  1
  Tm  Tm7  1  0.699147  0.526849  0.500096  1
  Tm  Tm8  1  0.973247  0.800949  0.500096  1
  Lu  Lu9  1  0.000000  0.000000  0.000000  1
  Ga  Ga10  1  0.137638  0.637719  0.775358  1
  Ga  Ga11  1  0.862362  0.362281  0.224642  1
  Bi  Bi12  1  0.249955  0.249955  0.000000  1
  Bi  Bi13  1  0.750045  0.750045  0.000000  1
  Pt  Pt14  1  0.637479  0.862636  0.500115  1
  Pt  Pt15  1  0.362521  0.137364  0.499885  1
