# generated using pymatgen
data_Mg8B24Ir3Os
_symmetry_space_group_name_H-M   'P 1'
_cell_length_a   8.86115324
_cell_length_b   11.08085455
_cell_length_c   3.47915500
_cell_angle_alpha   90.00000000
_cell_angle_beta   90.00000000
_cell_angle_gamma   90.06056872
_symmetry_Int_Tables_number   1
_chemical_formula_structural   Mg8B24Ir3Os
_chemical_formula_sum   'Mg8 B24 Ir3 Os1'
_cell_volume   341.61508183
_cell_formula_units_Z   1
loop_
 _symmetry_equiv_pos_site_id
 _symmetry_equiv_pos_as_xyz
  1  'x, y, z'
loop_
 _atom_site_type_symbol
 _atom_site_label
 _atom_site_symmetry_multiplicity
 _atom_site_fract_x
 _atom_site_fract_y
 _atom_site_fract_z
 _atom_site_occupancy
  Mg  Mg0  1  0.827762  0.086899  0.000000  1
  Mg  Mg1  1  0.443635  0.127157  0.000000  1
  Mg  Mg2  1  0.945923  0.372050  0.000000  1
  Mg  Mg3  1  0.323264  0.411338  0.000000  1
  Mg  Mg4  1  0.675806  0.585591  0.000000  1
  Mg  Mg5  1  0.054516  0.626579  0.000000  1
  Mg  Mg6  1  0.555410  0.873739  0.000000  1
  Mg  Mg7  1  0.174154  0.916501  0.000000  1
  B  B8  1  0.593049  0.025246  0.500001  1
  B  B9  1  0.054463  0.064602  0.500001  1
  B  B10  1  0.256878  0.079823  0.500001  1
  B  B11  1  0.630493  0.180972  0.500001  1
  B  B12  1  0.979896  0.211905  0.500001  1
  B  B13  1  0.296001  0.238641  0.500001  1
  B  B14  1  0.795960  0.261799  0.500001  1
  B  B15  1  0.479700  0.288784  0.500001  1
  B  B16  1  0.130627  0.319313  0.500001  1
  B  B17  1  0.756107  0.420527  0.500001  1
  B  B18  1  0.555282  0.435369  0.500001  1
  B  B19  1  0.092764  0.474265  0.500001  1
  B  B20  1  0.907723  0.525310  0.500001  1
  B  B21  1  0.444452  0.564656  0.500001  1
  B  B22  1  0.244498  0.579278  0.500001  1
  B  B23  1  0.869233  0.680367  0.500001  1
  B  B24  1  0.519665  0.711378  0.500001  1
  B  B25  1  0.204077  0.738832  0.500001  1
  B  B26  1  0.704368  0.760944  0.500001  1
  B  B27  1  0.019509  0.788628  0.500001  1
  B  B28  1  0.369292  0.819456  0.500001  1
  B  B29  1  0.744777  0.920816  0.500001  1
  B  B30  1  0.944827  0.935617  0.500001  1
  B  B31  1  0.407930  0.975226  0.500001  1
  Ir  Ir32  1  0.640906  0.319730  0.000000  1
  Ir  Ir33  1  0.358611  0.681087  0.000000  1
  Ir  Ir34  1  0.858551  0.818956  0.000000  1
  Os  Os35  1  0.139897  0.178625  0.000000  1
