# generated using pymatgen
data_Gd5ErAl16Os7
_symmetry_space_group_name_H-M   'P 1'
_cell_length_a   8.94368113
_cell_length_b   8.95126338
_cell_length_c   8.95126300
_cell_angle_alpha   59.94397970
_cell_angle_beta   60.02800656
_cell_angle_gamma   60.02800784
_symmetry_Int_Tables_number   1
_chemical_formula_structural   Gd5ErAl16Os7
_chemical_formula_sum   'Gd5 Er1 Al16 Os7'
_cell_volume   506.72148695
_cell_formula_units_Z   1
loop_
 _symmetry_equiv_pos_site_id
 _symmetry_equiv_pos_as_xyz
  1  'x, y, z'
loop_
 _atom_site_type_symbol
 _atom_site_label
 _atom_site_symmetry_multiplicity
 _atom_site_fract_x
 _atom_site_fract_y
 _atom_site_fract_z
 _atom_site_occupancy
  Gd  Gd0  1  0.711277  0.711063  0.288723  1
  Gd  Gd1  1  0.288937  0.711063  0.288723  1
  Gd  Gd2  1  0.712704  0.287296  0.287296  1
  Gd  Gd3  1  0.288937  0.288723  0.711063  1
  Gd  Gd4  1  0.711277  0.288723  0.711063  1
  Er  Er5  1  0.287109  0.712891  0.712891  1
  Al  Al6  1  0.879710  0.878229  0.362349  1
  Al  Al7  1  0.879710  0.362349  0.878229  1
  Al  Al8  1  0.360158  0.879554  0.879554  1
  Al  Al9  1  0.880734  0.879554  0.879554  1
  Al  Al10  1  0.120446  0.119266  0.639842  1
  Al  Al11  1  0.120446  0.639842  0.119266  1
  Al  Al12  1  0.637651  0.120290  0.120290  1
  Al  Al13  1  0.121771  0.120290  0.120290  1
  Al  Al14  1  0.668858  0.668643  0.993642  1
  Al  Al15  1  0.668858  0.993642  0.668643  1
  Al  Al16  1  0.996397  0.668551  0.668551  1
  Al  Al17  1  0.666503  0.668551  0.668551  1
  Al  Al18  1  0.331449  0.333497  0.003603  1
  Al  Al19  1  0.331449  0.003603  0.333497  1
  Al  Al20  1  0.006358  0.331142  0.331142  1
  Al  Al21  1  0.331357  0.331142  0.331142  1
  Os  Os22  1  0.999354  0.000646  0.000646  1
  Os  Os23  1  0.000610  0.999390  0.501122  1
  Os  Os24  1  0.498878  0.999390  0.501122  1
  Os  Os25  1  0.999787  0.500213  0.500213  1
  Os  Os26  1  0.498878  0.501122  0.999390  1
  Os  Os27  1  0.000610  0.501122  0.999390  1
  Os  Os28  1  0.499787  0.000213  0.000213  1
