# generated using pymatgen
data_KDyUSe6
_symmetry_space_group_name_H-M   'P 1'
_cell_length_a   11.58721744
_cell_length_b   11.58721782
_cell_length_c   11.58721721
_cell_angle_alpha   159.56813279
_cell_angle_beta   152.17500214
_cell_angle_gamma   34.76824344
_symmetry_Int_Tables_number   1
_chemical_formula_structural   KDyUSe6
_chemical_formula_sum   'K1 Dy1 U1 Se6'
_cell_volume   253.25097458
_cell_formula_units_Z   1
loop_
 _symmetry_equiv_pos_site_id
 _symmetry_equiv_pos_as_xyz
  1  'x, y, z'
loop_
 _atom_site_type_symbol
 _atom_site_label
 _atom_site_symmetry_multiplicity
 _atom_site_fract_x
 _atom_site_fract_y
 _atom_site_fract_z
 _atom_site_occupancy
  K  K0  1  0.999645  0.999645  0.000000  1
  Dy  Dy1  1  0.317094  0.817094  0.500000  1
  U  U2  1  0.682622  0.182622  0.500000  1
  Se  Se3  1  0.771959  0.771959  0.000000  1
  Se  Se4  1  0.847061  0.608017  0.239044  1
  Se  Se5  1  0.179343  0.395208  0.784134  1
  Se  Se6  1  0.222229  0.222229  0.000000  1
  Se  Se7  1  0.368973  0.608017  0.760956  1
  Se  Se8  1  0.611074  0.395208  0.215866  1
