# generated using pymatgen
data_Dy4Mn4Co15NiP12
_symmetry_space_group_name_H-M   'P 1'
_cell_length_a   3.65805100
_cell_length_b   10.33072264
_cell_length_c   11.82469573
_cell_angle_alpha   89.95970141
_cell_angle_beta   90.00000000
_cell_angle_gamma   90.00000000
_symmetry_Int_Tables_number   1
_chemical_formula_structural   Dy4Mn4Co15NiP12
_chemical_formula_sum   'Dy4 Mn4 Co15 Ni1 P12'
_cell_volume   446.85881012
_cell_formula_units_Z   1
loop_
 _symmetry_equiv_pos_site_id
 _symmetry_equiv_pos_as_xyz
  1  'x, y, z'
loop_
 _atom_site_type_symbol
 _atom_site_label
 _atom_site_symmetry_multiplicity
 _atom_site_fract_x
 _atom_site_fract_y
 _atom_site_fract_z
 _atom_site_occupancy
  Dy  Dy0  1  0.250000  0.582766  0.704668  1
  Dy  Dy1  1  0.250000  0.918550  0.204065  1
  Dy  Dy2  1  0.750000  0.418510  0.294940  1
  Dy  Dy3  1  0.750000  0.082188  0.796104  1
  Mn  Mn4  1  0.250000  0.707982  0.989232  1
  Mn  Mn5  1  0.250000  0.790807  0.488587  1
  Mn  Mn6  1  0.750000  0.290082  0.012192  1
  Mn  Mn7  1  0.750000  0.207812  0.511598  1
  Co  Co8  1  0.250000  0.093250  0.987112  1
  Co  Co9  1  0.750000  0.593031  0.512302  1
  Co  Co10  1  0.750000  0.906378  0.011708  1
  Co  Co11  1  0.250000  0.221070  0.174624  1
  Co  Co12  1  0.250000  0.279446  0.677439  1
  Co  Co13  1  0.750000  0.778292  0.822761  1
  Co  Co14  1  0.750000  0.721608  0.324076  1
  Co  Co15  1  0.250000  0.883267  0.698765  1
  Co  Co16  1  0.250000  0.616697  0.199166  1
  Co  Co17  1  0.750000  0.116595  0.300412  1
  Co  Co18  1  0.750000  0.382589  0.802675  1
  Co  Co19  1  0.250000  0.465643  0.932462  1
  Co  Co20  1  0.250000  0.034143  0.433027  1
  Co  Co21  1  0.750000  0.534672  0.067461  1
  Co  Co22  1  0.750000  0.965881  0.567857  1
  Ni  Ni23  1  0.250000  0.407377  0.487149  1
  P  P24  1  0.250000  0.419155  0.112149  1
  P  P25  1  0.250000  0.080343  0.613657  1
  P  P26  1  0.750000  0.580273  0.887040  1
  P  P27  1  0.750000  0.919010  0.387780  1
  P  P28  1  0.250000  0.269393  0.869263  1
  P  P29  1  0.250000  0.227835  0.363744  1
  P  P30  1  0.750000  0.730486  0.133310  1
  P  P31  1  0.750000  0.769650  0.631402  1
  P  P32  1  0.250000  0.604183  0.391162  1
  P  P33  1  0.250000  0.900379  0.890519  1
  P  P34  1  0.750000  0.399993  0.612598  1
  P  P35  1  0.750000  0.100661  0.106995  1
