# generated using pymatgen
data_Li2Eu4Ag5As6
_symmetry_space_group_name_H-M   'P 1'
_cell_length_a   8.51963089
_cell_length_b   8.51963159
_cell_length_c   12.01708991
_cell_angle_alpha   56.36494119
_cell_angle_beta   56.36493644
_cell_angle_gamma   30.58220413
_symmetry_Int_Tables_number   1
_chemical_formula_structural   Li2Eu4Ag5As6
_chemical_formula_sum   'Li2 Eu4 Ag5 As6'
_cell_volume   363.31853229
_cell_formula_units_Z   1
loop_
 _symmetry_equiv_pos_site_id
 _symmetry_equiv_pos_as_xyz
  1  'x, y, z'
loop_
 _atom_site_type_symbol
 _atom_site_label
 _atom_site_symmetry_multiplicity
 _atom_site_fract_x
 _atom_site_fract_y
 _atom_site_fract_z
 _atom_site_occupancy
  Li  Li0  1  0.581251  0.581251  0.347550  1
  Li  Li1  1  0.001349  0.001349  0.499583  1
  Eu  Eu2  1  0.264377  0.264377  0.332961  1
  Eu  Eu3  1  0.737916  0.737916  0.665608  1
  Eu  Eu4  1  0.432437  0.432437  0.912507  1
  Eu  Eu5  1  0.566031  0.566031  0.087010  1
  Ag  Ag6  1  0.060780  0.060780  0.672576  1
  Ag  Ag7  1  0.944000  0.944000  0.324553  1
  Ag  Ag8  1  0.232110  0.232110  0.910361  1
  Ag  Ag9  1  0.762271  0.762271  0.097235  1
  Ag  Ag10  1  0.421320  0.421320  0.644991  1
  As  As11  1  0.083626  0.083626  0.880844  1
  As  As12  1  0.914892  0.914892  0.120780  1
  As  As13  1  0.147432  0.147432  0.193989  1
  As  As14  1  0.849524  0.849524  0.817131  1
  As  As15  1  0.375374  0.375374  0.468579  1
  As  As16  1  0.625309  0.625309  0.523741  1
