# generated using pymatgen
data_Hf4Ta2Nb2GeP3
_symmetry_space_group_name_H-M   'P 1'
_cell_length_a   3.54659900
_cell_length_b   6.93483850
_cell_length_c   8.40722400
_cell_angle_alpha   89.72472769
_cell_angle_beta   90.00000000
_cell_angle_gamma   90.00000000
_symmetry_Int_Tables_number   1
_chemical_formula_structural   Hf4Ta2Nb2GeP3
_chemical_formula_sum   'Hf4 Ta2 Nb2 Ge1 P3'
_cell_volume   206.77405548
_cell_formula_units_Z   1
loop_
 _symmetry_equiv_pos_site_id
 _symmetry_equiv_pos_as_xyz
  1  'x, y, z'
loop_
 _atom_site_type_symbol
 _atom_site_label
 _atom_site_symmetry_multiplicity
 _atom_site_fract_x
 _atom_site_fract_y
 _atom_site_fract_z
 _atom_site_occupancy
  Hf  Hf0  1  0.250000  0.033536  0.668390  1
  Hf  Hf1  1  0.250000  0.531222  0.831061  1
  Hf  Hf2  1  0.750000  0.471286  0.161841  1
  Hf  Hf3  1  0.750000  0.957841  0.331893  1
  Ta  Ta4  1  0.250000  0.643621  0.441380  1
  Ta  Ta5  1  0.250000  0.137828  0.055938  1
  Nb  Nb6  1  0.750000  0.857270  0.938941  1
  Nb  Nb7  1  0.750000  0.365881  0.567490  1
  Ge  Ge8  1  0.250000  0.260732  0.357008  1
  P  P9  1  0.250000  0.764110  0.145025  1
  P  P10  1  0.750000  0.740745  0.644120  1
  P  P11  1  0.750000  0.235929  0.856914  1
