# generated using pymatgen
data_Tb5Ho2FeBr12
_symmetry_space_group_name_H-M   'P 1'
_cell_length_a   9.27468989
_cell_length_b   9.15362927
_cell_length_c   9.27385103
_cell_angle_alpha   106.79308470
_cell_angle_beta   106.99396269
_cell_angle_gamma   106.87365408
_symmetry_Int_Tables_number   1
_chemical_formula_structural   Tb5Ho2FeBr12
_chemical_formula_sum   'Tb5 Ho2 Fe1 Br12'
_cell_volume   657.70084865
_cell_formula_units_Z   1
loop_
 _symmetry_equiv_pos_site_id
 _symmetry_equiv_pos_as_xyz
  1  'x, y, z'
loop_
 _atom_site_type_symbol
 _atom_site_label
 _atom_site_symmetry_multiplicity
 _atom_site_fract_x
 _atom_site_fract_y
 _atom_site_fract_z
 _atom_site_occupancy
  Tb  Tb0  1  0.806268  0.520403  0.599131  1
  Tb  Tb1  1  0.405064  0.205779  0.478180  1
  Tb  Tb2  1  0.479272  0.401472  0.195000  1
  Tb  Tb3  1  0.593889  0.793257  0.521376  1
  Tb  Tb4  1  0.521740  0.598177  0.805196  1
  Ho  Ho5  1  0.999249  0.001121  0.000033  1
  Ho  Ho6  1  0.197516  0.479314  0.401861  1
  Fe  Fe7  1  0.499861  0.498836  0.500136  1
  Br  Br8  1  0.669224  0.963154  0.885369  1
  Br  Br9  1  0.719692  0.178348  0.569103  1
  Br  Br10  1  0.886551  0.669060  0.963564  1
  Br  Br11  1  0.277566  0.817712  0.429389  1
  Br  Br12  1  0.179180  0.569671  0.719069  1
  Br  Br13  1  0.039438  0.116431  0.330953  1
  Br  Br14  1  0.571714  0.723724  0.182330  1
  Br  Br15  1  0.114350  0.333993  0.039233  1
  Br  Br16  1  0.823128  0.430568  0.278854  1
  Br  Br17  1  0.427408  0.275839  0.817601  1
  Br  Br18  1  0.959965  0.886272  0.669571  1
  Br  Br19  1  0.328923  0.036870  0.114052  1
