# generated using pymatgen
data_Li8NpTa4Nb3N16
_symmetry_space_group_name_H-M   'P 1'
_cell_length_a   18.92768732
_cell_length_b   4.21425904
_cell_length_c   4.21203001
_cell_angle_alpha   89.99885813
_cell_angle_beta   89.99387171
_cell_angle_gamma   89.99411794
_symmetry_Int_Tables_number   1
_chemical_formula_structural   Li8NpTa4Nb3N16
_chemical_formula_sum   'Li8 Np1 Ta4 Nb3 N16'
_cell_volume   335.97752928
_cell_formula_units_Z   1
loop_
 _symmetry_equiv_pos_site_id
 _symmetry_equiv_pos_as_xyz
  1  'x, y, z'
loop_
 _atom_site_type_symbol
 _atom_site_label
 _atom_site_symmetry_multiplicity
 _atom_site_fract_x
 _atom_site_fract_y
 _atom_site_fract_z
 _atom_site_occupancy
  Li  Li0  1  0.173276  0.999823  0.749627  1
  Li  Li1  1  0.819052  0.000242  0.250289  1
  Li  Li2  1  0.293746  0.999741  0.249500  1
  Li  Li3  1  0.704916  0.000237  0.750345  1
  Li  Li4  1  0.056671  0.499831  0.749758  1
  Li  Li5  1  0.935834  0.500088  0.250068  1
  Li  Li6  1  0.433765  0.499862  0.250095  1
  Li  Li7  1  0.581015  0.500304  0.750308  1
  Np  Np8  1  0.437509  0.999782  0.750213  1
  Ta  Ta9  1  0.302310  0.499853  0.748639  1
  Ta  Ta10  1  0.694128  0.500344  0.250995  1
  Ta  Ta11  1  0.180674  0.499696  0.249365  1
  Ta  Ta12  1  0.816834  0.500456  0.750596  1
  Nb  Nb13  1  0.574004  0.000838  0.250433  1
  Nb  Nb14  1  0.058355  0.997901  0.249937  1
  Nb  Nb15  1  0.938115  0.998734  0.749892  1
  N  N16  1  0.320813  0.999679  0.749604  1
  N  N17  1  0.683471  0.000234  0.250284  1
  N  N18  1  0.172733  0.999768  0.249513  1
  N  N19  1  0.824273  0.000122  0.750326  1
  N  N20  1  0.417122  0.499765  0.750102  1
  N  N21  1  0.583752  0.500056  0.250091  1
  N  N22  1  0.070807  0.500699  0.249854  1
  N  N23  1  0.926668  0.500803  0.750027  1
  N  N24  1  0.049871  0.000548  0.749816  1
  N  N25  1  0.947251  0.000942  0.250037  1
  N  N26  1  0.455108  0.999822  0.250232  1
  N  N27  1  0.552528  0.000251  0.750115  1
  N  N28  1  0.193096  0.499502  0.749669  1
  N  N29  1  0.805617  0.500012  0.250214  1
  N  N30  1  0.292912  0.499740  0.249906  1
  N  N31  1  0.703777  0.500326  0.750149  1
