# generated using pymatgen
data_Ac3Th(MgSi2)2
_symmetry_space_group_name_H-M   'P 1'
_cell_length_a   7.68225213
_cell_length_b   7.68225213
_cell_length_c   4.52442200
_cell_angle_alpha   90.00000000
_cell_angle_beta   90.00000000
_cell_angle_gamma   89.31531817
_symmetry_Int_Tables_number   1
_chemical_formula_structural   Ac3Th(MgSi2)2
_chemical_formula_sum   'Ac3 Th1 Mg2 Si4'
_cell_volume   266.99873808
_cell_formula_units_Z   1
loop_
 _symmetry_equiv_pos_site_id
 _symmetry_equiv_pos_as_xyz
  1  'x, y, z'
loop_
 _atom_site_type_symbol
 _atom_site_label
 _atom_site_symmetry_multiplicity
 _atom_site_fract_x
 _atom_site_fract_y
 _atom_site_fract_z
 _atom_site_occupancy
  Ac  Ac0  1  0.683751  0.179649  0.500000  1
  Ac  Ac1  1  0.320351  0.816249  0.500000  1
  Ac  Ac2  1  0.179766  0.320234  0.500000  1
  Th  Th3  1  0.820179  0.679821  0.500000  1
  Mg  Mg4  1  0.507588  0.502851  0.000000  1
  Mg  Mg5  1  0.997149  0.992412  0.000000  1
  Si  Si6  1  0.097240  0.622381  0.000000  1
  Si  Si7  1  0.877619  0.402760  0.000000  1
  Si  Si8  1  0.623339  0.876661  0.000000  1
  Si  Si9  1  0.393018  0.106982  0.000000  1
