# generated using pymatgen
data_Y19ErSn16
_symmetry_space_group_name_H-M   'P 1'
_cell_length_a   8.05211822
_cell_length_b   8.19647421
_cell_length_c   15.50211306
_cell_angle_alpha   90.00588519
_cell_angle_beta   90.00855266
_cell_angle_gamma   90.02516297
_symmetry_Int_Tables_number   1
_chemical_formula_structural   Y19ErSn16
_chemical_formula_sum   'Y19 Er1 Sn16'
_cell_volume   1023.12352349
_cell_formula_units_Z   1
loop_
 _symmetry_equiv_pos_site_id
 _symmetry_equiv_pos_as_xyz
  1  'x, y, z'
loop_
 _atom_site_type_symbol
 _atom_site_label
 _atom_site_symmetry_multiplicity
 _atom_site_fract_x
 _atom_site_fract_y
 _atom_site_fract_z
 _atom_site_occupancy
  Y  Y0  1  0.867166  0.663848  0.621985  1
  Y  Y1  1  0.632763  0.163790  0.378074  1
  Y  Y2  1  0.132803  0.336190  0.121801  1
  Y  Y3  1  0.632795  0.163842  0.121959  1
  Y  Y4  1  0.132748  0.336176  0.378073  1
  Y  Y5  1  0.367229  0.836168  0.621992  1
  Y  Y6  1  0.867242  0.663795  0.878111  1
  Y  Y7  1  0.522523  0.320702  0.901978  1
  Y  Y8  1  0.022568  0.179197  0.598045  1
  Y  Y9  1  0.477489  0.679241  0.401991  1
  Y  Y10  1  0.977380  0.820701  0.098030  1
  Y  Y11  1  0.477403  0.679352  0.097796  1
  Y  Y12  1  0.977504  0.820761  0.401984  1
  Y  Y13  1  0.522494  0.320748  0.598053  1
  Y  Y14  1  0.022656  0.179125  0.901941  1
  Y  Y15  1  0.198735  0.502876  0.750152  1
  Y  Y16  1  0.698338  0.997247  0.750145  1
  Y  Y17  1  0.801452  0.497419  0.249999  1
  Y  Y18  1  0.301452  0.002574  0.249965  1
  Er  Er19  1  0.367219  0.836157  0.877961  1
  Sn  Sn20  1  0.292292  0.033800  0.041307  1
  Sn  Sn21  1  0.792087  0.465705  0.458209  1
  Sn  Sn22  1  0.707931  0.965682  0.541807  1
  Sn  Sn23  1  0.208423  0.535310  0.958008  1
  Sn  Sn24  1  0.707029  0.965403  0.958066  1
  Sn  Sn25  1  0.207936  0.534323  0.541802  1
  Sn  Sn26  1  0.292083  0.034315  0.458207  1
  Sn  Sn27  1  0.792045  0.465696  0.041789  1
  Sn  Sn28  1  0.564707  0.619877  0.750319  1
  Sn  Sn29  1  0.065591  0.880463  0.750278  1
  Sn  Sn30  1  0.434881  0.380516  0.249990  1
  Sn  Sn31  1  0.934895  0.119458  0.249975  1
  Sn  Sn32  1  0.330386  0.146558  0.750215  1
  Sn  Sn33  1  0.830327  0.353027  0.750001  1
  Sn  Sn34  1  0.669722  0.853046  0.249992  1
  Sn  Sn35  1  0.169706  0.646914  0.250000  1
