# generated using pymatgen
data_Pr4HoEr5Sb8
_symmetry_space_group_name_H-M   'P 1'
_cell_length_a   8.07016200
_cell_length_b   8.17305303
_cell_length_c   15.40542900
_cell_angle_alpha   90.00505445
_cell_angle_beta   90.00000000
_cell_angle_gamma   90.00000000
_symmetry_Int_Tables_number   1
_chemical_formula_structural   Pr4HoEr5Sb8
_chemical_formula_sum   'Pr8 Ho2 Er10 Sb16'
_cell_volume   1016.10915610
_cell_formula_units_Z   2
loop_
 _symmetry_equiv_pos_site_id
 _symmetry_equiv_pos_as_xyz
  1  'x, y, z'
loop_
 _atom_site_type_symbol
 _atom_site_label
 _atom_site_symmetry_multiplicity
 _atom_site_fract_x
 _atom_site_fract_y
 _atom_site_fract_z
 _atom_site_occupancy
  Pr  Pr0  1  0.477286  0.678138  0.594388  1
  Pr  Pr1  1  0.977286  0.821862  0.905612  1
  Pr  Pr2  1  0.522700  0.322110  0.094621  1
  Pr  Pr3  1  0.022700  0.177890  0.405379  1
  Pr  Pr4  1  0.522354  0.322016  0.405453  1
  Pr  Pr5  1  0.022354  0.177984  0.094547  1
  Pr  Pr6  1  0.477296  0.678022  0.905445  1
  Pr  Pr7  1  0.977296  0.821978  0.594555  1
  Ho  Ho8  1  0.647311  0.149437  0.877291  1
  Ho  Ho9  1  0.147311  0.350563  0.622709  1
  Er  Er10  1  0.646617  0.149581  0.623037  1
  Er  Er11  1  0.146617  0.350419  0.876963  1
  Er  Er12  1  0.353136  0.850423  0.123085  1
  Er  Er13  1  0.853136  0.649577  0.376915  1
  Er  Er14  1  0.353518  0.850451  0.376707  1
  Er  Er15  1  0.853518  0.649549  0.123293  1
  Er  Er16  1  0.807350  0.501183  0.749977  1
  Er  Er17  1  0.307350  0.998817  0.750023  1
  Er  Er18  1  0.192748  0.498859  0.249851  1
  Er  Er19  1  0.692748  0.001141  0.250149  1
  Sb  Sb20  1  0.703019  0.957107  0.453136  1
  Sb  Sb21  1  0.203019  0.542893  0.046864  1
  Sb  Sb22  1  0.296493  0.042829  0.953240  1
  Sb  Sb23  1  0.796493  0.457171  0.546760  1
  Sb  Sb24  1  0.297237  0.042074  0.546688  1
  Sb  Sb25  1  0.797237  0.457926  0.953312  1
  Sb  Sb26  1  0.702905  0.956725  0.047308  1
  Sb  Sb27  1  0.202905  0.543275  0.452692  1
  Sb  Sb28  1  0.448756  0.363283  0.750105  1
  Sb  Sb29  1  0.948756  0.136717  0.749895  1
  Sb  Sb30  1  0.551378  0.636799  0.249951  1
  Sb  Sb31  1  0.051378  0.863201  0.250049  1
  Sb  Sb32  1  0.661788  0.848420  0.749891  1
  Sb  Sb33  1  0.161788  0.651580  0.750109  1
  Sb  Sb34  1  0.338109  0.151356  0.249963  1
  Sb  Sb35  1  0.838109  0.348644  0.250037  1
