# generated using pymatgen
data_Pa3ZnCo6
_symmetry_space_group_name_H-M   'P 1'
_cell_length_a   5.26062300
_cell_length_b   7.14944700
_cell_length_c   8.27036800
_cell_angle_alpha   90.00000000
_cell_angle_beta   90.00000000
_cell_angle_gamma   90.00000000
_symmetry_Int_Tables_number   1
_chemical_formula_structural   Pa3ZnCo6
_chemical_formula_sum   'Pa6 Zn2 Co12'
_cell_volume   311.05305052
_cell_formula_units_Z   2
loop_
 _symmetry_equiv_pos_site_id
 _symmetry_equiv_pos_as_xyz
  1  'x, y, z'
loop_
 _atom_site_type_symbol
 _atom_site_label
 _atom_site_symmetry_multiplicity
 _atom_site_fract_x
 _atom_site_fract_y
 _atom_site_fract_z
 _atom_site_occupancy
  Pa  Pa0  1  0.750000  0.897449  0.855016  1
  Pa  Pa1  1  0.750000  0.397449  0.644984  1
  Pa  Pa2  1  0.250000  0.096945  0.143868  1
  Pa  Pa3  1  0.250000  0.596945  0.356132  1
  Pa  Pa4  1  0.750000  0.947587  0.424793  1
  Pa  Pa5  1  0.750000  0.447587  0.075207  1
  Zn  Zn6  1  0.250000  0.066588  0.608486  1
  Zn  Zn7  1  0.250000  0.566588  0.891514  1
  Co  Co8  1  0.750000  0.585874  0.364016  1
  Co  Co9  1  0.750000  0.085874  0.135984  1
  Co  Co10  1  0.250000  0.407705  0.625880  1
  Co  Co11  1  0.250000  0.907705  0.874120  1
  Co  Co12  1  0.999753  0.258243  0.377080  1
  Co  Co13  1  0.500247  0.758243  0.122920  1
  Co  Co14  1  0.493684  0.740684  0.617516  1
  Co  Co15  1  0.006316  0.240684  0.882484  1
  Co  Co16  1  0.006316  0.740684  0.617516  1
  Co  Co17  1  0.493684  0.240684  0.882484  1
  Co  Co18  1  0.500247  0.258243  0.377080  1
  Co  Co19  1  0.999753  0.758243  0.122920  1
