# generated using pymatgen
data_Sr2Zr2CoNiAs4
_symmetry_space_group_name_H-M   'P 1'
_cell_length_a   4.16588900
_cell_length_b   4.16588987
_cell_length_c   14.36526700
_cell_angle_alpha   90.00000000
_cell_angle_beta   90.00000000
_cell_angle_gamma   119.99998513
_symmetry_Int_Tables_number   1
_chemical_formula_structural   Sr2Zr2CoNiAs4
_chemical_formula_sum   'Sr2 Zr2 Co1 Ni1 As4'
_cell_volume   215.90359718
_cell_formula_units_Z   1
loop_
 _symmetry_equiv_pos_site_id
 _symmetry_equiv_pos_as_xyz
  1  'x, y, z'
loop_
 _atom_site_type_symbol
 _atom_site_label
 _atom_site_symmetry_multiplicity
 _atom_site_fract_x
 _atom_site_fract_y
 _atom_site_fract_z
 _atom_site_occupancy
  Sr  Sr0  1  0.666667  0.333333  0.392766  1
  Sr  Sr1  1  0.333333  0.666667  0.888897  1
  Zr  Zr2  1  0.333333  0.666667  0.627192  1
  Zr  Zr3  1  0.666667  0.333333  0.124314  1
  Co  Co4  1  0.000000  0.000000  0.705134  1
  Ni  Ni5  1  0.000000  0.000000  0.204858  1
  As  As6  1  0.333333  0.666667  0.249727  1
  As  As7  1  0.000000  0.000000  0.030262  1
  As  As8  1  0.000000  0.000000  0.532788  1
  As  As9  1  0.666667  0.333333  0.744061  1
