# generated using pymatgen
data_Gd2Dy3Al2Ru3
_symmetry_space_group_name_H-M   'P 1'
_cell_length_a   8.35777030
_cell_length_b   8.35777014
_cell_length_c   8.35777000
_cell_angle_alpha   109.47488990
_cell_angle_beta   109.47488949
_cell_angle_gamma   109.47489046
_symmetry_Int_Tables_number   1
_chemical_formula_structural   Gd2Dy3Al2Ru3
_chemical_formula_sum   'Gd4 Dy6 Al4 Ru6'
_cell_volume   449.35581314
_cell_formula_units_Z   2
loop_
 _symmetry_equiv_pos_site_id
 _symmetry_equiv_pos_as_xyz
  1  'x, y, z'
loop_
 _atom_site_type_symbol
 _atom_site_label
 _atom_site_symmetry_multiplicity
 _atom_site_fract_x
 _atom_site_fract_y
 _atom_site_fract_z
 _atom_site_occupancy
  Gd  Gd0  1  0.787553  0.787553  0.787553  1
  Gd  Gd1  1  0.316214  0.567151  0.748713  1
  Gd  Gd2  1  0.748713  0.316214  0.567151  1
  Gd  Gd3  1  0.567151  0.748713  0.316214  1
  Dy  Dy4  1  0.714543  0.498769  0.000164  1
  Dy  Dy5  1  0.000164  0.714543  0.498769  1
  Dy  Dy6  1  0.498769  0.000164  0.714543  1
  Dy  Dy7  1  0.250605  0.181216  0.931953  1
  Dy  Dy8  1  0.931953  0.250605  0.181216  1
  Dy  Dy9  1  0.181216  0.931953  0.250605  1
  Al  Al10  1  0.409764  0.409764  0.409764  1
  Al  Al11  1  0.089196  0.499798  0.000171  1
  Al  Al12  1  0.000171  0.089196  0.499798  1
  Al  Al13  1  0.499798  0.000171  0.089196  1
  Ru  Ru14  1  0.877803  0.129110  0.750709  1
  Ru  Ru15  1  0.750709  0.877803  0.129110  1
  Ru  Ru16  1  0.129110  0.750709  0.877803  1
  Ru  Ru17  1  0.250939  0.623520  0.372110  1
  Ru  Ru18  1  0.372110  0.250939  0.623520  1
  Ru  Ru19  1  0.623520  0.372110  0.250939  1
