# generated using pymatgen
data_DyY(CoOs)2
_symmetry_space_group_name_H-M   'P 1'
_cell_length_a   5.26729089
_cell_length_b   5.24208431
_cell_length_c   5.24208401
_cell_angle_alpha   58.30125681
_cell_angle_beta   59.84079499
_cell_angle_gamma   59.84079572
_symmetry_Int_Tables_number   1
_chemical_formula_structural   DyY(CoOs)2
_chemical_formula_sum   'Dy1 Y1 Co2 Os2'
_cell_volume   100.73249894
_cell_formula_units_Z   1
loop_
 _symmetry_equiv_pos_site_id
 _symmetry_equiv_pos_as_xyz
  1  'x, y, z'
loop_
 _atom_site_type_symbol
 _atom_site_label
 _atom_site_symmetry_multiplicity
 _atom_site_fract_x
 _atom_site_fract_y
 _atom_site_fract_z
 _atom_site_occupancy
  Dy  Dy0  1  0.252824  0.247176  0.247176  1
  Y  Y1  1  0.997815  0.002185  0.002185  1
  Co  Co2  1  0.125132  0.625141  0.625141  1
  Co  Co3  1  0.624586  0.625141  0.625141  1
  Os  Os4  1  0.624821  0.624993  0.125366  1
  Os  Os5  1  0.624821  0.125366  0.624993  1
