# generated using pymatgen
data_Dy7Y(TcB6)4
_symmetry_space_group_name_H-M   'P 1'
_cell_length_a   9.16379900
_cell_length_b   11.54420500
_cell_length_c   3.68658100
_cell_angle_alpha   90.00000000
_cell_angle_beta   90.00000000
_cell_angle_gamma   89.99898731
_symmetry_Int_Tables_number   1
_chemical_formula_structural   Dy7Y(TcB6)4
_chemical_formula_sum   'Dy7 Y1 Tc4 B24'
_cell_volume   389.99888508
_cell_formula_units_Z   1
loop_
 _symmetry_equiv_pos_site_id
 _symmetry_equiv_pos_as_xyz
  1  'x, y, z'
loop_
 _atom_site_type_symbol
 _atom_site_label
 _atom_site_symmetry_multiplicity
 _atom_site_fract_x
 _atom_site_fract_y
 _atom_site_fract_z
 _atom_site_occupancy
  Dy  Dy0  1  0.823922  0.085751  0.000000  1
  Dy  Dy1  1  0.442483  0.130692  0.000000  1
  Dy  Dy2  1  0.942710  0.369273  0.000000  1
  Dy  Dy3  1  0.323812  0.414229  0.000000  1
  Dy  Dy4  1  0.676150  0.585787  0.000000  1
  Dy  Dy5  1  0.057385  0.630650  0.000000  1
  Dy  Dy6  1  0.557415  0.869327  0.000000  1
  Y  Y7  1  0.176275  0.914302  0.000000  1
  Tc  Tc8  1  0.138535  0.179446  0.000000  1
  Tc  Tc9  1  0.638523  0.320626  0.000000  1
  Tc  Tc10  1  0.361519  0.679313  0.000000  1
  Tc  Tc11  1  0.861365  0.820590  0.000000  1
  B  B12  1  0.600651  0.028142  0.500001  1
  B  B13  1  0.053281  0.067225  0.500001  1
  B  B14  1  0.248643  0.081689  0.500001  1
  B  B15  1  0.630908  0.185645  0.500001  1
  B  B16  1  0.982447  0.211597  0.500001  1
  B  B17  1  0.291690  0.234766  0.500001  1
  B  B18  1  0.791777  0.265218  0.500001  1
  B  B19  1  0.482366  0.288425  0.500001  1
  B  B20  1  0.130909  0.314273  0.500001  1
  B  B21  1  0.748649  0.418544  0.500001  1
  B  B22  1  0.553339  0.432976  0.500001  1
  B  B23  1  0.100652  0.471871  0.500001  1
  B  B24  1  0.899342  0.528129  0.500001  1
  B  B25  1  0.446660  0.567046  0.500001  1
  B  B26  1  0.251349  0.581456  0.500001  1
  B  B27  1  0.869092  0.685662  0.500001  1
  B  B28  1  0.517640  0.711573  0.500001  1
  B  B29  1  0.208269  0.734638  0.500001  1
  B  B30  1  0.708233  0.765222  0.500001  1
  B  B31  1  0.017470  0.788309  0.500001  1
  B  B32  1  0.369252  0.814237  0.500001  1
  B  B33  1  0.751330  0.918512  0.500001  1
  B  B34  1  0.946450  0.932966  0.500001  1
  B  B35  1  0.399509  0.971897  0.500001  1
