# generated using pymatgen
data_Ce3Co2CuSi2
_symmetry_space_group_name_H-M   'P 1'
_cell_length_a   6.10140400
_cell_length_b   7.52771500
_cell_length_c   13.10782100
_cell_angle_alpha   90.00000000
_cell_angle_beta   90.00000000
_cell_angle_gamma   90.00000000
_symmetry_Int_Tables_number   1
_chemical_formula_structural   Ce3Co2CuSi2
_chemical_formula_sum   'Ce12 Co8 Cu4 Si8'
_cell_volume   602.03737403
_cell_formula_units_Z   4
loop_
 _symmetry_equiv_pos_site_id
 _symmetry_equiv_pos_as_xyz
  1  'x, y, z'
loop_
 _atom_site_type_symbol
 _atom_site_label
 _atom_site_symmetry_multiplicity
 _atom_site_fract_x
 _atom_site_fract_y
 _atom_site_fract_z
 _atom_site_occupancy
  Ce  Ce0  1  0.891705  0.877441  0.750000  1
  Ce  Ce1  1  0.866211  0.465352  0.404506  1
  Ce  Ce2  1  0.366211  0.034648  0.595494  1
  Ce  Ce3  1  0.133789  0.534648  0.904506  1
  Ce  Ce4  1  0.633789  0.965353  0.095494  1
  Ce  Ce5  1  0.108295  0.122559  0.250000  1
  Ce  Ce6  1  0.133789  0.534648  0.595494  1
  Ce  Ce7  1  0.633789  0.965353  0.404506  1
  Ce  Ce8  1  0.391705  0.622559  0.250000  1
  Ce  Ce9  1  0.366211  0.034648  0.904506  1
  Ce  Ce10  1  0.608295  0.377441  0.750000  1
  Ce  Ce11  1  0.866211  0.465352  0.095494  1
  Co  Co12  1  0.612429  0.381781  0.948542  1
  Co  Co13  1  0.112429  0.118219  0.448542  1
  Co  Co14  1  0.112429  0.118219  0.051458  1
  Co  Co15  1  0.887571  0.881781  0.948542  1
  Co  Co16  1  0.887571  0.881781  0.551458  1
  Co  Co17  1  0.612429  0.381781  0.551458  1
  Co  Co18  1  0.387571  0.618219  0.448542  1
  Co  Co19  1  0.387571  0.618219  0.051458  1
  Cu  Cu20  1  0.417994  0.736528  0.750000  1
  Cu  Cu21  1  0.582006  0.263472  0.250000  1
  Cu  Cu22  1  0.917994  0.763472  0.250000  1
  Cu  Cu23  1  0.082006  0.236528  0.750000  1
  Si  Si24  1  0.620647  0.679710  0.913433  1
  Si  Si25  1  0.879353  0.179710  0.586567  1
  Si  Si26  1  0.120647  0.820290  0.086567  1
  Si  Si27  1  0.120647  0.820290  0.413433  1
  Si  Si28  1  0.620647  0.679710  0.586567  1
  Si  Si29  1  0.879353  0.179710  0.913433  1
  Si  Si30  1  0.379353  0.320290  0.086567  1
  Si  Si31  1  0.379353  0.320290  0.413433  1
