# generated using pymatgen
data_SmThMnN3
_symmetry_space_group_name_H-M   'P 1'
_cell_length_a   3.52006186
_cell_length_b   3.84703480
_cell_length_c   6.80407918
_cell_angle_alpha   106.42144942
_cell_angle_beta   104.99133159
_cell_angle_gamma   90.00000014
_symmetry_Int_Tables_number   1
_chemical_formula_structural   SmThMnN3
_chemical_formula_sum   'Sm1 Th1 Mn1 N3'
_cell_volume   85.10659801
_cell_formula_units_Z   1
loop_
 _symmetry_equiv_pos_site_id
 _symmetry_equiv_pos_as_xyz
  1  'x, y, z'
loop_
 _atom_site_type_symbol
 _atom_site_label
 _atom_site_symmetry_multiplicity
 _atom_site_fract_x
 _atom_site_fract_y
 _atom_site_fract_z
 _atom_site_occupancy
  Sm  Sm0  1  0.642730  0.642727  0.285459  1
  Th  Th1  1  0.353415  0.353414  0.706829  1
  Mn  Mn2  1  0.005027  0.005027  0.010055  1
  N  N3  1  0.997274  0.497272  0.994548  1
  N  N4  1  0.163102  0.163102  0.326205  1
  N  N5  1  0.838453  0.838451  0.676905  1
