# generated using pymatgen
data_Sc4GaSiNi6
_symmetry_space_group_name_H-M   'P 1'
_cell_length_a   5.01351600
_cell_length_b   5.01351581
_cell_length_c   7.83520400
_cell_angle_alpha   90.00000000
_cell_angle_beta   90.00000000
_cell_angle_gamma   120.00000125
_symmetry_Int_Tables_number   1
_chemical_formula_structural   Sc4GaSiNi6
_chemical_formula_sum   'Sc4 Ga1 Si1 Ni6'
_cell_volume   170.55549996
_cell_formula_units_Z   1
loop_
 _symmetry_equiv_pos_site_id
 _symmetry_equiv_pos_as_xyz
  1  'x, y, z'
loop_
 _atom_site_type_symbol
 _atom_site_label
 _atom_site_symmetry_multiplicity
 _atom_site_fract_x
 _atom_site_fract_y
 _atom_site_fract_z
 _atom_site_occupancy
  Sc  Sc0  1  0.333333  0.666667  0.441795  1
  Sc  Sc1  1  0.666667  0.333333  0.558205  1
  Sc  Sc2  1  0.666667  0.333333  0.941626  1
  Sc  Sc3  1  0.333333  0.666667  0.058374  1
  Ga  Ga4  1  0.000000  0.000000  0.000000  1
  Si  Si5  1  0.000000  0.000000  0.500000  1
  Ni  Ni6  1  0.830841  0.169159  0.255811  1
  Ni  Ni7  1  0.830841  0.661683  0.255811  1
  Ni  Ni8  1  0.338317  0.169159  0.255811  1
  Ni  Ni9  1  0.169159  0.830841  0.744189  1
  Ni  Ni10  1  0.169159  0.338317  0.744189  1
  Ni  Ni11  1  0.661683  0.830841  0.744189  1
