# generated using pymatgen
data_Ho12Co2Ni3Sn
_symmetry_space_group_name_H-M   'P 1'
_cell_length_a   8.24854991
_cell_length_b   8.24866118
_cell_length_c   8.24855160
_cell_angle_alpha   111.23888446
_cell_angle_beta   109.34085488
_cell_angle_gamma   107.85123325
_symmetry_Int_Tables_number   1
_chemical_formula_structural   Ho12Co2Ni3Sn
_chemical_formula_sum   'Ho12 Co2 Ni3 Sn1'
_cell_volume   431.65567152
_cell_formula_units_Z   1
loop_
 _symmetry_equiv_pos_site_id
 _symmetry_equiv_pos_as_xyz
  1  'x, y, z'
loop_
 _atom_site_type_symbol
 _atom_site_label
 _atom_site_symmetry_multiplicity
 _atom_site_fract_x
 _atom_site_fract_y
 _atom_site_fract_z
 _atom_site_occupancy
  Ho  Ho0  1  0.816390  0.707905  0.524289  1
  Ho  Ho1  1  0.183610  0.292095  0.475711  1
  Ho  Ho2  1  0.183617  0.707905  0.891515  1
  Ho  Ho3  1  0.816383  0.292095  0.108485  1
  Ho  Ho4  1  0.682890  0.376171  0.693282  1
  Ho  Ho5  1  0.317110  0.623829  0.306718  1
  Ho  Ho6  1  0.682902  0.989610  0.306708  1
  Ho  Ho7  1  0.317098  0.010390  0.693292  1
  Ho  Ho8  1  0.595083  0.787643  0.807427  1
  Ho  Ho9  1  0.404917  0.212357  0.192573  1
  Ho  Ho10  1  0.980216  0.787643  0.192560  1
  Ho  Ho11  1  0.019784  0.212357  0.807440  1
  Co  Co12  1  0.115376  0.615380  0.500004  1
  Co  Co13  1  0.884624  0.384620  0.499996  1
  Ni  Ni14  1  0.633892  0.000000  0.633892  1
  Ni  Ni15  1  0.366108  0.000000  0.366108  1
  Ni  Ni16  1  0.000000  0.000000  0.000000  1
  Sn  Sn17  1  0.500000  0.500000  0.000000  1
