# generated using pymatgen
data_Ba2Cu(SiPd2)3
_symmetry_space_group_name_H-M   'P 1'
_cell_length_a   6.93950976
_cell_length_b   6.89854706
_cell_length_c   6.93951100
_cell_angle_alpha   130.11435386
_cell_angle_beta   114.28020834
_cell_angle_gamma   87.01821929
_symmetry_Int_Tables_number   1
_chemical_formula_structural   Ba2Cu(SiPd2)3
_chemical_formula_sum   'Ba2 Cu1 Si3 Pd6'
_cell_volume   220.52236621
_cell_formula_units_Z   1
loop_
 _symmetry_equiv_pos_site_id
 _symmetry_equiv_pos_as_xyz
  1  'x, y, z'
loop_
 _atom_site_type_symbol
 _atom_site_label
 _atom_site_symmetry_multiplicity
 _atom_site_fract_x
 _atom_site_fract_y
 _atom_site_fract_z
 _atom_site_occupancy
  Ba  Ba0  1  0.010612  0.983913  0.973300  1
  Ba  Ba1  1  0.494202  0.024566  0.530364  1
  Cu  Cu2  1  0.334016  0.391953  0.057936  1
  Si  Si3  1  0.823269  0.278080  0.454812  1
  Si  Si4  1  0.651800  0.694313  0.042513  1
  Si  Si5  1  0.186244  0.635321  0.449079  1
  Pd  Pd6  1  0.948799  0.502306  0.954744  1
  Pd  Pd7  1  0.547561  0.502306  0.553507  1
  Pd  Pd8  1  0.014371  0.993909  0.510247  1
  Pd  Pd9  1  0.782531  0.492214  0.269279  1
  Pd  Pd10  1  0.222934  0.492214  0.709682  1
  Pd  Pd11  1  0.483661  0.993909  0.979537  1
