# generated using pymatgen
data_SmY18ScPb16
_symmetry_space_group_name_H-M   'P 1'
_cell_length_a   8.24023522
_cell_length_b   8.30474144
_cell_length_c   15.70546400
_cell_angle_alpha   90.01250129
_cell_angle_beta   89.73789228
_cell_angle_gamma   89.92982441
_symmetry_Int_Tables_number   1
_chemical_formula_structural   SmY18ScPb16
_chemical_formula_sum   'Sm1 Y18 Sc1 Pb16'
_cell_volume   1074.76029858
_cell_formula_units_Z   1
loop_
 _symmetry_equiv_pos_site_id
 _symmetry_equiv_pos_as_xyz
  1  'x, y, z'
loop_
 _atom_site_type_symbol
 _atom_site_label
 _atom_site_symmetry_multiplicity
 _atom_site_fract_x
 _atom_site_fract_y
 _atom_site_fract_z
 _atom_site_occupancy
  Sm  Sm0  1  0.967556  0.823170  0.598076  1
  Y  Y1  1  0.624164  0.158634  0.621267  1
  Y  Y2  1  0.122102  0.341533  0.879933  1
  Y  Y3  1  0.379409  0.843062  0.121564  1
  Y  Y4  1  0.874854  0.658699  0.377906  1
  Y  Y5  1  0.376691  0.842272  0.378181  1
  Y  Y6  1  0.877345  0.658870  0.121404  1
  Y  Y7  1  0.621776  0.158283  0.879381  1
  Y  Y8  1  0.123398  0.341563  0.621247  1
  Y  Y9  1  0.464423  0.674762  0.599480  1
  Y  Y10  1  0.962777  0.824403  0.899550  1
  Y  Y11  1  0.537172  0.324238  0.100602  1
  Y  Y12  1  0.034709  0.175682  0.400028  1
  Y  Y13  1  0.535300  0.323490  0.400265  1
  Y  Y14  1  0.036558  0.174786  0.100483  1
  Y  Y15  1  0.463331  0.675178  0.900466  1
  Y  Y16  1  0.790213  0.495863  0.750515  1
  Y  Y17  1  0.290512  0.004500  0.750739  1
  Y  Y18  1  0.209252  0.504002  0.249893  1
  Sc  Sc19  1  0.710095  0.995847  0.249381  1
  Pb  Pb20  1  0.716086  0.967744  0.454186  1
  Pb  Pb21  1  0.219290  0.533927  0.043140  1
  Pb  Pb22  1  0.280457  0.032296  0.957653  1
  Pb  Pb23  1  0.781543  0.464740  0.542123  1
  Pb  Pb24  1  0.285737  0.036693  0.542073  1
  Pb  Pb25  1  0.780497  0.466599  0.957882  1
  Pb  Pb26  1  0.719559  0.967087  0.044115  1
  Pb  Pb27  1  0.216974  0.534156  0.457204  1
  Pb  Pb28  1  0.427062  0.374544  0.750329  1
  Pb  Pb29  1  0.927178  0.125895  0.750273  1
  Pb  Pb30  1  0.573449  0.627537  0.249838  1
  Pb  Pb31  1  0.068815  0.876382  0.249828  1
  Pb  Pb32  1  0.650795  0.846379  0.749905  1
  Pb  Pb33  1  0.153083  0.652510  0.750761  1
  Pb  Pb34  1  0.350958  0.152824  0.250287  1
  Pb  Pb35  1  0.846875  0.341850  0.250044  1
