# generated using pymatgen
data_Er3ScSn2(B2Rh5)2
_symmetry_space_group_name_H-M   'P 1'
_cell_length_a   9.48487476
_cell_length_b   9.48487476
_cell_length_c   3.27509200
_cell_angle_alpha   90.00000000
_cell_angle_beta   90.00000000
_cell_angle_gamma   90.68761089
_symmetry_Int_Tables_number   1
_chemical_formula_structural   Er3ScSn2(B2Rh5)2
_chemical_formula_sum   'Er3 Sc1 Sn2 B4 Rh10'
_cell_volume   294.61539024
_cell_formula_units_Z   1
loop_
 _symmetry_equiv_pos_site_id
 _symmetry_equiv_pos_as_xyz
  1  'x, y, z'
loop_
 _atom_site_type_symbol
 _atom_site_label
 _atom_site_symmetry_multiplicity
 _atom_site_fract_x
 _atom_site_fract_y
 _atom_site_fract_z
 _atom_site_occupancy
  Er  Er0  1  0.825779  0.325779  0.000000  1
  Er  Er1  1  0.323631  0.174493  0.000000  1
  Er  Er2  1  0.674493  0.823631  0.000000  1
  Sc  Sc3  1  0.174667  0.674667  0.000000  1
  Sn  Sn4  1  0.999861  0.001980  0.000000  1
  Sn  Sn5  1  0.501980  0.499861  0.000000  1
  B  B6  1  0.618907  0.118907  0.000000  1
  B  B7  1  0.123139  0.384370  0.000000  1
  B  B8  1  0.884370  0.623139  0.000000  1
  B  B9  1  0.374696  0.874696  0.000000  1
  Rh  Rh10  1  0.070821  0.226454  0.500000  1
  Rh  Rh11  1  0.220040  0.922518  0.500000  1
  Rh  Rh12  1  0.775140  0.070464  0.500000  1
  Rh  Rh13  1  0.933673  0.777207  0.500000  1
  Rh  Rh14  1  0.422518  0.720040  0.500000  1
  Rh  Rh15  1  0.570464  0.275140  0.500000  1
  Rh  Rh16  1  0.726454  0.570821  0.500000  1
  Rh  Rh17  1  0.277207  0.433673  0.500000  1
  Rh  Rh18  1  0.497544  0.997544  0.500000  1
  Rh  Rh19  1  0.004616  0.504616  0.500000  1
