# generated using pymatgen
data_Pr6V(FeC4)3
_symmetry_space_group_name_H-M   'P 1'
_cell_length_a   8.32130600
_cell_length_b   8.32130516
_cell_length_c   5.24433900
_cell_angle_alpha   90.00000000
_cell_angle_beta   90.00000000
_cell_angle_gamma   119.99999538
_symmetry_Int_Tables_number   1
_chemical_formula_structural   Pr6V(FeC4)3
_chemical_formula_sum   'Pr6 V1 Fe3 C12'
_cell_volume   314.48819709
_cell_formula_units_Z   1
loop_
 _symmetry_equiv_pos_site_id
 _symmetry_equiv_pos_as_xyz
  1  'x, y, z'
loop_
 _atom_site_type_symbol
 _atom_site_label
 _atom_site_symmetry_multiplicity
 _atom_site_fract_x
 _atom_site_fract_y
 _atom_site_fract_z
 _atom_site_occupancy
  Pr  Pr0  1  0.614903  0.684269  0.749849  1
  Pr  Pr1  1  0.930634  0.614903  0.250151  1
  Pr  Pr2  1  0.684269  0.069366  0.250151  1
  Pr  Pr3  1  0.315731  0.930634  0.749849  1
  Pr  Pr4  1  0.069366  0.385097  0.749849  1
  Pr  Pr5  1  0.385097  0.315731  0.250151  1
  V  V6  1  0.000000  0.000000  0.500000  1
  Fe  Fe7  1  0.000000  0.000000  0.000000  1
  Fe  Fe8  1  0.666667  0.333333  0.757071  1
  Fe  Fe9  1  0.333333  0.666667  0.242929  1
  C  C10  1  0.954558  0.762952  0.738631  1
  C  C11  1  0.191606  0.954558  0.261369  1
  C  C12  1  0.762952  0.808394  0.261369  1
  C  C13  1  0.237048  0.191606  0.738631  1
  C  C14  1  0.808394  0.045442  0.738631  1
  C  C15  1  0.045442  0.237048  0.261369  1
  C  C16  1  0.858999  0.574836  0.750670  1
  C  C17  1  0.284162  0.858999  0.249330  1
  C  C18  1  0.574836  0.715838  0.249330  1
  C  C19  1  0.425164  0.284162  0.750670  1
  C  C20  1  0.141001  0.425164  0.249330  1
  C  C21  1  0.715838  0.141001  0.750670  1
