# generated using pymatgen
data_Nd2MgGa7Co2
_symmetry_space_group_name_H-M   'P 1'
_cell_length_a   4.22974699
_cell_length_b   6.49970573
_cell_length_c   8.25115593
_cell_angle_alpha   90.89007716
_cell_angle_beta   104.85136137
_cell_angle_gamma   89.99999796
_symmetry_Int_Tables_number   1
_chemical_formula_structural   Nd2MgGa7Co2
_chemical_formula_sum   'Nd2 Mg1 Ga7 Co2'
_cell_volume   219.23550462
_cell_formula_units_Z   1
loop_
 _symmetry_equiv_pos_site_id
 _symmetry_equiv_pos_as_xyz
  1  'x, y, z'
loop_
 _atom_site_type_symbol
 _atom_site_label
 _atom_site_symmetry_multiplicity
 _atom_site_fract_x
 _atom_site_fract_y
 _atom_site_fract_z
 _atom_site_occupancy
  Nd  Nd0  1  0.879251  0.758605  0.758501  1
  Nd  Nd1  1  0.120749  0.241395  0.241499  1
  Mg  Mg2  1  0.500000  0.500000  0.000000  1
  Ga  Ga3  1  0.500000  0.000000  0.000000  1
  Ga  Ga4  1  0.074831  0.751510  0.149663  1
  Ga  Ga5  1  0.925169  0.248490  0.850337  1
  Ga  Ga6  1  0.690422  0.547333  0.380844  1
  Ga  Ga7  1  0.309578  0.452667  0.619156  1
  Ga  Ga8  1  0.689631  0.944558  0.379262  1
  Ga  Ga9  1  0.310369  0.055442  0.620738  1
  Co  Co10  1  0.221411  0.752289  0.442821  1
  Co  Co11  1  0.778589  0.247711  0.557179  1
