# generated using pymatgen
data_Y8Tm5Lu7Bi12
_symmetry_space_group_name_H-M   'P 1'
_cell_length_a   8.19744715
_cell_length_b   9.41862304
_cell_length_c   11.99455419
_cell_angle_alpha   90.00513786
_cell_angle_beta   90.01952353
_cell_angle_gamma   89.99056716
_symmetry_Int_Tables_number   1
_chemical_formula_structural   Y8Tm5Lu7Bi12
_chemical_formula_sum   'Y8 Tm5 Lu7 Bi12'
_cell_volume   926.08344087
_cell_formula_units_Z   1
loop_
 _symmetry_equiv_pos_site_id
 _symmetry_equiv_pos_as_xyz
  1  'x, y, z'
loop_
 _atom_site_type_symbol
 _atom_site_label
 _atom_site_symmetry_multiplicity
 _atom_site_fract_x
 _atom_site_fract_y
 _atom_site_fract_z
 _atom_site_occupancy
  Y  Y0  1  0.186507  0.750032  0.718805  1
  Y  Y1  1  0.686472  0.750043  0.781278  1
  Y  Y2  1  0.813580  0.249957  0.281278  1
  Y  Y3  1  0.313525  0.250052  0.218746  1
  Y  Y4  1  0.353747  0.750197  0.216154  1
  Y  Y5  1  0.853447  0.750120  0.283646  1
  Y  Y6  1  0.646420  0.250024  0.783701  1
  Y  Y7  1  0.146497  0.250053  0.716251  1
  Tm  Tm8  1  0.193205  0.565470  0.440634  1
  Tm  Tm9  1  0.693354  0.565573  0.059406  1
  Tm  Tm10  1  0.193291  0.934585  0.440556  1
  Tm  Tm11  1  0.306618  0.065588  0.940579  1
  Tm  Tm12  1  0.806716  0.434381  0.559404  1
  Lu  Lu13  1  0.024599  0.750028  0.989305  1
  Lu  Lu14  1  0.524862  0.750089  0.510745  1
  Lu  Lu15  1  0.975421  0.250123  0.010678  1
  Lu  Lu16  1  0.475486  0.249917  0.489340  1
  Lu  Lu17  1  0.306707  0.433916  0.940629  1
  Lu  Lu18  1  0.806609  0.066036  0.559377  1
  Lu  Lu19  1  0.693340  0.933935  0.059354  1
  Bi  Bi20  1  0.433966  0.003809  0.672239  1
  Bi  Bi21  1  0.933888  0.496256  0.827819  1
  Bi  Bi22  1  0.566082  0.503792  0.327747  1
  Bi  Bi23  1  0.066033  0.996270  0.172198  1
  Bi  Bi24  1  0.566026  0.996205  0.327812  1
  Bi  Bi25  1  0.065992  0.503868  0.172146  1
  Bi  Bi26  1  0.433907  0.496220  0.672199  1
  Bi  Bi27  1  0.933949  0.003848  0.827841  1
  Bi  Bi28  1  0.406458  0.749622  0.957900  1
  Bi  Bi29  1  0.906362  0.750515  0.542146  1
  Bi  Bi30  1  0.593550  0.249633  0.042105  1
  Bi  Bi31  1  0.093385  0.249844  0.457981  1
