# generated using pymatgen
data_Er12In2Tc3
_symmetry_space_group_name_H-M   'P 1'
_cell_length_a   8.40205753
_cell_length_b   8.40205789
_cell_length_c   8.40205747
_cell_angle_alpha   108.85273793
_cell_angle_beta   108.85274501
_cell_angle_gamma   110.71538891
_symmetry_Int_Tables_number   1
_chemical_formula_structural   Er12In2Tc3
_chemical_formula_sum   'Er12 In2 Tc3'
_cell_volume   456.43725119
_cell_formula_units_Z   1
loop_
 _symmetry_equiv_pos_site_id
 _symmetry_equiv_pos_as_xyz
  1  'x, y, z'
loop_
 _atom_site_type_symbol
 _atom_site_label
 _atom_site_symmetry_multiplicity
 _atom_site_fract_x
 _atom_site_fract_y
 _atom_site_fract_z
 _atom_site_occupancy
  Er  Er0  1  0.189749  0.429306  0.239557  1
  Er  Er1  1  0.810251  0.570694  0.760443  1
  Er  Er2  1  0.189749  0.950193  0.760443  1
  Er  Er3  1  0.950193  0.189749  0.760443  1
  Er  Er4  1  0.810251  0.049807  0.239557  1
  Er  Er5  1  0.049807  0.810251  0.239557  1
  Er  Er6  1  0.429306  0.189749  0.239557  1
  Er  Er7  1  0.570694  0.810251  0.760443  1
  Er  Er8  1  0.305631  0.305631  0.611263  1
  Er  Er9  1  0.694369  0.694369  0.388737  1
  Er  Er10  1  0.694369  0.305631  0.000000  1
  Er  Er11  1  0.305631  0.694369  0.000000  1
  In  In12  1  0.000000  0.500000  0.500000  1
  In  In13  1  0.500000  0.000000  0.500000  1
  Tc  Tc14  1  0.371482  0.371482  0.000000  1
  Tc  Tc15  1  0.628518  0.628518  0.000000  1
  Tc  Tc16  1  0.000000  0.000000  0.000000  1
