# generated using pymatgen
data_Zr3TiNb2(TcGe)6
_symmetry_space_group_name_H-M   'P 1'
_cell_length_a   3.41672400
_cell_length_b   7.05013162
_cell_length_c   12.15813630
_cell_angle_alpha   89.70486441
_cell_angle_beta   90.00000000
_cell_angle_gamma   90.00000000
_symmetry_Int_Tables_number   1
_chemical_formula_structural   Zr3TiNb2(TcGe)6
_chemical_formula_sum   'Zr3 Ti1 Nb2 Tc6 Ge6'
_cell_volume   292.86560474
_cell_formula_units_Z   1
loop_
 _symmetry_equiv_pos_site_id
 _symmetry_equiv_pos_as_xyz
  1  'x, y, z'
loop_
 _atom_site_type_symbol
 _atom_site_label
 _atom_site_symmetry_multiplicity
 _atom_site_fract_x
 _atom_site_fract_y
 _atom_site_fract_z
 _atom_site_occupancy
  Zr  Zr0  1  0.500000  0.300231  0.297135  1
  Zr  Zr1  1  0.500000  0.297596  0.702002  1
  Zr  Zr2  1  0.500000  0.799510  0.201168  1
  Ti  Ti3  1  0.500000  0.405104  0.999753  1
  Nb  Nb4  1  0.500000  0.899248  0.501365  1
  Nb  Nb5  1  0.500000  0.796443  0.801129  1
  Tc  Tc6  1  0.000000  0.744898  0.995207  1
  Tc  Tc7  1  0.000000  0.241038  0.502287  1
  Tc  Tc8  1  0.000000  0.630639  0.628490  1
  Tc  Tc9  1  0.000000  0.131313  0.126593  1
  Tc  Tc10  1  0.000000  0.127148  0.870438  1
  Tc  Tc11  1  0.000000  0.630817  0.373764  1
  Ge  Ge12  1  0.000000  0.992809  0.667274  1
  Ge  Ge13  1  0.000000  0.498991  0.159075  1
  Ge  Ge14  1  0.000000  0.500077  0.837486  1
  Ge  Ge15  1  0.000000  0.999406  0.337577  1
  Ge  Ge16  1  0.500000  0.005320  0.999307  1
  Ge  Ge17  1  0.500000  0.499607  0.499955  1
