# generated using pymatgen
data_Yb4ZnCoOs6
_symmetry_space_group_name_H-M   'P 1'
_cell_length_a   5.34779500
_cell_length_b   5.34779576
_cell_length_c   8.61182000
_cell_angle_alpha   90.00000000
_cell_angle_beta   90.00000000
_cell_angle_gamma   122.39546675
_symmetry_Int_Tables_number   1
_chemical_formula_structural   Yb4ZnCoOs6
_chemical_formula_sum   'Yb4 Zn1 Co1 Os6'
_cell_volume   207.95887764
_cell_formula_units_Z   1
loop_
 _symmetry_equiv_pos_site_id
 _symmetry_equiv_pos_as_xyz
  1  'x, y, z'
loop_
 _atom_site_type_symbol
 _atom_site_label
 _atom_site_symmetry_multiplicity
 _atom_site_fract_x
 _atom_site_fract_y
 _atom_site_fract_z
 _atom_site_occupancy
  Yb  Yb0  1  0.330697  0.669303  0.442149  1
  Yb  Yb1  1  0.668087  0.331913  0.568989  1
  Yb  Yb2  1  0.668087  0.331913  0.931011  1
  Yb  Yb3  1  0.330697  0.669303  0.057851  1
  Zn  Zn4  1  0.824005  0.175995  0.250000  1
  Co  Co5  1  0.178319  0.821681  0.750000  1
  Os  Os6  1  0.005412  0.994588  0.503129  1
  Os  Os7  1  0.005412  0.994588  0.996871  1
  Os  Os8  1  0.813270  0.663532  0.250000  1
  Os  Os9  1  0.336468  0.186730  0.250000  1
  Os  Os10  1  0.178560  0.339014  0.750000  1
  Os  Os11  1  0.660986  0.821440  0.750000  1
