# generated using pymatgen
data_La5Nd11Cd4NiRu3
_symmetry_space_group_name_H-M   'P 1'
_cell_length_a   9.93001089
_cell_length_b   10.05274222
_cell_length_c   10.05273445
_cell_angle_alpha   59.82393680
_cell_angle_beta   59.81529339
_cell_angle_gamma   59.81533899
_symmetry_Int_Tables_number   1
_chemical_formula_structural   La5Nd11Cd4NiRu3
_chemical_formula_sum   'La5 Nd11 Cd4 Ni1 Ru3'
_cell_volume   706.65515207
_cell_formula_units_Z   1
loop_
 _symmetry_equiv_pos_site_id
 _symmetry_equiv_pos_as_xyz
  1  'x, y, z'
loop_
 _atom_site_type_symbol
 _atom_site_label
 _atom_site_symmetry_multiplicity
 _atom_site_fract_x
 _atom_site_fract_y
 _atom_site_fract_z
 _atom_site_occupancy
  La  La0  1  0.596909  0.596177  0.596181  1
  La  La1  1  0.598241  0.595268  0.209896  1
  La  La2  1  0.598232  0.209897  0.595277  1
  La  La3  1  0.209745  0.597262  0.597267  1
  La  La4  1  0.065066  0.437697  0.437687  1
  Nd  Nd5  1  0.437014  0.061802  0.061804  1
  Nd  Nd6  1  0.440203  0.057920  0.439961  1
  Nd  Nd7  1  0.060533  0.440531  0.058767  1
  Nd  Nd8  1  0.440206  0.439963  0.057916  1
  Nd  Nd9  1  0.060530  0.058778  0.440517  1
  Nd  Nd10  1  0.185136  0.814122  0.814112  1
  Nd  Nd11  1  0.810191  0.186487  0.186491  1
  Nd  Nd12  1  0.809011  0.185806  0.818222  1
  Nd  Nd13  1  0.188901  0.812419  0.189860  1
  Nd  Nd14  1  0.808996  0.818227  0.185813  1
  Nd  Nd15  1  0.188899  0.189862  0.812414  1
  Cd  Cd16  1  0.828845  0.830357  0.830354  1
  Cd  Cd17  1  0.828287  0.832897  0.508154  1
  Cd  Cd18  1  0.828289  0.508155  0.832896  1
  Cd  Cd19  1  0.508182  0.830141  0.830140  1
  Ni  Ni20  1  0.830754  0.392116  0.392147  1
  Ru  Ru21  1  0.383904  0.390517  0.390519  1
  Ru  Ru22  1  0.396963  0.388029  0.825569  1
  Ru  Ru23  1  0.396962  0.825569  0.388032  1
