# generated using pymatgen
data_LaHo(TaSe2)8
_symmetry_space_group_name_H-M   'P 1'
_cell_length_a   7.00868400
_cell_length_b   7.00868230
_cell_length_c   14.64300000
_cell_angle_alpha   90.00000000
_cell_angle_beta   90.00000000
_cell_angle_gamma   119.99999861
_symmetry_Int_Tables_number   1
_chemical_formula_structural   LaHo(TaSe2)8
_chemical_formula_sum   'La1 Ho1 Ta8 Se16'
_cell_volume   622.92183373
_cell_formula_units_Z   1
loop_
 _symmetry_equiv_pos_site_id
 _symmetry_equiv_pos_as_xyz
  1  'x, y, z'
loop_
 _atom_site_type_symbol
 _atom_site_label
 _atom_site_symmetry_multiplicity
 _atom_site_fract_x
 _atom_site_fract_y
 _atom_site_fract_z
 _atom_site_occupancy
  La  La0  1  0.000000  0.000000  0.000000  1
  Ho  Ho1  1  0.000000  0.000000  0.500000  1
  Ta  Ta2  1  0.508941  0.491059  0.742284  1
  Ta  Ta3  1  0.017879  0.508941  0.257716  1
  Ta  Ta4  1  0.491059  0.982121  0.257716  1
  Ta  Ta5  1  0.508941  0.017879  0.742284  1
  Ta  Ta6  1  0.982121  0.491059  0.742284  1
  Ta  Ta7  1  0.491059  0.508941  0.257716  1
  Ta  Ta8  1  0.000000  0.000000  0.742367  1
  Ta  Ta9  1  0.000000  0.000000  0.257633  1
  Se  Se10  1  0.829525  0.170475  0.370128  1
  Se  Se11  1  0.829525  0.659050  0.370128  1
  Se  Se12  1  0.340950  0.170475  0.370128  1
  Se  Se13  1  0.659327  0.829663  0.853992  1
  Se  Se14  1  0.170475  0.340950  0.629872  1
  Se  Se15  1  0.170337  0.829663  0.853992  1
  Se  Se16  1  0.170337  0.340673  0.853992  1
  Se  Se17  1  0.829663  0.170337  0.146008  1
  Se  Se18  1  0.340673  0.170337  0.146008  1
  Se  Se19  1  0.659050  0.829525  0.629872  1
  Se  Se20  1  0.333333  0.666667  0.137882  1
  Se  Se21  1  0.666667  0.333333  0.623450  1
  Se  Se22  1  0.666667  0.333333  0.862118  1
  Se  Se23  1  0.333333  0.666667  0.376550  1
  Se  Se24  1  0.829663  0.659327  0.146008  1
  Se  Se25  1  0.170475  0.829525  0.629872  1
