# generated using pymatgen
data_KRbGa3CuSe6
_symmetry_space_group_name_H-M   'P 1'
_cell_length_a   7.94046287
_cell_length_b   7.94046364
_cell_length_c   21.35405814
_cell_angle_alpha   95.29729660
_cell_angle_beta   95.29729640
_cell_angle_gamma   90.16256286
_symmetry_Int_Tables_number   1
_chemical_formula_structural   KRbGa3CuSe6
_chemical_formula_sum   'K4 Rb4 Ga12 Cu4 Se24'
_cell_volume   1334.82996912
_cell_formula_units_Z   4
loop_
 _symmetry_equiv_pos_site_id
 _symmetry_equiv_pos_as_xyz
  1  'x, y, z'
loop_
 _atom_site_type_symbol
 _atom_site_label
 _atom_site_symmetry_multiplicity
 _atom_site_fract_x
 _atom_site_fract_y
 _atom_site_fract_z
 _atom_site_occupancy
  K  K0  1  0.776025  0.394001  0.580871  1
  K  K1  1  0.767728  0.896324  0.581147  1
  K  K2  1  0.103676  0.232272  0.918852  1
  K  K3  1  0.605999  0.223975  0.919129  1
  Rb  Rb4  1  0.393346  0.774128  0.079571  1
  Rb  Rb5  1  0.896251  0.768238  0.079833  1
  Rb  Rb6  1  0.231762  0.103749  0.420167  1
  Rb  Rb7  1  0.225872  0.606654  0.420429  1
  Ga  Ga8  1  0.654547  0.279915  0.119676  1
  Ga  Ga9  1  0.155127  0.281140  0.121191  1
  Ga  Ga10  1  0.930094  0.069905  0.250000  1
  Ga  Ga11  1  0.444560  0.555440  0.250000  1
  Ga  Ga12  1  0.718861  0.844873  0.378808  1
  Ga  Ga13  1  0.720085  0.345453  0.380324  1
  Ga  Ga14  1  0.280353  0.655057  0.621222  1
  Ga  Ga15  1  0.281314  0.155493  0.622409  1
  Ga  Ga16  1  0.557073  0.442927  0.750000  1
  Ga  Ga17  1  0.068314  0.931686  0.750000  1
  Ga  Ga18  1  0.844507  0.718686  0.877591  1
  Ga  Ga19  1  0.344944  0.719647  0.878778  1
  Cu  Cu20  1  0.936007  0.561474  0.249827  1
  Cu  Cu21  1  0.438526  0.063994  0.250173  1
  Cu  Cu22  1  0.562161  0.936676  0.749846  1
  Cu  Cu23  1  0.063325  0.437840  0.750154  1
  Se  Se24  1  0.386096  0.240946  0.051175  1
  Se  Se25  1  0.888884  0.285102  0.051280  1
  Se  Se26  1  0.672502  0.554505  0.181047  1
  Se  Se27  1  0.667389  0.036524  0.181354  1
  Se  Se28  1  0.173569  0.554466  0.183976  1
  Se  Se29  1  0.168576  0.039160  0.184140  1
  Se  Se30  1  0.960840  0.831425  0.315860  1
  Se  Se31  1  0.445534  0.826431  0.316024  1
  Se  Se32  1  0.963476  0.332611  0.318646  1
  Se  Se33  1  0.445495  0.327497  0.318953  1
  Se  Se34  1  0.714898  0.111116  0.448721  1
  Se  Se35  1  0.759054  0.613904  0.448825  1
  Se  Se36  1  0.238536  0.387280  0.553278  1
  Se  Se37  1  0.288590  0.889085  0.553369  1
  Se  Se38  1  0.557079  0.671898  0.681065  1
  Se  Se39  1  0.034026  0.667979  0.681327  1
  Se  Se40  1  0.556847  0.173353  0.683087  1
  Se  Se41  1  0.035860  0.168107  0.683184  1
  Se  Se42  1  0.831894  0.964141  0.816816  1
  Se  Se43  1  0.826647  0.443153  0.816913  1
  Se  Se44  1  0.332021  0.965974  0.818673  1
  Se  Se45  1  0.328101  0.442921  0.818935  1
  Se  Se46  1  0.110914  0.711410  0.946631  1
  Se  Se47  1  0.612721  0.761464  0.946722  1
