# generated using pymatgen
data_Sc2CoSi(BIr2)2
_symmetry_space_group_name_H-M   'P 1'
_cell_length_a   9.11563100
_cell_length_b   9.11563100
_cell_length_c   3.08433800
_cell_angle_alpha   90.00000000
_cell_angle_beta   90.00000000
_cell_angle_gamma   90.00000000
_symmetry_Int_Tables_number   1
_chemical_formula_structural   Sc2CoSi(BIr2)2
_chemical_formula_sum   'Sc4 Co2 Si2 B4 Ir8'
_cell_volume   256.29222880
_cell_formula_units_Z   2
loop_
 _symmetry_equiv_pos_site_id
 _symmetry_equiv_pos_as_xyz
  1  'x, y, z'
loop_
 _atom_site_type_symbol
 _atom_site_label
 _atom_site_symmetry_multiplicity
 _atom_site_fract_x
 _atom_site_fract_y
 _atom_site_fract_z
 _atom_site_occupancy
  Sc  Sc0  1  0.174194  0.674194  0.000000  1
  Sc  Sc1  1  0.674194  0.825806  0.000000  1
  Sc  Sc2  1  0.325806  0.174194  0.000000  1
  Sc  Sc3  1  0.825806  0.325806  0.000000  1
  Co  Co4  1  0.000000  0.500000  0.500000  1
  Co  Co5  1  0.500000  0.000000  0.500000  1
  Si  Si6  1  0.000000  0.000000  0.000000  1
  Si  Si7  1  0.500000  0.500000  0.000000  1
  B  B8  1  0.387542  0.887542  0.000000  1
  B  B9  1  0.887542  0.612458  0.000000  1
  B  B10  1  0.112458  0.387542  0.000000  1
  B  B11  1  0.612458  0.112458  0.000000  1
  Ir  Ir12  1  0.282366  0.434639  0.500000  1
  Ir  Ir13  1  0.717635  0.565361  0.500000  1
  Ir  Ir14  1  0.565361  0.282366  0.500000  1
  Ir  Ir15  1  0.434639  0.717635  0.500000  1
  Ir  Ir16  1  0.934639  0.782365  0.500000  1
  Ir  Ir17  1  0.782365  0.065361  0.500000  1
  Ir  Ir18  1  0.217634  0.934639  0.500000  1
  Ir  Ir19  1  0.065361  0.217634  0.500000  1
