# generated using pymatgen
data_Th3GaGe2Rh3
_symmetry_space_group_name_H-M   'P 1'
_cell_length_a   7.30331200
_cell_length_b   7.31331761
_cell_length_c   4.01621000
_cell_angle_alpha   90.00000000
_cell_angle_beta   90.00000000
_cell_angle_gamma   119.95476178
_symmetry_Int_Tables_number   1
_chemical_formula_structural   Th3GaGe2Rh3
_chemical_formula_sum   'Th3 Ga1 Ge2 Rh3'
_cell_volume   185.85708736
_cell_formula_units_Z   1
loop_
 _symmetry_equiv_pos_site_id
 _symmetry_equiv_pos_as_xyz
  1  'x, y, z'
loop_
 _atom_site_type_symbol
 _atom_site_label
 _atom_site_symmetry_multiplicity
 _atom_site_fract_x
 _atom_site_fract_y
 _atom_site_fract_z
 _atom_site_occupancy
  Th  Th0  1  0.998955  0.411970  0.500000  1
  Th  Th1  1  0.586985  0.588030  0.500000  1
  Th  Th2  1  0.412257  0.000000  0.500000  1
  Ga  Ga3  1  0.754619  0.000000  0.000000  1
  Ge  Ge4  1  0.996713  0.754106  0.000000  1
  Ge  Ge5  1  0.242606  0.245894  0.000000  1
  Rh  Rh6  1  0.333425  0.664311  0.000000  1
  Rh  Rh7  1  0.669115  0.335689  0.000000  1
  Rh  Rh8  1  0.005324  0.000000  0.500000  1
