# generated using pymatgen
data_Dy6Ga8SCl
_symmetry_space_group_name_H-M   'P 1'
_cell_length_a   7.76512446
_cell_length_b   7.76512392
_cell_length_c   7.76512319
_cell_angle_alpha   119.27858396
_cell_angle_beta   119.27858988
_cell_angle_gamma   91.25413127
_symmetry_Int_Tables_number   1
_chemical_formula_structural   Dy6Ga8SCl
_chemical_formula_sum   'Dy6 Ga8 S1 Cl1'
_cell_volume   334.60125046
_cell_formula_units_Z   1
loop_
 _symmetry_equiv_pos_site_id
 _symmetry_equiv_pos_as_xyz
  1  'x, y, z'
loop_
 _atom_site_type_symbol
 _atom_site_label
 _atom_site_symmetry_multiplicity
 _atom_site_fract_x
 _atom_site_fract_y
 _atom_site_fract_z
 _atom_site_occupancy
  Dy  Dy0  1  0.846085  0.668774  0.514858  1
  Dy  Dy1  1  0.668774  0.153915  0.822689  1
  Dy  Dy2  1  0.331226  0.846085  0.177311  1
  Dy  Dy3  1  0.153915  0.331226  0.485142  1
  Dy  Dy4  1  0.246028  0.246028  0.000000  1
  Dy  Dy5  1  0.753972  0.753972  0.000000  1
  Ga  Ga6  1  0.163350  0.951795  0.502115  1
  Ga  Ga7  1  0.449679  0.661236  0.497885  1
  Ga  Ga8  1  0.550321  0.338764  0.502115  1
  Ga  Ga9  1  0.661236  0.163350  0.211555  1
  Ga  Ga10  1  0.836650  0.048205  0.497885  1
  Ga  Ga11  1  0.048205  0.550321  0.211555  1
  Ga  Ga12  1  0.338764  0.836650  0.788445  1
  Ga  Ga13  1  0.951795  0.449679  0.788445  1
  S  S14  1  0.000000  0.000000  0.000000  1
  Cl  Cl15  1  0.500000  0.500000  0.000000  1
