# generated using pymatgen
data_Rb8CeY3F20
_symmetry_space_group_name_H-M   'P 1'
_cell_length_a   6.97153593
_cell_length_b   7.60061800
_cell_length_c   11.52796879
_cell_angle_alpha   90.00000000
_cell_angle_beta   90.25570577
_cell_angle_gamma   90.00000000
_symmetry_Int_Tables_number   1
_chemical_formula_structural   Rb8CeY3F20
_chemical_formula_sum   'Rb8 Ce1 Y3 F20'
_cell_volume   610.83771321
_cell_formula_units_Z   1
loop_
 _symmetry_equiv_pos_site_id
 _symmetry_equiv_pos_as_xyz
  1  'x, y, z'
loop_
 _atom_site_type_symbol
 _atom_site_label
 _atom_site_symmetry_multiplicity
 _atom_site_fract_x
 _atom_site_fract_y
 _atom_site_fract_z
 _atom_site_occupancy
  Rb  Rb0  1  0.964936  0.504221  0.669143  1
  Rb  Rb1  1  0.034958  0.001200  0.331126  1
  Rb  Rb2  1  0.534703  0.505133  0.172447  1
  Rb  Rb3  1  0.465804  0.000304  0.827144  1
  Rb  Rb4  1  0.964936  0.995779  0.669143  1
  Rb  Rb5  1  0.034958  0.498800  0.331126  1
  Rb  Rb6  1  0.534703  0.994867  0.172447  1
  Rb  Rb7  1  0.465804  0.499696  0.827144  1
  Ce  Ce8  1  0.941259  0.250000  0.998415  1
  Y  Y9  1  0.061544  0.750000  0.001243  1
  Y  Y10  1  0.558672  0.250000  0.498795  1
  Y  Y11  1  0.442023  0.750000  0.501046  1
  F  F12  1  0.856967  0.543018  0.926556  1
  F  F13  1  0.144360  0.024813  0.074739  1
  F  F14  1  0.640905  0.534333  0.430061  1
  F  F15  1  0.359958  0.033780  0.569638  1
  F  F16  1  0.856967  0.956982  0.926556  1
  F  F17  1  0.144360  0.475187  0.074739  1
  F  F18  1  0.640905  0.965667  0.430061  1
  F  F19  1  0.359958  0.466220  0.569638  1
  F  F20  1  0.621183  0.750000  0.659240  1
  F  F21  1  0.379183  0.250000  0.340382  1
  F  F22  1  0.879953  0.750000  0.159059  1
  F  F23  1  0.127250  0.250000  0.832695  1
  F  F24  1  0.126026  0.750000  0.515622  1
  F  F25  1  0.874291  0.250000  0.484680  1
  F  F26  1  0.379007  0.750000  0.013696  1
  F  F27  1  0.607405  0.250000  0.986391  1
  F  F28  1  0.154335  0.750000  0.816510  1
  F  F29  1  0.841703  0.250000  0.190097  1
  F  F30  1  0.347799  0.750000  0.317064  1
  F  F31  1  0.653189  0.250000  0.683360  1
