# generated using pymatgen
data_PrCo4P3Rh
_symmetry_space_group_name_H-M   'P 1'
_cell_length_a   3.74870100
_cell_length_b   10.57902400
_cell_length_c   11.95520500
_cell_angle_alpha   90.00000000
_cell_angle_beta   90.00000000
_cell_angle_gamma   90.00000000
_symmetry_Int_Tables_number   1
_chemical_formula_structural   PrCo4P3Rh
_chemical_formula_sum   'Pr4 Co16 P12 Rh4'
_cell_volume   474.11471208
_cell_formula_units_Z   4
loop_
 _symmetry_equiv_pos_site_id
 _symmetry_equiv_pos_as_xyz
  1  'x, y, z'
loop_
 _atom_site_type_symbol
 _atom_site_label
 _atom_site_symmetry_multiplicity
 _atom_site_fract_x
 _atom_site_fract_y
 _atom_site_fract_z
 _atom_site_occupancy
  Pr  Pr0  1  0.250000  0.585563  0.702924  1
  Pr  Pr1  1  0.250000  0.914437  0.202924  1
  Pr  Pr2  1  0.750000  0.414437  0.297076  1
  Pr  Pr3  1  0.750000  0.085563  0.797076  1
  Co  Co4  1  0.250000  0.408184  0.491091  1
  Co  Co5  1  0.250000  0.091816  0.991091  1
  Co  Co6  1  0.750000  0.591816  0.508909  1
  Co  Co7  1  0.750000  0.908184  0.008909  1
  Co  Co8  1  0.250000  0.220947  0.174984  1
  Co  Co9  1  0.250000  0.279053  0.674984  1
  Co  Co10  1  0.750000  0.779053  0.825016  1
  Co  Co11  1  0.750000  0.720947  0.325016  1
  Co  Co12  1  0.250000  0.884815  0.700536  1
  Co  Co13  1  0.250000  0.615185  0.200536  1
  Co  Co14  1  0.750000  0.115185  0.299464  1
  Co  Co15  1  0.750000  0.384815  0.799464  1
  Co  Co16  1  0.250000  0.465894  0.931686  1
  Co  Co17  1  0.250000  0.034106  0.431686  1
  Co  Co18  1  0.750000  0.534106  0.068314  1
  Co  Co19  1  0.750000  0.965894  0.568314  1
  P  P20  1  0.250000  0.421579  0.110136  1
  P  P21  1  0.250000  0.078421  0.610136  1
  P  P22  1  0.750000  0.578421  0.889864  1
  P  P23  1  0.750000  0.921579  0.389864  1
  P  P24  1  0.250000  0.277608  0.865069  1
  P  P25  1  0.250000  0.222392  0.365069  1
  P  P26  1  0.750000  0.722392  0.134931  1
  P  P27  1  0.750000  0.777608  0.634931  1
  P  P28  1  0.250000  0.599090  0.391304  1
  P  P29  1  0.250000  0.900910  0.891304  1
  P  P30  1  0.750000  0.400910  0.608696  1
  P  P31  1  0.750000  0.099090  0.108696  1
  Rh  Rh32  1  0.250000  0.714070  0.990586  1
  Rh  Rh33  1  0.250000  0.785930  0.490586  1
  Rh  Rh34  1  0.750000  0.285930  0.009414  1
  Rh  Rh35  1  0.750000  0.214070  0.509414  1
