# generated using pymatgen
data_TbY3(In2Pd3)4
_symmetry_space_group_name_H-M   'P 1'
_cell_length_a   4.62316400
_cell_length_b   9.74915376
_cell_length_c   10.42690000
_cell_angle_alpha   90.04308429
_cell_angle_beta   90.00000000
_cell_angle_gamma   90.00000000
_symmetry_Int_Tables_number   1
_chemical_formula_structural   TbY3(In2Pd3)4
_chemical_formula_sum   'Tb1 Y3 In8 Pd12'
_cell_volume   469.96044366
_cell_formula_units_Z   1
loop_
 _symmetry_equiv_pos_site_id
 _symmetry_equiv_pos_as_xyz
  1  'x, y, z'
loop_
 _atom_site_type_symbol
 _atom_site_label
 _atom_site_symmetry_multiplicity
 _atom_site_fract_x
 _atom_site_fract_y
 _atom_site_fract_z
 _atom_site_occupancy
  Tb  Tb0  1  0.750000  0.947903  0.775867  1
  Y  Y1  1  0.250000  0.447151  0.723019  1
  Y  Y2  1  0.250000  0.052536  0.223392  1
  Y  Y3  1  0.750000  0.552723  0.277025  1
  In  In4  1  0.250000  0.887093  0.512075  1
  In  In5  1  0.250000  0.612775  0.011548  1
  In  In6  1  0.750000  0.112898  0.487819  1
  In  In7  1  0.750000  0.387228  0.988893  1
  In  In8  1  0.250000  0.166037  0.895896  1
  In  In9  1  0.250000  0.334305  0.395596  1
  In  In10  1  0.750000  0.834169  0.104504  1
  In  In11  1  0.750000  0.665410  0.604194  1
  Pd  Pd12  1  0.250000  0.143912  0.626846  1
  Pd  Pd13  1  0.250000  0.357038  0.127428  1
  Pd  Pd14  1  0.750000  0.856632  0.373150  1
  Pd  Pd15  1  0.750000  0.642690  0.872632  1
  Pd  Pd16  1  0.250000  0.746167  0.739648  1
  Pd  Pd17  1  0.250000  0.753335  0.239423  1
  Pd  Pd18  1  0.750000  0.253577  0.260552  1
  Pd  Pd19  1  0.750000  0.246915  0.760825  1
  Pd  Pd20  1  0.250000  0.896540  0.972766  1
  Pd  Pd21  1  0.250000  0.603557  0.472763  1
  Pd  Pd22  1  0.750000  0.103329  0.027029  1
  Pd  Pd23  1  0.750000  0.396075  0.527110  1
