# generated using pymatgen
data_Tb4Y5Er7(CdPd)4
_symmetry_space_group_name_H-M   'P 1'
_cell_length_a   9.69750025
_cell_length_b   9.69238443
_cell_length_c   9.69238402
_cell_angle_alpha   59.99957299
_cell_angle_beta   59.98253714
_cell_angle_gamma   59.98254152
_symmetry_Int_Tables_number   1
_chemical_formula_structural   Tb4Y5Er7(CdPd)4
_chemical_formula_sum   'Tb4 Y5 Er7 Cd4 Pd4'
_cell_volume   644.00609255
_cell_formula_units_Z   1
loop_
 _symmetry_equiv_pos_site_id
 _symmetry_equiv_pos_as_xyz
  1  'x, y, z'
loop_
 _atom_site_type_symbol
 _atom_site_label
 _atom_site_symmetry_multiplicity
 _atom_site_fract_x
 _atom_site_fract_y
 _atom_site_fract_z
 _atom_site_occupancy
  Tb  Tb0  1  0.351596  0.354360  0.354360  1
  Tb  Tb1  1  0.354218  0.356859  0.934705  1
  Tb  Tb2  1  0.354218  0.934705  0.356859  1
  Tb  Tb3  1  0.939684  0.354360  0.354360  1
  Y  Y4  1  0.564093  0.935907  0.935907  1
  Y  Y5  1  0.566027  0.934229  0.564837  1
  Y  Y6  1  0.934906  0.564837  0.934229  1
  Y  Y7  1  0.566027  0.564837  0.934229  1
  Y  Y8  1  0.934906  0.934229  0.564837  1
  Er  Er9  1  0.810849  0.189151  0.189151  1
  Er  Er10  1  0.187394  0.812606  0.812606  1
  Er  Er11  1  0.187736  0.812075  0.188682  1
  Er  Er12  1  0.811506  0.188682  0.812075  1
  Er  Er13  1  0.187736  0.188682  0.812075  1
  Er  Er14  1  0.811506  0.812075  0.188682  1
  Er  Er15  1  0.934608  0.565392  0.565392  1
  Cd  Cd16  1  0.583958  0.581466  0.581466  1
  Cd  Cd17  1  0.582663  0.580987  0.253689  1
  Cd  Cd18  1  0.582663  0.253689  0.580987  1
  Cd  Cd19  1  0.253109  0.581466  0.581466  1
  Pd  Pd20  1  0.145546  0.143657  0.143657  1
  Pd  Pd21  1  0.143956  0.142757  0.569331  1
  Pd  Pd22  1  0.143956  0.569331  0.142757  1
  Pd  Pd23  1  0.567139  0.143657  0.143657  1
