# generated using pymatgen
data_Tb11LuCo4
_symmetry_space_group_name_H-M   'P 1'
_cell_length_a   6.20383520
_cell_length_b   6.93955171
_cell_length_c   9.47420016
_cell_angle_alpha   89.95630329
_cell_angle_beta   89.71760953
_cell_angle_gamma   90.02715409
_symmetry_Int_Tables_number   1
_chemical_formula_structural   Tb11LuCo4
_chemical_formula_sum   'Tb11 Lu1 Co4'
_cell_volume   407.87658461
_cell_formula_units_Z   1
loop_
 _symmetry_equiv_pos_site_id
 _symmetry_equiv_pos_as_xyz
  1  'x, y, z'
loop_
 _atom_site_type_symbol
 _atom_site_label
 _atom_site_symmetry_multiplicity
 _atom_site_fract_x
 _atom_site_fract_y
 _atom_site_fract_z
 _atom_site_occupancy
  Tb  Tb0  1  0.173798  0.174413  0.431841  1
  Tb  Tb1  1  0.674532  0.324951  0.568946  1
  Tb  Tb2  1  0.823556  0.825349  0.933694  1
  Tb  Tb3  1  0.674688  0.325813  0.933919  1
  Tb  Tb4  1  0.822835  0.823855  0.569370  1
  Tb  Tb5  1  0.323902  0.674504  0.429248  1
  Tb  Tb6  1  0.176326  0.174546  0.067626  1
  Tb  Tb7  1  0.861531  0.545099  0.248060  1
  Tb  Tb8  1  0.638797  0.042695  0.249312  1
  Tb  Tb9  1  0.140436  0.458123  0.751510  1
  Tb  Tb10  1  0.357846  0.956405  0.751589  1
  Lu  Lu11  1  0.326721  0.675065  0.068113  1
  Co  Co12  1  0.055915  0.887004  0.246565  1
  Co  Co13  1  0.450750  0.387864  0.245712  1
  Co  Co14  1  0.947462  0.112236  0.749273  1
  Co  Co15  1  0.550903  0.612077  0.755221  1
