# generated using pymatgen
data_ErFeCoSiP
_symmetry_space_group_name_H-M   'P 1'
_cell_length_a   5.48892243
_cell_length_b   5.48892268
_cell_length_c   5.48892206
_cell_angle_alpha   139.06198581
_cell_angle_beta   139.08412060
_cell_angle_gamma   59.26348989
_symmetry_Int_Tables_number   1
_chemical_formula_structural   ErFeCoSiP
_chemical_formula_sum   'Er1 Fe1 Co1 Si1 P1'
_cell_volume   70.27803720
_cell_formula_units_Z   1
loop_
 _symmetry_equiv_pos_site_id
 _symmetry_equiv_pos_as_xyz
  1  'x, y, z'
loop_
 _atom_site_type_symbol
 _atom_site_label
 _atom_site_symmetry_multiplicity
 _atom_site_fract_x
 _atom_site_fract_y
 _atom_site_fract_z
 _atom_site_occupancy
  Er  Er0  1  0.002417  0.002417  0.000000  1
  Fe  Fe1  1  0.246593  0.746593  0.500000  1
  Co  Co2  1  0.748009  0.248009  0.500000  1
  Si  Si3  1  0.373530  0.373530  0.000000  1
  P  P4  1  0.629451  0.629451  0.000000  1
