# generated using pymatgen
data_Ta3TiAl2(B2Ru5)2
_symmetry_space_group_name_H-M   'P 1'
_cell_length_a   9.27632766
_cell_length_b   9.27632766
_cell_length_c   2.99558700
_cell_angle_alpha   90.00000000
_cell_angle_beta   90.00000000
_cell_angle_gamma   89.79625994
_symmetry_Int_Tables_number   1
_chemical_formula_structural   Ta3TiAl2(B2Ru5)2
_chemical_formula_sum   'Ta3 Ti1 Al2 B4 Ru10'
_cell_volume   257.76939519
_cell_formula_units_Z   1
loop_
 _symmetry_equiv_pos_site_id
 _symmetry_equiv_pos_as_xyz
  1  'x, y, z'
loop_
 _atom_site_type_symbol
 _atom_site_label
 _atom_site_symmetry_multiplicity
 _atom_site_fract_x
 _atom_site_fract_y
 _atom_site_fract_z
 _atom_site_occupancy
  Ta  Ta0  1  0.175511  0.324489  0.000000  1
  Ta  Ta1  1  0.323898  0.822609  0.000000  1
  Ta  Ta2  1  0.677391  0.176102  0.000000  1
  Ti  Ti3  1  0.823343  0.676657  0.000000  1
  Al  Al4  1  0.499975  0.500219  0.000000  1
  Al  Al5  1  0.999781  0.000025  0.000000  1
  B  B6  1  0.626351  0.873649  0.000000  1
  B  B7  1  0.375518  0.124482  0.000000  1
  B  B8  1  0.123590  0.625149  0.000000  1
  B  B9  1  0.874851  0.376410  0.000000  1
  Ru  Ru10  1  0.570056  0.713493  0.500000  1
  Ru  Ru11  1  0.430577  0.285919  0.500000  1
  Ru  Ru12  1  0.069382  0.786393  0.500000  1
  Ru  Ru13  1  0.932126  0.214777  0.500000  1
  Ru  Ru14  1  0.285223  0.567874  0.500000  1
  Ru  Ru15  1  0.713607  0.430618  0.500000  1
  Ru  Ru16  1  0.214081  0.069423  0.500000  1
  Ru  Ru17  1  0.786507  0.929944  0.500000  1
  Ru  Ru18  1  0.500323  0.999677  0.500000  1
  Ru  Ru19  1  0.997909  0.502091  0.500000  1
