# generated using pymatgen
data_ErPa3(Pd2Pb)2
_symmetry_space_group_name_H-M   'P 1'
_cell_length_a   7.89553547
_cell_length_b   7.89553547
_cell_length_c   3.65699600
_cell_angle_alpha   90.00000000
_cell_angle_beta   90.00000000
_cell_angle_gamma   89.93005962
_symmetry_Int_Tables_number   1
_chemical_formula_structural   ErPa3(Pd2Pb)2
_chemical_formula_sum   'Er1 Pa3 Pd4 Pb2'
_cell_volume   227.97506050
_cell_formula_units_Z   1
loop_
 _symmetry_equiv_pos_site_id
 _symmetry_equiv_pos_as_xyz
  1  'x, y, z'
loop_
 _atom_site_type_symbol
 _atom_site_label
 _atom_site_symmetry_multiplicity
 _atom_site_fract_x
 _atom_site_fract_y
 _atom_site_fract_z
 _atom_site_occupancy
  Er  Er0  1  0.326500  0.826500  0.500000  1
  Pa  Pa1  1  0.671162  0.171162  0.500000  1
  Pa  Pa2  1  0.174423  0.326499  0.500000  1
  Pa  Pa3  1  0.826499  0.674423  0.500000  1
  Pd  Pd4  1  0.376952  0.132426  0.000000  1
  Pd  Pd5  1  0.118336  0.618336  0.000000  1
  Pd  Pd6  1  0.632426  0.876952  0.000000  1
  Pd  Pd7  1  0.869339  0.369339  0.000000  1
  Pb  Pb8  1  0.007461  0.996902  0.000000  1
  Pb  Pb9  1  0.496902  0.507461  0.000000  1
