# generated using pymatgen
data_Rb3Li(TaSe6)2
_symmetry_space_group_name_H-M   'P 1'
_cell_length_a   10.03606895
_cell_length_b   14.32931301
_cell_length_c   16.02473900
_cell_angle_alpha   90.00001999
_cell_angle_beta   95.41342148
_cell_angle_gamma   90.00209991
_symmetry_Int_Tables_number   1
_chemical_formula_structural   Rb3Li(TaSe6)2
_chemical_formula_sum   'Rb12 Li4 Ta8 Se48'
_cell_volume   2294.23889165
_cell_formula_units_Z   4
loop_
 _symmetry_equiv_pos_site_id
 _symmetry_equiv_pos_as_xyz
  1  'x, y, z'
loop_
 _atom_site_type_symbol
 _atom_site_label
 _atom_site_symmetry_multiplicity
 _atom_site_fract_x
 _atom_site_fract_y
 _atom_site_fract_z
 _atom_site_occupancy
  Rb  Rb0  1  0.924217  0.585365  0.279420  1
  Rb  Rb1  1  0.424231  0.914636  0.779423  1
  Rb  Rb2  1  0.075781  0.414635  0.720580  1
  Rb  Rb3  1  0.575776  0.085369  0.220572  1
  Rb  Rb4  1  0.766863  0.915089  0.496698  1
  Rb  Rb5  1  0.502098  0.396832  0.341904  1
  Rb  Rb6  1  0.002103  0.103173  0.841909  1
  Rb  Rb7  1  0.733142  0.415099  0.003305  1
  Rb  Rb8  1  0.497895  0.603172  0.658094  1
  Rb  Rb9  1  0.997902  0.896827  0.158089  1
  Rb  Rb10  1  0.233142  0.084909  0.503307  1
  Rb  Rb11  1  0.266862  0.584895  0.996694  1
  Li  Li12  1  0.688627  0.689096  0.077876  1
  Li  Li13  1  0.311367  0.310898  0.922125  1
  Li  Li14  1  0.188627  0.810915  0.577874  1
  Li  Li15  1  0.811381  0.189087  0.422125  1
  Ta  Ta16  1  0.013097  0.779934  0.730824  1
  Ta  Ta17  1  0.513110  0.720067  0.230834  1
  Ta  Ta18  1  0.655098  0.221543  0.582464  1
  Ta  Ta19  1  0.986898  0.220069  0.269168  1
  Ta  Ta20  1  0.155102  0.278466  0.082453  1
  Ta  Ta21  1  0.844903  0.721527  0.917543  1
  Ta  Ta22  1  0.486905  0.279932  0.769172  1
  Ta  Ta23  1  0.344905  0.778460  0.417543  1
  Se  Se24  1  0.231268  0.181779  0.241709  1
  Se  Se25  1  0.807400  0.725968  0.635968  1
  Se  Se26  1  0.731361  0.786138  0.307726  1
  Se  Se27  1  0.268619  0.213872  0.692281  1
  Se  Se28  1  0.478840  0.885390  0.325731  1
  Se  Se29  1  0.521183  0.114613  0.674269  1
  Se  Se30  1  0.451844  0.335190  0.606375  1
  Se  Se31  1  0.731267  0.318218  0.741707  1
  Se  Se32  1  0.243416  0.924564  0.338364  1
  Se  Se33  1  0.307391  0.774036  0.135955  1
  Se  Se34  1  0.427867  0.834555  0.555316  1
  Se  Se35  1  0.231385  0.713872  0.807725  1
  Se  Se36  1  0.982187  0.366448  0.499985  1
  Se  Se37  1  0.192606  0.274034  0.364038  1
  Se  Se38  1  0.916726  0.074767  0.330300  1
  Se  Se39  1  0.768739  0.818213  0.758291  1
  Se  Se40  1  0.692606  0.225971  0.864037  1
  Se  Se41  1  0.048143  0.835195  0.893628  1
  Se  Se42  1  0.084467  0.773965  0.429501  1
  Se  Se43  1  0.583247  0.574782  0.169704  1
  Se  Se44  1  0.978823  0.614626  0.825732  1
  Se  Se45  1  0.572125  0.165462  0.444670  1
  Se  Se46  1  0.017808  0.633551  0.500014  1
  Se  Se47  1  0.517808  0.866444  0.000000  1
  Se  Se48  1  0.163934  0.099306  0.063527  1
  Se  Se49  1  0.743437  0.575449  0.838361  1
  Se  Se50  1  0.415534  0.273960  0.070503  1
  Se  Se51  1  0.021178  0.385371  0.174265  1
  Se  Se52  1  0.083274  0.925241  0.669707  1
  Se  Se53  1  0.637412  0.844610  0.142103  1
  Se  Se54  1  0.836056  0.900690  0.936463  1
  Se  Se55  1  0.548164  0.664817  0.393622  1
  Se  Se56  1  0.584468  0.726036  0.929497  1
  Se  Se57  1  0.416741  0.425232  0.830299  1
  Se  Se58  1  0.927872  0.665448  0.055338  1
  Se  Se59  1  0.336059  0.599311  0.436474  1
  Se  Se60  1  0.137429  0.655384  0.642114  1
  Se  Se61  1  0.482195  0.133554  0.999998  1
  Se  Se62  1  0.862573  0.344613  0.357883  1
  Se  Se63  1  0.915530  0.226034  0.570499  1
  Se  Se64  1  0.951850  0.164809  0.106365  1
  Se  Se65  1  0.256568  0.424551  0.161635  1
  Se  Se66  1  0.756579  0.075451  0.661641  1
  Se  Se67  1  0.663949  0.400696  0.563543  1
  Se  Se68  1  0.768623  0.286126  0.192277  1
  Se  Se69  1  0.072125  0.334546  0.944671  1
  Se  Se70  1  0.362588  0.155388  0.857897  1
  Se  Se71  1  0.268703  0.681785  0.258294  1
