# generated using pymatgen
data_Ho8SiPI12
_symmetry_space_group_name_H-M   'P 1'
_cell_length_a   4.18507800
_cell_length_b   13.88772264
_cell_length_c   14.66122262
_cell_angle_alpha   89.96581825
_cell_angle_beta   90.00000000
_cell_angle_gamma   90.00000000
_symmetry_Int_Tables_number   1
_chemical_formula_structural   Ho8SiPI12
_chemical_formula_sum   'Ho8 Si1 P1 I12'
_cell_volume   852.12773757
_cell_formula_units_Z   1
loop_
 _symmetry_equiv_pos_site_id
 _symmetry_equiv_pos_as_xyz
  1  'x, y, z'
loop_
 _atom_site_type_symbol
 _atom_site_label
 _atom_site_symmetry_multiplicity
 _atom_site_fract_x
 _atom_site_fract_y
 _atom_site_fract_z
 _atom_site_occupancy
  Ho  Ho0  1  0.500000  0.111898  0.351445  1
  Ho  Ho1  1  0.500000  0.888102  0.648555  1
  Ho  Ho2  1  0.500000  0.614943  0.152535  1
  Ho  Ho3  1  0.500000  0.385057  0.847465  1
  Ho  Ho4  1  0.000000  0.105573  0.570946  1
  Ho  Ho5  1  0.000000  0.894427  0.429054  1
  Ho  Ho6  1  0.000000  0.611240  0.925007  1
  Ho  Ho7  1  0.000000  0.388760  0.074993  1
  Si  Si8  1  0.500000  0.500000  0.000000  1
  P  P9  1  0.500000  0.000000  0.500000  1
  I  I10  1  0.500000  0.245062  0.163837  1
  I  I11  1  0.500000  0.754938  0.836163  1
  I  I12  1  0.500000  0.748770  0.339319  1
  I  I13  1  0.500000  0.251230  0.660681  1
  I  I14  1  0.000000  0.257651  0.415885  1
  I  I15  1  0.000000  0.742349  0.584115  1
  I  I16  1  0.000000  0.760147  0.085035  1
  I  I17  1  0.000000  0.239853  0.914965  1
  I  I18  1  0.000000  0.999120  0.241935  1
  I  I19  1  0.000000  0.000880  0.758065  1
  I  I20  1  0.000000  0.499776  0.261096  1
  I  I21  1  0.000000  0.500224  0.738904  1
