# generated using pymatgen
data_ThZnTeO6
_symmetry_space_group_name_H-M   'P 1'
_cell_length_a   5.25501200
_cell_length_b   5.20984600
_cell_length_c   8.98825200
_cell_angle_alpha   90.00000000
_cell_angle_beta   90.00000000
_cell_angle_gamma   90.00000000
_symmetry_Int_Tables_number   1
_chemical_formula_structural   ThZnTeO6
_chemical_formula_sum   'Th2 Zn2 Te2 O12'
_cell_volume   246.07859480
_cell_formula_units_Z   2
loop_
 _symmetry_equiv_pos_site_id
 _symmetry_equiv_pos_as_xyz
  1  'x, y, z'
loop_
 _atom_site_type_symbol
 _atom_site_label
 _atom_site_symmetry_multiplicity
 _atom_site_fract_x
 _atom_site_fract_y
 _atom_site_fract_z
 _atom_site_occupancy
  Th  Th0  1  0.500000  0.000000  0.129598  1
  Th  Th1  1  0.000000  0.499999  0.870401  1
  Zn  Zn2  1  0.500000  0.499999  0.476525  1
  Zn  Zn3  1  0.000000  0.000000  0.523474  1
  Te  Te4  1  0.000000  0.499999  0.264909  1
  Te  Te5  1  0.500000  0.000000  0.735092  1
  O  O6  1  0.850650  0.298057  0.095810  1
  O  O7  1  0.149350  0.701941  0.095810  1
  O  O8  1  0.292266  0.280442  0.269286  1
  O  O9  1  0.707735  0.719558  0.269286  1
  O  O10  1  0.816812  0.282096  0.402789  1
  O  O11  1  0.183189  0.717904  0.402789  1
  O  O12  1  0.316811  0.217905  0.597211  1
  O  O13  1  0.683188  0.782096  0.597211  1
  O  O14  1  0.792266  0.219559  0.730714  1
  O  O15  1  0.207735  0.780441  0.730714  1
  O  O16  1  0.350650  0.201942  0.904190  1
  O  O17  1  0.649351  0.798058  0.904190  1
