# generated using pymatgen
data_DyY15(AlNi)4
_symmetry_space_group_name_H-M   'P 1'
_cell_length_a   9.50855826
_cell_length_b   9.49483118
_cell_length_c   9.50325000
_cell_angle_alpha   59.97934898
_cell_angle_beta   60.02645127
_cell_angle_gamma   60.00289663
_symmetry_Int_Tables_number   1
_chemical_formula_structural   DyY15(AlNi)4
_chemical_formula_sum   'Dy1 Y15 Al4 Ni4'
_cell_volume   606.71882789
_cell_formula_units_Z   1
loop_
 _symmetry_equiv_pos_site_id
 _symmetry_equiv_pos_as_xyz
  1  'x, y, z'
loop_
 _atom_site_type_symbol
 _atom_site_label
 _atom_site_symmetry_multiplicity
 _atom_site_fract_x
 _atom_site_fract_y
 _atom_site_fract_z
 _atom_site_occupancy
  Dy  Dy0  1  0.199140  0.598843  0.601004  1
  Y  Y1  1  0.186761  0.813565  0.813011  1
  Y  Y2  1  0.814749  0.185926  0.185768  1
  Y  Y3  1  0.814750  0.185951  0.813586  1
  Y  Y4  1  0.186757  0.813590  0.186716  1
  Y  Y5  1  0.814532  0.813891  0.185810  1
  Y  Y6  1  0.186921  0.186954  0.813103  1
  Y  Y7  1  0.058595  0.442998  0.441311  1
  Y  Y8  1  0.442387  0.059035  0.057758  1
  Y  Y9  1  0.442347  0.059013  0.440858  1
  Y  Y10  1  0.058611  0.443014  0.057100  1
  Y  Y11  1  0.441514  0.441725  0.058371  1
  Y  Y12  1  0.057999  0.057834  0.442110  1
  Y  Y13  1  0.599889  0.599530  0.601689  1
  Y  Y14  1  0.599933  0.599563  0.198794  1
  Y  Y15  1  0.600170  0.196707  0.601567  1
  Al  Al16  1  0.827117  0.827668  0.827432  1
  Al  Al17  1  0.827095  0.827653  0.517793  1
  Al  Al18  1  0.826584  0.519188  0.827097  1
  Al  Al19  1  0.518898  0.827059  0.826989  1
  Ni  Ni20  1  0.390941  0.393451  0.394498  1
  Ni  Ni21  1  0.390895  0.393348  0.821182  1
  Ni  Ni22  1  0.390658  0.821674  0.393750  1
  Ni  Ni23  1  0.822758  0.391823  0.392700  1
