# generated using pymatgen
data_Lu4Sc2TcAu2
_symmetry_space_group_name_H-M   'P 1'
_cell_length_a   7.58425600
_cell_length_b   7.51822588
_cell_length_c   4.25270100
_cell_angle_alpha   90.00000000
_cell_angle_beta   90.00000000
_cell_angle_gamma   120.29094743
_symmetry_Int_Tables_number   1
_chemical_formula_structural   Lu4Sc2TcAu2
_chemical_formula_sum   'Lu4 Sc2 Tc1 Au2'
_cell_volume   209.38381020
_cell_formula_units_Z   1
loop_
 _symmetry_equiv_pos_site_id
 _symmetry_equiv_pos_as_xyz
  1  'x, y, z'
loop_
 _atom_site_type_symbol
 _atom_site_label
 _atom_site_symmetry_multiplicity
 _atom_site_fract_x
 _atom_site_fract_y
 _atom_site_fract_z
 _atom_site_occupancy
  Lu  Lu0  1  0.604607  0.000000  0.500000  1
  Lu  Lu1  1  0.404373  0.415191  0.500000  1
  Lu  Lu2  1  0.989183  0.584809  0.500000  1
  Lu  Lu3  1  0.246723  0.000000  0.000000  1
  Sc  Sc4  1  0.998610  0.241375  0.000000  1
  Sc  Sc5  1  0.757235  0.758625  0.000000  1
  Tc  Tc6  1  0.993221  0.000000  0.500000  1
  Au  Au7  1  0.671128  0.336207  0.000000  1
  Au  Au8  1  0.334920  0.663793  0.000000  1
