# generated using pymatgen
data_K4Zr7VSe16
_symmetry_space_group_name_H-M   'P 1'
_cell_length_a   6.55841235
_cell_length_b   7.61638600
_cell_length_c   16.51468386
_cell_angle_alpha   90.00000000
_cell_angle_beta   90.09673981
_cell_angle_gamma   90.00000000
_symmetry_Int_Tables_number   1
_chemical_formula_structural   K4Zr7VSe16
_chemical_formula_sum   'K4 Zr7 V1 Se16'
_cell_volume   824.93040322
_cell_formula_units_Z   1
loop_
 _symmetry_equiv_pos_site_id
 _symmetry_equiv_pos_as_xyz
  1  'x, y, z'
loop_
 _atom_site_type_symbol
 _atom_site_label
 _atom_site_symmetry_multiplicity
 _atom_site_fract_x
 _atom_site_fract_y
 _atom_site_fract_z
 _atom_site_occupancy
  K  K0  1  0.345477  0.000000  0.002015  1
  K  K1  1  0.658189  0.500000  0.498126  1
  K  K2  1  0.022122  0.000000  0.498192  1
  K  K3  1  0.977573  0.500000  0.001999  1
  Zr  Zr4  1  0.000892  0.000000  0.750924  1
  Zr  Zr5  1  0.999519  0.500000  0.251333  1
  Zr  Zr6  1  0.999309  0.500000  0.749054  1
  Zr  Zr7  1  0.499948  0.241376  0.249505  1
  Zr  Zr8  1  0.499996  0.749992  0.749979  1
  Zr  Zr9  1  0.499948  0.758624  0.249505  1
  Zr  Zr10  1  0.499996  0.250008  0.749979  1
  V  V11  1  0.000355  0.000000  0.249514  1
  Se  Se12  1  0.836904  0.243903  0.345249  1
  Se  Se13  1  0.833625  0.751267  0.650966  1
  Se  Se14  1  0.161005  0.754708  0.154953  1
  Se  Se15  1  0.166452  0.251250  0.849027  1
  Se  Se16  1  0.161005  0.245292  0.154953  1
  Se  Se17  1  0.166452  0.748750  0.849027  1
  Se  Se18  1  0.836904  0.756097  0.345249  1
  Se  Se19  1  0.833625  0.248733  0.650966  1
  Se  Se20  1  0.677760  0.000000  0.154029  1
  Se  Se21  1  0.669075  0.000000  0.848036  1
  Se  Se22  1  0.332236  0.500000  0.345659  1
  Se  Se23  1  0.331065  0.500000  0.651847  1
  Se  Se24  1  0.327487  0.000000  0.344824  1
  Se  Se25  1  0.335780  0.000000  0.652774  1
  Se  Se26  1  0.663008  0.500000  0.155102  1
  Se  Se27  1  0.664296  0.500000  0.847218  1
