# generated using pymatgen
data_La12Si(GeI4)3
_symmetry_space_group_name_H-M   'P 1'
_cell_length_a   11.08612605
_cell_length_b   11.02967105
_cell_length_c   11.02967207
_cell_angle_alpha   109.36730484
_cell_angle_beta   109.57493605
_cell_angle_gamma   109.57494084
_symmetry_Int_Tables_number   1
_chemical_formula_structural   La12Si(GeI4)3
_chemical_formula_sum   'La12 Si1 Ge3 I12'
_cell_volume   1036.87301361
_cell_formula_units_Z   1
loop_
 _symmetry_equiv_pos_site_id
 _symmetry_equiv_pos_as_xyz
  1  'x, y, z'
loop_
 _atom_site_type_symbol
 _atom_site_label
 _atom_site_symmetry_multiplicity
 _atom_site_fract_x
 _atom_site_fract_y
 _atom_site_fract_z
 _atom_site_occupancy
  La  La0  1  0.467572  0.485947  0.231889  1
  La  La1  1  0.750000  0.234990  0.265010  1
  La  La2  1  0.750000  0.014801  0.485199  1
  La  La3  1  0.235199  0.470399  0.485199  1
  La  La4  1  0.264317  0.745941  0.231889  1
  La  La5  1  0.032428  0.268111  0.014053  1
  La  La6  1  0.015010  0.030020  0.265010  1
  La  La7  1  0.481625  0.745941  0.014053  1
  La  La8  1  0.484990  0.234990  0.469980  1
  La  La9  1  0.018375  0.485947  0.754059  1
  La  La10  1  0.264801  0.014801  0.029601  1
  La  La11  1  0.235683  0.268111  0.754059  1
  Si  Si12  1  0.250000  0.500000  0.000000  1
  Ge  Ge13  1  0.250000  0.249693  0.250307  1
  Ge  Ge14  1  0.500307  0.000614  0.250307  1
  Ge  Ge15  1  0.999693  0.249693  0.499386  1
  I  I16  1  0.250000  0.757895  0.742105  1
  I  I17  1  0.515730  0.507837  0.757642  1
  I  I18  1  0.984270  0.742358  0.992163  1
  I  I19  1  0.741912  0.249804  0.757642  1
  I  I20  1  0.992105  0.984210  0.742105  1
  I  I21  1  0.250000  0.992317  0.507683  1
  I  I22  1  0.757683  0.515365  0.507683  1
  I  I23  1  0.507893  0.249804  0.992163  1
  I  I24  1  0.758088  0.742358  0.250196  1
  I  I25  1  0.742317  0.992317  0.984635  1
  I  I26  1  0.992107  0.507837  0.250196  1
  I  I27  1  0.507895  0.757895  0.515790  1
