# generated using pymatgen
data_Ca5Ge8As4Rh19
_symmetry_space_group_name_H-M   'P 1'
_cell_length_a   13.14296794
_cell_length_b   13.18159773
_cell_length_c   4.03640700
_cell_angle_alpha   90.00000000
_cell_angle_beta   90.00000000
_cell_angle_gamma   120.09727190
_symmetry_Int_Tables_number   1
_chemical_formula_structural   Ca5Ge8As4Rh19
_chemical_formula_sum   'Ca5 Ge8 As4 Rh19'
_cell_volume   605.00723028
_cell_formula_units_Z   1
loop_
 _symmetry_equiv_pos_site_id
 _symmetry_equiv_pos_as_xyz
  1  'x, y, z'
loop_
 _atom_site_type_symbol
 _atom_site_label
 _atom_site_symmetry_multiplicity
 _atom_site_fract_x
 _atom_site_fract_y
 _atom_site_fract_z
 _atom_site_occupancy
  Ca  Ca0  1  0.000000  0.183650  0.500000  1
  Ca  Ca1  1  0.815830  0.817010  0.500000  1
  Ca  Ca2  1  0.184170  0.001180  0.500000  1
  Ca  Ca3  1  0.666093  0.332415  0.000000  1
  Ca  Ca4  1  0.333907  0.666323  0.000000  1
  Ge  Ge5  1  0.481394  0.317631  0.500000  1
  Ge  Ge6  1  0.819062  0.001031  0.000000  1
  Ge  Ge7  1  0.180938  0.181969  0.000000  1
  Ge  Ge8  1  0.682113  0.163446  0.500000  1
  Ge  Ge9  1  0.836156  0.517591  0.500000  1
  Ge  Ge10  1  0.518606  0.836237  0.500000  1
  Ge  Ge11  1  0.163844  0.681435  0.500000  1
  Ge  Ge12  1  0.317887  0.481333  0.500000  1
  As  As13  1  0.000000  0.818599  0.000000  1
  As  As14  1  0.368350  0.000162  0.000000  1
  As  As15  1  0.000000  0.368499  0.000000  1
  As  As16  1  0.631650  0.631812  0.000000  1
  Rh  Rh17  1  0.805445  0.182750  0.000000  1
  Rh  Rh18  1  0.376430  0.194319  0.000000  1
  Rh  Rh19  1  0.644898  0.518913  0.500000  1
  Rh  Rh20  1  0.874479  0.355895  0.500000  1
  Rh  Rh21  1  0.355102  0.874016  0.500000  1
  Rh  Rh22  1  0.519213  0.644058  0.500000  1
  Rh  Rh23  1  0.125521  0.481416  0.500000  1
  Rh  Rh24  1  0.818935  0.624480  0.000000  1
  Rh  Rh25  1  0.623570  0.817889  0.000000  1
  Rh  Rh26  1  0.181065  0.805545  0.000000  1
  Rh  Rh27  1  0.194555  0.377304  0.000000  1
  Rh  Rh28  1  0.000000  0.717958  0.500000  1
  Rh  Rh29  1  0.282545  0.282943  0.500000  1
  Rh  Rh30  1  0.717455  0.000398  0.500000  1
  Rh  Rh31  1  0.000000  0.552621  0.000000  1
  Rh  Rh32  1  0.448122  0.447226  0.000000  1
  Rh  Rh33  1  0.551878  0.999104  0.000000  1
  Rh  Rh34  1  0.000000  0.997997  0.000000  1
  Rh  Rh35  1  0.480787  0.124845  0.500000  1
