# generated using pymatgen
data_BaZn2SiSn
_symmetry_space_group_name_H-M   'P 1'
_cell_length_a   4.62662200
_cell_length_b   4.62662200
_cell_length_c   11.01071000
_cell_angle_alpha   90.00000000
_cell_angle_beta   90.00000000
_cell_angle_gamma   90.00000000
_symmetry_Int_Tables_number   1
_chemical_formula_structural   BaZn2SiSn
_chemical_formula_sum   'Ba2 Zn4 Si2 Sn2'
_cell_volume   235.69119675
_cell_formula_units_Z   2
loop_
 _symmetry_equiv_pos_site_id
 _symmetry_equiv_pos_as_xyz
  1  'x, y, z'
loop_
 _atom_site_type_symbol
 _atom_site_label
 _atom_site_symmetry_multiplicity
 _atom_site_fract_x
 _atom_site_fract_y
 _atom_site_fract_z
 _atom_site_occupancy
  Ba  Ba0  1  0.000000  0.500000  0.770383  1
  Ba  Ba1  1  0.500000  0.000000  0.229617  1
  Zn  Zn2  1  0.000000  0.500000  0.344299  1
  Zn  Zn3  1  0.500000  0.000000  0.655701  1
  Zn  Zn4  1  0.500000  0.500000  0.000000  1
  Zn  Zn5  1  0.000000  0.000000  0.000000  1
  Si  Si6  1  0.500000  0.000000  0.882344  1
  Si  Si7  1  0.000000  0.500000  0.117656  1
  Sn  Sn8  1  0.500000  0.500000  0.500000  1
  Sn  Sn9  1  0.000000  0.000000  0.500000  1
