# generated using pymatgen
data_Tm12Co2Ni2SnRh
_symmetry_space_group_name_H-M   'P 1'
_cell_length_a   8.17984475
_cell_length_b   8.17984468
_cell_length_c   8.17984495
_cell_angle_alpha   111.03427903
_cell_angle_beta   110.08891746
_cell_angle_gamma   107.31323918
_symmetry_Int_Tables_number   1
_chemical_formula_structural   Tm12Co2Ni2SnRh
_chemical_formula_sum   'Tm12 Co2 Ni2 Sn1 Rh1'
_cell_volume   420.84522198
_cell_formula_units_Z   1
loop_
 _symmetry_equiv_pos_site_id
 _symmetry_equiv_pos_as_xyz
  1  'x, y, z'
loop_
 _atom_site_type_symbol
 _atom_site_label
 _atom_site_symmetry_multiplicity
 _atom_site_fract_x
 _atom_site_fract_y
 _atom_site_fract_z
 _atom_site_occupancy
  Tm  Tm0  1  0.411608  0.217239  0.194369  1
  Tm  Tm1  1  0.588392  0.782761  0.805631  1
  Tm  Tm2  1  0.022871  0.217239  0.805631  1
  Tm  Tm3  1  0.977129  0.782761  0.194369  1
  Tm  Tm4  1  0.183817  0.289376  0.473193  1
  Tm  Tm5  1  0.816183  0.710624  0.526807  1
  Tm  Tm6  1  0.183817  0.710624  0.894441  1
  Tm  Tm7  1  0.816183  0.289376  0.105559  1
  Tm  Tm8  1  0.315262  0.621262  0.305999  1
  Tm  Tm9  1  0.684738  0.378738  0.694001  1
  Tm  Tm10  1  0.315262  0.009263  0.694001  1
  Tm  Tm11  1  0.684738  0.990737  0.305999  1
  Co  Co12  1  0.114290  0.614290  0.500000  1
  Co  Co13  1  0.885710  0.385710  0.500000  1
  Ni  Ni14  1  0.365413  0.000000  0.365413  1
  Ni  Ni15  1  0.634587  0.000000  0.634587  1
  Sn  Sn16  1  0.500000  0.500000  0.000000  1
  Rh  Rh17  1  0.000000  0.000000  0.000000  1
