# generated using pymatgen
data_HoEr4Co16(MoP4)3
_symmetry_space_group_name_H-M   'P 1'
_cell_length_a   12.02367700
_cell_length_b   12.02367798
_cell_length_c   3.68789300
_cell_angle_alpha   90.00000000
_cell_angle_beta   90.00000000
_cell_angle_gamma   120.00000554
_symmetry_Int_Tables_number   1
_chemical_formula_structural   HoEr4Co16(MoP4)3
_chemical_formula_sum   'Ho1 Er4 Co16 Mo3 P12'
_cell_volume   461.72517758
_cell_formula_units_Z   1
loop_
 _symmetry_equiv_pos_site_id
 _symmetry_equiv_pos_as_xyz
  1  'x, y, z'
loop_
 _atom_site_type_symbol
 _atom_site_label
 _atom_site_symmetry_multiplicity
 _atom_site_fract_x
 _atom_site_fract_y
 _atom_site_fract_z
 _atom_site_occupancy
  Ho  Ho0  1  0.333333  0.666667  0.000000  1
  Er  Er1  1  0.666667  0.333333  0.000000  1
  Er  Er2  1  0.814971  0.815000  0.500000  1
  Er  Er3  1  0.185000  0.999971  0.500000  1
  Er  Er4  1  0.000029  0.185029  0.500000  1
  Co  Co5  1  0.872640  0.355061  0.500000  1
  Co  Co6  1  0.644939  0.517579  0.500000  1
  Co  Co7  1  0.482421  0.127360  0.500000  1
  Co  Co8  1  0.355067  0.872951  0.500000  1
  Co  Co9  1  0.517884  0.644933  0.500000  1
  Co  Co10  1  0.127049  0.482116  0.500000  1
  Co  Co11  1  0.802552  0.177384  0.000000  1
  Co  Co12  1  0.822616  0.625168  0.000000  1
  Co  Co13  1  0.374832  0.197448  0.000000  1
  Co  Co14  1  0.177274  0.802621  0.000000  1
  Co  Co15  1  0.625346  0.822726  0.000000  1
  Co  Co16  1  0.197379  0.374654  0.000000  1
  Co  Co17  1  0.279970  0.279886  0.500000  1
  Co  Co18  1  0.720114  0.000084  0.500000  1
  Co  Co19  1  0.999916  0.720030  0.500000  1
  Co  Co20  1  0.000000  0.000000  0.000000  1
  Mo  Mo21  1  0.446260  0.446178  0.000000  1
  Mo  Mo22  1  0.553822  0.000082  0.000000  1
  Mo  Mo23  1  0.999918  0.553740  0.000000  1
  P  P24  1  0.686121  0.166086  0.500000  1
  P  P25  1  0.833914  0.520035  0.500000  1
  P  P26  1  0.479965  0.313879  0.500000  1
  P  P27  1  0.165791  0.686143  0.500000  1
  P  P28  1  0.520352  0.834209  0.500000  1
  P  P29  1  0.313857  0.479648  0.500000  1
  P  P30  1  0.177878  0.177836  0.000000  1
  P  P31  1  0.822164  0.000042  0.000000  1
  P  P32  1  0.999958  0.822122  0.000000  1
  P  P33  1  0.639830  0.639841  0.000000  1
  P  P34  1  0.360159  0.999989  0.000000  1
  P  P35  1  0.000011  0.360170  0.000000  1
