# generated using pymatgen
data_Tb8Ga12IrPd3
_symmetry_space_group_name_H-M   'P 1'
_cell_length_a   7.08386900
_cell_length_b   8.89719708
_cell_length_c   8.89719700
_cell_angle_alpha   119.99999600
_cell_angle_beta   90.00000000
_cell_angle_gamma   90.00000000
_symmetry_Int_Tables_number   1
_chemical_formula_structural   Tb8Ga12IrPd3
_chemical_formula_sum   'Tb8 Ga12 Ir1 Pd3'
_cell_volume   485.63232590
_cell_formula_units_Z   1
loop_
 _symmetry_equiv_pos_site_id
 _symmetry_equiv_pos_as_xyz
  1  'x, y, z'
loop_
 _atom_site_type_symbol
 _atom_site_label
 _atom_site_symmetry_multiplicity
 _atom_site_fract_x
 _atom_site_fract_y
 _atom_site_fract_z
 _atom_site_occupancy
  Tb  Tb0  1  0.749977  0.000000  0.000000  1
  Tb  Tb1  1  0.250120  0.000000  0.000000  1
  Tb  Tb2  1  0.748924  0.484499  0.515501  1
  Tb  Tb3  1  0.254606  0.521127  0.478873  1
  Tb  Tb4  1  0.748924  0.031004  0.515501  1
  Tb  Tb5  1  0.254606  0.957748  0.478873  1
  Tb  Tb6  1  0.748924  0.484499  0.968996  1
  Tb  Tb7  1  0.254606  0.521127  0.042252  1
  Ga  Ga8  1  0.956677  0.833611  0.166389  1
  Ga  Ga9  1  0.045164  0.167721  0.832279  1
  Ga  Ga10  1  0.956677  0.332780  0.166389  1
  Ga  Ga11  1  0.455430  0.167188  0.832812  1
  Ga  Ga12  1  0.045164  0.664557  0.832279  1
  Ga  Ga13  1  0.545877  0.832274  0.167726  1
  Ga  Ga14  1  0.956677  0.833611  0.667220  1
  Ga  Ga15  1  0.455430  0.665622  0.832812  1
  Ga  Ga16  1  0.045164  0.167721  0.335443  1
  Ga  Ga17  1  0.545877  0.335455  0.167726  1
  Ga  Ga18  1  0.455430  0.167188  0.334378  1
  Ga  Ga19  1  0.545877  0.832274  0.664545  1
  Ir  Ir20  1  0.518610  0.666667  0.333333  1
  Pd  Pd21  1  0.960653  0.666667  0.333333  1
  Pd  Pd22  1  0.029307  0.333333  0.666667  1
  Pd  Pd23  1  0.471306  0.333333  0.666667  1
