# generated using pymatgen
data_La6MgBeSb14
_symmetry_space_group_name_H-M   'P 1'
_cell_length_a   12.62068593
_cell_length_b   12.62068580
_cell_length_c   4.32614101
_cell_angle_alpha   80.11097573
_cell_angle_beta   80.11096900
_cell_angle_gamma   100.70166394
_symmetry_Int_Tables_number   1
_chemical_formula_structural   La6MgBeSb14
_chemical_formula_sum   'La6 Mg1 Be1 Sb14'
_cell_volume   652.10457176
_cell_formula_units_Z   1
loop_
 _symmetry_equiv_pos_site_id
 _symmetry_equiv_pos_as_xyz
  1  'x, y, z'
loop_
 _atom_site_type_symbol
 _atom_site_label
 _atom_site_symmetry_multiplicity
 _atom_site_fract_x
 _atom_site_fract_y
 _atom_site_fract_z
 _atom_site_occupancy
  La  La0  1  0.330352  0.675150  0.929828  1
  La  La1  1  0.675150  0.330352  0.929828  1
  La  La2  1  0.271167  0.005791  0.794522  1
  La  La3  1  0.726586  0.998656  0.070793  1
  La  La4  1  0.998656  0.726586  0.070793  1
  La  La5  1  0.005791  0.271167  0.794522  1
  Mg  Mg6  1  0.378424  0.378424  0.054761  1
  Be  Be7  1  0.264854  0.264854  0.668710  1
  Sb  Sb8  1  0.569147  0.569147  0.864015  1
  Sb  Sb9  1  0.465312  0.254484  0.572275  1
  Sb  Sb10  1  0.553061  0.745179  0.285026  1
  Sb  Sb11  1  0.745179  0.553061  0.285026  1
  Sb  Sb12  1  0.254484  0.465312  0.572275  1
  Sb  Sb13  1  0.513899  0.914237  0.719040  1
  Sb  Sb14  1  0.486932  0.081401  0.148773  1
  Sb  Sb15  1  0.081401  0.486932  0.148773  1
  Sb  Sb16  1  0.914237  0.513899  0.719040  1
  Sb  Sb17  1  0.169853  0.169853  0.263946  1
  Sb  Sb18  1  0.859534  0.859534  0.573789  1
  Sb  Sb19  1  0.202390  0.801573  0.430852  1
  Sb  Sb20  1  0.801573  0.202390  0.430852  1
  Sb  Sb21  1  0.992621  0.992621  0.939858  1
