# generated using pymatgen
data_TbFe3P12Ir
_symmetry_space_group_name_H-M   'P 1'
_cell_length_a   6.80762673
_cell_length_b   6.82257856
_cell_length_c   6.82257905
_cell_angle_alpha   109.51557565
_cell_angle_beta   109.42682979
_cell_angle_gamma   109.42683357
_symmetry_Int_Tables_number   1
_chemical_formula_structural   TbFe3P12Ir
_chemical_formula_sum   'Tb1 Fe3 P12 Ir1'
_cell_volume   244.06672489
_cell_formula_units_Z   1
loop_
 _symmetry_equiv_pos_site_id
 _symmetry_equiv_pos_as_xyz
  1  'x, y, z'
loop_
 _atom_site_type_symbol
 _atom_site_label
 _atom_site_symmetry_multiplicity
 _atom_site_fract_x
 _atom_site_fract_y
 _atom_site_fract_z
 _atom_site_occupancy
  Tb  Tb0  1  0.000000  0.000000  0.000000  1
  Fe  Fe1  1  0.500000  0.500000  0.500000  1
  Fe  Fe2  1  0.000000  0.500000  0.000000  1
  Fe  Fe3  1  0.000000  0.000000  0.500000  1
  P  P4  1  0.134082  0.790387  0.634538  1
  P  P5  1  0.150506  0.498770  0.349225  1
  P  P6  1  0.849494  0.501230  0.650775  1
  P  P7  1  0.348264  0.149544  0.498770  1
  P  P8  1  0.801280  0.650775  0.149544  1
  P  P9  1  0.865918  0.209613  0.365462  1
  P  P10  1  0.656307  0.155850  0.790387  1
  P  P11  1  0.500457  0.634538  0.844150  1
  P  P12  1  0.651736  0.850456  0.501230  1
  P  P13  1  0.499543  0.365462  0.155850  1
  P  P14  1  0.343693  0.844150  0.209613  1
  P  P15  1  0.198720  0.349225  0.850456  1
  Ir  Ir16  1  0.500000  0.000000  0.000000  1
