# generated using pymatgen
data_La4Al18(PtRh)3
_symmetry_space_group_name_H-M   'P 1'
_cell_length_a   7.71424117
_cell_length_b   7.71424144
_cell_length_c   9.63975302
_cell_angle_alpha   89.99632482
_cell_angle_beta   89.99632491
_cell_angle_gamma   119.46548163
_symmetry_Int_Tables_number   1
_chemical_formula_structural   La4Al18(PtRh)3
_chemical_formula_sum   'La4 Al18 Pt3 Rh3'
_cell_volume   499.45578307
_cell_formula_units_Z   1
loop_
 _symmetry_equiv_pos_site_id
 _symmetry_equiv_pos_as_xyz
  1  'x, y, z'
loop_
 _atom_site_type_symbol
 _atom_site_label
 _atom_site_symmetry_multiplicity
 _atom_site_fract_x
 _atom_site_fract_y
 _atom_site_fract_z
 _atom_site_occupancy
  La  La0  1  0.995662  0.669872  0.250054  1
  La  La1  1  0.004765  0.330897  0.750153  1
  La  La2  1  0.669103  0.995235  0.249847  1
  La  La3  1  0.330128  0.004338  0.749946  1
  Al  Al4  1  0.130313  0.130865  0.250291  1
  Al  Al5  1  0.869135  0.869687  0.749709  1
  Al  Al6  1  0.003223  0.331419  0.074492  1
  Al  Al7  1  0.996574  0.668909  0.925264  1
  Al  Al8  1  0.993242  0.664704  0.573334  1
  Al  Al9  1  0.335296  0.006758  0.426666  1
  Al  Al10  1  0.000075  0.331708  0.426831  1
  Al  Al11  1  0.668292  0.999925  0.573169  1
  Al  Al12  1  0.668581  0.996777  0.925508  1
  Al  Al13  1  0.331091  0.003426  0.074736  1
  Al  Al14  1  0.334650  0.331177  0.546714  1
  Al  Al15  1  0.668823  0.665350  0.453286  1
  Al  Al16  1  0.668248  0.668146  0.048389  1
  Al  Al17  1  0.331854  0.331752  0.951611  1
  Al  Al18  1  0.341603  0.543102  0.250197  1
  Al  Al19  1  0.658070  0.454624  0.746734  1
  Al  Al20  1  0.545376  0.341930  0.253266  1
  Al  Al21  1  0.456898  0.658397  0.749803  1
  Pt  Pt22  1  0.671146  0.328854  0.000000  1
  Pt  Pt23  1  0.328526  0.671474  0.000000  1
  Pt  Pt24  1  0.328678  0.671322  0.500000  1
  Rh  Rh25  1  0.670679  0.329321  0.500000  1
  Rh  Rh26  1  0.999905  0.000095  0.000000  1
  Rh  Rh27  1  0.000066  0.999934  0.500000  1
