# generated using pymatgen
data_Dy2Lu4TcIr
_symmetry_space_group_name_H-M   'P 1'
_cell_length_a   6.22626900
_cell_length_b   7.32001800
_cell_length_c   8.94684300
_cell_angle_alpha   90.00000000
_cell_angle_beta   90.00000000
_cell_angle_gamma   90.00000000
_symmetry_Int_Tables_number   1
_chemical_formula_structural   Dy2Lu4TcIr
_chemical_formula_sum   'Dy4 Lu8 Tc2 Ir2'
_cell_volume   407.76490562
_cell_formula_units_Z   2
loop_
 _symmetry_equiv_pos_site_id
 _symmetry_equiv_pos_as_xyz
  1  'x, y, z'
loop_
 _atom_site_type_symbol
 _atom_site_label
 _atom_site_symmetry_multiplicity
 _atom_site_fract_x
 _atom_site_fract_y
 _atom_site_fract_z
 _atom_site_occupancy
  Dy  Dy0  1  0.876670  0.537868  0.250000  1
  Dy  Dy1  1  0.623330  0.037868  0.250000  1
  Dy  Dy2  1  0.132124  0.460859  0.750000  1
  Dy  Dy3  1  0.367876  0.960859  0.750000  1
  Lu  Lu4  1  0.333883  0.676357  0.065135  1
  Lu  Lu5  1  0.166117  0.176357  0.434865  1
  Lu  Lu6  1  0.664333  0.324116  0.560966  1
  Lu  Lu7  1  0.835667  0.824116  0.939034  1
  Lu  Lu8  1  0.664333  0.324116  0.939034  1
  Lu  Lu9  1  0.835667  0.824116  0.560966  1
  Lu  Lu10  1  0.333883  0.676357  0.434865  1
  Lu  Lu11  1  0.166117  0.176357  0.065135  1
  Tc  Tc12  1  0.039708  0.884465  0.250000  1
  Tc  Tc13  1  0.460292  0.384465  0.250000  1
  Ir  Ir14  1  0.950578  0.115861  0.750000  1
  Ir  Ir15  1  0.549422  0.615861  0.750000  1
