# generated using pymatgen
data_Dy6TmLu3(Si3H)2
_symmetry_space_group_name_H-M   'P 1'
_cell_length_a   8.39718100
_cell_length_b   8.39718342
_cell_length_c   6.15041200
_cell_angle_alpha   90.00000000
_cell_angle_beta   90.00000000
_cell_angle_gamma   120.00000227
_symmetry_Int_Tables_number   1
_chemical_formula_structural   Dy6TmLu3(Si3H)2
_chemical_formula_sum   'Dy6 Tm1 Lu3 Si6 H2'
_cell_volume   375.57959134
_cell_formula_units_Z   1
loop_
 _symmetry_equiv_pos_site_id
 _symmetry_equiv_pos_as_xyz
  1  'x, y, z'
loop_
 _atom_site_type_symbol
 _atom_site_label
 _atom_site_symmetry_multiplicity
 _atom_site_fract_x
 _atom_site_fract_y
 _atom_site_fract_z
 _atom_site_occupancy
  Dy  Dy0  1  0.749423  0.749498  0.749887  1
  Dy  Dy1  1  0.250502  0.999926  0.749887  1
  Dy  Dy2  1  0.000074  0.250577  0.749887  1
  Dy  Dy3  1  0.250502  0.250577  0.250113  1
  Dy  Dy4  1  0.749423  0.999926  0.250113  1
  Dy  Dy5  1  0.000074  0.749498  0.250113  1
  Tm  Tm6  1  0.666667  0.333333  0.000000  1
  Lu  Lu7  1  0.333333  0.666667  0.000000  1
  Lu  Lu8  1  0.333333  0.666667  0.500000  1
  Lu  Lu9  1  0.666667  0.333333  0.500000  1
  Si  Si10  1  0.391267  0.391602  0.749747  1
  Si  Si11  1  0.608398  0.999664  0.749747  1
  Si  Si12  1  0.000336  0.608733  0.749747  1
  Si  Si13  1  0.608398  0.608733  0.250253  1
  Si  Si14  1  0.391267  0.999664  0.250253  1
  Si  Si15  1  0.000336  0.391602  0.250253  1
  H  H16  1  0.000000  0.000000  0.500000  1
  H  H17  1  0.000000  0.000000  0.000000  1
