# generated using pymatgen
data_Tm4Zn3SiRh9
_symmetry_space_group_name_H-M   'P 1'
_cell_length_a   7.10362594
_cell_length_b   7.10362635
_cell_length_c   7.21736200
_cell_angle_alpha   109.79587998
_cell_angle_beta   109.79588116
_cell_angle_gamma   109.14461683
_symmetry_Int_Tables_number   1
_chemical_formula_structural   Tm4Zn3SiRh9
_chemical_formula_sum   'Tm4 Zn3 Si1 Rh9'
_cell_volume   279.22930019
_cell_formula_units_Z   1
loop_
 _symmetry_equiv_pos_site_id
 _symmetry_equiv_pos_as_xyz
  1  'x, y, z'
loop_
 _atom_site_type_symbol
 _atom_site_label
 _atom_site_symmetry_multiplicity
 _atom_site_fract_x
 _atom_site_fract_y
 _atom_site_fract_z
 _atom_site_occupancy
  Tm  Tm0  1  0.000000  0.000000  0.500000  1
  Tm  Tm1  1  0.035393  0.517696  0.017696  1
  Tm  Tm2  1  0.482304  0.964607  0.982304  1
  Tm  Tm3  1  0.482304  0.517696  0.500000  1
  Zn  Zn4  1  0.748768  0.251232  0.500000  1
  Zn  Zn5  1  0.748768  0.497537  0.248768  1
  Zn  Zn6  1  0.502463  0.251232  0.751232  1
  Si  Si7  1  0.000000  0.000000  0.000000  1
  Rh  Rh8  1  0.242643  0.485287  0.742643  1
  Rh  Rh9  1  0.242643  0.757357  0.500000  1
  Rh  Rh10  1  0.514713  0.757357  0.257357  1
  Rh  Rh11  1  0.730941  0.705593  0.999523  1
  Rh  Rh12  1  0.294407  0.025348  0.293930  1
  Rh  Rh13  1  0.974652  0.269059  0.268581  1
  Rh  Rh14  1  0.294407  0.269059  0.000477  1
  Rh  Rh15  1  0.730941  0.025348  0.731419  1
  Rh  Rh16  1  0.974652  0.705593  0.706070  1
