# generated using pymatgen
data_Sm8Dy9Lu3Pb16
_symmetry_space_group_name_H-M   'P 1'
_cell_length_a   8.23217400
_cell_length_b   8.34817819
_cell_length_c   15.78354900
_cell_angle_alpha   90.00000000
_cell_angle_beta   90.00000000
_cell_angle_gamma   89.98781084
_symmetry_Int_Tables_number   1
_chemical_formula_structural   Sm8Dy9Lu3Pb16
_chemical_formula_sum   'Sm8 Dy9 Lu3 Pb16'
_cell_volume   1084.70315846
_cell_formula_units_Z   1
loop_
 _symmetry_equiv_pos_site_id
 _symmetry_equiv_pos_as_xyz
  1  'x, y, z'
loop_
 _atom_site_type_symbol
 _atom_site_label
 _atom_site_symmetry_multiplicity
 _atom_site_fract_x
 _atom_site_fract_y
 _atom_site_fract_z
 _atom_site_occupancy
  Sm  Sm0  1  0.471815  0.678173  0.597847  1
  Sm  Sm1  1  0.972489  0.823168  0.902218  1
  Sm  Sm2  1  0.527945  0.322465  0.098476  1
  Sm  Sm3  1  0.027968  0.177435  0.401980  1
  Sm  Sm4  1  0.527945  0.322465  0.401524  1
  Sm  Sm5  1  0.027968  0.177435  0.098020  1
  Sm  Sm6  1  0.471815  0.678173  0.902153  1
  Sm  Sm7  1  0.972489  0.823168  0.597782  1
  Dy  Dy8  1  0.628593  0.157983  0.621210  1
  Dy  Dy9  1  0.129674  0.341391  0.878707  1
  Dy  Dy10  1  0.370830  0.841930  0.121796  1
  Dy  Dy11  1  0.871004  0.657882  0.377735  1
  Dy  Dy12  1  0.370830  0.841930  0.378204  1
  Dy  Dy13  1  0.871004  0.657882  0.122265  1
  Dy  Dy14  1  0.628593  0.157983  0.878790  1
  Dy  Dy15  1  0.129674  0.341391  0.621293  1
  Dy  Dy16  1  0.795939  0.495612  0.750000  1
  Lu  Lu17  1  0.295208  0.005277  0.750000  1
  Lu  Lu18  1  0.204364  0.505117  0.250000  1
  Lu  Lu19  1  0.704290  0.994871  0.250000  1
  Pb  Pb20  1  0.711815  0.962331  0.455636  1
  Pb  Pb21  1  0.211793  0.537069  0.044321  1
  Pb  Pb22  1  0.288349  0.037119  0.956710  1
  Pb  Pb23  1  0.788299  0.462506  0.542566  1
  Pb  Pb24  1  0.288349  0.037119  0.543290  1
  Pb  Pb25  1  0.788299  0.462506  0.957434  1
  Pb  Pb26  1  0.711815  0.962331  0.044364  1
  Pb  Pb27  1  0.211793  0.537069  0.455679  1
  Pb  Pb28  1  0.432193  0.373129  0.750000  1
  Pb  Pb29  1  0.933779  0.125150  0.750000  1
  Pb  Pb30  1  0.566010  0.626415  0.250000  1
  Pb  Pb31  1  0.066223  0.874139  0.250000  1
  Pb  Pb32  1  0.659486  0.848320  0.750000  1
  Pb  Pb33  1  0.160030  0.654072  0.750000  1
  Pb  Pb34  1  0.340392  0.153667  0.250000  1
  Pb  Pb35  1  0.840936  0.345327  0.250000  1
