# generated using pymatgen
data_La4Pr6Ir3Rh
_symmetry_space_group_name_H-M   'P 1'
_cell_length_a   9.20176583
_cell_length_b   9.19859620
_cell_length_c   7.37334272
_cell_angle_alpha   84.14218761
_cell_angle_beta   84.08488603
_cell_angle_gamma   43.12660663
_symmetry_Int_Tables_number   1
_chemical_formula_structural   La4Pr6Ir3Rh
_chemical_formula_sum   'La4 Pr6 Ir3 Rh1'
_cell_volume   424.04316780
_cell_formula_units_Z   1
loop_
 _symmetry_equiv_pos_site_id
 _symmetry_equiv_pos_as_xyz
  1  'x, y, z'
loop_
 _atom_site_type_symbol
 _atom_site_label
 _atom_site_symmetry_multiplicity
 _atom_site_fract_x
 _atom_site_fract_y
 _atom_site_fract_z
 _atom_site_occupancy
  La  La0  1  0.015172  0.798130  0.915056  1
  La  La1  1  0.202067  0.985187  0.584811  1
  La  La2  1  0.984577  0.202109  0.084795  1
  La  La3  1  0.797213  0.015984  0.414642  1
  Pr  Pr4  1  0.354156  0.212166  0.818481  1
  Pr  Pr5  1  0.785010  0.647189  0.682218  1
  Pr  Pr6  1  0.647342  0.786411  0.181989  1
  Pr  Pr7  1  0.213371  0.352914  0.317687  1
  Pr  Pr8  1  0.570064  0.430452  0.750348  1
  Pr  Pr9  1  0.431108  0.569115  0.248913  1
  Ir  Ir10  1  0.400164  0.822354  0.921101  1
  Ir  Ir11  1  0.822647  0.399646  0.421582  1
  Ir  Ir12  1  0.600636  0.176788  0.078896  1
  Rh  Rh13  1  0.176474  0.601555  0.579481  1
