# generated using pymatgen
data_Dy20Ir5Ru6Pt
_symmetry_space_group_name_H-M   'P 1'
_cell_length_a   10.85541099
_cell_length_b   10.85026101
_cell_length_c   6.40523995
_cell_angle_alpha   90.01622594
_cell_angle_beta   89.90926414
_cell_angle_gamma   90.04680989
_symmetry_Int_Tables_number   1
_chemical_formula_structural   Dy20Ir5Ru6Pt
_chemical_formula_sum   'Dy20 Ir5 Ru6 Pt1'
_cell_volume   754.43382731
_cell_formula_units_Z   1
loop_
 _symmetry_equiv_pos_site_id
 _symmetry_equiv_pos_as_xyz
  1  'x, y, z'
loop_
 _atom_site_type_symbol
 _atom_site_label
 _atom_site_symmetry_multiplicity
 _atom_site_fract_x
 _atom_site_fract_y
 _atom_site_fract_z
 _atom_site_occupancy
  Dy  Dy0  1  0.295023  0.085574  0.376029  1
  Dy  Dy1  1  0.294291  0.911384  0.880488  1
  Dy  Dy2  1  0.707928  0.086777  0.878554  1
  Dy  Dy3  1  0.707326  0.913211  0.378436  1
  Dy  Dy4  1  0.587558  0.793552  0.879644  1
  Dy  Dy5  1  0.587500  0.206558  0.380000  1
  Dy  Dy6  1  0.413219  0.793685  0.378649  1
  Dy  Dy7  1  0.415772  0.206435  0.878940  1
  Dy  Dy8  1  0.206404  0.415892  0.620362  1
  Dy  Dy9  1  0.206394  0.586607  0.120242  1
  Dy  Dy10  1  0.793504  0.412389  0.121180  1
  Dy  Dy11  1  0.793500  0.587604  0.621115  1
  Dy  Dy12  1  0.913111  0.706845  0.120673  1
  Dy  Dy13  1  0.911177  0.294043  0.619502  1
  Dy  Dy14  1  0.086362  0.707803  0.621579  1
  Dy  Dy15  1  0.085251  0.294407  0.124896  1
  Dy  Dy16  1  0.997068  0.999366  0.498248  1
  Dy  Dy17  1  0.997244  0.997789  0.001297  1
  Dy  Dy18  1  0.499992  0.500365  0.000316  1
  Dy  Dy19  1  0.500024  0.499697  0.500142  1
  Ir  Ir20  1  0.153550  0.847277  0.250239  1
  Ir  Ir21  1  0.652247  0.348024  0.749579  1
  Ir  Ir22  1  0.652382  0.652086  0.249769  1
  Ir  Ir23  1  0.346776  0.346266  0.250266  1
  Ir  Ir24  1  0.347461  0.652932  0.750462  1
  Ru  Ru25  1  0.848042  0.152529  0.249551  1
  Ru  Ru26  1  0.847627  0.847477  0.749641  1
  Ru  Ru27  1  0.499590  0.000348  0.123879  1
  Ru  Ru28  1  0.499708  0.000060  0.624219  1
  Ru  Ru29  1  0.999903  0.500009  0.875807  1
  Ru  Ru30  1  0.999907  0.499144  0.376066  1
  Pt  Pt31  1  0.154155  0.153867  0.750226  1
