# generated using pymatgen
data_LuPaCo3Si5
_symmetry_space_group_name_H-M   'P 1'
_cell_length_a   7.78938401
_cell_length_b   7.85267446
_cell_length_c   7.85267520
_cell_angle_alpha   138.59584078
_cell_angle_beta   104.34410919
_cell_angle_gamma   90.24195440
_symmetry_Int_Tables_number   1
_chemical_formula_structural   LuPaCo3Si5
_chemical_formula_sum   'Lu2 Pa2 Co6 Si10'
_cell_volume   293.92044830
_cell_formula_units_Z   2
loop_
 _symmetry_equiv_pos_site_id
 _symmetry_equiv_pos_as_xyz
  1  'x, y, z'
loop_
 _atom_site_type_symbol
 _atom_site_label
 _atom_site_symmetry_multiplicity
 _atom_site_fract_x
 _atom_site_fract_y
 _atom_site_fract_z
 _atom_site_occupancy
  Lu  Lu0  1  0.400840  0.134286  0.266554  1
  Lu  Lu1  1  0.599160  0.865714  0.733446  1
  Pa  Pa2  1  0.867286  0.632012  0.235275  1
  Pa  Pa3  1  0.132714  0.367988  0.764725  1
  Co  Co4  1  0.000000  0.744484  0.744484  1
  Co  Co5  1  0.000000  0.255516  0.255516  1
  Co  Co6  1  0.240641  0.859814  0.380826  1
  Co  Co7  1  0.759359  0.140186  0.619174  1
  Co  Co8  1  0.479600  0.365702  0.113899  1
  Co  Co9  1  0.520400  0.634298  0.886101  1
  Si  Si10  1  0.500000  0.754745  0.254745  1
  Si  Si11  1  0.500000  0.245255  0.745255  1
  Si  Si12  1  0.234246  0.985226  0.755141  1
  Si  Si13  1  0.765754  0.520896  0.750981  1
  Si  Si14  1  0.765754  0.014774  0.244859  1
  Si  Si15  1  0.234246  0.479104  0.249019  1
  Si  Si16  1  0.051266  0.900045  0.151221  1
  Si  Si17  1  0.948734  0.099955  0.848779  1
  Si  Si18  1  0.737846  0.393383  0.344464  1
  Si  Si19  1  0.262154  0.606617  0.655536  1
