# generated using pymatgen
data_Er2ThAlGa2Ni3
_symmetry_space_group_name_H-M   'P 1'
_cell_length_a   7.12372103
_cell_length_b   7.00146891
_cell_length_c   3.82130000
_cell_angle_alpha   90.00000000
_cell_angle_beta   90.00000000
_cell_angle_gamma   120.66618850
_symmetry_Int_Tables_number   1
_chemical_formula_structural   Er2ThAlGa2Ni3
_chemical_formula_sum   'Er2 Th1 Al1 Ga2 Ni3'
_cell_volume   163.93931473
_cell_formula_units_Z   1
loop_
 _symmetry_equiv_pos_site_id
 _symmetry_equiv_pos_as_xyz
  1  'x, y, z'
loop_
 _atom_site_type_symbol
 _atom_site_label
 _atom_site_symmetry_multiplicity
 _atom_site_fract_x
 _atom_site_fract_y
 _atom_site_fract_z
 _atom_site_occupancy
  Er  Er0  1  0.997220  0.414404  0.500000  1
  Er  Er1  1  0.589054  0.589947  0.500000  1
  Th  Th2  1  0.419700  0.997911  0.500000  1
  Al  Al3  1  0.237505  0.248319  0.000000  1
  Ga  Ga4  1  0.771594  0.002971  0.000000  1
  Ga  Ga5  1  0.989614  0.747910  0.000000  1
  Ni  Ni6  1  0.332028  0.668716  0.000000  1
  Ni  Ni7  1  0.653276  0.325651  0.000000  1
  Ni  Ni8  1  0.010009  0.004171  0.500000  1
