# generated using pymatgen
data_LaPr15Cd4(RuPt)2
_symmetry_space_group_name_H-M   'P 1'
_cell_length_a   10.04837537
_cell_length_b   10.04837557
_cell_length_c   10.12563462
_cell_angle_alpha   59.63814318
_cell_angle_beta   59.63814322
_cell_angle_gamma   59.91428467
_symmetry_Int_Tables_number   1
_chemical_formula_structural   LaPr15Cd4(RuPt)2
_chemical_formula_sum   'La1 Pr15 Cd4 Ru2 Pt2'
_cell_volume   718.49345991
_cell_formula_units_Z   1
loop_
 _symmetry_equiv_pos_site_id
 _symmetry_equiv_pos_as_xyz
  1  'x, y, z'
loop_
 _atom_site_type_symbol
 _atom_site_label
 _atom_site_symmetry_multiplicity
 _atom_site_fract_x
 _atom_site_fract_y
 _atom_site_fract_z
 _atom_site_occupancy
  La  La0  1  0.344553  0.344553  0.355642  1
  Pr  Pr1  1  0.348231  0.348231  0.948942  1
  Pr  Pr2  1  0.344532  0.955758  0.348733  1
  Pr  Pr3  1  0.955758  0.344532  0.348733  1
  Pr  Pr4  1  0.815700  0.190109  0.189753  1
  Pr  Pr5  1  0.189657  0.815223  0.804214  1
  Pr  Pr6  1  0.190109  0.815700  0.189753  1
  Pr  Pr7  1  0.815223  0.189657  0.804214  1
  Pr  Pr8  1  0.189297  0.189297  0.811475  1
  Pr  Pr9  1  0.806552  0.806552  0.192950  1
  Pr  Pr10  1  0.936582  0.559831  0.565543  1
  Pr  Pr11  1  0.558121  0.937682  0.939550  1
  Pr  Pr12  1  0.559831  0.936582  0.565543  1
  Pr  Pr13  1  0.937682  0.558121  0.939550  1
  Pr  Pr14  1  0.562215  0.562215  0.938433  1
  Pr  Pr15  1  0.937773  0.937773  0.561439  1
  Cd  Cd16  1  0.579630  0.579630  0.579608  1
  Cd  Cd17  1  0.580068  0.580068  0.260618  1
  Cd  Cd18  1  0.580898  0.259385  0.580419  1
  Cd  Cd19  1  0.259385  0.580898  0.580419  1
  Ru  Ru20  1  0.142730  0.142730  0.138112  1
  Ru  Ru21  1  0.145733  0.145733  0.574639  1
  Pt  Pt22  1  0.145892  0.573844  0.140857  1
  Pt  Pt23  1  0.573844  0.145892  0.140857  1
