# generated using pymatgen
data_Sm2Dy4CoCl10
_symmetry_space_group_name_H-M   'P 1'
_cell_length_a   7.13787226
_cell_length_b   8.91863517
_cell_length_c   8.87971448
_cell_angle_alpha   108.07069020
_cell_angle_beta   95.98120605
_cell_angle_gamma   106.18397160
_symmetry_Int_Tables_number   1
_chemical_formula_structural   Sm2Dy4CoCl10
_chemical_formula_sum   'Sm2 Dy4 Co1 Cl10'
_cell_volume   504.72543824
_cell_formula_units_Z   1
loop_
 _symmetry_equiv_pos_site_id
 _symmetry_equiv_pos_as_xyz
  1  'x, y, z'
loop_
 _atom_site_type_symbol
 _atom_site_label
 _atom_site_symmetry_multiplicity
 _atom_site_fract_x
 _atom_site_fract_y
 _atom_site_fract_z
 _atom_site_occupancy
  Sm  Sm0  1  0.632293  0.054119  0.760083  1
  Sm  Sm1  1  0.367707  0.945881  0.239917  1
  Dy  Dy2  1  0.861544  0.138794  0.185387  1
  Dy  Dy3  1  0.138456  0.861206  0.814613  1
  Dy  Dy4  1  0.531092  0.697443  0.900391  1
  Dy  Dy5  1  0.468908  0.302557  0.099609  1
  Co  Co6  1  0.500000  0.000000  0.000000  1
  Cl  Cl7  1  0.745272  0.080932  0.449865  1
  Cl  Cl8  1  0.254728  0.919068  0.550135  1
  Cl  Cl9  1  0.950149  0.826989  0.075483  1
  Cl  Cl10  1  0.049851  0.173011  0.924517  1
  Cl  Cl11  1  0.279611  0.250523  0.340563  1
  Cl  Cl12  1  0.720389  0.749477  0.659437  1
  Cl  Cl13  1  0.587453  0.375341  0.839258  1
  Cl  Cl14  1  0.412547  0.624659  0.160742  1
  Cl  Cl15  1  0.841546  0.446530  0.274007  1
  Cl  Cl16  1  0.158454  0.553470  0.725993  1
