# generated using pymatgen
data_SrYb3(MgSb2)2
_symmetry_space_group_name_H-M   'P 1'
_cell_length_a   9.13053534
_cell_length_b   9.13053583
_cell_length_c   7.38997675
_cell_angle_alpha   91.10424587
_cell_angle_beta   88.89575448
_cell_angle_gamma   149.94154052
_symmetry_Int_Tables_number   1
_chemical_formula_structural   SrYb3(MgSb2)2
_chemical_formula_sum   'Sr1 Yb3 Mg2 Sb4'
_cell_volume   308.52168900
_cell_formula_units_Z   1
loop_
 _symmetry_equiv_pos_site_id
 _symmetry_equiv_pos_as_xyz
  1  'x, y, z'
loop_
 _atom_site_type_symbol
 _atom_site_label
 _atom_site_symmetry_multiplicity
 _atom_site_fract_x
 _atom_site_fract_y
 _atom_site_fract_z
 _atom_site_occupancy
  Sr  Sr0  1  0.200332  0.799666  0.918135  1
  Yb  Yb1  1  0.020901  0.979097  0.234429  1
  Yb  Yb2  1  0.801638  0.198360  0.414029  1
  Yb  Yb3  1  0.976137  0.023861  0.735126  1
  Mg  Mg4  1  0.404531  0.595467  0.073185  1
  Mg  Mg5  1  0.596327  0.403671  0.560111  1
  Sb  Sb6  1  0.433623  0.566375  0.456920  1
  Sb  Sb7  1  0.174961  0.825037  0.450117  1
  Sb  Sb8  1  0.562364  0.437634  0.948182  1
  Sb  Sb9  1  0.829175  0.170823  0.978465  1
