# generated using pymatgen
data_Dy10Si5P
_symmetry_space_group_name_H-M   'P 1'
_cell_length_a   8.40749500
_cell_length_b   8.41394861
_cell_length_c   6.31514000
_cell_angle_alpha   90.00000000
_cell_angle_beta   90.00000000
_cell_angle_gamma   119.97463457
_symmetry_Int_Tables_number   1
_chemical_formula_structural   Dy10Si5P
_chemical_formula_sum   'Dy10 Si5 P1'
_cell_volume   386.98224157
_cell_formula_units_Z   1
loop_
 _symmetry_equiv_pos_site_id
 _symmetry_equiv_pos_as_xyz
  1  'x, y, z'
loop_
 _atom_site_type_symbol
 _atom_site_label
 _atom_site_symmetry_multiplicity
 _atom_site_fract_x
 _atom_site_fract_y
 _atom_site_fract_z
 _atom_site_occupancy
  Dy  Dy0  1  0.001158  0.756884  0.750000  1
  Dy  Dy1  1  0.000862  0.244318  0.250000  1
  Dy  Dy2  1  0.756544  0.755682  0.250000  1
  Dy  Dy3  1  0.754988  0.000000  0.750000  1
  Dy  Dy4  1  0.244273  0.243116  0.750000  1
  Dy  Dy5  1  0.243804  0.000000  0.250000  1
  Dy  Dy6  1  0.666283  0.332551  0.999545  1
  Dy  Dy7  1  0.333731  0.667449  0.500455  1
  Dy  Dy8  1  0.333731  0.667449  0.999545  1
  Dy  Dy9  1  0.666283  0.332551  0.500455  1
  Si  Si10  1  0.394141  0.393671  0.250000  1
  Si  Si11  1  0.000470  0.606329  0.250000  1
  Si  Si12  1  0.000110  0.393475  0.750000  1
  Si  Si13  1  0.606635  0.606525  0.750000  1
  Si  Si14  1  0.607132  0.000000  0.250000  1
  P  P15  1  0.389856  0.000000  0.750000  1
