# generated using pymatgen
data_La3Bi7(SeO8)3
_symmetry_space_group_name_H-M   'P 1'
_cell_length_a   12.35026173
_cell_length_b   12.35182513
_cell_length_c   8.68629850
_cell_angle_alpha   83.61879390
_cell_angle_beta   83.84713558
_cell_angle_gamma   27.15966260
_symmetry_Int_Tables_number   1
_chemical_formula_structural   La3Bi7(SeO8)3
_chemical_formula_sum   'La3 Bi7 Se3 O24'
_cell_volume   601.01345330
_cell_formula_units_Z   1
loop_
 _symmetry_equiv_pos_site_id
 _symmetry_equiv_pos_as_xyz
  1  'x, y, z'
loop_
 _atom_site_type_symbol
 _atom_site_label
 _atom_site_symmetry_multiplicity
 _atom_site_fract_x
 _atom_site_fract_y
 _atom_site_fract_z
 _atom_site_occupancy
  La  La0  1  0.455104  0.479043  0.302528  1
  La  La1  1  0.648269  0.735500  0.463354  1
  La  La2  1  0.521184  0.542862  0.694564  1
  Bi  Bi3  1  0.225776  0.249299  0.189752  1
  Bi  Bi4  1  0.064355  0.090562  0.421416  1
  Bi  Bi5  1  0.212452  0.401843  0.541031  1
  Bi  Bi6  1  0.138519  0.163026  0.750037  1
  Bi  Bi7  1  0.912772  0.938358  0.572981  1
  Bi  Bi8  1  0.830258  0.871316  0.240671  1
  Bi  Bi9  1  0.737260  0.785369  0.813833  1
  Se  Se10  1  0.328703  0.413347  0.919877  1
  Se  Se11  1  0.984811  0.016532  0.000816  1
  Se  Se12  1  0.578636  0.679066  0.084576  1
  O  O13  1  0.888259  0.761518  0.638465  1
  O  O14  1  0.387182  0.949105  0.021440  1
  O  O15  1  0.247542  0.098529  0.359597  1
  O  O16  1  0.206405  0.894449  0.912104  1
  O  O17  1  0.718376  0.281548  0.503039  1
  O  O18  1  0.006767  0.536747  0.346422  1
  O  O19  1  0.225106  0.772822  0.497912  1
  O  O20  1  0.838597  0.205163  0.139310  1
  O  O21  1  0.704206  0.522633  0.927790  1
  O  O22  1  0.481704  0.297094  0.078409  1
  O  O23  1  0.455068  0.200499  0.829873  1
  O  O24  1  0.307882  0.540945  0.786937  1
  O  O25  1  0.662982  0.131760  0.387955  1
  O  O26  1  0.783408  0.558172  0.186690  1
  O  O27  1  0.450972  0.698253  0.214206  1
  O  O28  1  0.852938  0.367593  0.590109  1
  O  O29  1  0.105235  0.795349  0.090657  1
  O  O30  1  0.340894  0.873108  0.597543  1
  O  O31  1  0.963750  0.482329  0.674539  1
  O  O32  1  0.133294  0.643821  0.405597  1
  O  O33  1  0.534427  0.019195  0.311041  1
  O  O34  1  0.797783  0.160830  0.859718  1
  O  O35  1  0.057830  0.607025  0.978918  1
  O  O36  1  0.455874  0.990810  0.666292  1
