# generated using pymatgen
data_Ce4Mn2SiB6
_symmetry_space_group_name_H-M   'P 1'
_cell_length_a   5.27674370
_cell_length_b   5.27674280
_cell_length_c   7.84053767
_cell_angle_alpha   70.33597947
_cell_angle_beta   70.33598710
_cell_angle_gamma   60.00000188
_symmetry_Int_Tables_number   1
_chemical_formula_structural   Ce4Mn2SiB6
_chemical_formula_sum   'Ce4 Mn2 Si1 B6'
_cell_volume   174.20772484
_cell_formula_units_Z   1
loop_
 _symmetry_equiv_pos_site_id
 _symmetry_equiv_pos_as_xyz
  1  'x, y, z'
loop_
 _atom_site_type_symbol
 _atom_site_label
 _atom_site_symmetry_multiplicity
 _atom_site_fract_x
 _atom_site_fract_y
 _atom_site_fract_z
 _atom_site_occupancy
  Ce  Ce0  1  0.260928  0.260928  0.217216  1
  Ce  Ce1  1  0.739072  0.739072  0.782784  1
  Ce  Ce2  1  0.405379  0.405379  0.783865  1
  Ce  Ce3  1  0.594621  0.594621  0.216136  1
  Mn  Mn4  1  0.110423  0.110423  0.668731  1
  Mn  Mn5  1  0.889577  0.889577  0.331269  1
  Si  Si6  1  0.000000  0.000000  0.000000  1
  B  B7  1  0.167948  0.832052  0.500000  1
  B  B8  1  0.832052  0.500000  0.500000  1
  B  B9  1  0.500000  0.167948  0.500000  1
  B  B10  1  0.167948  0.500000  0.500000  1
  B  B11  1  0.500000  0.832052  0.500000  1
  B  B12  1  0.832052  0.167948  0.500000  1
