# generated using pymatgen
data_Cs8Rh(WBr8)3
_symmetry_space_group_name_H-M   'P 1'
_cell_length_a   13.45572776
_cell_length_b   13.45572679
_cell_length_c   13.45572772
_cell_angle_alpha   131.48857492
_cell_angle_beta   131.48857201
_cell_angle_gamma   71.03797554
_symmetry_Int_Tables_number   1
_chemical_formula_structural   Cs8Rh(WBr8)3
_chemical_formula_sum   'Cs8 Rh1 W3 Br24'
_cell_volume   1338.58634999
_cell_formula_units_Z   1
loop_
 _symmetry_equiv_pos_site_id
 _symmetry_equiv_pos_as_xyz
  1  'x, y, z'
loop_
 _atom_site_type_symbol
 _atom_site_label
 _atom_site_symmetry_multiplicity
 _atom_site_fract_x
 _atom_site_fract_y
 _atom_site_fract_z
 _atom_site_occupancy
  Cs  Cs0  1  0.118800  0.639197  0.998996  1
  Cs  Cs1  1  0.360803  0.881200  0.001004  1
  Cs  Cs2  1  0.640201  0.639197  0.520396  1
  Cs  Cs3  1  0.360803  0.359799  0.479604  1
  Cs  Cs4  1  0.880196  0.359799  0.998996  1
  Cs  Cs5  1  0.880196  0.881200  0.520396  1
  Cs  Cs6  1  0.118800  0.119804  0.479604  1
  Cs  Cs7  1  0.640201  0.119804  0.001004  1
  Rh  Rh8  1  0.000000  0.000000  0.000000  1
  W  W9  1  0.750000  0.250000  0.500000  1
  W  W10  1  0.500000  0.500000  0.000000  1
  W  W11  1  0.250000  0.750000  0.500000  1
  Br  Br12  1  0.228912  0.999817  0.229095  1
  Br  Br13  1  0.000183  0.771088  0.770905  1
  Br  Br14  1  0.251565  0.982031  0.730467  1
  Br  Br15  1  0.748625  0.479245  0.730620  1
  Br  Br16  1  0.478902  0.748435  0.730467  1
  Br  Br17  1  0.115509  0.115509  0.000000  1
  Br  Br18  1  0.499687  0.730365  0.230679  1
  Br  Br19  1  0.866219  0.366219  0.500000  1
  Br  Br20  1  0.000183  0.229278  0.229095  1
  Br  Br21  1  0.384120  0.384120  0.000000  1
  Br  Br22  1  0.615880  0.615880  0.000000  1
  Br  Br23  1  0.499687  0.269008  0.769321  1
  Br  Br24  1  0.269635  0.500313  0.769321  1
  Br  Br25  1  0.520755  0.251375  0.269380  1
  Br  Br26  1  0.366021  0.866021  0.500000  1
  Br  Br27  1  0.633781  0.133781  0.500000  1
  Br  Br28  1  0.251565  0.521098  0.269533  1
  Br  Br29  1  0.133979  0.633979  0.500000  1
  Br  Br30  1  0.017969  0.748435  0.269533  1
  Br  Br31  1  0.981995  0.251375  0.730620  1
  Br  Br32  1  0.770722  0.999817  0.770905  1
  Br  Br33  1  0.730992  0.500313  0.230679  1
  Br  Br34  1  0.748625  0.018005  0.269380  1
  Br  Br35  1  0.884491  0.884491  0.000000  1
