# generated using pymatgen
data_Ba4UV2S9
_symmetry_space_group_name_H-M   'P 1'
_cell_length_a   12.04832100
_cell_length_b   12.04831983
_cell_length_c   9.66928200
_cell_angle_alpha   90.00000000
_cell_angle_beta   90.00000000
_cell_angle_gamma   120.00000046
_symmetry_Int_Tables_number   1
_chemical_formula_structural   Ba4UV2S9
_chemical_formula_sum   'Ba12 U3 V6 S27'
_cell_volume   1215.56412325
_cell_formula_units_Z   3
loop_
 _symmetry_equiv_pos_site_id
 _symmetry_equiv_pos_as_xyz
  1  'x, y, z'
loop_
 _atom_site_type_symbol
 _atom_site_label
 _atom_site_symmetry_multiplicity
 _atom_site_fract_x
 _atom_site_fract_y
 _atom_site_fract_z
 _atom_site_occupancy
  Ba  Ba0  1  0.000000  0.625748  0.500000  1
  Ba  Ba1  1  0.625748  0.000000  0.500000  1
  Ba  Ba2  1  0.000000  0.681329  0.000000  1
  Ba  Ba3  1  0.318671  0.318671  0.000000  1
  Ba  Ba4  1  0.703370  0.659973  0.749994  1
  Ba  Ba5  1  0.681329  0.000000  0.000000  1
  Ba  Ba6  1  0.340027  0.043396  0.749994  1
  Ba  Ba7  1  0.956604  0.296630  0.749994  1
  Ba  Ba8  1  0.043396  0.340027  0.250006  1
  Ba  Ba9  1  0.296630  0.956604  0.250006  1
  Ba  Ba10  1  0.659973  0.703370  0.250006  1
  Ba  Ba11  1  0.374252  0.374252  0.500000  1
  U  U12  1  0.666667  0.333333  0.256421  1
  U  U13  1  0.000000  0.000000  0.500000  1
  U  U14  1  0.333333  0.666667  0.743579  1
  V  V15  1  0.000000  0.000000  0.845773  1
  V  V16  1  0.000000  0.000000  0.154227  1
  V  V17  1  0.666667  0.333333  0.915379  1
  V  V18  1  0.333333  0.666667  0.084621  1
  V  V19  1  0.666667  0.333333  0.605188  1
  V  V20  1  0.333333  0.666667  0.394812  1
  S  S21  1  0.180007  0.498742  0.929680  1
  S  S22  1  0.501258  0.681265  0.929680  1
  S  S23  1  0.318735  0.819993  0.929680  1
  S  S24  1  0.681265  0.501258  0.070320  1
  S  S25  1  0.819993  0.318735  0.070320  1
  S  S26  1  0.498742  0.180007  0.070320  1
  S  S27  1  0.843003  0.843003  0.000000  1
  S  S28  1  0.000000  0.156997  0.000000  1
  S  S29  1  0.156997  0.000000  0.000000  1
  S  S30  1  0.515886  0.353606  0.761619  1
  S  S31  1  0.646394  0.162280  0.761619  1
  S  S32  1  0.837720  0.484114  0.761619  1
  S  S33  1  0.162280  0.646394  0.238382  1
  S  S34  1  0.484114  0.837720  0.238382  1
  S  S35  1  0.353606  0.515886  0.238382  1
  S  S36  1  0.180400  0.493677  0.553458  1
  S  S37  1  0.506323  0.686723  0.553458  1
  S  S38  1  0.313277  0.819600  0.553458  1
  S  S39  1  0.686723  0.506323  0.446542  1
  S  S40  1  0.819600  0.313277  0.446542  1
  S  S41  1  0.493677  0.180400  0.446542  1
  S  S42  1  0.169849  0.156221  0.311345  1
  S  S43  1  0.843779  0.013628  0.311345  1
  S  S44  1  0.986372  0.830151  0.311345  1
  S  S45  1  0.013628  0.843779  0.688655  1
  S  S46  1  0.830151  0.986372  0.688655  1
  S  S47  1  0.156221  0.169849  0.688655  1
