# generated using pymatgen
data_Ti3GaReS8
_symmetry_space_group_name_H-M   'P 1'
_cell_length_a   7.06727884
_cell_length_b   7.06727989
_cell_length_c   6.90160900
_cell_angle_alpha   59.20270164
_cell_angle_beta   59.20270596
_cell_angle_gamma   60.00000319
_symmetry_Int_Tables_number   1
_chemical_formula_structural   Ti3GaReS8
_chemical_formula_sum   'Ti3 Ga1 Re1 S8'
_cell_volume   240.76848672
_cell_formula_units_Z   1
loop_
 _symmetry_equiv_pos_site_id
 _symmetry_equiv_pos_as_xyz
  1  'x, y, z'
loop_
 _atom_site_type_symbol
 _atom_site_label
 _atom_site_symmetry_multiplicity
 _atom_site_fract_x
 _atom_site_fract_y
 _atom_site_fract_z
 _atom_site_occupancy
  Ti  Ti0  1  0.616597  0.173907  0.592900  1
  Ti  Ti1  1  0.173907  0.616597  0.592900  1
  Ti  Ti2  1  0.616597  0.616597  0.592900  1
  Ga  Ga3  1  0.006302  0.006302  0.981093  1
  Re  Re4  1  0.598531  0.598531  0.204407  1
  S  S5  1  0.374974  0.374974  0.875078  1
  S  S6  1  0.364741  0.891991  0.378527  1
  S  S7  1  0.891991  0.364741  0.378527  1
  S  S8  1  0.364741  0.364741  0.378527  1
  S  S9  1  0.869440  0.869440  0.391678  1
  S  S10  1  0.856297  0.409584  0.877821  1
  S  S11  1  0.409584  0.856297  0.877821  1
  S  S12  1  0.856297  0.856297  0.877821  1
