# generated using pymatgen
data_Dy6Er4Si5As
_symmetry_space_group_name_H-M   'P 1'
_cell_length_a   8.42128600
_cell_length_b   8.43463741
_cell_length_c   6.28302000
_cell_angle_alpha   90.00000000
_cell_angle_beta   90.00000000
_cell_angle_gamma   119.94764318
_symmetry_Int_Tables_number   1
_chemical_formula_structural   Dy6Er4Si5As
_chemical_formula_sum   'Dy6 Er4 Si5 As1'
_cell_volume   386.69877194
_cell_formula_units_Z   1
loop_
 _symmetry_equiv_pos_site_id
 _symmetry_equiv_pos_as_xyz
  1  'x, y, z'
loop_
 _atom_site_type_symbol
 _atom_site_label
 _atom_site_symmetry_multiplicity
 _atom_site_fract_x
 _atom_site_fract_y
 _atom_site_fract_z
 _atom_site_occupancy
  Dy  Dy0  1  0.996882  0.753823  0.750000  1
  Dy  Dy1  1  0.000345  0.244284  0.250000  1
  Dy  Dy2  1  0.756061  0.755716  0.250000  1
  Dy  Dy3  1  0.757874  0.000000  0.750000  1
  Dy  Dy4  1  0.243059  0.246177  0.750000  1
  Dy  Dy5  1  0.243287  0.000000  0.250000  1
  Er  Er6  1  0.333063  0.664509  0.498749  1
  Er  Er7  1  0.668555  0.335491  0.001251  1
  Er  Er8  1  0.668555  0.335491  0.498749  1
  Er  Er9  1  0.333063  0.664509  0.001251  1
  Si  Si10  1  0.394824  0.394163  0.250000  1
  Si  Si11  1  0.000660  0.605837  0.250000  1
  Si  Si12  1  0.999912  0.394686  0.750000  1
  Si  Si13  1  0.605226  0.605314  0.750000  1
  Si  Si14  1  0.605946  0.000000  0.250000  1
  As  As15  1  0.392690  0.000000  0.750000  1
