# generated using pymatgen
data_Er3Zn4CdPt4
_symmetry_space_group_name_H-M   'P 1'
_cell_length_a   4.18558000
_cell_length_b   6.80519265
_cell_length_c   8.01539575
_cell_angle_alpha   88.33555730
_cell_angle_beta   90.00000000
_cell_angle_gamma   90.00000000
_symmetry_Int_Tables_number   1
_chemical_formula_structural   Er3Zn4CdPt4
_chemical_formula_sum   'Er3 Zn4 Cd1 Pt4'
_cell_volume   228.21162554
_cell_formula_units_Z   1
loop_
 _symmetry_equiv_pos_site_id
 _symmetry_equiv_pos_as_xyz
  1  'x, y, z'
loop_
 _atom_site_type_symbol
 _atom_site_label
 _atom_site_symmetry_multiplicity
 _atom_site_fract_x
 _atom_site_fract_y
 _atom_site_fract_z
 _atom_site_occupancy
  Er  Er0  1  0.250000  0.537553  0.188423  1
  Er  Er1  1  0.750000  0.964218  0.671390  1
  Er  Er2  1  0.750000  0.459759  0.819239  1
  Zn  Zn3  1  0.250000  0.640134  0.560921  1
  Zn  Zn4  1  0.250000  0.137577  0.943523  1
  Zn  Zn5  1  0.750000  0.357954  0.437938  1
  Zn  Zn6  1  0.750000  0.865983  0.061103  1
  Cd  Cd7  1  0.250000  0.037351  0.317944  1
  Pt  Pt8  1  0.250000  0.255934  0.625325  1
  Pt  Pt9  1  0.250000  0.755100  0.873509  1
  Pt  Pt10  1  0.750000  0.742553  0.375962  1
  Pt  Pt11  1  0.750000  0.245884  0.124723  1
