# generated using pymatgen
data_Dy6V2Co3Ni13P12
_symmetry_space_group_name_H-M   'P 1'
_cell_length_a   3.75301500
_cell_length_b   10.58421828
_cell_length_c   12.31240337
_cell_angle_alpha   90.02737367
_cell_angle_beta   90.00000000
_cell_angle_gamma   90.00000000
_symmetry_Int_Tables_number   1
_chemical_formula_structural   Dy6V2Co3Ni13P12
_chemical_formula_sum   'Dy6 V2 Co3 Ni13 P12'
_cell_volume   489.08221881
_cell_formula_units_Z   1
loop_
 _symmetry_equiv_pos_site_id
 _symmetry_equiv_pos_as_xyz
  1  'x, y, z'
loop_
 _atom_site_type_symbol
 _atom_site_label
 _atom_site_symmetry_multiplicity
 _atom_site_fract_x
 _atom_site_fract_y
 _atom_site_fract_z
 _atom_site_occupancy
  Dy  Dy0  1  0.000000  0.500230  0.521309  1
  Dy  Dy1  1  0.500000  0.998819  0.477729  1
  Dy  Dy2  1  0.500000  0.817626  0.205337  1
  Dy  Dy3  1  0.500000  0.181940  0.205233  1
  Dy  Dy4  1  0.000000  0.682302  0.794702  1
  Dy  Dy5  1  0.000000  0.318783  0.794580  1
  V  V6  1  0.500000  0.498950  0.152571  1
  V  V7  1  0.000000  0.000452  0.848322  1
  Co  Co8  1  0.000000  0.498959  0.986235  1
  Co  Co9  1  0.500000  0.000194  0.014591  1
  Co  Co10  1  0.000000  0.379939  0.291159  1
  Ni  Ni11  1  0.500000  0.500797  0.702123  1
  Ni  Ni12  1  0.000000  0.999972  0.298412  1
  Ni  Ni13  1  0.500000  0.331735  0.990880  1
  Ni  Ni14  1  0.500000  0.667696  0.990400  1
  Ni  Ni15  1  0.000000  0.168940  0.010188  1
  Ni  Ni16  1  0.000000  0.831975  0.009890  1
  Ni  Ni17  1  0.500000  0.300337  0.428643  1
  Ni  Ni18  1  0.500000  0.697103  0.427851  1
  Ni  Ni19  1  0.000000  0.199957  0.569472  1
  Ni  Ni20  1  0.000000  0.801398  0.571952  1
  Ni  Ni21  1  0.500000  0.880852  0.709379  1
  Ni  Ni22  1  0.500000  0.120811  0.709743  1
  Ni  Ni23  1  0.000000  0.619179  0.289603  1
  P  P24  1  0.500000  0.499935  0.880785  1
  P  P25  1  0.000000  0.000015  0.119569  1
  P  P26  1  0.500000  0.496813  0.343368  1
  P  P27  1  0.000000  0.001183  0.655059  1
  P  P28  1  0.500000  0.314610  0.615362  1
  P  P29  1  0.500000  0.686625  0.614362  1
  P  P30  1  0.000000  0.188071  0.383433  1
  P  P31  1  0.000000  0.812809  0.385410  1
  P  P32  1  0.500000  0.848696  0.891889  1
  P  P33  1  0.500000  0.152025  0.892013  1
  P  P34  1  0.000000  0.651337  0.107555  1
  P  P35  1  0.000000  0.348933  0.110890  1
