# generated using pymatgen
data_NaSrCuPt3
_symmetry_space_group_name_H-M   'P 1'
_cell_length_a   5.51327467
_cell_length_b   5.51327436
_cell_length_c   5.33453613
_cell_angle_alpha   58.88529833
_cell_angle_beta   58.88530737
_cell_angle_gamma   59.99999927
_symmetry_Int_Tables_number   1
_chemical_formula_structural   NaSrCuPt3
_chemical_formula_sum   'Na1 Sr1 Cu1 Pt3'
_cell_volume   112.68713675
_cell_formula_units_Z   1
loop_
 _symmetry_equiv_pos_site_id
 _symmetry_equiv_pos_as_xyz
  1  'x, y, z'
loop_
 _atom_site_type_symbol
 _atom_site_label
 _atom_site_symmetry_multiplicity
 _atom_site_fract_x
 _atom_site_fract_y
 _atom_site_fract_z
 _atom_site_occupancy
  Na  Na0  1  0.251754  0.251754  0.244740  1
  Sr  Sr1  1  0.002464  0.002464  0.992609  1
  Cu  Cu2  1  0.623291  0.623291  0.130127  1
  Pt  Pt3  1  0.624071  0.124348  0.627507  1
  Pt  Pt4  1  0.124348  0.624071  0.627507  1
  Pt  Pt5  1  0.624071  0.624071  0.627507  1
