# generated using pymatgen
data_PuI4
_symmetry_space_group_name_H-M   'P 1'
_cell_length_a   7.13466400
_cell_length_b   14.89288500
_cell_length_c   17.08767600
_cell_angle_alpha   90.00000000
_cell_angle_beta   90.00000000
_cell_angle_gamma   90.00000000
_symmetry_Int_Tables_number   1
_chemical_formula_structural   PuI4
_chemical_formula_sum   'Pu8 I32'
_cell_volume   1815.66349534
_cell_formula_units_Z   8
loop_
 _symmetry_equiv_pos_site_id
 _symmetry_equiv_pos_as_xyz
  1  'x, y, z'
loop_
 _atom_site_type_symbol
 _atom_site_label
 _atom_site_symmetry_multiplicity
 _atom_site_fract_x
 _atom_site_fract_y
 _atom_site_fract_z
 _atom_site_occupancy
  Pu  Pu0  1  0.254946  0.399761  0.000000  1
  Pu  Pu1  1  0.263018  0.926458  0.000000  1
  Pu  Pu2  1  0.254869  0.663900  0.137991  1
  Pu  Pu3  1  0.745131  0.163900  0.362009  1
  Pu  Pu4  1  0.736982  0.426458  0.500000  1
  Pu  Pu5  1  0.745055  0.899761  0.500000  1
  Pu  Pu6  1  0.745131  0.163900  0.637991  1
  Pu  Pu7  1  0.254869  0.663900  0.862009  1
  I  I8  1  0.527479  0.072655  0.000000  1
  I  I9  1  0.995548  0.252584  0.000000  1
  I  I10  1  0.496515  0.581386  0.000000  1
  I  I11  1  0.015470  0.749166  0.000000  1
  I  I12  1  0.496273  0.327216  0.119912  1
  I  I13  1  0.022389  0.999721  0.120744  1
  I  I14  1  0.504567  0.829773  0.125286  1
  I  I15  1  0.008805  0.498012  0.124679  1
  I  I16  1  0.993871  0.242908  0.248161  1
  I  I17  1  0.495892  0.083966  0.249063  1
  I  I18  1  0.504108  0.583965  0.250936  1
  I  I19  1  0.006130  0.742908  0.251839  1
  I  I20  1  0.991195  0.998012  0.375321  1
  I  I21  1  0.495433  0.329773  0.374715  1
  I  I22  1  0.977611  0.499721  0.379256  1
  I  I23  1  0.503727  0.827215  0.380088  1
  I  I24  1  0.503485  0.081386  0.500000  1
  I  I25  1  0.984529  0.249165  0.500000  1
  I  I26  1  0.472520  0.572655  0.500000  1
  I  I27  1  0.004451  0.752585  0.500000  1
  I  I28  1  0.503727  0.827215  0.619912  1
  I  I29  1  0.977611  0.499721  0.620744  1
  I  I30  1  0.495433  0.329773  0.625286  1
  I  I31  1  0.991195  0.998012  0.624679  1
  I  I32  1  0.006130  0.742908  0.748161  1
  I  I33  1  0.504108  0.583965  0.749063  1
  I  I34  1  0.495892  0.083966  0.750936  1
  I  I35  1  0.993871  0.242908  0.751839  1
  I  I36  1  0.008805  0.498012  0.875321  1
  I  I37  1  0.504567  0.829773  0.874715  1
  I  I38  1  0.022389  0.999721  0.879256  1
  I  I39  1  0.496273  0.327216  0.880087  1
