# generated using pymatgen
data_Eu2GeIr2
_symmetry_space_group_name_H-M   'P 1'
_cell_length_a   5.77940320
_cell_length_b   5.77940365
_cell_length_c   7.82717273
_cell_angle_alpha   100.25917128
_cell_angle_beta   100.25917062
_cell_angle_gamma   61.35707781
_symmetry_Int_Tables_number   1
_chemical_formula_structural   Eu2GeIr2
_chemical_formula_sum   'Eu4 Ge2 Ir4'
_cell_volume   224.47183179
_cell_formula_units_Z   2
loop_
 _symmetry_equiv_pos_site_id
 _symmetry_equiv_pos_as_xyz
  1  'x, y, z'
loop_
 _atom_site_type_symbol
 _atom_site_label
 _atom_site_symmetry_multiplicity
 _atom_site_fract_x
 _atom_site_fract_y
 _atom_site_fract_z
 _atom_site_occupancy
  Eu  Eu0  1  0.286629  0.005697  0.142350  1
  Eu  Eu1  1  0.994302  0.713370  0.357650  1
  Eu  Eu2  1  0.005698  0.286630  0.642350  1
  Eu  Eu3  1  0.713371  0.994303  0.857651  1
  Ge  Ge4  1  0.591287  0.408713  0.250000  1
  Ge  Ge5  1  0.408713  0.591287  0.750000  1
  Ir  Ir6  1  0.781412  0.490563  0.008356  1
  Ir  Ir7  1  0.509437  0.218589  0.491644  1
  Ir  Ir8  1  0.490563  0.781411  0.508355  1
  Ir  Ir9  1  0.218588  0.509437  0.991644  1
