# generated using pymatgen
data_Pr6C2ICl9
_symmetry_space_group_name_H-M   'P 1'
_cell_length_a   7.54995020
_cell_length_b   8.95973935
_cell_length_c   9.02525270
_cell_angle_alpha   108.07640789
_cell_angle_beta   97.30633805
_cell_angle_gamma   105.77334877
_symmetry_Int_Tables_number   1
_chemical_formula_structural   Pr6C2ICl9
_chemical_formula_sum   'Pr6 C2 I1 Cl9'
_cell_volume   543.39704501
_cell_formula_units_Z   1
loop_
 _symmetry_equiv_pos_site_id
 _symmetry_equiv_pos_as_xyz
  1  'x, y, z'
loop_
 _atom_site_type_symbol
 _atom_site_label
 _atom_site_symmetry_multiplicity
 _atom_site_fract_x
 _atom_site_fract_y
 _atom_site_fract_z
 _atom_site_occupancy
  Pr  Pr0  1  0.879497  0.948933  0.233246  1
  Pr  Pr1  1  0.120804  0.050521  0.767407  1
  Pr  Pr2  1  0.027515  0.711203  0.911074  1
  Pr  Pr3  1  0.959462  0.282197  0.082643  1
  Pr  Pr4  1  0.604396  0.838195  0.784932  1
  Pr  Pr5  1  0.393510  0.146400  0.208716  1
  C  C6  1  0.905452  0.963675  0.950380  1
  C  C7  1  0.090147  0.033259  0.047664  1
  I  I8  1  0.370373  0.502089  0.299570  1
  Cl  Cl9  1  0.763366  0.921446  0.540948  1
  Cl  Cl10  1  0.238933  0.079962  0.460324  1
  Cl  Cl11  1  0.457863  0.823373  0.073901  1
  Cl  Cl12  1  0.539123  0.167817  0.919464  1
  Cl  Cl13  1  0.813790  0.256002  0.350337  1
  Cl  Cl14  1  0.183114  0.742242  0.649831  1
  Cl  Cl15  1  0.908492  0.626492  0.166683  1
  Cl  Cl16  1  0.085702  0.370816  0.829972  1
  Cl  Cl17  1  0.658457  0.535380  0.722907  1
