# generated using pymatgen
data_Rb2EuDySe8
_symmetry_space_group_name_H-M   'P 1'
_cell_length_a   6.27330600
_cell_length_b   6.27330600
_cell_length_c   8.84335000
_cell_angle_alpha   90.00000000
_cell_angle_beta   90.00000000
_cell_angle_gamma   90.00000000
_symmetry_Int_Tables_number   1
_chemical_formula_structural   Rb2EuDySe8
_chemical_formula_sum   'Rb2 Eu1 Dy1 Se8'
_cell_volume   348.02445175
_cell_formula_units_Z   1
loop_
 _symmetry_equiv_pos_site_id
 _symmetry_equiv_pos_as_xyz
  1  'x, y, z'
loop_
 _atom_site_type_symbol
 _atom_site_label
 _atom_site_symmetry_multiplicity
 _atom_site_fract_x
 _atom_site_fract_y
 _atom_site_fract_z
 _atom_site_occupancy
  Rb  Rb0  1  0.500000  0.500000  0.500000  1
  Rb  Rb1  1  0.000000  0.000000  0.500000  1
  Eu  Eu2  1  0.500000  0.500000  0.000000  1
  Dy  Dy3  1  0.000000  0.000000  0.000000  1
  Se  Se4  1  0.647717  0.874207  0.206801  1
  Se  Se5  1  0.125793  0.647717  0.206801  1
  Se  Se6  1  0.874207  0.352283  0.206801  1
  Se  Se7  1  0.647717  0.125793  0.793199  1
  Se  Se8  1  0.352283  0.874207  0.793199  1
  Se  Se9  1  0.352283  0.125793  0.206801  1
  Se  Se10  1  0.874207  0.647717  0.793199  1
  Se  Se11  1  0.125793  0.352283  0.793199  1
