# generated using pymatgen
data_Er4TmGa2Sb
_symmetry_space_group_name_H-M   'P 1'
_cell_length_a   8.60162001
_cell_length_b   8.61979473
_cell_length_c   6.46862800
_cell_angle_alpha   90.00370555
_cell_angle_beta   89.99753655
_cell_angle_gamma   120.07078417
_symmetry_Int_Tables_number   1
_chemical_formula_structural   Er4TmGa2Sb
_chemical_formula_sum   'Er8 Tm2 Ga4 Sb2'
_cell_volume   415.05894036
_cell_formula_units_Z   2
loop_
 _symmetry_equiv_pos_site_id
 _symmetry_equiv_pos_as_xyz
  1  'x, y, z'
loop_
 _atom_site_type_symbol
 _atom_site_label
 _atom_site_symmetry_multiplicity
 _atom_site_fract_x
 _atom_site_fract_y
 _atom_site_fract_z
 _atom_site_occupancy
  Er  Er0  1  0.986805  0.750544  0.750039  1
  Er  Er1  1  0.986798  0.236276  0.249977  1
  Er  Er2  1  0.765635  0.765913  0.250022  1
  Er  Er3  1  0.765648  0.999722  0.749970  1
  Er  Er4  1  0.236303  0.249203  0.749917  1
  Er  Er5  1  0.236284  0.987096  0.250077  1
  Er  Er6  1  0.684688  0.342347  0.499997  1
  Er  Er7  1  0.331957  0.665971  0.999996  1
  Tm  Tm8  1  0.331923  0.665962  0.500000  1
  Tm  Tm9  1  0.684988  0.342495  0.000001  1
  Ga  Ga10  1  0.001428  0.601396  0.249910  1
  Ga  Ga11  1  0.001434  0.400034  0.750089  1
  Ga  Ga12  1  0.597976  0.601377  0.749942  1
  Ga  Ga13  1  0.597984  0.996597  0.250063  1
  Sb  Sb14  1  0.395077  0.004317  0.749969  1
  Sb  Sb15  1  0.395073  0.390749  0.250030  1
