# generated using pymatgen
data_Y5Er3Re(B8Os)3
_symmetry_space_group_name_H-M   'P 1'
_cell_length_a   3.65643600
_cell_length_b   9.14430114
_cell_length_c   11.53508506
_cell_angle_alpha   90.09519768
_cell_angle_beta   90.00000000
_cell_angle_gamma   90.00000000
_symmetry_Int_Tables_number   1
_chemical_formula_structural   Y5Er3Re(B8Os)3
_chemical_formula_sum   'Y5 Er3 Re1 B24 Os3'
_cell_volume   385.68140255
_cell_formula_units_Z   1
loop_
 _symmetry_equiv_pos_site_id
 _symmetry_equiv_pos_as_xyz
  1  'x, y, z'
loop_
 _atom_site_type_symbol
 _atom_site_label
 _atom_site_symmetry_multiplicity
 _atom_site_fract_x
 _atom_site_fract_y
 _atom_site_fract_z
 _atom_site_occupancy
  Y  Y0  1  0.000000  0.322180  0.414891  1
  Y  Y1  1  0.000000  0.680197  0.588238  1
  Y  Y2  1  0.000000  0.822189  0.083574  1
  Y  Y3  1  0.000000  0.176774  0.913162  1
  Y  Y4  1  0.000000  0.943584  0.372167  1
  Er  Er5  1  0.000000  0.055931  0.628111  1
  Er  Er6  1  0.000000  0.443055  0.127681  1
  Er  Er7  1  0.000000  0.556460  0.872687  1
  Re  Re8  1  0.000000  0.862248  0.821119  1
  B  B9  1  0.500000  0.553790  0.433042  1
  B  B10  1  0.500000  0.446061  0.567351  1
  B  B11  1  0.500000  0.053912  0.067356  1
  B  B12  1  0.500000  0.946899  0.932908  1
  B  B13  1  0.500000  0.748085  0.419270  1
  B  B14  1  0.500000  0.251337  0.580763  1
  B  B15  1  0.500000  0.248688  0.080885  1
  B  B16  1  0.500000  0.751067  0.919010  1
  B  B17  1  0.500000  0.790012  0.265962  1
  B  B18  1  0.500000  0.209030  0.733097  1
  B  B19  1  0.500000  0.291336  0.233697  1
  B  B20  1  0.500000  0.708289  0.766266  1
  B  B21  1  0.500000  0.630463  0.185267  1
  B  B22  1  0.500000  0.368946  0.814210  1
  B  B23  1  0.500000  0.131875  0.314485  1
  B  B24  1  0.500000  0.869075  0.685700  1
  B  B25  1  0.500000  0.983657  0.212442  1
  B  B26  1  0.500000  0.017678  0.786965  1
  B  B27  1  0.500000  0.482894  0.287356  1
  B  B28  1  0.500000  0.516913  0.713057  1
  B  B29  1  0.500000  0.604537  0.029616  1
  B  B30  1  0.500000  0.393947  0.970916  1
  B  B31  1  0.500000  0.106899  0.470681  1
  B  B32  1  0.500000  0.894140  0.529397  1
  Os  Os33  1  0.000000  0.636856  0.321033  1
  Os  Os34  1  0.000000  0.362477  0.678512  1
  Os  Os35  1  0.000000  0.138515  0.179125  1
