# generated using pymatgen
data_KTl2Pd3F12
_symmetry_space_group_name_H-M   'P 1'
_cell_length_a   7.86613827
_cell_length_b   7.86613847
_cell_length_c   12.96808200
_cell_angle_alpha   73.67497176
_cell_angle_beta   73.67497133
_cell_angle_gamma   59.69681175
_symmetry_Int_Tables_number   1
_chemical_formula_structural   KTl2Pd3F12
_chemical_formula_sum   'K2 Tl4 Pd6 F24'
_cell_volume   655.39021924
_cell_formula_units_Z   2
loop_
 _symmetry_equiv_pos_site_id
 _symmetry_equiv_pos_as_xyz
  1  'x, y, z'
loop_
 _atom_site_type_symbol
 _atom_site_label
 _atom_site_symmetry_multiplicity
 _atom_site_fract_x
 _atom_site_fract_y
 _atom_site_fract_z
 _atom_site_occupancy
  K  K0  1  0.222432  0.777568  0.750000  1
  K  K1  1  0.777568  0.222432  0.250000  1
  Tl  Tl2  1  0.872765  0.471791  0.711677  1
  Tl  Tl3  1  0.127235  0.528209  0.288323  1
  Tl  Tl4  1  0.528209  0.127235  0.788323  1
  Tl  Tl5  1  0.471791  0.872765  0.211677  1
  Pd  Pd6  1  0.500000  0.000000  0.500000  1
  Pd  Pd7  1  0.000000  0.500000  0.000000  1
  Pd  Pd8  1  0.000000  0.000000  0.500000  1
  Pd  Pd9  1  0.000000  0.000000  0.000000  1
  Pd  Pd10  1  0.500000  0.500000  0.500000  1
  Pd  Pd11  1  0.500000  0.500000  0.000000  1
  F  F12  1  0.878629  0.986948  0.655618  1
  F  F13  1  0.526852  0.884594  0.654898  1
  F  F14  1  0.274020  0.417239  0.037296  1
  F  F15  1  0.700179  0.200135  0.041041  1
  F  F16  1  0.884594  0.526852  0.154898  1
  F  F17  1  0.115406  0.473148  0.845102  1
  F  F18  1  0.473148  0.115406  0.345102  1
  F  F19  1  0.799865  0.299821  0.458959  1
  F  F20  1  0.121371  0.013052  0.344382  1
  F  F21  1  0.582761  0.725980  0.462704  1
  F  F22  1  0.448490  0.527422  0.153048  1
  F  F23  1  0.417239  0.274020  0.537296  1
  F  F24  1  0.527422  0.448490  0.653048  1
  F  F25  1  0.798838  0.941985  0.457746  1
  F  F26  1  0.201162  0.058015  0.542254  1
  F  F27  1  0.551510  0.472578  0.846952  1
  F  F28  1  0.941985  0.798838  0.957746  1
  F  F29  1  0.472578  0.551510  0.346952  1
  F  F30  1  0.725980  0.582761  0.962704  1
  F  F31  1  0.986948  0.878629  0.155618  1
  F  F32  1  0.058015  0.201162  0.042254  1
  F  F33  1  0.299821  0.799865  0.958959  1
  F  F34  1  0.013052  0.121371  0.844382  1
  F  F35  1  0.200135  0.700179  0.541041  1
