# generated using pymatgen
data_TbY5Co16(TcP6)2
_symmetry_space_group_name_H-M   'P 1'
_cell_length_a   3.71831500
_cell_length_b   10.52861500
_cell_length_c   12.23069900
_cell_angle_alpha   90.00000000
_cell_angle_beta   90.00000000
_cell_angle_gamma   90.00000000
_symmetry_Int_Tables_number   1
_chemical_formula_structural   TbY5Co16(TcP6)2
_chemical_formula_sum   'Tb1 Y5 Co16 Tc2 P12'
_cell_volume   478.81605258
_cell_formula_units_Z   1
loop_
 _symmetry_equiv_pos_site_id
 _symmetry_equiv_pos_as_xyz
  1  'x, y, z'
loop_
 _atom_site_type_symbol
 _atom_site_label
 _atom_site_symmetry_multiplicity
 _atom_site_fract_x
 _atom_site_fract_y
 _atom_site_fract_z
 _atom_site_occupancy
  Tb  Tb0  1  0.000000  0.500000  0.523640  1
  Y  Y1  1  0.500000  0.000000  0.476455  1
  Y  Y2  1  0.500000  0.817780  0.206189  1
  Y  Y3  1  0.500000  0.182220  0.206189  1
  Y  Y4  1  0.000000  0.682275  0.793803  1
  Y  Y5  1  0.000000  0.317725  0.793803  1
  Co  Co6  1  0.500000  0.500000  0.702693  1
  Co  Co7  1  0.000000  0.000000  0.297319  1
  Co  Co8  1  0.000000  0.500000  0.987390  1
  Co  Co9  1  0.500000  0.000000  0.012612  1
  Co  Co10  1  0.500000  0.332148  0.990076  1
  Co  Co11  1  0.500000  0.667852  0.990076  1
  Co  Co12  1  0.000000  0.167804  0.009921  1
  Co  Co13  1  0.000000  0.832196  0.009921  1
  Co  Co14  1  0.500000  0.296544  0.431088  1
  Co  Co15  1  0.500000  0.703456  0.431088  1
  Co  Co16  1  0.000000  0.203385  0.568928  1
  Co  Co17  1  0.000000  0.796615  0.568928  1
  Co  Co18  1  0.500000  0.879215  0.707985  1
  Co  Co19  1  0.500000  0.120785  0.707985  1
  Co  Co20  1  0.000000  0.620788  0.291991  1
  Co  Co21  1  0.000000  0.379212  0.291991  1
  Tc  Tc22  1  0.500000  0.500000  0.156320  1
  Tc  Tc23  1  0.000000  0.000000  0.843655  1
  P  P24  1  0.500000  0.500000  0.881319  1
  P  P25  1  0.000000  0.000000  0.118671  1
  P  P26  1  0.500000  0.500000  0.347981  1
  P  P27  1  0.000000  0.000000  0.651965  1
  P  P28  1  0.500000  0.311331  0.615859  1
  P  P29  1  0.500000  0.688669  0.615859  1
  P  P30  1  0.000000  0.188601  0.384152  1
  P  P31  1  0.000000  0.811399  0.384152  1
  P  P32  1  0.500000  0.846343  0.892933  1
  P  P33  1  0.500000  0.153657  0.892933  1
  P  P34  1  0.000000  0.653685  0.107065  1
  P  P35  1  0.000000  0.346315  0.107065  1
