# generated using pymatgen
data_Ho3Al3Hg2Au
_symmetry_space_group_name_H-M   'P 1'
_cell_length_a   7.24026800
_cell_length_b   7.24026935
_cell_length_c   8.66415300
_cell_angle_alpha   90.00000000
_cell_angle_beta   90.00000000
_cell_angle_gamma   120.00000297
_symmetry_Int_Tables_number   1
_chemical_formula_structural   Ho3Al3Hg2Au
_chemical_formula_sum   'Ho6 Al6 Hg4 Au2'
_cell_volume   393.33817331
_cell_formula_units_Z   2
loop_
 _symmetry_equiv_pos_site_id
 _symmetry_equiv_pos_as_xyz
  1  'x, y, z'
loop_
 _atom_site_type_symbol
 _atom_site_label
 _atom_site_symmetry_multiplicity
 _atom_site_fract_x
 _atom_site_fract_y
 _atom_site_fract_z
 _atom_site_occupancy
  Ho  Ho0  1  0.587141  0.999351  0.750000  1
  Ho  Ho1  1  0.000649  0.587788  0.750000  1
  Ho  Ho2  1  0.412212  0.412859  0.750000  1
  Ho  Ho3  1  0.999351  0.587141  0.250000  1
  Ho  Ho4  1  0.587788  0.000649  0.250000  1
  Ho  Ho5  1  0.412859  0.412212  0.250000  1
  Al  Al6  1  0.765253  0.765253  0.000000  1
  Al  Al7  1  0.234747  0.000000  0.000000  1
  Al  Al8  1  0.000000  0.234747  0.000000  1
  Al  Al9  1  0.765253  0.765253  0.500000  1
  Al  Al10  1  0.234747  0.000000  0.500000  1
  Al  Al11  1  0.000000  0.234747  0.500000  1
  Hg  Hg12  1  0.666667  0.333333  0.999395  1
  Hg  Hg13  1  0.666667  0.333333  0.500605  1
  Hg  Hg14  1  0.333333  0.666667  0.499395  1
  Hg  Hg15  1  0.333333  0.666667  0.000605  1
  Au  Au16  1  0.000000  0.000000  0.750000  1
  Au  Au17  1  0.000000  0.000000  0.250000  1
