# generated using pymatgen
data_In3Pd7
_symmetry_space_group_name_H-M   'P 1'
_cell_length_a   7.60205186
_cell_length_b   7.60205128
_cell_length_c   5.73830466
_cell_angle_alpha   75.05029957
_cell_angle_beta   75.05030192
_cell_angle_gamma   31.80119075
_symmetry_Int_Tables_number   1
_chemical_formula_structural   In3Pd7
_chemical_formula_sum   'In3 Pd7'
_cell_volume   168.35258026
_cell_formula_units_Z   1
loop_
 _symmetry_equiv_pos_site_id
 _symmetry_equiv_pos_as_xyz
  1  'x, y, z'
loop_
 _atom_site_type_symbol
 _atom_site_label
 _atom_site_symmetry_multiplicity
 _atom_site_fract_x
 _atom_site_fract_y
 _atom_site_fract_z
 _atom_site_occupancy
  In  In0  1  0.000000  0.000000  0.000000  1
  In  In1  1  0.193317  0.193317  0.366811  1
  In  In2  1  0.806683  0.806683  0.633189  1
  Pd  Pd3  1  0.000000  0.000000  0.500000  1
  Pd  Pd4  1  0.200986  0.200986  0.878166  1
  Pd  Pd5  1  0.799014  0.799014  0.121834  1
  Pd  Pd6  1  0.392721  0.392721  0.329151  1
  Pd  Pd7  1  0.607279  0.607279  0.670849  1
  Pd  Pd8  1  0.403302  0.403302  0.823326  1
  Pd  Pd9  1  0.596698  0.596698  0.176674  1
