# generated using pymatgen
data_ErMo3(PO4)4
_symmetry_space_group_name_H-M   'P 1'
_cell_length_a   4.88530644
_cell_length_b   7.01233669
_cell_length_c   9.06038422
_cell_angle_alpha   90.00942375
_cell_angle_beta   90.00765943
_cell_angle_gamma   89.97290533
_symmetry_Int_Tables_number   1
_chemical_formula_structural   ErMo3(PO4)4
_chemical_formula_sum   'Er1 Mo3 P4 O16'
_cell_volume   310.38528791
_cell_formula_units_Z   1
loop_
 _symmetry_equiv_pos_site_id
 _symmetry_equiv_pos_as_xyz
  1  'x, y, z'
loop_
 _atom_site_type_symbol
 _atom_site_label
 _atom_site_symmetry_multiplicity
 _atom_site_fract_x
 _atom_site_fract_y
 _atom_site_fract_z
 _atom_site_occupancy
  Er  Er0  1  0.000000  0.000000  0.000000  1
  Mo  Mo1  1  0.500000  0.500000  0.500000  1
  Mo  Mo2  1  0.000000  0.500000  0.000000  1
  Mo  Mo3  1  0.500000  0.000000  0.500000  1
  P  P4  1  0.988549  0.746578  0.674657  1
  P  P5  1  0.492016  0.255974  0.819999  1
  P  P6  1  0.011451  0.253422  0.325343  1
  P  P7  1  0.507984  0.744026  0.180001  1
  O  O8  1  0.147042  0.436336  0.377949  1
  O  O9  1  0.651668  0.562671  0.129260  1
  O  O10  1  0.849899  0.932776  0.628006  1
  O  O11  1  0.363641  0.069770  0.872733  1
  O  O12  1  0.852958  0.563664  0.622051  1
  O  O13  1  0.348332  0.437329  0.870740  1
  O  O14  1  0.150101  0.067224  0.371994  1
  O  O15  1  0.636359  0.930230  0.127267  1
  O  O16  1  0.203345  0.738430  0.122707  1
  O  O17  1  0.705768  0.249811  0.384154  1
  O  O18  1  0.796655  0.261570  0.877293  1
  O  O19  1  0.294232  0.750189  0.615846  1
  O  O20  1  0.525747  0.748306  0.354712  1
  O  O21  1  0.020988  0.256544  0.151028  1
  O  O22  1  0.474253  0.251694  0.645288  1
  O  O23  1  0.979012  0.743456  0.848972  1
