# generated using pymatgen
data_ThZnInCu3Rh
_symmetry_space_group_name_H-M   'P 1'
_cell_length_a   5.05253200
_cell_length_b   8.43994300
_cell_length_c   10.96433900
_cell_angle_alpha   90.00000000
_cell_angle_beta   90.00000000
_cell_angle_gamma   90.00000000
_symmetry_Int_Tables_number   1
_chemical_formula_structural   ThZnInCu3Rh
_chemical_formula_sum   'Th4 Zn4 In4 Cu12 Rh4'
_cell_volume   467.55320799
_cell_formula_units_Z   4
loop_
 _symmetry_equiv_pos_site_id
 _symmetry_equiv_pos_as_xyz
  1  'x, y, z'
loop_
 _atom_site_type_symbol
 _atom_site_label
 _atom_site_symmetry_multiplicity
 _atom_site_fract_x
 _atom_site_fract_y
 _atom_site_fract_z
 _atom_site_occupancy
  Th  Th0  1  0.750000  0.237447  0.941511  1
  Th  Th1  1  0.250000  0.762553  0.058489  1
  Th  Th2  1  0.750000  0.737447  0.558489  1
  Th  Th3  1  0.250000  0.262553  0.441511  1
  Zn  Zn4  1  0.750000  0.189391  0.262374  1
  Zn  Zn5  1  0.250000  0.810609  0.737626  1
  Zn  Zn6  1  0.750000  0.689391  0.237626  1
  Zn  Zn7  1  0.250000  0.310609  0.762374  1
  In  In8  1  0.750000  0.355001  0.645117  1
  In  In9  1  0.250000  0.644999  0.354883  1
  In  In10  1  0.750000  0.855001  0.854883  1
  In  In11  1  0.250000  0.144999  0.145117  1
  Cu  Cu12  1  0.000629  0.436901  0.187181  1
  Cu  Cu13  1  0.500629  0.563099  0.812819  1
  Cu  Cu14  1  0.499371  0.936901  0.312819  1
  Cu  Cu15  1  0.999371  0.063099  0.687181  1
  Cu  Cu16  1  0.999371  0.563099  0.812819  1
  Cu  Cu17  1  0.499371  0.436901  0.187181  1
  Cu  Cu18  1  0.500629  0.063099  0.687181  1
  Cu  Cu19  1  0.000629  0.936901  0.312819  1
  Cu  Cu20  1  0.750000  0.081362  0.486419  1
  Cu  Cu21  1  0.250000  0.918638  0.513581  1
  Cu  Cu22  1  0.750000  0.581362  0.013581  1
  Cu  Cu23  1  0.250000  0.418638  0.986419  1
  Rh  Rh24  1  0.750000  0.449397  0.408260  1
  Rh  Rh25  1  0.250000  0.550603  0.591740  1
  Rh  Rh26  1  0.750000  0.949397  0.091740  1
  Rh  Rh27  1  0.250000  0.050603  0.908260  1
