# generated using pymatgen
data_Tb8PPd24
_symmetry_space_group_name_H-M   'P 1'
_cell_length_a   8.34251500
_cell_length_b   8.34251500
_cell_length_c   8.34251500
_cell_angle_alpha   90.00000000
_cell_angle_beta   90.00000000
_cell_angle_gamma   90.00000000
_symmetry_Int_Tables_number   1
_chemical_formula_structural   Tb8PPd24
_chemical_formula_sum   'Tb8 P1 Pd24'
_cell_volume   580.61865928
_cell_formula_units_Z   1
loop_
 _symmetry_equiv_pos_site_id
 _symmetry_equiv_pos_as_xyz
  1  'x, y, z'
loop_
 _atom_site_type_symbol
 _atom_site_label
 _atom_site_symmetry_multiplicity
 _atom_site_fract_x
 _atom_site_fract_y
 _atom_site_fract_z
 _atom_site_occupancy
  Tb  Tb0  1  0.255361  0.255361  0.255361  1
  Tb  Tb1  1  0.744639  0.744639  0.744639  1
  Tb  Tb2  1  0.744639  0.744639  0.255361  1
  Tb  Tb3  1  0.744639  0.255361  0.744639  1
  Tb  Tb4  1  0.255361  0.255361  0.744639  1
  Tb  Tb5  1  0.255361  0.744639  0.255361  1
  Tb  Tb6  1  0.255361  0.744639  0.744639  1
  Tb  Tb7  1  0.744639  0.255361  0.255361  1
  P  P8  1  0.000000  0.000000  0.000000  1
  Pd  Pd9  1  0.255600  0.500000  0.000000  1
  Pd  Pd10  1  0.744400  0.500000  0.000000  1
  Pd  Pd11  1  0.000000  0.255600  0.500000  1
  Pd  Pd12  1  0.500000  0.255600  0.000000  1
  Pd  Pd13  1  0.000000  0.744400  0.500000  1
  Pd  Pd14  1  0.500000  0.744400  0.000000  1
  Pd  Pd15  1  0.500000  0.000000  0.255600  1
  Pd  Pd16  1  0.255600  0.000000  0.500000  1
  Pd  Pd17  1  0.500000  0.000000  0.744400  1
  Pd  Pd18  1  0.744400  0.000000  0.500000  1
  Pd  Pd19  1  0.000000  0.500000  0.255600  1
  Pd  Pd20  1  0.000000  0.500000  0.744400  1
  Pd  Pd21  1  0.251894  0.500000  0.500000  1
  Pd  Pd22  1  0.748106  0.500000  0.500000  1
  Pd  Pd23  1  0.500000  0.251894  0.500000  1
  Pd  Pd24  1  0.500000  0.748106  0.500000  1
  Pd  Pd25  1  0.500000  0.500000  0.251894  1
  Pd  Pd26  1  0.500000  0.500000  0.748106  1
  Pd  Pd27  1  0.275231  0.000000  0.000000  1
  Pd  Pd28  1  0.724769  0.000000  0.000000  1
  Pd  Pd29  1  0.000000  0.275231  0.000000  1
  Pd  Pd30  1  0.000000  0.724769  0.000000  1
  Pd  Pd31  1  0.000000  0.000000  0.275231  1
  Pd  Pd32  1  0.000000  0.000000  0.724769  1
