# generated using pymatgen
data_K6GaTe4Br
_symmetry_space_group_name_H-M   'P 1'
_cell_length_a   11.36575300
_cell_length_b   11.36575340
_cell_length_c   8.22602600
_cell_angle_alpha   90.00000000
_cell_angle_beta   90.00000000
_cell_angle_gamma   120.00000176
_symmetry_Int_Tables_number   1
_chemical_formula_structural   K6GaTe4Br
_chemical_formula_sum   'K12 Ga2 Te8 Br2'
_cell_volume   920.27398341
_cell_formula_units_Z   2
loop_
 _symmetry_equiv_pos_site_id
 _symmetry_equiv_pos_as_xyz
  1  'x, y, z'
loop_
 _atom_site_type_symbol
 _atom_site_label
 _atom_site_symmetry_multiplicity
 _atom_site_fract_x
 _atom_site_fract_y
 _atom_site_fract_z
 _atom_site_occupancy
  K  K0  1  0.129668  0.870332  0.518140  1
  K  K1  1  0.740662  0.870332  0.518140  1
  K  K2  1  0.958500  0.479250  0.318841  1
  K  K3  1  0.520750  0.479250  0.318841  1
  K  K4  1  0.870332  0.740662  0.018140  1
  K  K5  1  0.259338  0.129668  0.018140  1
  K  K6  1  0.520750  0.041500  0.318841  1
  K  K7  1  0.129668  0.259338  0.518140  1
  K  K8  1  0.870332  0.129668  0.018140  1
  K  K9  1  0.041500  0.520750  0.818841  1
  K  K10  1  0.479250  0.958500  0.818841  1
  K  K11  1  0.479250  0.520750  0.818841  1
  Ga  Ga12  1  0.666667  0.333333  0.707014  1
  Ga  Ga13  1  0.333333  0.666667  0.207014  1
  Te  Te14  1  0.409473  0.204737  0.604289  1
  Te  Te15  1  0.590527  0.795263  0.104289  1
  Te  Te16  1  0.666667  0.333333  0.034941  1
  Te  Te17  1  0.795263  0.590527  0.604289  1
  Te  Te18  1  0.204737  0.409473  0.104289  1
  Te  Te19  1  0.333333  0.666667  0.534941  1
  Te  Te20  1  0.204737  0.795263  0.104289  1
  Te  Te21  1  0.795263  0.204737  0.604289  1
  Br  Br22  1  0.000000  0.000000  0.274837  1
  Br  Br23  1  0.000000  0.000000  0.774837  1
