# generated using pymatgen
data_Y5Th5(SiSn3)2
_symmetry_space_group_name_H-M   'P 1'
_cell_length_a   9.41370914
_cell_length_b   9.41089599
_cell_length_c   6.58886500
_cell_angle_alpha   90.00000000
_cell_angle_beta   90.00000000
_cell_angle_gamma   119.99011568
_symmetry_Int_Tables_number   1
_chemical_formula_structural   Y5Th5(SiSn3)2
_chemical_formula_sum   'Y5 Th5 Si2 Sn6'
_cell_volume   505.56411237
_cell_formula_units_Z   1
loop_
 _symmetry_equiv_pos_site_id
 _symmetry_equiv_pos_as_xyz
  1  'x, y, z'
loop_
 _atom_site_type_symbol
 _atom_site_label
 _atom_site_symmetry_multiplicity
 _atom_site_fract_x
 _atom_site_fract_y
 _atom_site_fract_z
 _atom_site_occupancy
  Y  Y0  1  0.000000  0.746696  0.750000  1
  Y  Y1  1  0.332837  0.666054  0.500113  1
  Y  Y2  1  0.667163  0.333216  0.500113  1
  Y  Y3  1  0.332837  0.666054  0.999887  1
  Y  Y4  1  0.667163  0.333216  0.999887  1
  Th  Th5  1  0.255699  0.256614  0.750000  1
  Th  Th6  1  0.746130  0.746270  0.250000  1
  Th  Th7  1  0.744301  0.000915  0.750000  1
  Th  Th8  1  0.000000  0.253028  0.250000  1
  Th  Th9  1  0.253870  0.000140  0.250000  1
  Si  Si10  1  0.000000  0.998397  0.995608  1
  Si  Si11  1  0.000000  0.998397  0.504392  1
  Sn  Sn12  1  0.611560  0.607831  0.750000  1
  Sn  Sn13  1  0.000000  0.398779  0.750000  1
  Sn  Sn14  1  0.388440  0.996271  0.750000  1
  Sn  Sn15  1  0.605368  0.999053  0.250000  1
  Sn  Sn16  1  0.394632  0.393684  0.250000  1
  Sn  Sn17  1  0.000000  0.605384  0.250000  1
