# generated using pymatgen
data_TbFeCo(NiP)3
_symmetry_space_group_name_H-M   'P 1'
_cell_length_a   3.69977500
_cell_length_b   10.30497800
_cell_length_c   11.85711800
_cell_angle_alpha   90.00000000
_cell_angle_beta   90.00000000
_cell_angle_gamma   90.00000000
_symmetry_Int_Tables_number   1
_chemical_formula_structural   TbFeCo(NiP)3
_chemical_formula_sum   'Tb4 Fe4 Co4 Ni12 P12'
_cell_volume   452.06566634
_cell_formula_units_Z   4
loop_
 _symmetry_equiv_pos_site_id
 _symmetry_equiv_pos_as_xyz
  1  'x, y, z'
loop_
 _atom_site_type_symbol
 _atom_site_label
 _atom_site_symmetry_multiplicity
 _atom_site_fract_x
 _atom_site_fract_y
 _atom_site_fract_z
 _atom_site_occupancy
  Tb  Tb0  1  0.250000  0.577543  0.704722  1
  Tb  Tb1  1  0.250000  0.922457  0.204722  1
  Tb  Tb2  1  0.750000  0.422457  0.295278  1
  Tb  Tb3  1  0.750000  0.077543  0.795278  1
  Fe  Fe4  1  0.250000  0.462338  0.931715  1
  Fe  Fe5  1  0.250000  0.037662  0.431715  1
  Fe  Fe6  1  0.750000  0.537662  0.068285  1
  Fe  Fe7  1  0.750000  0.962338  0.568285  1
  Co  Co8  1  0.250000  0.873012  0.702168  1
  Co  Co9  1  0.250000  0.626988  0.202168  1
  Co  Co10  1  0.750000  0.126988  0.297832  1
  Co  Co11  1  0.750000  0.373012  0.797832  1
  Ni  Ni12  1  0.250000  0.713098  0.994524  1
  Ni  Ni13  1  0.250000  0.786902  0.494524  1
  Ni  Ni14  1  0.750000  0.286902  0.005476  1
  Ni  Ni15  1  0.750000  0.213098  0.505476  1
  Ni  Ni16  1  0.250000  0.408748  0.486198  1
  Ni  Ni17  1  0.250000  0.091252  0.986198  1
  Ni  Ni18  1  0.750000  0.591252  0.513802  1
  Ni  Ni19  1  0.750000  0.908748  0.013802  1
  Ni  Ni20  1  0.250000  0.227871  0.172955  1
  Ni  Ni21  1  0.250000  0.272129  0.672955  1
  Ni  Ni22  1  0.750000  0.772129  0.827045  1
  Ni  Ni23  1  0.750000  0.727871  0.327045  1
  P  P24  1  0.250000  0.432128  0.112393  1
  P  P25  1  0.250000  0.067872  0.612393  1
  P  P26  1  0.750000  0.567872  0.887607  1
  P  P27  1  0.750000  0.932128  0.387607  1
  P  P28  1  0.250000  0.269390  0.865345  1
  P  P29  1  0.250000  0.230610  0.365345  1
  P  P30  1  0.750000  0.730610  0.134655  1
  P  P31  1  0.750000  0.769390  0.634655  1
  P  P32  1  0.250000  0.606717  0.391165  1
  P  P33  1  0.250000  0.893283  0.891165  1
  P  P34  1  0.750000  0.393283  0.608835  1
  P  P35  1  0.750000  0.106717  0.108835  1
