# generated using pymatgen
data_Tb2Mo3P7(Ir2Rh)3
_symmetry_space_group_name_H-M   'P 1'
_cell_length_a   3.98214100
_cell_length_b   9.53463324
_cell_length_c   9.53477000
_cell_angle_alpha   120.00123303
_cell_angle_beta   90.00103051
_cell_angle_gamma   89.99851406
_symmetry_Int_Tables_number   1
_chemical_formula_structural   Tb2Mo3P7(Ir2Rh)3
_chemical_formula_sum   'Tb2 Mo3 P7 Ir6 Rh3'
_cell_volume   313.51338158
_cell_formula_units_Z   1
loop_
 _symmetry_equiv_pos_site_id
 _symmetry_equiv_pos_as_xyz
  1  'x, y, z'
loop_
 _atom_site_type_symbol
 _atom_site_label
 _atom_site_symmetry_multiplicity
 _atom_site_fract_x
 _atom_site_fract_y
 _atom_site_fract_z
 _atom_site_occupancy
  Tb  Tb0  1  0.261670  0.666646  0.333303  1
  Tb  Tb1  1  0.761972  0.333336  0.666685  1
  Mo  Mo2  1  0.761966  0.089543  0.867196  1
  Mo  Mo3  1  0.761980  0.132844  0.222421  1
  Mo  Mo4  1  0.761967  0.777612  0.910410  1
  P  P5  1  0.262222  0.000002  0.999980  1
  P  P6  1  0.761769  0.880739  0.593182  1
  P  P7  1  0.761778  0.406807  0.287534  1
  P  P8  1  0.761764  0.712472  0.119256  1
  P  P9  1  0.261952  0.119529  0.415272  1
  P  P10  1  0.261949  0.584749  0.704301  1
  P  P11  1  0.261947  0.295721  0.880470  1
  Ir  Ir12  1  0.261906  0.888377  0.160940  1
  Ir  Ir13  1  0.261902  0.839045  0.727384  1
  Ir  Ir14  1  0.261903  0.272606  0.111684  1
  Ir  Ir15  1  0.261933  0.370062  0.439044  1
  Ir  Ir16  1  0.261904  0.561005  0.931073  1
  Ir  Ir17  1  0.261916  0.068948  0.629943  1
  Rh  Rh18  1  0.761872  0.612421  0.556398  1
  Rh  Rh19  1  0.761858  0.443553  0.055972  1
  Rh  Rh20  1  0.761871  0.943979  0.387555  1
