# generated using pymatgen
data_Tm4ScFeSb2
_symmetry_space_group_name_H-M   'P 1'
_cell_length_a   5.87362455
_cell_length_b   8.69617829
_cell_length_c   8.69617839
_cell_angle_alpha   83.45116508
_cell_angle_beta   70.26240835
_cell_angle_gamma   70.26239592
_symmetry_Int_Tables_number   1
_chemical_formula_structural   Tm4ScFeSb2
_chemical_formula_sum   'Tm8 Sc2 Fe2 Sb4'
_cell_volume   393.52492093
_cell_formula_units_Z   2
loop_
 _symmetry_equiv_pos_site_id
 _symmetry_equiv_pos_as_xyz
  1  'x, y, z'
loop_
 _atom_site_type_symbol
 _atom_site_label
 _atom_site_symmetry_multiplicity
 _atom_site_fract_x
 _atom_site_fract_y
 _atom_site_fract_z
 _atom_site_occupancy
  Tm  Tm0  1  0.073676  0.118461  0.734187  1
  Tm  Tm1  1  0.926324  0.881539  0.265813  1
  Tm  Tm2  1  0.807863  0.265813  0.118461  1
  Tm  Tm3  1  0.426324  0.265813  0.881539  1
  Tm  Tm4  1  0.192137  0.734187  0.881539  1
  Tm  Tm5  1  0.573676  0.734187  0.118461  1
  Tm  Tm6  1  0.692137  0.881539  0.734187  1
  Tm  Tm7  1  0.307863  0.118461  0.265813  1
  Sc  Sc8  1  0.250000  0.500000  0.500000  1
  Sc  Sc9  1  0.750000  0.500000  0.500000  1
  Fe  Fe10  1  0.250000  0.000000  0.000000  1
  Fe  Fe11  1  0.750000  0.000000  0.000000  1
  Sb  Sb12  1  0.156210  0.500000  0.187580  1
  Sb  Sb13  1  0.843790  0.500000  0.812420  1
  Sb  Sb14  1  0.343790  0.812420  0.500000  1
  Sb  Sb15  1  0.656210  0.187580  0.500000  1
