# generated using pymatgen
data_Nd6HoLuIn8
_symmetry_space_group_name_H-M   'P 1'
_cell_length_a   6.70040910
_cell_length_b   6.70040919
_cell_length_c   10.18164900
_cell_angle_alpha   90.00000000
_cell_angle_beta   90.00000000
_cell_angle_gamma   98.26278958
_symmetry_Int_Tables_number   1
_chemical_formula_structural   Nd6HoLuIn8
_chemical_formula_sum   'Nd6 Ho1 Lu1 In8'
_cell_volume   452.36493891
_cell_formula_units_Z   1
loop_
 _symmetry_equiv_pos_site_id
 _symmetry_equiv_pos_as_xyz
  1  'x, y, z'
loop_
 _atom_site_type_symbol
 _atom_site_label
 _atom_site_symmetry_multiplicity
 _atom_site_fract_x
 _atom_site_fract_y
 _atom_site_fract_z
 _atom_site_occupancy
  Nd  Nd0  1  0.534334  0.534334  0.250000  1
  Nd  Nd1  1  0.466638  0.466638  0.750000  1
  Nd  Nd2  1  0.245607  0.753999  0.499554  1
  Nd  Nd3  1  0.245607  0.753999  0.000446  1
  Nd  Nd4  1  0.753999  0.245607  0.499554  1
  Nd  Nd5  1  0.753999  0.245607  0.000446  1
  Ho  Ho6  1  0.022989  0.022988  0.750000  1
  Lu  Lu7  1  0.977356  0.977355  0.250000  1
  In  In8  1  0.249884  0.249884  0.022903  1
  In  In9  1  0.749966  0.749966  0.977485  1
  In  In10  1  0.249884  0.249884  0.477097  1
  In  In11  1  0.749966  0.749966  0.522515  1
  In  In12  1  0.478469  0.024578  0.250000  1
  In  In13  1  0.975382  0.521342  0.750000  1
  In  In14  1  0.521342  0.975382  0.750000  1
  In  In15  1  0.024578  0.478469  0.250000  1
