# generated using pymatgen
data_La8Nd12Si15Ag
_symmetry_space_group_name_H-M   'P 1'
_cell_length_a   7.96023629
_cell_length_b   7.95129518
_cell_length_c   15.33195600
_cell_angle_alpha   90.03347835
_cell_angle_beta   89.57665337
_cell_angle_gamma   90.11454339
_symmetry_Int_Tables_number   1
_chemical_formula_structural   La8Nd12Si15Ag
_chemical_formula_sum   'La8 Nd12 Si15 Ag1'
_cell_volume   970.39512600
_cell_formula_units_Z   1
loop_
 _symmetry_equiv_pos_site_id
 _symmetry_equiv_pos_as_xyz
  1  'x, y, z'
loop_
 _atom_site_type_symbol
 _atom_site_label
 _atom_site_symmetry_multiplicity
 _atom_site_fract_x
 _atom_site_fract_y
 _atom_site_fract_z
 _atom_site_occupancy
  La  La0  1  0.989740  0.622644  0.052449  1
  La  La1  1  0.012786  0.367571  0.553138  1
  La  La2  1  0.625010  0.986307  0.948906  1
  La  La3  1  0.125824  0.511556  0.801339  1
  La  La4  1  0.865002  0.478190  0.294698  1
  La  La5  1  0.510059  0.123732  0.197360  1
  La  La6  1  0.492506  0.875752  0.699179  1
  La  La7  1  0.380524  0.018842  0.451077  1
  Nd  Nd8  1  0.378342  0.478560  0.373645  1
  Nd  Nd9  1  0.862387  0.027967  0.370664  1
  Nd  Nd10  1  0.980636  0.128394  0.124242  1
  Nd  Nd11  1  0.021636  0.874192  0.624827  1
  Nd  Nd12  1  0.629576  0.518279  0.873599  1
  Nd  Nd13  1  0.484939  0.371626  0.628088  1
  Nd  Nd14  1  0.515596  0.626450  0.125602  1
  Nd  Nd15  1  0.126321  0.982440  0.877862  1
  Nd  Nd16  1  0.687496  0.696064  0.498493  1
  Nd  Nd17  1  0.811116  0.189777  0.749741  1
  Nd  Nd18  1  0.184868  0.807604  0.250322  1
  Nd  Nd19  1  0.306144  0.309507  0.999880  1
  Si  Si20  1  0.921000  0.286646  0.939210  1
  Si  Si21  1  0.715872  0.078170  0.561066  1
  Si  Si22  1  0.213709  0.422467  0.190484  1
  Si  Si23  1  0.789067  0.578689  0.688658  1
  Si  Si24  1  0.422586  0.213412  0.811563  1
  Si  Si25  1  0.574845  0.786779  0.309087  1
  Si  Si26  1  0.286729  0.921859  0.060452  1
  Si  Si27  1  0.833471  0.804187  0.797027  1
  Si  Si28  1  0.168020  0.196289  0.298442  1
  Si  Si29  1  0.801111  0.831374  0.200601  1
  Si  Si30  1  0.313388  0.667460  0.552432  1
  Si  Si31  1  0.695191  0.332148  0.046941  1
  Si  Si32  1  0.670282  0.308315  0.455531  1
  Si  Si33  1  0.332244  0.695100  0.952349  1
  Si  Si34  1  0.197580  0.167856  0.703084  1
  Ag  Ag35  1  0.074393  0.713795  0.437960  1
