# generated using pymatgen
data_Sm8Si12Ni3Pd
_symmetry_space_group_name_H-M   'P 1'
_cell_length_a   8.05790000
_cell_length_b   8.05789891
_cell_length_c   8.33861200
_cell_angle_alpha   90.00000000
_cell_angle_beta   90.00000000
_cell_angle_gamma   119.99998804
_symmetry_Int_Tables_number   1
_chemical_formula_structural   Sm8Si12Ni3Pd
_chemical_formula_sum   'Sm8 Si12 Ni3 Pd1'
_cell_volume   468.88694234
_cell_formula_units_Z   1
loop_
 _symmetry_equiv_pos_site_id
 _symmetry_equiv_pos_as_xyz
  1  'x, y, z'
loop_
 _atom_site_type_symbol
 _atom_site_label
 _atom_site_symmetry_multiplicity
 _atom_site_fract_x
 _atom_site_fract_y
 _atom_site_fract_z
 _atom_site_occupancy
  Sm  Sm0  1  0.501458  0.002918  0.248655  1
  Sm  Sm1  1  0.501506  0.003011  0.751390  1
  Sm  Sm2  1  0.997082  0.498542  0.248655  1
  Sm  Sm3  1  0.996989  0.498494  0.751390  1
  Sm  Sm4  1  0.501458  0.498542  0.248655  1
  Sm  Sm5  1  0.501506  0.498494  0.751390  1
  Sm  Sm6  1  0.000000  0.000000  0.248935  1
  Sm  Sm7  1  0.000000  0.000000  0.751083  1
  Si  Si8  1  0.171346  0.342693  0.000035  1
  Si  Si9  1  0.829387  0.658774  0.000092  1
  Si  Si10  1  0.657307  0.828654  0.000035  1
  Si  Si11  1  0.828264  0.656528  0.500013  1
  Si  Si12  1  0.341226  0.170613  0.000092  1
  Si  Si13  1  0.164589  0.329177  0.499909  1
  Si  Si14  1  0.171346  0.828654  0.000035  1
  Si  Si15  1  0.343472  0.171736  0.500013  1
  Si  Si16  1  0.829387  0.170613  0.000092  1
  Si  Si17  1  0.670823  0.835411  0.499909  1
  Si  Si18  1  0.828264  0.171736  0.500013  1
  Si  Si19  1  0.164589  0.835411  0.499909  1
  Ni  Ni20  1  0.333333  0.666667  0.999601  1
  Ni  Ni21  1  0.666667  0.333333  0.999741  1
  Ni  Ni22  1  0.666667  0.333333  0.500043  1
  Pd  Pd23  1  0.333333  0.666667  0.500313  1
