# generated using pymatgen
data_Ho2Tm4Bi2Os
_symmetry_space_group_name_H-M   'P 1'
_cell_length_a   8.23136824
_cell_length_b   8.23136555
_cell_length_c   4.23848500
_cell_angle_alpha   90.00000000
_cell_angle_beta   90.00000000
_cell_angle_gamma   120.13733906
_symmetry_Int_Tables_number   1
_chemical_formula_structural   Ho2Tm4Bi2Os
_chemical_formula_sum   'Ho2 Tm4 Bi2 Os1'
_cell_volume   248.36049025
_cell_formula_units_Z   1
loop_
 _symmetry_equiv_pos_site_id
 _symmetry_equiv_pos_as_xyz
  1  'x, y, z'
loop_
 _atom_site_type_symbol
 _atom_site_label
 _atom_site_symmetry_multiplicity
 _atom_site_fract_x
 _atom_site_fract_y
 _atom_site_fract_z
 _atom_site_occupancy
  Ho  Ho0  1  0.614978  0.999646  0.000000  1
  Ho  Ho1  1  0.999646  0.614978  0.000000  1
  Tm  Tm2  1  0.232727  0.000592  0.500000  1
  Tm  Tm3  1  0.000592  0.232727  0.500000  1
  Tm  Tm4  1  0.768561  0.768561  0.500000  1
  Tm  Tm5  1  0.382388  0.382388  0.000000  1
  Bi  Bi6  1  0.333256  0.665367  0.500000  1
  Bi  Bi7  1  0.665367  0.333256  0.500000  1
  Os  Os8  1  0.002485  0.002485  0.000000  1
