# generated using pymatgen
data_Ti4Nb12(As3P)3
_symmetry_space_group_name_H-M   'P 1'
_cell_length_a   7.40878869
_cell_length_b   7.40878887
_cell_length_c   18.91541416
_cell_angle_alpha   90.18690425
_cell_angle_beta   89.81309530
_cell_angle_gamma   152.42188853
_symmetry_Int_Tables_number   1
_chemical_formula_structural   Ti4Nb12(As3P)3
_chemical_formula_sum   'Ti4 Nb12 As9 P3'
_cell_volume   480.67209147
_cell_formula_units_Z   1
loop_
 _symmetry_equiv_pos_site_id
 _symmetry_equiv_pos_as_xyz
  1  'x, y, z'
loop_
 _atom_site_type_symbol
 _atom_site_label
 _atom_site_symmetry_multiplicity
 _atom_site_fract_x
 _atom_site_fract_y
 _atom_site_fract_z
 _atom_site_occupancy
  Ti  Ti0  1  0.741193  0.258807  0.158558  1
  Ti  Ti1  1  0.258277  0.741723  0.841403  1
  Ti  Ti2  1  0.258636  0.741364  0.659671  1
  Ti  Ti3  1  0.736358  0.263642  0.336421  1
  Nb  Nb4  1  0.531873  0.468127  0.119917  1
  Nb  Nb5  1  0.467995  0.532005  0.878890  1
  Nb  Nb6  1  0.469266  0.530734  0.622224  1
  Nb  Nb7  1  0.536867  0.463133  0.379333  1
  Nb  Nb8  1  0.661911  0.338089  0.968147  1
  Nb  Nb9  1  0.337600  0.662400  0.030009  1
  Nb  Nb10  1  0.336212  0.663788  0.474682  1
  Nb  Nb11  1  0.662593  0.337407  0.533311  1
  Nb  Nb12  1  0.999922  0.000078  0.999323  1
  Nb  Nb13  1  0.001409  0.998591  0.501495  1
  Nb  Nb14  1  0.056332  0.943668  0.750485  1
  Nb  Nb15  1  0.944094  0.055906  0.246265  1
  As  As16  1  0.900721  0.099279  0.381003  1
  As  As17  1  0.839123  0.160877  0.921842  1
  As  As18  1  0.160900  0.839100  0.076959  1
  As  As19  1  0.162836  0.837164  0.423624  1
  As  As20  1  0.840425  0.159575  0.580680  1
  As  As21  1  0.699883  0.300117  0.750662  1
  As  As22  1  0.299948  0.700052  0.248095  1
  As  As23  1  0.410120  0.589880  0.750571  1
  As  As24  1  0.589028  0.410972  0.248566  1
  P  P25  1  0.902477  0.097523  0.116838  1
  P  P26  1  0.096719  0.903281  0.881462  1
  P  P27  1  0.097283  0.902717  0.619562  1
