# generated using pymatgen
data_Dy3Lu(Ga2Ag)4
_symmetry_space_group_name_H-M   'P 1'
_cell_length_a   4.37456700
_cell_length_b   6.93249494
_cell_length_c   10.24074601
_cell_angle_alpha   89.97555102
_cell_angle_beta   90.00000000
_cell_angle_gamma   90.00000000
_symmetry_Int_Tables_number   1
_chemical_formula_structural   Dy3Lu(Ga2Ag)4
_chemical_formula_sum   'Dy3 Lu1 Ga8 Ag4'
_cell_volume   310.56763085
_cell_formula_units_Z   1
loop_
 _symmetry_equiv_pos_site_id
 _symmetry_equiv_pos_as_xyz
  1  'x, y, z'
loop_
 _atom_site_type_symbol
 _atom_site_label
 _atom_site_symmetry_multiplicity
 _atom_site_fract_x
 _atom_site_fract_y
 _atom_site_fract_z
 _atom_site_occupancy
  Dy  Dy0  1  0.250000  0.779274  0.823853  1
  Dy  Dy1  1  0.750000  0.221262  0.175076  1
  Dy  Dy2  1  0.750000  0.721225  0.325105  1
  Lu  Lu3  1  0.250000  0.278527  0.675107  1
  Ga  Ga4  1  0.250000  0.698742  0.535710  1
  Ga  Ga5  1  0.750000  0.299522  0.465117  1
  Ga  Ga6  1  0.750000  0.798148  0.035774  1
  Ga  Ga7  1  0.250000  0.202302  0.962899  1
  Ga  Ga8  1  0.250000  0.928977  0.154794  1
  Ga  Ga9  1  0.750000  0.072257  0.845276  1
  Ga  Ga10  1  0.750000  0.568415  0.654316  1
  Ga  Ga11  1  0.250000  0.428454  0.345006  1
  Ag  Ag12  1  0.250000  0.544961  0.095584  1
  Ag  Ag13  1  0.750000  0.455276  0.903188  1
  Ag  Ag14  1  0.750000  0.956794  0.597139  1
  Ag  Ag15  1  0.250000  0.045862  0.406058  1
