# generated using pymatgen
data_La13Nd7Si15Pd
_symmetry_space_group_name_H-M   'P 1'
_cell_length_a   8.01178608
_cell_length_b   8.03074829
_cell_length_c   15.24082524
_cell_angle_alpha   89.86354044
_cell_angle_beta   89.37681658
_cell_angle_gamma   89.87237643
_symmetry_Int_Tables_number   1
_chemical_formula_structural   La13Nd7Si15Pd
_chemical_formula_sum   'La13 Nd7 Si15 Pd1'
_cell_volume   980.54124950
_cell_formula_units_Z   1
loop_
 _symmetry_equiv_pos_site_id
 _symmetry_equiv_pos_as_xyz
  1  'x, y, z'
loop_
 _atom_site_type_symbol
 _atom_site_label
 _atom_site_symmetry_multiplicity
 _atom_site_fract_x
 _atom_site_fract_y
 _atom_site_fract_z
 _atom_site_occupancy
  La  La0  1  0.126020  0.981754  0.877194  1
  La  La1  1  0.989633  0.620832  0.054698  1
  La  La2  1  0.016273  0.371220  0.547065  1
  La  La3  1  0.624328  0.985385  0.950314  1
  La  La4  1  0.123305  0.509908  0.801801  1
  La  La5  1  0.864562  0.477531  0.296043  1
  La  La6  1  0.504956  0.118933  0.197112  1
  La  La7  1  0.495538  0.879033  0.696887  1
  La  La8  1  0.383086  0.022878  0.452650  1
  La  La9  1  0.701448  0.696487  0.495785  1
  La  La10  1  0.813598  0.191499  0.750638  1
  La  La11  1  0.184254  0.802873  0.263923  1
  La  La12  1  0.301353  0.305296  0.998104  1
  Nd  Nd13  1  0.375869  0.479813  0.375007  1
  Nd  Nd14  1  0.861550  0.023599  0.369883  1
  Nd  Nd15  1  0.981787  0.128458  0.126395  1
  Nd  Nd16  1  0.024847  0.874489  0.622237  1
  Nd  Nd17  1  0.627941  0.517077  0.873966  1
  Nd  Nd18  1  0.488246  0.378540  0.625249  1
  Nd  Nd19  1  0.510949  0.623885  0.127306  1
  Si  Si20  1  0.916343  0.290439  0.942018  1
  Si  Si21  1  0.716415  0.083269  0.559502  1
  Si  Si22  1  0.212391  0.418533  0.192491  1
  Si  Si23  1  0.792493  0.580221  0.688898  1
  Si  Si24  1  0.424543  0.212501  0.807506  1
  Si  Si25  1  0.574275  0.787114  0.307738  1
  Si  Si26  1  0.285222  0.917012  0.063168  1
  Si  Si27  1  0.832913  0.801365  0.797962  1
  Si  Si28  1  0.163661  0.200480  0.303485  1
  Si  Si29  1  0.795880  0.832516  0.196946  1
  Si  Si30  1  0.310928  0.671963  0.547326  1
  Si  Si31  1  0.695313  0.333535  0.050732  1
  Si  Si32  1  0.669329  0.306378  0.452097  1
  Si  Si33  1  0.333010  0.693666  0.953662  1
  Si  Si34  1  0.204611  0.168560  0.696136  1
  Pd  Pd35  1  0.073133  0.712961  0.438072  1
