# generated using pymatgen
data_Hf6Cr2Fe9Co7P12
_symmetry_space_group_name_H-M   'P 1'
_cell_length_a   11.90096080
_cell_length_b   11.84164284
_cell_length_c   3.62735300
_cell_angle_alpha   90.00000000
_cell_angle_beta   90.00000000
_cell_angle_gamma   119.85189952
_symmetry_Int_Tables_number   1
_chemical_formula_structural   Hf6Cr2Fe9Co7P12
_chemical_formula_sum   'Hf6 Cr2 Fe9 Co7 P12'
_cell_volume   443.36420428
_cell_formula_units_Z   1
loop_
 _symmetry_equiv_pos_site_id
 _symmetry_equiv_pos_as_xyz
  1  'x, y, z'
loop_
 _atom_site_type_symbol
 _atom_site_label
 _atom_site_symmetry_multiplicity
 _atom_site_fract_x
 _atom_site_fract_y
 _atom_site_fract_z
 _atom_site_occupancy
  Hf  Hf0  1  0.809198  0.810700  0.500000  1
  Hf  Hf1  1  0.001516  0.177333  0.500000  1
  Hf  Hf2  1  0.335759  0.671316  0.000000  1
  Hf  Hf3  1  0.664778  0.334173  0.000000  1
  Hf  Hf4  1  0.999747  0.559831  0.000000  1
  Hf  Hf5  1  0.190651  0.001614  0.500000  1
  Cr  Cr6  1  0.441086  0.442715  0.000000  1
  Cr  Cr7  1  0.559880  0.002261  0.000000  1
  Fe  Fe8  1  0.621546  0.820098  0.000000  1
  Fe  Fe9  1  0.377956  0.197706  0.000000  1
  Fe  Fe10  1  0.998708  0.724850  0.500000  1
  Fe  Fe11  1  0.280936  0.281189  0.500000  1
  Fe  Fe12  1  0.870529  0.350229  0.500000  1
  Fe  Fe13  1  0.720295  0.000154  0.500000  1
  Fe  Fe14  1  0.812377  0.623642  0.000000  1
  Fe  Fe15  1  0.184103  0.810816  0.000000  1
  Fe  Fe16  1  0.363268  0.879998  0.500000  1
  Co  Co17  1  0.130680  0.482948  0.500000  1
  Co  Co18  1  0.635694  0.514562  0.500000  1
  Co  Co19  1  0.000014  0.000787  0.000000  1
  Co  Co20  1  0.512539  0.641942  0.500000  1
  Co  Co21  1  0.488043  0.129555  0.500000  1
  Co  Co22  1  0.196970  0.372721  0.000000  1
  Co  Co23  1  0.804692  0.175667  0.000000  1
  P  P24  1  0.001462  0.347937  0.000000  1
  P  P25  1  0.823815  0.519552  0.500000  1
  P  P26  1  0.684930  0.165191  0.500000  1
  P  P27  1  0.181066  0.175497  0.000000  1
  P  P28  1  0.635918  0.640657  0.000000  1
  P  P29  1  0.818978  0.993969  0.000000  1
  P  P30  1  0.520282  0.835833  0.500000  1
  P  P31  1  0.176850  0.697121  0.500000  1
  P  P32  1  0.363092  0.001615  0.000000  1
  P  P33  1  0.479064  0.313137  0.500000  1
  P  P34  1  0.998794  0.821599  0.000000  1
  P  P35  1  0.314785  0.481085  0.500000  1
