# generated using pymatgen
data_Hf18Re6NiMo2Rh
_symmetry_space_group_name_H-M   'P 1'
_cell_length_a   8.65776600
_cell_length_b   8.65776574
_cell_length_c   8.45993000
_cell_angle_alpha   90.00000000
_cell_angle_beta   90.00000000
_cell_angle_gamma   120.00000098
_symmetry_Int_Tables_number   1
_chemical_formula_structural   Hf18Re6NiMo2Rh
_chemical_formula_sum   'Hf18 Re6 Ni1 Mo2 Rh1'
_cell_volume   549.17286635
_cell_formula_units_Z   1
loop_
 _symmetry_equiv_pos_site_id
 _symmetry_equiv_pos_as_xyz
  1  'x, y, z'
loop_
 _atom_site_type_symbol
 _atom_site_label
 _atom_site_symmetry_multiplicity
 _atom_site_fract_x
 _atom_site_fract_y
 _atom_site_fract_z
 _atom_site_occupancy
  Hf  Hf0  1  0.196847  0.803153  0.446004  1
  Hf  Hf1  1  0.196847  0.393694  0.446004  1
  Hf  Hf2  1  0.606306  0.803153  0.446004  1
  Hf  Hf3  1  0.801217  0.198783  0.557617  1
  Hf  Hf4  1  0.801217  0.602434  0.557617  1
  Hf  Hf5  1  0.397566  0.198783  0.557617  1
  Hf  Hf6  1  0.801217  0.198783  0.942383  1
  Hf  Hf7  1  0.801217  0.602434  0.942383  1
  Hf  Hf8  1  0.397566  0.198783  0.942383  1
  Hf  Hf9  1  0.196847  0.803153  0.053996  1
  Hf  Hf10  1  0.196847  0.393694  0.053996  1
  Hf  Hf11  1  0.606306  0.803153  0.053996  1
  Hf  Hf12  1  0.542534  0.457466  0.250000  1
  Hf  Hf13  1  0.542534  0.085066  0.250000  1
  Hf  Hf14  1  0.914934  0.457466  0.250000  1
  Hf  Hf15  1  0.458786  0.541214  0.750000  1
  Hf  Hf16  1  0.458786  0.917573  0.750000  1
  Hf  Hf17  1  0.082427  0.541214  0.750000  1
  Re  Re18  1  0.888409  0.111591  0.250000  1
  Re  Re19  1  0.888409  0.776817  0.250000  1
  Re  Re20  1  0.223183  0.111591  0.250000  1
  Re  Re21  1  0.111098  0.888902  0.750000  1
  Re  Re22  1  0.111098  0.222197  0.750000  1
  Re  Re23  1  0.777803  0.888902  0.750000  1
  Ni  Ni24  1  0.666667  0.333333  0.750000  1
  Mo  Mo25  1  0.000000  0.000000  0.499444  1
  Mo  Mo26  1  0.000000  0.000000  0.000556  1
  Rh  Rh27  1  0.333333  0.666667  0.250000  1
