# generated using pymatgen
data_TaNb2Co2Ni2B7
_symmetry_space_group_name_H-M   'P 1'
_cell_length_a   9.31229484
_cell_length_b   9.31229463
_cell_length_c   8.96208400
_cell_angle_alpha   90.00000000
_cell_angle_beta   90.00000000
_cell_angle_gamma   160.05015052
_symmetry_Int_Tables_number   1
_chemical_formula_structural   TaNb2Co2Ni2B7
_chemical_formula_sum   'Ta2 Nb4 Co4 Ni4 B14'
_cell_volume   265.17237949
_cell_formula_units_Z   2
loop_
 _symmetry_equiv_pos_site_id
 _symmetry_equiv_pos_as_xyz
  1  'x, y, z'
loop_
 _atom_site_type_symbol
 _atom_site_label
 _atom_site_symmetry_multiplicity
 _atom_site_fract_x
 _atom_site_fract_y
 _atom_site_fract_z
 _atom_site_occupancy
  Ta  Ta0  1  0.698254  0.301746  0.250000  1
  Ta  Ta1  1  0.301746  0.698254  0.750000  1
  Nb  Nb2  1  0.580661  0.419339  0.554461  1
  Nb  Nb3  1  0.419339  0.580661  0.445539  1
  Nb  Nb4  1  0.419339  0.580661  0.054461  1
  Nb  Nb5  1  0.580661  0.419339  0.945539  1
  Co  Co6  1  0.543079  0.456921  0.250000  1
  Co  Co7  1  0.456921  0.543079  0.750000  1
  Co  Co8  1  0.844425  0.155575  0.250000  1
  Co  Co9  1  0.155575  0.844425  0.750000  1
  Ni  Ni10  1  0.800581  0.199419  0.507292  1
  Ni  Ni11  1  0.199419  0.800581  0.492708  1
  Ni  Ni12  1  0.199419  0.800581  0.007292  1
  Ni  Ni13  1  0.800581  0.199419  0.992708  1
  B  B14  1  0.955373  0.044627  0.250000  1
  B  B15  1  0.044627  0.955373  0.750000  1
  B  B16  1  0.890899  0.109101  0.648787  1
  B  B17  1  0.109101  0.890899  0.351213  1
  B  B18  1  0.109101  0.890899  0.148787  1
  B  B19  1  0.890899  0.109101  0.851213  1
  B  B20  1  0.709765  0.290235  0.650147  1
  B  B21  1  0.290235  0.709765  0.349853  1
  B  B22  1  0.290235  0.709765  0.150147  1
  B  B23  1  0.709765  0.290235  0.849853  1
  B  B24  1  0.984419  0.015581  0.593157  1
  B  B25  1  0.015581  0.984419  0.406843  1
  B  B26  1  0.015581  0.984419  0.093157  1
  B  B27  1  0.984419  0.015581  0.906843  1
