# generated using pymatgen
data_Hf3Ta2SiGe2N
_symmetry_space_group_name_H-M   'P 1'
_cell_length_a   7.79369197
_cell_length_b   7.79369204
_cell_length_c   5.45785500
_cell_angle_alpha   90.00000000
_cell_angle_beta   90.00000000
_cell_angle_gamma   120.12943874
_symmetry_Int_Tables_number   1
_chemical_formula_structural   Hf3Ta2SiGe2N
_chemical_formula_sum   'Hf6 Ta4 Si2 Ge4 N2'
_cell_volume   286.72870261
_cell_formula_units_Z   2
loop_
 _symmetry_equiv_pos_site_id
 _symmetry_equiv_pos_as_xyz
  1  'x, y, z'
loop_
 _atom_site_type_symbol
 _atom_site_label
 _atom_site_symmetry_multiplicity
 _atom_site_fract_x
 _atom_site_fract_y
 _atom_site_fract_z
 _atom_site_occupancy
  Hf  Hf0  1  0.236550  0.004226  0.250000  1
  Hf  Hf1  1  0.763450  0.995774  0.750000  1
  Hf  Hf2  1  0.004226  0.236550  0.250000  1
  Hf  Hf3  1  0.995774  0.763450  0.750000  1
  Hf  Hf4  1  0.762773  0.762773  0.250000  1
  Hf  Hf5  1  0.237227  0.237227  0.750000  1
  Ta  Ta6  1  0.336000  0.664000  0.000000  1
  Ta  Ta7  1  0.664000  0.336000  0.000000  1
  Ta  Ta8  1  0.664000  0.336000  0.500000  1
  Ta  Ta9  1  0.336000  0.664000  0.500000  1
  Si  Si10  1  0.408090  0.408090  0.250000  1
  Si  Si11  1  0.591910  0.591910  0.750000  1
  Ge  Ge12  1  0.595358  0.001877  0.250000  1
  Ge  Ge13  1  0.404642  0.998123  0.750000  1
  Ge  Ge14  1  0.001877  0.595358  0.250000  1
  Ge  Ge15  1  0.998123  0.404642  0.750000  1
  N  N16  1  0.000000  0.000000  0.000000  1
  N  N17  1  0.000000  0.000000  0.500000  1
