# generated using pymatgen
data_Pr2Nd4Al24Os7Pt
_symmetry_space_group_name_H-M   'P 1'
_cell_length_a   8.92278183
_cell_length_b   8.91122849
_cell_length_c   9.73357032
_cell_angle_alpha   90.08962947
_cell_angle_beta   90.05362379
_cell_angle_gamma   119.78931471
_symmetry_Int_Tables_number   1
_chemical_formula_structural   Pr2Nd4Al24Os7Pt
_chemical_formula_sum   'Pr2 Nd4 Al24 Os7 Pt1'
_cell_volume   671.67220763
_cell_formula_units_Z   1
loop_
 _symmetry_equiv_pos_site_id
 _symmetry_equiv_pos_as_xyz
  1  'x, y, z'
loop_
 _atom_site_type_symbol
 _atom_site_label
 _atom_site_symmetry_multiplicity
 _atom_site_fract_x
 _atom_site_fract_y
 _atom_site_fract_z
 _atom_site_occupancy
  Pr  Pr0  1  0.189778  0.807200  0.250232  1
  Pr  Pr1  1  0.810222  0.192800  0.749768  1
  Nd  Nd2  1  0.192192  0.385270  0.252530  1
  Nd  Nd3  1  0.807808  0.614730  0.747470  1
  Nd  Nd4  1  0.617185  0.807598  0.250872  1
  Nd  Nd5  1  0.382815  0.192402  0.749128  1
  Al  Al6  1  0.330752  0.662057  0.014115  1
  Al  Al7  1  0.669248  0.337943  0.985885  1
  Al  Al8  1  0.666794  0.332747  0.513410  1
  Al  Al9  1  0.333206  0.667253  0.486590  1
  Al  Al10  1  0.164182  0.327947  0.574252  1
  Al  Al11  1  0.835818  0.672053  0.425748  1
  Al  Al12  1  0.672625  0.836675  0.574022  1
  Al  Al13  1  0.836211  0.672824  0.074306  1
  Al  Al14  1  0.327375  0.163325  0.425978  1
  Al  Al15  1  0.163789  0.327176  0.925694  1
  Al  Al16  1  0.164078  0.836817  0.573851  1
  Al  Al17  1  0.325754  0.168173  0.075935  1
  Al  Al18  1  0.835922  0.163183  0.426149  1
  Al  Al19  1  0.674246  0.831827  0.924065  1
  Al  Al20  1  0.842448  0.167949  0.075654  1
  Al  Al21  1  0.157552  0.832051  0.924346  1
  Al  Al22  1  0.562741  0.126017  0.252510  1
  Al  Al23  1  0.437259  0.873983  0.747490  1
  Al  Al24  1  0.875178  0.437787  0.249495  1
  Al  Al25  1  0.124822  0.562213  0.750505  1
  Al  Al26  1  0.562235  0.437689  0.249385  1
  Al  Al27  1  0.437765  0.562311  0.750615  1
  Al  Al28  1  0.999105  0.000815  0.250112  1
  Al  Al29  1  0.000895  0.999185  0.749888  1
  Os  Os30  1  0.000000  0.500000  0.000000  1
  Os  Os31  1  0.500000  0.000000  0.500000  1
  Os  Os32  1  0.500000  0.500000  0.000000  1
  Os  Os33  1  0.000000  0.500000  0.500000  1
  Os  Os34  1  0.500000  0.500000  0.500000  1
  Os  Os35  1  0.000000  0.000000  0.000000  1
  Os  Os36  1  0.000000  0.000000  0.500000  1
  Pt  Pt37  1  0.500000  0.000000  0.000000  1
