# generated using pymatgen
data_Ho5ErMnSi24Ru7
_symmetry_space_group_name_H-M   'P 1'
_cell_length_a   10.10910169
_cell_length_b   10.10910236
_cell_length_c   8.10149503
_cell_angle_alpha   90.02784228
_cell_angle_beta   90.02783662
_cell_angle_gamma   132.71810246
_symmetry_Int_Tables_number   1
_chemical_formula_structural   Ho5ErMnSi24Ru7
_chemical_formula_sum   'Ho5 Er1 Mn1 Si24 Ru7'
_cell_volume   608.27536096
_cell_formula_units_Z   1
loop_
 _symmetry_equiv_pos_site_id
 _symmetry_equiv_pos_as_xyz
  1  'x, y, z'
loop_
 _atom_site_type_symbol
 _atom_site_label
 _atom_site_symmetry_multiplicity
 _atom_site_fract_x
 _atom_site_fract_y
 _atom_site_fract_z
 _atom_site_occupancy
  Ho  Ho0  1  0.498276  0.997649  0.248679  1
  Ho  Ho1  1  0.002990  0.501901  0.750890  1
  Ho  Ho2  1  0.501901  0.002990  0.750890  1
  Ho  Ho3  1  0.997649  0.498276  0.248679  1
  Ho  Ho4  1  0.501907  0.501907  0.500868  1
  Er  Er5  1  0.999212  0.999212  0.997751  1
  Mn  Mn6  1  0.624938  0.624938  0.874624  1
  Si  Si7  1  0.387392  0.154251  0.004820  1
  Si  Si8  1  0.654344  0.887595  0.494520  1
  Si  Si9  1  0.112559  0.345481  0.506171  1
  Si  Si10  1  0.842082  0.614297  0.989515  1
  Si  Si11  1  0.614297  0.842082  0.989515  1
  Si  Si12  1  0.345481  0.112559  0.506171  1
  Si  Si13  1  0.887595  0.654344  0.494520  1
  Si  Si14  1  0.154251  0.387392  0.004820  1
  Si  Si15  1  0.612473  0.378396  0.228841  1
  Si  Si16  1  0.877281  0.110564  0.271176  1
  Si  Si17  1  0.888698  0.122086  0.728779  1
  Si  Si18  1  0.624336  0.395963  0.772431  1
  Si  Si19  1  0.395963  0.624336  0.772431  1
  Si  Si20  1  0.122086  0.888698  0.728779  1
  Si  Si21  1  0.704411  0.294723  0.000117  1
  Si  Si22  1  0.794877  0.204965  0.499990  1
  Si  Si23  1  0.294723  0.704411  0.000117  1
  Si  Si24  1  0.204965  0.794877  0.499990  1
  Si  Si25  1  0.166709  0.166709  0.333694  1
  Si  Si26  1  0.667957  0.667957  0.161072  1
  Si  Si27  1  0.338246  0.338246  0.832807  1
  Si  Si28  1  0.825906  0.825906  0.673560  1
  Si  Si29  1  0.378396  0.612473  0.228841  1
  Si  Si30  1  0.110564  0.877281  0.271176  1
  Ru  Ru31  1  0.125060  0.125060  0.629068  1
  Ru  Ru32  1  0.871775  0.871775  0.374090  1
  Ru  Ru33  1  0.373685  0.373685  0.127011  1
  Ru  Ru34  1  0.330142  0.669853  0.502007  1
  Ru  Ru35  1  0.167987  0.829028  0.999790  1
  Ru  Ru36  1  0.669853  0.330142  0.502007  1
  Ru  Ru37  1  0.829028  0.167987  0.999790  1
