# generated using pymatgen
data_Mg2Co8NiMo3P7
_symmetry_space_group_name_H-M   'P 1'
_cell_length_a   3.65988800
_cell_length_b   9.03078193
_cell_length_c   9.06009552
_cell_angle_alpha   120.41071403
_cell_angle_beta   90.00000000
_cell_angle_gamma   90.00000000
_symmetry_Int_Tables_number   1
_chemical_formula_structural   Mg2Co8NiMo3P7
_chemical_formula_sum   'Mg2 Co8 Ni1 Mo3 P7'
_cell_volume   258.25233539
_cell_formula_units_Z   1
loop_
 _symmetry_equiv_pos_site_id
 _symmetry_equiv_pos_as_xyz
  1  'x, y, z'
loop_
 _atom_site_type_symbol
 _atom_site_label
 _atom_site_symmetry_multiplicity
 _atom_site_fract_x
 _atom_site_fract_y
 _atom_site_fract_z
 _atom_site_occupancy
  Mg  Mg0  1  0.000000  0.668051  0.330815  1
  Mg  Mg1  1  0.500000  0.332416  0.668141  1
  Co  Co2  1  0.000000  0.563785  0.936698  1
  Co  Co3  1  0.000000  0.372561  0.436426  1
  Co  Co4  1  0.000000  0.064631  0.629045  1
  Co  Co5  1  0.500000  0.949328  0.389069  1
  Co  Co6  1  0.500000  0.442436  0.053896  1
  Co  Co7  1  0.000000  0.878832  0.163480  1
  Co  Co8  1  0.000000  0.284787  0.121827  1
  Co  Co9  1  0.000000  0.833775  0.712620  1
  Ni  Ni10  1  0.500000  0.610510  0.556252  1
  Mo  Mo11  1  0.500000  0.778301  0.904364  1
  Mo  Mo12  1  0.500000  0.124257  0.220338  1
  Mo  Mo13  1  0.500000  0.095611  0.875543  1
  P  P14  1  0.500000  0.712119  0.126532  1
  P  P15  1  0.500000  0.412554  0.284881  1
  P  P16  1  0.500000  0.877972  0.584831  1
  P  P17  1  0.000000  0.998938  0.999469  1
  P  P18  1  0.000000  0.580154  0.703033  1
  P  P19  1  0.000000  0.118326  0.419181  1
  P  P20  1  0.000000  0.300658  0.883558  1
