# generated using pymatgen
data_NaGd2Si2(AsPd5)4
_symmetry_space_group_name_H-M   'P 1'
_cell_length_a   8.90364913
_cell_length_b   8.82327000
_cell_length_c   8.82326900
_cell_angle_alpha   60.60361763
_cell_angle_beta   59.69818838
_cell_angle_gamma   59.69818760
_symmetry_Int_Tables_number   1
_chemical_formula_structural   NaGd2Si2(AsPd5)4
_chemical_formula_sum   'Na1 Gd2 Si2 As4 Pd20'
_cell_volume   490.04882717
_cell_formula_units_Z   1
loop_
 _symmetry_equiv_pos_site_id
 _symmetry_equiv_pos_as_xyz
  1  'x, y, z'
loop_
 _atom_site_type_symbol
 _atom_site_label
 _atom_site_symmetry_multiplicity
 _atom_site_fract_x
 _atom_site_fract_y
 _atom_site_fract_z
 _atom_site_occupancy
  Na  Na0  1  0.000000  0.000000  0.000000  1
  Gd  Gd1  1  0.750000  0.750000  0.750000  1
  Gd  Gd2  1  0.250000  0.250000  0.250000  1
  Si  Si3  1  0.265051  0.734949  0.734949  1
  Si  Si4  1  0.734949  0.265051  0.265051  1
  As  As5  1  0.737920  0.737920  0.262080  1
  As  As6  1  0.262080  0.262080  0.737920  1
  As  As7  1  0.737920  0.262080  0.737920  1
  As  As8  1  0.262080  0.737920  0.262080  1
  Pd  Pd9  1  0.611548  0.617988  0.617988  1
  Pd  Pd10  1  0.388452  0.382012  0.382012  1
  Pd  Pd11  1  0.152475  0.617988  0.617988  1
  Pd  Pd12  1  0.617988  0.152475  0.611548  1
  Pd  Pd13  1  0.847525  0.382012  0.382012  1
  Pd  Pd14  1  0.382012  0.847525  0.388452  1
  Pd  Pd15  1  0.617988  0.611548  0.152475  1
  Pd  Pd16  1  0.382012  0.388452  0.847525  1
  Pd  Pd17  1  0.007984  0.992016  0.651551  1
  Pd  Pd18  1  0.992016  0.007984  0.348449  1
  Pd  Pd19  1  0.348449  0.651551  0.992016  1
  Pd  Pd20  1  0.651551  0.348449  0.007984  1
  Pd  Pd21  1  0.007984  0.651551  0.992016  1
  Pd  Pd22  1  0.651551  0.007984  0.348449  1
  Pd  Pd23  1  0.992016  0.348449  0.007984  1
  Pd  Pd24  1  0.348449  0.992016  0.651551  1
  Pd  Pd25  1  0.650671  0.000000  0.000000  1
  Pd  Pd26  1  0.349329  0.000000  0.000000  1
  Pd  Pd27  1  0.000000  0.650671  0.349329  1
  Pd  Pd28  1  0.000000  0.349329  0.650671  1
