# generated using pymatgen
data_AcNd3Re15Si8Ru
_symmetry_space_group_name_H-M   'P 1'
_cell_length_a   4.17074900
_cell_length_b   7.41251741
_cell_length_c   15.53211655
_cell_angle_alpha   89.76312837
_cell_angle_beta   90.00000000
_cell_angle_gamma   90.00000000
_symmetry_Int_Tables_number   1
_chemical_formula_structural   AcNd3Re15Si8Ru
_chemical_formula_sum   'Ac1 Nd3 Re15 Si8 Ru1'
_cell_volume   480.18292168
_cell_formula_units_Z   1
loop_
 _symmetry_equiv_pos_site_id
 _symmetry_equiv_pos_as_xyz
  1  'x, y, z'
loop_
 _atom_site_type_symbol
 _atom_site_label
 _atom_site_symmetry_multiplicity
 _atom_site_fract_x
 _atom_site_fract_y
 _atom_site_fract_z
 _atom_site_occupancy
  Ac  Ac0  1  0.000000  0.424686  0.882587  1
  Nd  Nd1  1  0.000000  0.578084  0.119154  1
  Nd  Nd2  1  0.500000  0.076284  0.380961  1
  Nd  Nd3  1  0.500000  0.920550  0.615948  1
  Re  Re4  1  0.000000  0.873600  0.951650  1
  Re  Re5  1  0.500000  0.636543  0.447100  1
  Re  Re6  1  0.500000  0.361215  0.550440  1
  Re  Re7  1  0.000000  0.733090  0.320753  1
  Re  Re8  1  0.000000  0.264172  0.677166  1
  Re  Re9  1  0.500000  0.230997  0.180923  1
  Re  Re10  1  0.500000  0.772528  0.819534  1
  Re  Re11  1  0.000000  0.431643  0.416403  1
  Re  Re12  1  0.000000  0.564928  0.580205  1
  Re  Re13  1  0.500000  0.936355  0.086361  1
  Re  Re14  1  0.500000  0.067618  0.921903  1
  Re  Re15  1  0.000000  0.985993  0.205095  1
  Re  Re16  1  0.000000  0.003371  0.791999  1
  Re  Re17  1  0.500000  0.486219  0.293879  1
  Re  Re18  1  0.500000  0.508565  0.705168  1
  Si  Si19  1  0.000000  0.825816  0.474976  1
  Si  Si20  1  0.000000  0.172082  0.522879  1
  Si  Si21  1  0.500000  0.324526  0.028948  1
  Si  Si22  1  0.500000  0.686825  0.977627  1
  Si  Si23  1  0.000000  0.287794  0.272299  1
  Si  Si24  1  0.000000  0.709202  0.722719  1
  Si  Si25  1  0.500000  0.785323  0.227888  1
  Si  Si26  1  0.500000  0.199862  0.771252  1
  Ru  Ru27  1  0.000000  0.152132  0.054188  1
