# generated using pymatgen
data_SrNd3(Ir2O7)2
_symmetry_space_group_name_H-M   'P 1'
_cell_length_a   7.42956969
_cell_length_b   7.40196999
_cell_length_c   7.42957000
_cell_angle_alpha   59.87657746
_cell_angle_beta   59.99999861
_cell_angle_gamma   59.87657793
_symmetry_Int_Tables_number   1
_chemical_formula_structural   SrNd3(Ir2O7)2
_chemical_formula_sum   'Sr1 Nd3 Ir4 O14'
_cell_volume   288.36791983
_cell_formula_units_Z   1
loop_
 _symmetry_equiv_pos_site_id
 _symmetry_equiv_pos_as_xyz
  1  'x, y, z'
loop_
 _atom_site_type_symbol
 _atom_site_label
 _atom_site_symmetry_multiplicity
 _atom_site_fract_x
 _atom_site_fract_y
 _atom_site_fract_z
 _atom_site_occupancy
  Sr  Sr0  1  0.125000  0.625000  0.125000  1
  Nd  Nd1  1  0.625000  0.125000  0.125000  1
  Nd  Nd2  1  0.125000  0.125000  0.625000  1
  Nd  Nd3  1  0.125000  0.125000  0.125000  1
  Ir  Ir4  1  0.125000  0.625000  0.625000  1
  Ir  Ir5  1  0.625000  0.125000  0.625000  1
  Ir  Ir6  1  0.625000  0.625000  0.125000  1
  Ir  Ir7  1  0.625000  0.625000  0.625000  1
  O  O8  1  0.694548  0.707789  0.298831  1
  O  O9  1  0.295915  0.293775  0.705155  1
  O  O10  1  0.705155  0.293775  0.705155  1
  O  O11  1  0.298831  0.707789  0.298831  1
  O  O12  1  0.298831  0.707789  0.694548  1
  O  O13  1  0.705155  0.293775  0.295915  1
  O  O14  1  0.555452  0.542211  0.951169  1
  O  O15  1  0.954085  0.956225  0.544845  1
  O  O16  1  0.544845  0.956225  0.544845  1
  O  O17  1  0.951169  0.542211  0.951169  1
  O  O18  1  0.951169  0.542211  0.555452  1
  O  O19  1  0.544845  0.956225  0.954085  1
  O  O20  1  0.253936  0.238191  0.253936  1
  O  O21  1  0.996064  0.011809  0.996064  1
