# generated using pymatgen
data_Tb9Nd6Er(CdPt)4
_symmetry_space_group_name_H-M   'P 1'
_cell_length_a   9.82765993
_cell_length_b   9.82766037
_cell_length_c   9.80233600
_cell_angle_alpha   60.08520486
_cell_angle_beta   60.08520337
_cell_angle_gamma   60.05598962
_symmetry_Int_Tables_number   1
_chemical_formula_structural   Tb9Nd6Er(CdPt)4
_chemical_formula_sum   'Tb9 Nd6 Er1 Cd4 Pt4'
_cell_volume   670.58967384
_cell_formula_units_Z   1
loop_
 _symmetry_equiv_pos_site_id
 _symmetry_equiv_pos_as_xyz
  1  'x, y, z'
loop_
 _atom_site_type_symbol
 _atom_site_label
 _atom_site_symmetry_multiplicity
 _atom_site_fract_x
 _atom_site_fract_y
 _atom_site_fract_z
 _atom_site_occupancy
  Tb  Tb0  1  0.350387  0.350387  0.349817  1
  Tb  Tb1  1  0.350387  0.350387  0.949409  1
  Tb  Tb2  1  0.352177  0.946977  0.350423  1
  Tb  Tb3  1  0.946977  0.352177  0.350423  1
  Tb  Tb4  1  0.811674  0.187707  0.189248  1
  Tb  Tb5  1  0.187707  0.811674  0.811372  1
  Tb  Tb6  1  0.187707  0.811674  0.189248  1
  Tb  Tb7  1  0.811674  0.187707  0.811372  1
  Tb  Tb8  1  0.188849  0.188849  0.811151  1
  Nd  Nd9  1  0.938113  0.562125  0.562284  1
  Nd  Nd10  1  0.562125  0.938113  0.937478  1
  Nd  Nd11  1  0.562125  0.938113  0.562284  1
  Nd  Nd12  1  0.938113  0.562125  0.937478  1
  Nd  Nd13  1  0.562258  0.562258  0.937742  1
  Nd  Nd14  1  0.937926  0.937926  0.562074  1
  Er  Er15  1  0.811432  0.811432  0.188568  1
  Cd  Cd16  1  0.579912  0.579912  0.579538  1
  Cd  Cd17  1  0.579912  0.579912  0.260639  1
  Cd  Cd18  1  0.579999  0.260287  0.579858  1
  Cd  Cd19  1  0.260287  0.579999  0.579858  1
  Pt  Pt20  1  0.143099  0.143099  0.143170  1
  Pt  Pt21  1  0.143099  0.143099  0.570632  1
  Pt  Pt22  1  0.141169  0.572894  0.142969  1
  Pt  Pt23  1  0.572894  0.141169  0.142969  1
