# generated using pymatgen
data_Ti4B2MoAs
_symmetry_space_group_name_H-M   'P 1'
_cell_length_a   7.21473831
_cell_length_b   7.21473720
_cell_length_c   7.21473700
_cell_angle_alpha   130.30099669
_cell_angle_beta   130.30099963
_cell_angle_gamma   72.92603235
_symmetry_Int_Tables_number   1
_chemical_formula_structural   Ti4B2MoAs
_chemical_formula_sum   'Ti8 B4 Mo2 As2'
_cell_volume   213.35093091
_cell_formula_units_Z   2
loop_
 _symmetry_equiv_pos_site_id
 _symmetry_equiv_pos_as_xyz
  1  'x, y, z'
loop_
 _atom_site_type_symbol
 _atom_site_label
 _atom_site_symmetry_multiplicity
 _atom_site_fract_x
 _atom_site_fract_y
 _atom_site_fract_z
 _atom_site_occupancy
  Ti  Ti0  1  0.804553  0.957022  0.500000  1
  Ti  Ti1  1  0.304553  0.804553  0.847531  1
  Ti  Ti2  1  0.195447  0.042978  0.500000  1
  Ti  Ti3  1  0.542978  0.695447  0.500000  1
  Ti  Ti4  1  0.042978  0.542978  0.847531  1
  Ti  Ti5  1  0.695447  0.195447  0.152469  1
  Ti  Ti6  1  0.957022  0.457022  0.152469  1
  Ti  Ti7  1  0.457022  0.304553  0.500000  1
  B  B8  1  0.389807  0.889807  0.279615  1
  B  B9  1  0.889807  0.610193  0.500000  1
  B  B10  1  0.610193  0.110193  0.720385  1
  B  B11  1  0.110193  0.389807  0.500000  1
  Mo  Mo12  1  0.000000  0.000000  0.000000  1
  Mo  Mo13  1  0.500000  0.500000  0.000000  1
  As  As14  1  0.750000  0.750000  0.000000  1
  As  As15  1  0.250000  0.250000  0.000000  1
