# generated using pymatgen
data_PaN2F5
_symmetry_space_group_name_H-M   'P 1'
_cell_length_a   6.55095834
_cell_length_b   6.51260722
_cell_length_c   8.65044200
_cell_angle_alpha   90.00000000
_cell_angle_beta   90.00000000
_cell_angle_gamma   111.97551970
_symmetry_Int_Tables_number   1
_chemical_formula_structural   PaN2F5
_chemical_formula_sum   'Pa2 N4 F10'
_cell_volume   342.24633566
_cell_formula_units_Z   2
loop_
 _symmetry_equiv_pos_site_id
 _symmetry_equiv_pos_as_xyz
  1  'x, y, z'
loop_
 _atom_site_type_symbol
 _atom_site_label
 _atom_site_symmetry_multiplicity
 _atom_site_fract_x
 _atom_site_fract_y
 _atom_site_fract_z
 _atom_site_occupancy
  Pa  Pa0  1  0.183730  0.817334  0.000000  1
  Pa  Pa1  1  0.816270  0.182666  0.000000  1
  N  N2  1  0.500000  0.500000  0.564314  1
  N  N3  1  0.500000  0.500000  0.435686  1
  N  N4  1  0.998679  0.914073  0.500000  1
  N  N5  1  0.001321  0.085927  0.500000  1
  F  F6  1  0.236805  0.767244  0.774203  1
  F  F7  1  0.763195  0.232756  0.774203  1
  F  F8  1  0.763195  0.232756  0.225797  1
  F  F9  1  0.236805  0.767244  0.225797  1
  F  F10  1  0.000000  0.000000  0.860587  1
  F  F11  1  0.000000  0.000000  0.139413  1
  F  F12  1  0.842229  0.559158  0.000000  1
  F  F13  1  0.157771  0.440842  0.000000  1
  F  F14  1  0.559006  0.841045  0.000000  1
  F  F15  1  0.440994  0.158955  0.000000  1
