# generated using pymatgen
data_Er3AlGaCo9B4
_symmetry_space_group_name_H-M   'P 1'
_cell_length_a   5.13063100
_cell_length_b   5.13063144
_cell_length_c   9.54781500
_cell_angle_alpha   90.00000000
_cell_angle_beta   90.00000000
_cell_angle_gamma   120.00000363
_symmetry_Int_Tables_number   1
_chemical_formula_structural   Er3AlGaCo9B4
_chemical_formula_sum   'Er3 Al1 Ga1 Co9 B4'
_cell_volume   217.65878979
_cell_formula_units_Z   1
loop_
 _symmetry_equiv_pos_site_id
 _symmetry_equiv_pos_as_xyz
  1  'x, y, z'
loop_
 _atom_site_type_symbol
 _atom_site_label
 _atom_site_symmetry_multiplicity
 _atom_site_fract_x
 _atom_site_fract_y
 _atom_site_fract_z
 _atom_site_occupancy
  Er  Er0  1  0.000000  0.000000  0.000000  1
  Er  Er1  1  0.000000  0.000000  0.660083  1
  Er  Er2  1  0.000000  0.000000  0.339917  1
  Al  Al3  1  0.666667  0.333333  0.000000  1
  Ga  Ga4  1  0.333333  0.666667  0.000000  1
  Co  Co5  1  0.499978  0.500022  0.500000  1
  Co  Co6  1  0.499978  0.999956  0.500000  1
  Co  Co7  1  0.000044  0.500022  0.500000  1
  Co  Co8  1  0.499963  0.500037  0.792635  1
  Co  Co9  1  0.499963  0.999926  0.792635  1
  Co  Co10  1  0.000074  0.500037  0.792635  1
  Co  Co11  1  0.499963  0.500037  0.207365  1
  Co  Co12  1  0.499963  0.999926  0.207365  1
  Co  Co13  1  0.000074  0.500037  0.207365  1
  B  B14  1  0.666667  0.333333  0.650874  1
  B  B15  1  0.333333  0.666667  0.650682  1
  B  B16  1  0.333333  0.666667  0.349318  1
  B  B17  1  0.666667  0.333333  0.349126  1
