# generated using pymatgen
data_Tb2Dy8Si5Ge
_symmetry_space_group_name_H-M   'P 1'
_cell_length_a   8.46778414
_cell_length_b   8.47066973
_cell_length_c   6.39578500
_cell_angle_alpha   90.00000000
_cell_angle_beta   90.00000000
_cell_angle_gamma   119.96823472
_symmetry_Int_Tables_number   1
_chemical_formula_structural   Tb2Dy8Si5Ge
_chemical_formula_sum   'Tb2 Dy8 Si5 Ge1'
_cell_volume   397.42111577
_cell_formula_units_Z   1
loop_
 _symmetry_equiv_pos_site_id
 _symmetry_equiv_pos_as_xyz
  1  'x, y, z'
loop_
 _atom_site_type_symbol
 _atom_site_label
 _atom_site_symmetry_multiplicity
 _atom_site_fract_x
 _atom_site_fract_y
 _atom_site_fract_z
 _atom_site_occupancy
  Tb  Tb0  1  0.998576  0.755542  0.750000  1
  Tb  Tb1  1  0.757836  0.000027  0.750000  1
  Dy  Dy2  1  0.333122  0.665359  0.000854  1
  Dy  Dy3  1  0.667635  0.334565  0.499145  1
  Dy  Dy4  1  0.667635  0.334565  0.000855  1
  Dy  Dy5  1  0.333122  0.665359  0.499146  1
  Dy  Dy6  1  0.242842  0.000080  0.250000  1
  Dy  Dy7  1  0.243140  0.244596  0.750000  1
  Dy  Dy8  1  0.999967  0.243259  0.250000  1
  Dy  Dy9  1  0.756544  0.756656  0.250000  1
  Si  Si10  1  0.606230  0.000018  0.250000  1
  Si  Si11  1  0.605647  0.605744  0.750000  1
  Si  Si12  1  0.000072  0.394021  0.750000  1
  Si  Si13  1  0.000124  0.606209  0.250000  1
  Si  Si14  1  0.393937  0.393833  0.250000  1
  Ge  Ge15  1  0.393568  0.000167  0.750000  1
