# generated using pymatgen
data_Zr16Ta4Si15As
_symmetry_space_group_name_H-M   'P 1'
_cell_length_a   7.05767297
_cell_length_b   7.06910640
_cell_length_c   12.96823999
_cell_angle_alpha   90.27022295
_cell_angle_beta   90.06541402
_cell_angle_gamma   89.98747901
_symmetry_Int_Tables_number   1
_chemical_formula_structural   Zr16Ta4Si15As
_chemical_formula_sum   'Zr16 Ta4 Si15 As1'
_cell_volume   646.99655101
_cell_formula_units_Z   1
loop_
 _symmetry_equiv_pos_site_id
 _symmetry_equiv_pos_as_xyz
  1  'x, y, z'
loop_
 _atom_site_type_symbol
 _atom_site_label
 _atom_site_symmetry_multiplicity
 _atom_site_fract_x
 _atom_site_fract_y
 _atom_site_fract_z
 _atom_site_occupancy
  Zr  Zr0  1  0.001718  0.843017  0.532978  1
  Zr  Zr1  1  0.996489  0.160083  0.030862  1
  Zr  Zr2  1  0.841361  0.998384  0.280748  1
  Zr  Zr3  1  0.157173  0.002390  0.781985  1
  Zr  Zr4  1  0.653005  0.501790  0.968237  1
  Zr  Zr5  1  0.349806  0.494087  0.470130  1
  Zr  Zr6  1  0.501274  0.346802  0.718063  1
  Zr  Zr7  1  0.500928  0.652965  0.217965  1
  Zr  Zr8  1  0.649450  0.002151  0.877522  1
  Zr  Zr9  1  0.349594  0.997505  0.376406  1
  Zr  Zr10  1  0.002590  0.349973  0.627889  1
  Zr  Zr11  1  0.999092  0.651327  0.128090  1
  Zr  Zr12  1  0.829379  0.674147  0.749397  1
  Zr  Zr13  1  0.170834  0.325365  0.249266  1
  Zr  Zr14  1  0.673572  0.169826  0.499297  1
  Zr  Zr15  1  0.326501  0.828739  0.999031  1
  Ta  Ta16  1  0.506730  0.846496  0.623146  1
  Ta  Ta17  1  0.494937  0.154625  0.122145  1
  Ta  Ta18  1  0.843035  0.489919  0.374348  1
  Ta  Ta19  1  0.152693  0.506657  0.873050  1
  Si  Si20  1  0.701959  0.548907  0.561616  1
  Si  Si21  1  0.298620  0.451263  0.060544  1
  Si  Si22  1  0.548396  0.297925  0.310524  1
  Si  Si23  1  0.451002  0.701157  0.810720  1
  Si  Si24  1  0.952801  0.799790  0.936889  1
  Si  Si25  1  0.046775  0.199677  0.437007  1
  Si  Si26  1  0.799161  0.047564  0.687051  1
  Si  Si27  1  0.201175  0.961213  0.181781  1
  Si  Si28  1  0.643127  0.787264  0.427050  1
  Si  Si29  1  0.356662  0.213212  0.926389  1
  Si  Si30  1  0.787696  0.357919  0.176634  1
  Si  Si31  1  0.212799  0.643570  0.676785  1
  Si  Si32  1  0.702356  0.865102  0.075718  1
  Si  Si33  1  0.298154  0.133751  0.575541  1
  Si  Si34  1  0.864766  0.297985  0.825855  1
  As  As35  1  0.134391  0.697457  0.329348  1
