# generated using pymatgen
data_CeYTh2(NiB4)4
_symmetry_space_group_name_H-M   'P 1'
_cell_length_a   6.91146312
_cell_length_b   6.91146320
_cell_length_c   6.91146313
_cell_angle_alpha   112.88998772
_cell_angle_beta   112.82344085
_cell_angle_gamma   102.89378541
_symmetry_Int_Tables_number   1
_chemical_formula_structural   CeYTh2(NiB4)4
_chemical_formula_sum   'Ce1 Y1 Th2 Ni4 B16'
_cell_volume   251.67651106
_cell_formula_units_Z   1
loop_
 _symmetry_equiv_pos_site_id
 _symmetry_equiv_pos_as_xyz
  1  'x, y, z'
loop_
 _atom_site_type_symbol
 _atom_site_label
 _atom_site_symmetry_multiplicity
 _atom_site_fract_x
 _atom_site_fract_y
 _atom_site_fract_z
 _atom_site_occupancy
  Ce  Ce0  1  0.798567  0.798567  0.000000  1
  Y  Y1  1  0.250158  0.750158  0.500000  1
  Th  Th2  1  0.202508  0.202508  0.000000  1
  Th  Th3  1  0.750347  0.250347  0.500000  1
  Ni  Ni4  1  0.273778  0.501835  0.771944  1
  Ni  Ni5  1  0.729891  0.501835  0.228056  1
  Ni  Ni6  1  0.499031  0.727161  0.228130  1
  Ni  Ni7  1  0.499031  0.270901  0.771870  1
  B  B8  1  0.274024  0.111681  0.385014  1
  B  B9  1  0.726667  0.889009  0.614986  1
  B  B10  1  0.274024  0.889009  0.162342  1
  B  B11  1  0.726667  0.111681  0.837658  1
  B  B12  1  0.110415  0.725538  0.837644  1
  B  B13  1  0.887894  0.272770  0.162356  1
  B  B14  1  0.110415  0.272770  0.384876  1
  B  B15  1  0.887894  0.725538  0.615124  1
  B  B16  1  0.113438  0.111799  0.531240  1
  B  B17  1  0.580559  0.582199  0.468760  1
  B  B18  1  0.113438  0.582199  0.001639  1
  B  B19  1  0.580559  0.111799  0.998361  1
  B  B20  1  0.886475  0.884430  0.465558  1
  B  B21  1  0.418872  0.420917  0.534442  1
  B  B22  1  0.886475  0.420917  0.002045  1
  B  B23  1  0.418872  0.884430  0.997955  1
