# generated using pymatgen
data_Ce2NdIn3Ir2Rh
_symmetry_space_group_name_H-M   'P 1'
_cell_length_a   7.73214737
_cell_length_b   7.73214735
_cell_length_c   3.92860800
_cell_angle_alpha   90.00000000
_cell_angle_beta   90.00000000
_cell_angle_gamma   121.20150146
_symmetry_Int_Tables_number   1
_chemical_formula_structural   Ce2NdIn3Ir2Rh
_chemical_formula_sum   'Ce2 Nd1 In3 Ir2 Rh1'
_cell_volume   200.90148569
_cell_formula_units_Z   1
loop_
 _symmetry_equiv_pos_site_id
 _symmetry_equiv_pos_as_xyz
  1  'x, y, z'
loop_
 _atom_site_type_symbol
 _atom_site_label
 _atom_site_symmetry_multiplicity
 _atom_site_fract_x
 _atom_site_fract_y
 _atom_site_fract_z
 _atom_site_occupancy
  Ce  Ce0  1  0.584452  0.999297  0.000000  1
  Ce  Ce1  1  0.999297  0.584452  0.000000  1
  Nd  Nd2  1  0.411817  0.411817  0.000000  1
  In  In3  1  0.005765  0.251204  0.500000  1
  In  In4  1  0.742070  0.742070  0.500000  1
  In  In5  1  0.251204  0.005765  0.500000  1
  Ir  Ir6  1  0.329110  0.685822  0.500000  1
  Ir  Ir7  1  0.685822  0.329110  0.500000  1
  Rh  Rh8  1  0.990463  0.990463  0.000000  1
