# generated using pymatgen
data_Ho7Tm3Si5P
_symmetry_space_group_name_H-M   'P 1'
_cell_length_a   8.35465001
_cell_length_b   8.35974977
_cell_length_c   6.23902504
_cell_angle_alpha   89.98733856
_cell_angle_beta   90.00531719
_cell_angle_gamma   119.97914615
_symmetry_Int_Tables_number   1
_chemical_formula_structural   Ho7Tm3Si5P
_chemical_formula_sum   'Ho7 Tm3 Si5 P1'
_cell_volume   377.45059310
_cell_formula_units_Z   1
loop_
 _symmetry_equiv_pos_site_id
 _symmetry_equiv_pos_as_xyz
  1  'x, y, z'
loop_
 _atom_site_type_symbol
 _atom_site_label
 _atom_site_symmetry_multiplicity
 _atom_site_fract_x
 _atom_site_fract_y
 _atom_site_fract_z
 _atom_site_occupancy
  Ho  Ho0  1  0.000679  0.756531  0.749809  1
  Ho  Ho1  1  0.000888  0.244392  0.250156  1
  Ho  Ho2  1  0.756656  0.755488  0.250166  1
  Ho  Ho3  1  0.754954  0.000104  0.749857  1
  Ho  Ho4  1  0.244222  0.243361  0.749870  1
  Ho  Ho5  1  0.244030  0.000115  0.250119  1
  Ho  Ho6  1  0.333767  0.667560  0.999538  1
  Tm  Tm7  1  0.333795  0.667519  0.500345  1
  Tm  Tm8  1  0.666324  0.332546  0.999871  1
  Tm  Tm9  1  0.666280  0.332486  0.500172  1
  Si  Si10  1  0.395008  0.393841  0.250457  1
  Si  Si11  1  0.000213  0.605666  0.250498  1
  Si  Si12  1  0.999623  0.393737  0.749539  1
  Si  Si13  1  0.606300  0.605735  0.749554  1
  Si  Si14  1  0.607001  0.000492  0.250444  1
  P  P15  1  0.390258  0.000427  0.749604  1
