# generated using pymatgen
data_Pu2Zn19Au3
_symmetry_space_group_name_H-M   'P 1'
_cell_length_a   8.34900476
_cell_length_b   8.36780729
_cell_length_c   8.34451900
_cell_angle_alpha   100.10887485
_cell_angle_beta   99.77356548
_cell_angle_gamma   130.85053023
_symmetry_Int_Tables_number   1
_chemical_formula_structural   Pu2Zn19Au3
_chemical_formula_sum   'Pu2 Zn19 Au3'
_cell_volume   401.17954498
_cell_formula_units_Z   1
loop_
 _symmetry_equiv_pos_site_id
 _symmetry_equiv_pos_as_xyz
  1  'x, y, z'
loop_
 _atom_site_type_symbol
 _atom_site_label
 _atom_site_symmetry_multiplicity
 _atom_site_fract_x
 _atom_site_fract_y
 _atom_site_fract_z
 _atom_site_occupancy
  Pu  Pu0  1  0.996526  0.997414  0.994186  1
  Pu  Pu1  1  0.252526  0.753006  0.504508  1
  Zn  Zn2  1  0.834816  0.246524  0.172316  1
  Zn  Zn3  1  0.750687  0.249345  0.500681  1
  Zn  Zn4  1  0.500155  0.499800  0.999748  1
  Zn  Zn5  1  0.620212  0.370813  0.747306  1
  Zn  Zn6  1  0.126240  0.370130  0.751299  1
  Zn  Zn7  1  0.825112  0.659822  0.586273  1
  Zn  Zn8  1  0.912508  0.824965  0.326854  1
  Zn  Zn9  1  0.491159  0.574254  0.674669  1
  Zn  Zn10  1  0.073347  0.246938  0.417429  1
  Zn  Zn11  1  0.756250  0.929661  0.590190  1
  Zn  Zn12  1  0.343408  0.170254  0.416791  1
  Zn  Zn13  1  0.414572  0.502704  0.327216  1
  Zn  Zn14  1  0.181033  0.097747  0.673337  1
  Zn  Zn15  1  0.424697  0.098852  0.913326  1
  Zn  Zn16  1  0.339179  0.925723  0.173707  1
  Zn  Zn17  1  0.758514  0.175891  0.826348  1
  Zn  Zn18  1  0.177094  0.503145  0.081848  1
  Zn  Zn19  1  0.497723  0.821609  0.913695  1
  Zn  Zn20  1  0.903248  0.577687  0.083522  1
  Au  Au21  1  0.070148  0.653462  0.821356  1
  Au  Au22  1  0.624623  0.374618  0.251334  1
  Au  Au23  1  0.626227  0.875636  0.252060  1
