# generated using pymatgen
data_ReIr2Rh3W2
_symmetry_space_group_name_H-M   'P 1'
_cell_length_a   5.52949300
_cell_length_b   5.56376322
_cell_length_c   4.41142600
_cell_angle_alpha   90.00000000
_cell_angle_beta   90.00000000
_cell_angle_gamma   119.79644643
_symmetry_Int_Tables_number   1
_chemical_formula_structural   ReIr2Rh3W2
_chemical_formula_sum   'Re1 Ir2 Rh3 W2'
_cell_volume   117.77435437
_cell_formula_units_Z   1
loop_
 _symmetry_equiv_pos_site_id
 _symmetry_equiv_pos_as_xyz
  1  'x, y, z'
loop_
 _atom_site_type_symbol
 _atom_site_label
 _atom_site_symmetry_multiplicity
 _atom_site_fract_x
 _atom_site_fract_y
 _atom_site_fract_z
 _atom_site_occupancy
  Re  Re0  1  0.833991  0.667981  0.250000  1
  Ir  Ir1  1  0.168225  0.833764  0.750000  1
  Ir  Ir2  1  0.665537  0.833764  0.750000  1
  Rh  Rh3  1  0.334517  0.168699  0.250000  1
  Rh  Rh4  1  0.834182  0.168699  0.250000  1
  Rh  Rh5  1  0.165285  0.330572  0.750000  1
  W  W6  1  0.331062  0.662126  0.250000  1
  W  W7  1  0.667199  0.334397  0.750000  1
