# generated using pymatgen
data_La3Nd9(YRh3)2
_symmetry_space_group_name_H-M   'P 1'
_cell_length_a   6.37968400
_cell_length_b   10.12769143
_cell_length_c   10.12769100
_cell_angle_alpha   119.99846188
_cell_angle_beta   89.99897893
_cell_angle_gamma   90.00102178
_symmetry_Int_Tables_number   1
_chemical_formula_structural   La3Nd9(YRh3)2
_chemical_formula_sum   'La3 Nd9 Y2 Rh6'
_cell_volume   566.70550780
_cell_formula_units_Z   1
loop_
 _symmetry_equiv_pos_site_id
 _symmetry_equiv_pos_as_xyz
  1  'x, y, z'
loop_
 _atom_site_type_symbol
 _atom_site_label
 _atom_site_symmetry_multiplicity
 _atom_site_fract_x
 _atom_site_fract_y
 _atom_site_fract_z
 _atom_site_occupancy
  La  La0  1  0.254591  0.126231  0.873769  1
  La  La1  1  0.254617  0.747522  0.873764  1
  La  La2  1  0.254617  0.126236  0.252478  1
  Nd  Nd3  1  0.753155  0.874085  0.125915  1
  Nd  Nd4  1  0.753181  0.251830  0.125910  1
  Nd  Nd5  1  0.753181  0.874090  0.748170  1
  Nd  Nd6  1  0.442958  0.541647  0.458353  1
  Nd  Nd7  1  0.442839  0.916711  0.458368  1
  Nd  Nd8  1  0.442839  0.541632  0.083289  1
  Nd  Nd9  1  0.940657  0.458932  0.541068  1
  Nd  Nd10  1  0.940599  0.082164  0.541070  1
  Nd  Nd11  1  0.940599  0.458930  0.917836  1
  Y  Y12  1  0.464341  0.333336  0.666664  1
  Y  Y13  1  0.964159  0.666657  0.333343  1
  Rh  Rh14  1  0.181801  0.811103  0.188897  1
  Rh  Rh15  1  0.181877  0.377782  0.188918  1
  Rh  Rh16  1  0.181877  0.811082  0.622218  1
  Rh  Rh17  1  0.679331  0.190006  0.809994  1
  Rh  Rh18  1  0.679390  0.620006  0.809982  1
  Rh  Rh19  1  0.679390  0.190018  0.379994  1
