# generated using pymatgen
data_Y16Cd4CoRu3
_symmetry_space_group_name_H-M   'P 1'
_cell_length_a   9.66822658
_cell_length_b   9.59848531
_cell_length_c   9.66822600
_cell_angle_alpha   59.75935674
_cell_angle_beta   60.00000200
_cell_angle_gamma   59.75935407
_symmetry_Int_Tables_number   1
_chemical_formula_structural   Y16Cd4CoRu3
_chemical_formula_sum   'Y16 Cd4 Co1 Ru3'
_cell_volume   632.10908985
_cell_formula_units_Z   1
loop_
 _symmetry_equiv_pos_site_id
 _symmetry_equiv_pos_as_xyz
  1  'x, y, z'
loop_
 _atom_site_type_symbol
 _atom_site_label
 _atom_site_symmetry_multiplicity
 _atom_site_fract_x
 _atom_site_fract_y
 _atom_site_fract_z
 _atom_site_occupancy
  Y  Y0  1  0.438469  0.438185  0.061673  1
  Y  Y1  1  0.063855  0.061607  0.437269  1
  Y  Y2  1  0.437269  0.061607  0.063855  1
  Y  Y3  1  0.844285  0.850905  0.844285  1
  Y  Y4  1  0.688810  0.307123  0.315258  1
  Y  Y5  1  0.061673  0.438185  0.438469  1
  Y  Y6  1  0.311309  0.687588  0.689793  1
  Y  Y7  1  0.315258  0.307123  0.688810  1
  Y  Y8  1  0.844285  0.850905  0.460525  1
  Y  Y9  1  0.689793  0.687588  0.311309  1
  Y  Y10  1  0.460525  0.850905  0.844285  1
  Y  Y11  1  0.061673  0.438185  0.061673  1
  Y  Y12  1  0.846313  0.461061  0.846313  1
  Y  Y13  1  0.437269  0.061607  0.437269  1
  Y  Y14  1  0.311309  0.687588  0.311309  1
  Y  Y15  1  0.688810  0.307123  0.688810  1
  Cd  Cd16  1  0.080335  0.758996  0.080335  1
  Cd  Cd17  1  0.079996  0.079485  0.760523  1
  Cd  Cd18  1  0.760523  0.079485  0.079996  1
  Cd  Cd19  1  0.079996  0.079485  0.079996  1
  Co  Co20  1  0.640251  0.079245  0.640251  1
  Ru  Ru21  1  0.638794  0.642006  0.638794  1
  Ru  Ru22  1  0.638794  0.642006  0.080405  1
  Ru  Ru23  1  0.080405  0.642006  0.638794  1
