# generated using pymatgen
data_Yb4CeSm3(Pt2Pb)4
_symmetry_space_group_name_H-M   'P 1'
_cell_length_a   7.91224443
_cell_length_b   7.91224443
_cell_length_c   7.41494700
_cell_angle_alpha   90.00000000
_cell_angle_beta   90.00000000
_cell_angle_gamma   89.49304195
_symmetry_Int_Tables_number   1
_chemical_formula_structural   Yb4CeSm3(Pt2Pb)4
_chemical_formula_sum   'Yb4 Ce1 Sm3 Pt8 Pb4'
_cell_volume   464.18429359
_cell_formula_units_Z   1
loop_
 _symmetry_equiv_pos_site_id
 _symmetry_equiv_pos_as_xyz
  1  'x, y, z'
loop_
 _atom_site_type_symbol
 _atom_site_label
 _atom_site_symmetry_multiplicity
 _atom_site_fract_x
 _atom_site_fract_y
 _atom_site_fract_z
 _atom_site_occupancy
  Yb  Yb0  1  0.341705  0.339124  0.500000  1
  Yb  Yb1  1  0.660876  0.658295  0.500000  1
  Yb  Yb2  1  0.840659  0.159341  0.000000  1
  Yb  Yb3  1  0.159021  0.840979  0.000000  1
  Ce  Ce4  1  0.175855  0.824145  0.500000  1
  Sm  Sm5  1  0.676413  0.676832  0.000000  1
  Sm  Sm6  1  0.821760  0.178240  0.500000  1
  Sm  Sm7  1  0.323168  0.323587  0.000000  1
  Pt  Pt8  1  0.876040  0.869807  0.731623  1
  Pt  Pt9  1  0.130193  0.123960  0.731623  1
  Pt  Pt10  1  0.625628  0.374372  0.767165  1
  Pt  Pt11  1  0.625628  0.374372  0.232835  1
  Pt  Pt12  1  0.367131  0.632869  0.241726  1
  Pt  Pt13  1  0.130193  0.123960  0.268377  1
  Pt  Pt14  1  0.876040  0.869807  0.268377  1
  Pt  Pt15  1  0.367131  0.632869  0.758274  1
  Pb  Pb16  1  0.500441  0.999161  0.749812  1
  Pb  Pb17  1  0.500441  0.999161  0.250188  1
  Pb  Pb18  1  0.000839  0.499559  0.749812  1
  Pb  Pb19  1  0.000839  0.499559  0.250188  1
