# generated using pymatgen
data_CeDy3CoNi3Sn2
_symmetry_space_group_name_H-M   'P 1'
_cell_length_a   7.33611131
_cell_length_b   7.33611165
_cell_length_c   3.69235200
_cell_angle_alpha   90.00000000
_cell_angle_beta   90.00000000
_cell_angle_gamma   92.42976516
_symmetry_Int_Tables_number   1
_chemical_formula_structural   CeDy3CoNi3Sn2
_chemical_formula_sum   'Ce1 Dy3 Co1 Ni3 Sn2'
_cell_volume   198.53830460
_cell_formula_units_Z   1
loop_
 _symmetry_equiv_pos_site_id
 _symmetry_equiv_pos_as_xyz
  1  'x, y, z'
loop_
 _atom_site_type_symbol
 _atom_site_label
 _atom_site_symmetry_multiplicity
 _atom_site_fract_x
 _atom_site_fract_y
 _atom_site_fract_z
 _atom_site_occupancy
  Ce  Ce0  1  0.685652  0.185652  0.500000  1
  Dy  Dy1  1  0.326192  0.826192  0.500000  1
  Dy  Dy2  1  0.176032  0.326556  0.500000  1
  Dy  Dy3  1  0.826556  0.676032  0.500000  1
  Co  Co4  1  0.854654  0.354654  0.000000  1
  Ni  Ni5  1  0.110694  0.610694  0.000000  1
  Ni  Ni6  1  0.388178  0.126279  0.000000  1
  Ni  Ni7  1  0.626279  0.888178  0.000000  1
  Sn  Sn8  1  0.498607  0.507157  0.000000  1
  Sn  Sn9  1  0.007157  0.998607  0.000000  1
