# generated using pymatgen
data_ScMn(Be4Ru)2
_symmetry_space_group_name_H-M   'P 1'
_cell_length_a   4.38309400
_cell_length_b   4.38309335
_cell_length_c   7.23461700
_cell_angle_alpha   90.00000000
_cell_angle_beta   90.00000000
_cell_angle_gamma   120.00000491
_symmetry_Int_Tables_number   1
_chemical_formula_structural   ScMn(Be4Ru)2
_chemical_formula_sum   'Sc1 Mn1 Be8 Ru2'
_cell_volume   120.36706186
_cell_formula_units_Z   1
loop_
 _symmetry_equiv_pos_site_id
 _symmetry_equiv_pos_as_xyz
  1  'x, y, z'
loop_
 _atom_site_type_symbol
 _atom_site_label
 _atom_site_symmetry_multiplicity
 _atom_site_fract_x
 _atom_site_fract_y
 _atom_site_fract_z
 _atom_site_occupancy
  Sc  Sc0  1  0.666667  0.333333  0.936721  1
  Mn  Mn1  1  0.333333  0.666667  0.432045  1
  Be  Be2  1  0.000000  0.000000  0.005629  1
  Be  Be3  1  0.000000  0.000000  0.500478  1
  Be  Be4  1  0.833049  0.666097  0.259808  1
  Be  Be5  1  0.169415  0.830585  0.736678  1
  Be  Be6  1  0.661170  0.830585  0.736678  1
  Be  Be7  1  0.333903  0.166951  0.259808  1
  Be  Be8  1  0.833049  0.166951  0.259808  1
  Be  Be9  1  0.169415  0.338830  0.736678  1
  Ru  Ru10  1  0.333333  0.666667  0.077350  1
  Ru  Ru11  1  0.666667  0.333333  0.558319  1
