# generated using pymatgen
data_Pr3Er2Bi3O14
_symmetry_space_group_name_H-M   'P 1'
_cell_length_a   6.68347287
_cell_length_b   6.75325168
_cell_length_c   7.85308307
_cell_angle_alpha   106.68756004
_cell_angle_beta   89.70902009
_cell_angle_gamma   98.81610722
_symmetry_Int_Tables_number   1
_chemical_formula_structural   Pr3Er2Bi3O14
_chemical_formula_sum   'Pr3 Er2 Bi3 O14'
_cell_volume   335.22731012
_cell_formula_units_Z   1
loop_
 _symmetry_equiv_pos_site_id
 _symmetry_equiv_pos_as_xyz
  1  'x, y, z'
loop_
 _atom_site_type_symbol
 _atom_site_label
 _atom_site_symmetry_multiplicity
 _atom_site_fract_x
 _atom_site_fract_y
 _atom_site_fract_z
 _atom_site_occupancy
  Pr  Pr0  1  0.269564  0.538164  0.883115  1
  Pr  Pr1  1  0.738973  0.456767  0.114461  1
  Pr  Pr2  1  0.749067  0.478784  0.616821  1
  Er  Er3  1  0.460482  0.008555  0.256057  1
  Er  Er4  1  0.536266  0.998506  0.746964  1
  Bi  Bi5  1  0.995810  0.998543  0.499771  1
  Bi  Bi6  1  0.999526  0.997711  0.998576  1
  Bi  Bi7  1  0.284750  0.539940  0.389124  1
  O  O8  1  0.448909  0.663020  0.176826  1
  O  O9  1  0.553629  0.341752  0.831308  1
  O  O10  1  0.303594  0.934241  0.950628  1
  O  O11  1  0.696227  0.062194  0.051040  1
  O  O12  1  0.299149  0.935516  0.517681  1
  O  O13  1  0.698146  0.074122  0.484832  1
  O  O14  1  0.535590  0.352772  0.341323  1
  O  O15  1  0.461749  0.651427  0.653411  1
  O  O16  1  0.925780  0.665434  0.940812  1
  O  O17  1  0.069988  0.324125  0.040881  1
  O  O18  1  0.071544  0.330932  0.620207  1
  O  O19  1  0.910222  0.667310  0.390655  1
  O  O20  1  0.870537  0.924499  0.731522  1
  O  O21  1  0.120499  0.055686  0.263984  1
