# generated using pymatgen
data_GeMo(SeO3)4
_symmetry_space_group_name_H-M   'P 1'
_cell_length_a   7.11558071
_cell_length_b   5.27177425
_cell_length_c   9.28641526
_cell_angle_alpha   55.62566088
_cell_angle_beta   89.58825010
_cell_angle_gamma   89.31080313
_symmetry_Int_Tables_number   1
_chemical_formula_structural   GeMo(SeO3)4
_chemical_formula_sum   'Ge1 Mo1 Se4 O12'
_cell_volume   287.49519692
_cell_formula_units_Z   1
loop_
 _symmetry_equiv_pos_site_id
 _symmetry_equiv_pos_as_xyz
  1  'x, y, z'
loop_
 _atom_site_type_symbol
 _atom_site_label
 _atom_site_symmetry_multiplicity
 _atom_site_fract_x
 _atom_site_fract_y
 _atom_site_fract_z
 _atom_site_occupancy
  Ge  Ge0  1  0.500000  0.000000  0.500000  1
  Mo  Mo1  1  0.000000  0.000000  0.000000  1
  Se  Se2  1  0.813587  0.301938  0.209861  1
  Se  Se3  1  0.667235  0.321265  0.687784  1
  Se  Se4  1  0.186413  0.698062  0.790139  1
  Se  Se5  1  0.332765  0.678735  0.312216  1
  O  O6  1  0.828236  0.291689  0.027712  1
  O  O7  1  0.660401  0.281872  0.511449  1
  O  O8  1  0.171764  0.708311  0.972288  1
  O  O9  1  0.339599  0.718128  0.488551  1
  O  O10  1  0.577192  0.197268  0.262290  1
  O  O11  1  0.896560  0.192702  0.751707  1
  O  O12  1  0.422808  0.802732  0.737710  1
  O  O13  1  0.103440  0.807298  0.248293  1
  O  O14  1  0.782700  0.698918  0.098998  1
  O  O15  1  0.711102  0.713880  0.574041  1
  O  O16  1  0.217300  0.301082  0.901002  1
  O  O17  1  0.288898  0.286120  0.425959  1
