# generated using pymatgen
data_NaY6RhI12
_symmetry_space_group_name_H-M   'P 1'
_cell_length_a   9.80693398
_cell_length_b   9.80693366
_cell_length_c   9.80693413
_cell_angle_alpha   107.01691167
_cell_angle_beta   107.01690935
_cell_angle_gamma   107.01690855
_symmetry_Int_Tables_number   1
_chemical_formula_structural   NaY6RhI12
_chemical_formula_sum   'Na1 Y6 Rh1 I12'
_cell_volume   785.13605391
_cell_formula_units_Z   1
loop_
 _symmetry_equiv_pos_site_id
 _symmetry_equiv_pos_as_xyz
  1  'x, y, z'
loop_
 _atom_site_type_symbol
 _atom_site_label
 _atom_site_symmetry_multiplicity
 _atom_site_fract_x
 _atom_site_fract_y
 _atom_site_fract_z
 _atom_site_occupancy
  Na  Na0  1  0.500000  0.500000  0.500000  1
  Y  Y1  1  0.899795  0.971752  0.695890  1
  Y  Y2  1  0.971752  0.695890  0.899795  1
  Y  Y3  1  0.695890  0.899795  0.971752  1
  Y  Y4  1  0.100205  0.028248  0.304110  1
  Y  Y5  1  0.028248  0.304110  0.100205  1
  Y  Y6  1  0.304110  0.100205  0.028248  1
  Rh  Rh7  1  0.000000  0.000000  0.000000  1
  I  I8  1  0.548298  0.857493  0.627195  1
  I  I9  1  0.857493  0.627195  0.548298  1
  I  I10  1  0.627195  0.548298  0.857493  1
  I  I11  1  0.451702  0.142507  0.372805  1
  I  I12  1  0.142507  0.372805  0.451702  1
  I  I13  1  0.372805  0.451702  0.142507  1
  I  I14  1  0.679705  0.223576  0.073035  1
  I  I15  1  0.223576  0.073035  0.679705  1
  I  I16  1  0.073035  0.679705  0.223576  1
  I  I17  1  0.320295  0.776424  0.926965  1
  I  I18  1  0.776424  0.926965  0.320295  1
  I  I19  1  0.926965  0.320295  0.776424  1
