# generated using pymatgen
data_Ca2NdHoV4O12
_symmetry_space_group_name_H-M   'P 1'
_cell_length_a   5.40235201
_cell_length_b   7.73801801
_cell_length_c   5.56850546
_cell_angle_alpha   90.34118942
_cell_angle_beta   90.17135123
_cell_angle_gamma   90.12653724
_symmetry_Int_Tables_number   1
_chemical_formula_structural   Ca2NdHoV4O12
_chemical_formula_sum   'Ca2 Nd1 Ho1 V4 O12'
_cell_volume   232.77725697
_cell_formula_units_Z   1
loop_
 _symmetry_equiv_pos_site_id
 _symmetry_equiv_pos_as_xyz
  1  'x, y, z'
loop_
 _atom_site_type_symbol
 _atom_site_label
 _atom_site_symmetry_multiplicity
 _atom_site_fract_x
 _atom_site_fract_y
 _atom_site_fract_z
 _atom_site_occupancy
  Ca  Ca0  1  0.511632  0.250734  0.552092  1
  Ca  Ca1  1  0.993157  0.249406  0.046671  1
  Nd  Nd2  1  0.485781  0.751892  0.445645  1
  Ho  Ho3  1  0.011750  0.747829  0.937998  1
  V  V4  1  0.501943  0.495506  0.996865  1
  V  V5  1  0.994571  0.494929  0.497264  1
  V  V6  1  0.994725  0.006648  0.501928  1
  V  V7  1  0.501144  0.005415  0.001178  1
  O  O8  1  0.910493  0.749259  0.535985  1
  O  O9  1  0.602542  0.751005  0.020958  1
  O  O10  1  0.091313  0.249116  0.467707  1
  O  O11  1  0.416628  0.250094  0.972098  1
  O  O12  1  0.807448  0.459487  0.799174  1
  O  O13  1  0.697502  0.042831  0.303408  1
  O  O14  1  0.279014  0.549097  0.697750  1
  O  O15  1  0.185376  0.943965  0.214448  1
  O  O16  1  0.201150  0.557458  0.200480  1
  O  O17  1  0.287028  0.945167  0.713109  1
  O  O18  1  0.713814  0.460769  0.309586  1
  O  O19  1  0.812987  0.039402  0.785660  1
