# generated using pymatgen
data_Dy2Ho8Sn5Sb
_symmetry_space_group_name_H-M   'P 1'
_cell_length_a   8.94878012
_cell_length_b   8.94003238
_cell_length_c   6.48083800
_cell_angle_alpha   90.00000000
_cell_angle_beta   90.00000000
_cell_angle_gamma   120.01335304
_symmetry_Int_Tables_number   1
_chemical_formula_structural   Dy2Ho8Sn5Sb
_chemical_formula_sum   'Dy2 Ho8 Sn5 Sb1'
_cell_volume   448.95857863
_cell_formula_units_Z   1
loop_
 _symmetry_equiv_pos_site_id
 _symmetry_equiv_pos_as_xyz
  1  'x, y, z'
loop_
 _atom_site_type_symbol
 _atom_site_label
 _atom_site_symmetry_multiplicity
 _atom_site_fract_x
 _atom_site_fract_y
 _atom_site_fract_z
 _atom_site_occupancy
  Dy  Dy0  1  0.998031  0.760066  0.750000  1
  Dy  Dy1  1  0.761903  0.000034  0.750000  1
  Ho  Ho2  1  0.000732  0.238991  0.250000  1
  Ho  Ho3  1  0.761680  0.760976  0.250000  1
  Ho  Ho4  1  0.237996  0.240027  0.750000  1
  Ho  Ho5  1  0.239029  0.000028  0.250000  1
  Ho  Ho6  1  0.333142  0.665663  0.499779  1
  Ho  Ho7  1  0.667448  0.334313  0.000221  1
  Ho  Ho8  1  0.667448  0.334313  0.499779  1
  Ho  Ho9  1  0.333142  0.665663  0.000221  1
  Sn  Sn10  1  0.395577  0.394772  0.250000  1
  Sn  Sn11  1  0.000802  0.605225  0.250000  1
  Sn  Sn12  1  0.999912  0.395564  0.750000  1
  Sn  Sn13  1  0.604093  0.604264  0.750000  1
  Sn  Sn14  1  0.605413  0.000001  0.250000  1
  Sb  Sb15  1  0.393652  0.000099  0.750000  1
