# generated using pymatgen
data_Nd3ErScPt3O14
_symmetry_space_group_name_H-M   'P 1'
_cell_length_a   7.38407565
_cell_length_b   7.43865960
_cell_length_c   7.38407600
_cell_angle_alpha   60.24243797
_cell_angle_beta   59.99999845
_cell_angle_gamma   60.24244616
_symmetry_Int_Tables_number   1
_chemical_formula_structural   Nd3ErScPt3O14
_chemical_formula_sum   'Nd3 Er1 Sc1 Pt3 O14'
_cell_volume   287.84174086
_cell_formula_units_Z   1
loop_
 _symmetry_equiv_pos_site_id
 _symmetry_equiv_pos_as_xyz
  1  'x, y, z'
loop_
 _atom_site_type_symbol
 _atom_site_label
 _atom_site_symmetry_multiplicity
 _atom_site_fract_x
 _atom_site_fract_y
 _atom_site_fract_z
 _atom_site_occupancy
  Nd  Nd0  1  0.625000  0.625000  0.125000  1
  Nd  Nd1  1  0.125000  0.625000  0.625000  1
  Nd  Nd2  1  0.625000  0.625000  0.625000  1
  Er  Er3  1  0.625000  0.125000  0.625000  1
  Sc  Sc4  1  0.125000  0.625000  0.125000  1
  Pt  Pt5  1  0.125000  0.125000  0.625000  1
  Pt  Pt6  1  0.625000  0.125000  0.125000  1
  Pt  Pt7  1  0.125000  0.125000  0.125000  1
  O  O8  1  0.506665  0.480004  0.506665  1
  O  O9  1  0.743335  0.769996  0.743335  1
  O  O10  1  0.458476  0.055123  0.458476  1
  O  O11  1  0.214148  0.793961  0.214148  1
  O  O12  1  0.472257  0.456039  0.035852  1
  O  O13  1  0.035852  0.456039  0.472257  1
  O  O14  1  0.458476  0.055123  0.027925  1
  O  O15  1  0.027925  0.055123  0.458476  1
  O  O16  1  0.035852  0.456039  0.035852  1
  O  O17  1  0.791524  0.194877  0.222075  1
  O  O18  1  0.214148  0.793961  0.777743  1
  O  O19  1  0.791524  0.194877  0.791524  1
  O  O20  1  0.222075  0.194877  0.791524  1
  O  O21  1  0.777743  0.793961  0.214148  1
