# generated using pymatgen
data_Sm7SiBr12
_symmetry_space_group_name_H-M   'P 1'
_cell_length_a   9.35494779
_cell_length_b   9.35494659
_cell_length_c   9.35494658
_cell_angle_alpha   107.60670793
_cell_angle_beta   107.60670249
_cell_angle_gamma   107.60669582
_symmetry_Int_Tables_number   1
_chemical_formula_structural   Sm7SiBr12
_chemical_formula_sum   'Sm7 Si1 Br12'
_cell_volume   670.21559550
_cell_formula_units_Z   1
loop_
 _symmetry_equiv_pos_site_id
 _symmetry_equiv_pos_as_xyz
  1  'x, y, z'
loop_
 _atom_site_type_symbol
 _atom_site_label
 _atom_site_symmetry_multiplicity
 _atom_site_fract_x
 _atom_site_fract_y
 _atom_site_fract_z
 _atom_site_occupancy
  Sm  Sm0  1  0.968768  0.892699  0.678682  1
  Sm  Sm1  1  0.031232  0.107301  0.321318  1
  Sm  Sm2  1  0.107301  0.321318  0.031232  1
  Sm  Sm3  1  0.321318  0.031232  0.107301  1
  Sm  Sm4  1  0.500000  0.500000  0.500000  1
  Sm  Sm5  1  0.892699  0.678682  0.968768  1
  Sm  Sm6  1  0.678682  0.968768  0.892699  1
  Si  Si7  1  0.000000  0.000000  0.000000  1
  Br  Br8  1  0.532427  0.612944  0.840049  1
  Br  Br9  1  0.467573  0.387056  0.159951  1
  Br  Br10  1  0.313656  0.925479  0.773272  1
  Br  Br11  1  0.387056  0.159951  0.467573  1
  Br  Br12  1  0.925479  0.773272  0.313656  1
  Br  Br13  1  0.686344  0.074521  0.226728  1
  Br  Br14  1  0.074521  0.226728  0.686344  1
  Br  Br15  1  0.773272  0.313656  0.925479  1
  Br  Br16  1  0.226728  0.686344  0.074521  1
  Br  Br17  1  0.840049  0.532427  0.612944  1
  Br  Br18  1  0.159951  0.467573  0.387056  1
  Br  Br19  1  0.612944  0.840049  0.532427  1
