# generated using pymatgen
data_Nd20IrRh11
_symmetry_space_group_name_H-M   'P 1'
_cell_length_a   11.27700451
_cell_length_b   11.27700451
_cell_length_c   6.58902847
_cell_angle_alpha   89.96947603
_cell_angle_beta   89.96947603
_cell_angle_gamma   90.15342484
_symmetry_Int_Tables_number   1
_chemical_formula_structural   Nd20IrRh11
_chemical_formula_sum   'Nd20 Ir1 Rh11'
_cell_volume   837.92898111
_cell_formula_units_Z   1
loop_
 _symmetry_equiv_pos_site_id
 _symmetry_equiv_pos_as_xyz
  1  'x, y, z'
loop_
 _atom_site_type_symbol
 _atom_site_label
 _atom_site_symmetry_multiplicity
 _atom_site_fract_x
 _atom_site_fract_y
 _atom_site_fract_z
 _atom_site_occupancy
  Nd  Nd0  1  0.090780  0.291282  0.117050  1
  Nd  Nd1  1  0.790609  0.408816  0.115828  1
  Nd  Nd2  1  0.208481  0.590728  0.116587  1
  Nd  Nd3  1  0.909265  0.708560  0.117207  1
  Nd  Nd4  1  0.409272  0.791519  0.383413  1
  Nd  Nd5  1  0.591184  0.209391  0.384172  1
  Nd  Nd6  1  0.291440  0.090735  0.382793  1
  Nd  Nd7  1  0.708718  0.909220  0.382950  1
  Nd  Nd8  1  0.410783  0.209326  0.882500  1
  Nd  Nd9  1  0.708232  0.092324  0.882866  1
  Nd  Nd10  1  0.291552  0.909394  0.882762  1
  Nd  Nd11  1  0.590816  0.791522  0.882801  1
  Nd  Nd12  1  0.090606  0.708448  0.617238  1
  Nd  Nd13  1  0.907676  0.291768  0.617134  1
  Nd  Nd14  1  0.208478  0.409184  0.617199  1
  Nd  Nd15  1  0.790674  0.589217  0.617500  1
  Nd  Nd16  1  0.999929  0.999890  0.999763  1
  Nd  Nd17  1  0.500300  0.499999  0.000370  1
  Nd  Nd18  1  0.500001  0.499700  0.499630  1
  Nd  Nd19  1  0.000110  0.000071  0.500237  1
  Ir  Ir20  1  0.653988  0.346012  0.750000  1
  Rh  Rh21  1  0.154095  0.845905  0.250000  1
  Rh  Rh22  1  0.345225  0.345507  0.250222  1
  Rh  Rh23  1  0.654493  0.654775  0.249778  1
  Rh  Rh24  1  0.846508  0.153492  0.250000  1
  Rh  Rh25  1  0.345942  0.654058  0.750000  1
  Rh  Rh26  1  0.154094  0.153951  0.749999  1
  Rh  Rh27  1  0.846049  0.845906  0.750001  1
  Rh  Rh28  1  0.000508  0.500361  0.377828  1
  Rh  Rh29  1  0.499639  0.999492  0.122172  1
  Rh  Rh30  1  0.499615  0.999061  0.622024  1
  Rh  Rh31  1  0.000939  0.500385  0.877976  1
