# generated using pymatgen
data_Sm6GaGeI6
_symmetry_space_group_name_H-M   'P 1'
_cell_length_a   10.73204269
_cell_length_b   10.73204046
_cell_length_c   10.71311563
_cell_angle_alpha   109.50381826
_cell_angle_beta   109.50377791
_cell_angle_gamma   109.47760319
_symmetry_Int_Tables_number   1
_chemical_formula_structural   Sm6GaGeI6
_chemical_formula_sum   'Sm12 Ga2 Ge2 I12'
_cell_volume   949.01822750
_cell_formula_units_Z   2
loop_
 _symmetry_equiv_pos_site_id
 _symmetry_equiv_pos_as_xyz
  1  'x, y, z'
loop_
 _atom_site_type_symbol
 _atom_site_label
 _atom_site_symmetry_multiplicity
 _atom_site_fract_x
 _atom_site_fract_y
 _atom_site_fract_z
 _atom_site_occupancy
  Sm  Sm0  1  0.466622  0.483417  0.232992  1
  Sm  Sm1  1  0.750428  0.233634  0.267009  1
  Sm  Sm2  1  0.750889  0.016789  0.484551  1
  Sm  Sm3  1  0.233662  0.467762  0.484551  1
  Sm  Sm4  1  0.266369  0.749574  0.232992  1
  Sm  Sm5  1  0.032239  0.266338  0.015450  1
  Sm  Sm6  1  0.016580  0.033373  0.267006  1
  Sm  Sm7  1  0.483212  0.749112  0.015449  1
  Sm  Sm8  1  0.484029  0.234030  0.468058  1
  Sm  Sm9  1  0.016725  0.483272  0.749998  1
  Sm  Sm10  1  0.265971  0.015971  0.031943  1
  Sm  Sm11  1  0.233273  0.266724  0.749997  1
  Ga  Ga12  1  0.250185  0.249812  0.250000  1
  Ga  Ga13  1  0.499814  0.000188  0.250001  1
  Ge  Ge14  1  0.999784  0.249782  0.499564  1
  Ge  Ge15  1  0.250217  0.500217  0.000435  1
  I  I16  1  0.249667  0.756549  0.742541  1
  I  I17  1  0.514009  0.507127  0.757460  1
  I  I18  1  0.985066  0.741867  0.992294  1
  I  I19  1  0.743450  0.250334  0.757460  1
  I  I20  1  0.992875  0.985990  0.742540  1
  I  I21  1  0.249573  0.992772  0.507705  1
  I  I22  1  0.758134  0.514935  0.507706  1
  I  I23  1  0.507228  0.250427  0.992295  1
  I  I24  1  0.757256  0.742743  0.250000  1
  I  I25  1  0.742948  0.992948  0.985896  1
  I  I26  1  0.992745  0.507258  0.250001  1
  I  I27  1  0.507052  0.757053  0.514105  1
