# generated using pymatgen
data_Nd2Cd2Si2Pd3Pt
_symmetry_space_group_name_H-M   'P 1'
_cell_length_a   4.25117900
_cell_length_b   4.25117900
_cell_length_c   11.11665400
_cell_angle_alpha   90.00000000
_cell_angle_beta   90.00000000
_cell_angle_gamma   90.00000000
_symmetry_Int_Tables_number   1
_chemical_formula_structural   Nd2Cd2Si2Pd3Pt
_chemical_formula_sum   'Nd2 Cd2 Si2 Pd3 Pt1'
_cell_volume   200.90598388
_cell_formula_units_Z   1
loop_
 _symmetry_equiv_pos_site_id
 _symmetry_equiv_pos_as_xyz
  1  'x, y, z'
loop_
 _atom_site_type_symbol
 _atom_site_label
 _atom_site_symmetry_multiplicity
 _atom_site_fract_x
 _atom_site_fract_y
 _atom_site_fract_z
 _atom_site_occupancy
  Nd  Nd0  1  0.000000  0.500000  0.232734  1
  Nd  Nd1  1  0.500000  0.000000  0.770332  1
  Cd  Cd2  1  0.000000  0.000000  0.500318  1
  Cd  Cd3  1  0.500000  0.500000  0.500318  1
  Si  Si4  1  0.000000  0.500000  0.886292  1
  Si  Si5  1  0.500000  0.000000  0.112723  1
  Pd  Pd6  1  0.000000  0.000000  0.000145  1
  Pd  Pd7  1  0.500000  0.500000  0.000145  1
  Pd  Pd8  1  0.000000  0.500000  0.672177  1
  Pt  Pt9  1  0.500000  0.000000  0.324816  1
