# generated using pymatgen
data_Y2Tm2MnRu7
_symmetry_space_group_name_H-M   'P 1'
_cell_length_a   5.33053579
_cell_length_b   5.33488668
_cell_length_c   8.64538700
_cell_angle_alpha   89.99999763
_cell_angle_beta   89.97023749
_cell_angle_gamma   59.97296777
_symmetry_Int_Tables_number   1
_chemical_formula_structural   Y2Tm2MnRu7
_chemical_formula_sum   'Y2 Tm2 Mn1 Ru7'
_cell_volume   212.85933022
_cell_formula_units_Z   1
loop_
 _symmetry_equiv_pos_site_id
 _symmetry_equiv_pos_as_xyz
  1  'x, y, z'
loop_
 _atom_site_type_symbol
 _atom_site_label
 _atom_site_symmetry_multiplicity
 _atom_site_fract_x
 _atom_site_fract_y
 _atom_site_fract_z
 _atom_site_occupancy
  Y  Y0  1  0.333389  0.333305  0.565177  1
  Y  Y1  1  0.666611  0.666695  0.434823  1
  Tm  Tm2  1  0.666559  0.666720  0.067004  1
  Tm  Tm3  1  0.333441  0.333280  0.932996  1
  Mn  Mn4  1  0.000000  0.000000  0.000000  1
  Ru  Ru5  1  0.000000  0.000000  0.500000  1
  Ru  Ru6  1  0.828793  0.342538  0.755423  1
  Ru  Ru7  1  0.342583  0.828708  0.755409  1
  Ru  Ru8  1  0.828793  0.828667  0.755423  1
  Ru  Ru9  1  0.171207  0.657462  0.244577  1
  Ru  Ru10  1  0.657417  0.171292  0.244591  1
  Ru  Ru11  1  0.171207  0.171333  0.244577  1
