# generated using pymatgen
data_Ce4CuSn2IrPd2
_symmetry_space_group_name_H-M   'P 1'
_cell_length_a   7.73215659
_cell_length_b   7.73215607
_cell_length_c   3.80752400
_cell_angle_alpha   90.00000000
_cell_angle_beta   90.00000000
_cell_angle_gamma   90.26069411
_symmetry_Int_Tables_number   1
_chemical_formula_structural   Ce4CuSn2IrPd2
_chemical_formula_sum   'Ce4 Cu1 Sn2 Ir1 Pd2'
_cell_volume   227.63519303
_cell_formula_units_Z   1
loop_
 _symmetry_equiv_pos_site_id
 _symmetry_equiv_pos_as_xyz
  1  'x, y, z'
loop_
 _atom_site_type_symbol
 _atom_site_label
 _atom_site_symmetry_multiplicity
 _atom_site_fract_x
 _atom_site_fract_y
 _atom_site_fract_z
 _atom_site_occupancy
  Ce  Ce0  1  0.674620  0.174620  0.500000  1
  Ce  Ce1  1  0.315065  0.815065  0.500000  1
  Ce  Ce2  1  0.178869  0.334880  0.500000  1
  Ce  Ce3  1  0.834880  0.678869  0.500000  1
  Cu  Cu4  1  0.874135  0.374135  0.000000  1
  Sn  Sn5  1  0.000277  0.004773  0.000000  1
  Sn  Sn6  1  0.504773  0.500277  0.000000  1
  Ir  Ir7  1  0.119032  0.619032  0.000000  1
  Pd  Pd8  1  0.627825  0.870523  0.000000  1
  Pd  Pd9  1  0.370523  0.127825  0.000000  1
