# generated using pymatgen
data_Tb3Tm(ZnIn)4
_symmetry_space_group_name_H-M   'P 1'
_cell_length_a   4.62568900
_cell_length_b   7.14158307
_cell_length_c   7.98774000
_cell_angle_alpha   89.99176857
_cell_angle_beta   90.00000000
_cell_angle_gamma   90.00000000
_symmetry_Int_Tables_number   1
_chemical_formula_structural   Tb3Tm(ZnIn)4
_chemical_formula_sum   'Tb3 Tm1 Zn4 In4'
_cell_volume   263.87292947
_cell_formula_units_Z   1
loop_
 _symmetry_equiv_pos_site_id
 _symmetry_equiv_pos_as_xyz
  1  'x, y, z'
loop_
 _atom_site_type_symbol
 _atom_site_label
 _atom_site_symmetry_multiplicity
 _atom_site_fract_x
 _atom_site_fract_y
 _atom_site_fract_z
 _atom_site_occupancy
  Tb  Tb0  1  0.750000  0.509356  0.750072  1
  Tb  Tb1  1  0.750000  0.009391  0.750063  1
  Tb  Tb2  1  0.250000  0.009641  0.250575  1
  Tm  Tm3  1  0.250000  0.510261  0.249330  1
  Zn  Zn4  1  0.250000  0.705387  0.582352  1
  Zn  Zn5  1  0.750000  0.207212  0.416453  1
  Zn  Zn6  1  0.750000  0.704727  0.084427  1
  Zn  Zn7  1  0.250000  0.206569  0.916659  1
  In  In8  1  0.250000  0.783821  0.917087  1
  In  In9  1  0.750000  0.286035  0.084689  1
  In  In10  1  0.750000  0.782412  0.415910  1
  In  In11  1  0.250000  0.285187  0.582382  1
