# generated using pymatgen
data_EuHo2Er3(SbO7)2
_symmetry_space_group_name_H-M   'P 1'
_cell_length_a   6.44596875
_cell_length_b   6.44275081
_cell_length_c   7.51709343
_cell_angle_alpha   90.14156549
_cell_angle_beta   89.85803790
_cell_angle_gamma   109.07022078
_symmetry_Int_Tables_number   1
_chemical_formula_structural   EuHo2Er3(SbO7)2
_chemical_formula_sum   'Eu1 Ho2 Er3 Sb2 O14'
_cell_volume   295.04883295
_cell_formula_units_Z   1
loop_
 _symmetry_equiv_pos_site_id
 _symmetry_equiv_pos_as_xyz
  1  'x, y, z'
loop_
 _atom_site_type_symbol
 _atom_site_label
 _atom_site_symmetry_multiplicity
 _atom_site_fract_x
 _atom_site_fract_y
 _atom_site_fract_z
 _atom_site_occupancy
  Eu  Eu0  1  0.499787  0.499722  0.000175  1
  Ho  Ho1  1  0.499419  0.499268  0.499766  1
  Ho  Ho2  1  0.531405  0.000126  0.748614  1
  Er  Er3  1  0.000251  0.531334  0.251461  1
  Er  Er4  1  0.468592  0.999425  0.251422  1
  Er  Er5  1  0.999596  0.468794  0.748576  1
  Sb  Sb6  1  0.999789  0.999959  0.499732  1
  Sb  Sb7  1  0.999872  0.000079  0.000225  1
  O  O8  1  0.677282  0.927537  0.469173  1
  O  O9  1  0.928957  0.677474  0.530360  1
  O  O10  1  0.677769  0.932186  0.031532  1
  O  O11  1  0.933277  0.677922  0.969001  1
  O  O12  1  0.322951  0.073011  0.529343  1
  O  O13  1  0.071313  0.322777  0.469610  1
  O  O14  1  0.322530  0.068433  0.970029  1
  O  O15  1  0.067000  0.322463  0.031028  1
  O  O16  1  0.929063  0.072130  0.750042  1
  O  O17  1  0.071833  0.927795  0.249855  1
  O  O18  1  0.365832  0.632044  0.742240  1
  O  O19  1  0.633646  0.366507  0.257761  1
  O  O20  1  0.639508  0.361874  0.744151  1
  O  O21  1  0.360328  0.639140  0.255905  1
