# generated using pymatgen
data_LaEu3Zr3SbO14
_symmetry_space_group_name_H-M   'P 1'
_cell_length_a   7.63663006
_cell_length_b   7.60271978
_cell_length_c   7.60272000
_cell_angle_alpha   59.99999904
_cell_angle_beta   60.14678047
_cell_angle_gamma   60.14678028
_symmetry_Int_Tables_number   1
_chemical_formula_structural   LaEu3Zr3SbO14
_chemical_formula_sum   'La1 Eu3 Zr3 Sb1 O14'
_cell_volume   312.81293004
_cell_formula_units_Z   1
loop_
 _symmetry_equiv_pos_site_id
 _symmetry_equiv_pos_as_xyz
  1  'x, y, z'
loop_
 _atom_site_type_symbol
 _atom_site_label
 _atom_site_symmetry_multiplicity
 _atom_site_fract_x
 _atom_site_fract_y
 _atom_site_fract_z
 _atom_site_occupancy
  La  La0  1  0.125000  0.625000  0.625000  1
  Eu  Eu1  1  0.625000  0.125000  0.625000  1
  Eu  Eu2  1  0.625000  0.625000  0.125000  1
  Eu  Eu3  1  0.625000  0.625000  0.625000  1
  Zr  Zr4  1  0.125000  0.125000  0.125000  1
  Zr  Zr5  1  0.125000  0.125000  0.625000  1
  Zr  Zr6  1  0.125000  0.625000  0.125000  1
  Sb  Sb7  1  0.625000  0.125000  0.125000  1
  O  O8  1  0.217436  0.789581  0.789581  1
  O  O9  1  0.792333  0.808794  0.199436  1
  O  O10  1  0.792333  0.199436  0.808794  1
  O  O11  1  0.217436  0.789581  0.203401  1
  O  O12  1  0.217436  0.203401  0.789581  1
  O  O13  1  0.792333  0.199436  0.199436  1
  O  O14  1  0.457667  0.050564  0.050564  1
  O  O15  1  0.032564  0.046599  0.460419  1
  O  O16  1  0.032564  0.460419  0.046599  1
  O  O17  1  0.457667  0.050564  0.441206  1
  O  O18  1  0.743406  0.752198  0.752198  1
  O  O19  1  0.457667  0.441206  0.050564  1
  O  O20  1  0.032564  0.460419  0.460419  1
  O  O21  1  0.506594  0.497802  0.497802  1
