# generated using pymatgen
data_Ac2LaNi2Sn7
_symmetry_space_group_name_H-M   'P 1'
_cell_length_a   14.13354450
_cell_length_b   14.13354479
_cell_length_c   4.65901200
_cell_angle_alpha   90.00000000
_cell_angle_beta   90.00000000
_cell_angle_gamma   160.23955635
_symmetry_Int_Tables_number   1
_chemical_formula_structural   Ac2LaNi2Sn7
_chemical_formula_sum   'Ac2 La1 Ni2 Sn7'
_cell_volume   314.64882733
_cell_formula_units_Z   1
loop_
 _symmetry_equiv_pos_site_id
 _symmetry_equiv_pos_as_xyz
  1  'x, y, z'
loop_
 _atom_site_type_symbol
 _atom_site_label
 _atom_site_symmetry_multiplicity
 _atom_site_fract_x
 _atom_site_fract_y
 _atom_site_fract_z
 _atom_site_occupancy
  Ac  Ac0  1  0.183910  0.816090  0.000000  1
  Ac  Ac1  1  0.816090  0.183910  0.000000  1
  La  La2  1  0.500000  0.500000  0.500000  1
  Ni  Ni3  1  0.373108  0.626892  0.500000  1
  Ni  Ni4  1  0.626892  0.373108  0.500000  1
  Sn  Sn5  1  0.087725  0.912275  0.500000  1
  Sn  Sn6  1  0.912275  0.087725  0.500000  1
  Sn  Sn7  1  0.280301  0.719699  0.500000  1
  Sn  Sn8  1  0.719699  0.280301  0.500000  1
  Sn  Sn9  1  0.000000  0.000000  0.000000  1
  Sn  Sn10  1  0.586786  0.413214  0.000000  1
  Sn  Sn11  1  0.413214  0.586786  0.000000  1
