# generated using pymatgen
data_Lu7Zr(Si4Tc3)4
_symmetry_space_group_name_H-M   'P 1'
_cell_length_a   6.72404400
_cell_length_b   6.72148189
_cell_length_c   12.58716490
_cell_angle_alpha   90.09090805
_cell_angle_beta   90.14285428
_cell_angle_gamma   90.24041056
_symmetry_Int_Tables_number   1
_chemical_formula_structural   Lu7Zr(Si4Tc3)4
_chemical_formula_sum   'Lu7 Zr1 Si16 Tc12'
_cell_volume   568.87621261
_cell_formula_units_Z   1
loop_
 _symmetry_equiv_pos_site_id
 _symmetry_equiv_pos_as_xyz
  1  'x, y, z'
loop_
 _atom_site_type_symbol
 _atom_site_label
 _atom_site_symmetry_multiplicity
 _atom_site_fract_x
 _atom_site_fract_y
 _atom_site_fract_z
 _atom_site_occupancy
  Lu  Lu0  1  0.004483  0.659359  0.030271  1
  Lu  Lu1  1  0.997212  0.338435  0.530063  1
  Lu  Lu2  1  0.659632  0.004120  0.969644  1
  Lu  Lu3  1  0.161135  0.490564  0.780386  1
  Lu  Lu4  1  0.839478  0.508096  0.281982  1
  Lu  Lu5  1  0.492663  0.162044  0.218925  1
  Lu  Lu6  1  0.507668  0.837998  0.719202  1
  Zr  Zr7  1  0.342368  0.989360  0.465965  1
  Si  Si8  1  0.024718  0.730289  0.439497  1
  Si  Si9  1  0.977843  0.270080  0.937927  1
  Si  Si10  1  0.726793  0.023818  0.562492  1
  Si  Si11  1  0.223132  0.478928  0.188309  1
  Si  Si12  1  0.779612  0.522943  0.686698  1
  Si  Si13  1  0.476185  0.219797  0.812432  1
  Si  Si14  1  0.523625  0.777726  0.312316  1
  Si  Si15  1  0.270166  0.978855  0.061741  1
  Si  Si16  1  0.883254  0.803504  0.816199  1
  Si  Si17  1  0.118162  0.195696  0.318175  1
  Si  Si18  1  0.805347  0.884830  0.183844  1
  Si  Si19  1  0.305681  0.618161  0.565775  1
  Si  Si20  1  0.691936  0.383936  0.064730  1
  Si  Si21  1  0.614579  0.305380  0.435983  1
  Si  Si22  1  0.382443  0.691911  0.934802  1
  Si  Si23  1  0.196013  0.115037  0.681277  1
  Tc  Tc24  1  0.317701  0.486209  0.381043  1
  Tc  Tc25  1  0.813033  0.023827  0.368424  1
  Tc  Tc26  1  0.976389  0.189370  0.132916  1
  Tc  Tc27  1  0.023962  0.811350  0.632986  1
  Tc  Tc28  1  0.679578  0.516491  0.878505  1
  Tc  Tc29  1  0.480762  0.318628  0.620568  1
  Tc  Tc30  1  0.518310  0.683663  0.120055  1
  Tc  Tc31  1  0.186653  0.975134  0.867362  1
  Tc  Tc32  1  0.666477  0.670801  0.499867  1
  Tc  Tc33  1  0.834299  0.164924  0.749545  1
  Tc  Tc34  1  0.166741  0.836884  0.249966  1
  Tc  Tc35  1  0.331966  0.331851  0.000129  1
