# generated using pymatgen
data_SrAl2Ag5
_symmetry_space_group_name_H-M   'P 1'
_cell_length_a   7.42216700
_cell_length_b   8.92634000
_cell_length_c   10.03182600
_cell_angle_alpha   90.00000000
_cell_angle_beta   90.00000000
_cell_angle_gamma   90.00000000
_symmetry_Int_Tables_number   1
_chemical_formula_structural   SrAl2Ag5
_chemical_formula_sum   'Sr4 Al8 Ag20'
_cell_volume   664.63642296
_cell_formula_units_Z   4
loop_
 _symmetry_equiv_pos_site_id
 _symmetry_equiv_pos_as_xyz
  1  'x, y, z'
loop_
 _atom_site_type_symbol
 _atom_site_label
 _atom_site_symmetry_multiplicity
 _atom_site_fract_x
 _atom_site_fract_y
 _atom_site_fract_z
 _atom_site_occupancy
  Sr  Sr0  1  0.250000  0.254461  0.123928  1
  Sr  Sr1  1  0.250000  0.754461  0.376072  1
  Sr  Sr2  1  0.750000  0.745539  0.876072  1
  Sr  Sr3  1  0.750000  0.245539  0.623928  1
  Al  Al4  1  0.250000  0.055412  0.616127  1
  Al  Al5  1  0.250000  0.555412  0.883873  1
  Al  Al6  1  0.750000  0.944588  0.383873  1
  Al  Al7  1  0.750000  0.444588  0.116127  1
  Al  Al8  1  0.250000  0.351286  0.483437  1
  Al  Al9  1  0.250000  0.851286  0.016563  1
  Al  Al10  1  0.750000  0.648714  0.516563  1
  Al  Al11  1  0.750000  0.148714  0.983437  1
  Ag  Ag12  1  0.054770  0.109652  0.397117  1
  Ag  Ag13  1  0.445230  0.609652  0.102883  1
  Ag  Ag14  1  0.554770  0.890348  0.602883  1
  Ag  Ag15  1  0.945230  0.390348  0.897117  1
  Ag  Ag16  1  0.945230  0.890348  0.602883  1
  Ag  Ag17  1  0.554770  0.390348  0.897117  1
  Ag  Ag18  1  0.445230  0.109652  0.397117  1
  Ag  Ag19  1  0.054770  0.609652  0.102883  1
  Ag  Ag20  1  0.044083  0.054835  0.861625  1
  Ag  Ag21  1  0.455917  0.554835  0.638375  1
  Ag  Ag22  1  0.544083  0.945165  0.138375  1
  Ag  Ag23  1  0.955917  0.445165  0.361625  1
  Ag  Ag24  1  0.955917  0.945165  0.138375  1
  Ag  Ag25  1  0.544083  0.445165  0.361625  1
  Ag  Ag26  1  0.455917  0.054835  0.861625  1
  Ag  Ag27  1  0.044083  0.554835  0.638375  1
  Ag  Ag28  1  0.250000  0.303226  0.745873  1
  Ag  Ag29  1  0.250000  0.803226  0.754127  1
  Ag  Ag30  1  0.750000  0.696774  0.254127  1
  Ag  Ag31  1  0.750000  0.196774  0.245873  1
