# generated using pymatgen
data_PrHgPt2O7
_symmetry_space_group_name_H-M   'P 1'
_cell_length_a   7.33195363
_cell_length_b   7.38949342
_cell_length_c   7.38949273
_cell_angle_alpha   61.32668966
_cell_angle_beta   60.25724924
_cell_angle_gamma   60.25724349
_symmetry_Int_Tables_number   1
_chemical_formula_structural   PrHgPt2O7
_chemical_formula_sum   'Pr2 Hg2 Pt4 O14'
_cell_volume   286.95392762
_cell_formula_units_Z   2
loop_
 _symmetry_equiv_pos_site_id
 _symmetry_equiv_pos_as_xyz
  1  'x, y, z'
loop_
 _atom_site_type_symbol
 _atom_site_label
 _atom_site_symmetry_multiplicity
 _atom_site_fract_x
 _atom_site_fract_y
 _atom_site_fract_z
 _atom_site_occupancy
  Pr  Pr0  1  0.125000  0.625000  0.125000  1
  Pr  Pr1  1  0.125000  0.125000  0.625000  1
  Hg  Hg2  1  0.125000  0.125000  0.125000  1
  Hg  Hg3  1  0.625000  0.125000  0.125000  1
  Pt  Pt4  1  0.625000  0.625000  0.125000  1
  Pt  Pt5  1  0.625000  0.625000  0.625000  1
  Pt  Pt6  1  0.625000  0.125000  0.625000  1
  Pt  Pt7  1  0.125000  0.625000  0.625000  1
  O  O8  1  0.700246  0.299754  0.299754  1
  O  O9  1  0.712353  0.298208  0.694626  1
  O  O10  1  0.985656  0.014344  0.014344  1
  O  O11  1  0.294813  0.694626  0.298208  1
  O  O12  1  0.712353  0.694626  0.298208  1
  O  O13  1  0.962801  0.537199  0.537199  1
  O  O14  1  0.287199  0.712801  0.712801  1
  O  O15  1  0.264344  0.235656  0.235656  1
  O  O16  1  0.955187  0.555374  0.951792  1
  O  O17  1  0.537647  0.951792  0.555374  1
  O  O18  1  0.537647  0.555374  0.951792  1
  O  O19  1  0.955187  0.951792  0.555374  1
  O  O20  1  0.549754  0.950246  0.950246  1
  O  O21  1  0.294813  0.298208  0.694626  1
