# generated using pymatgen
data_Yb2DyEr(B4Os)4
_symmetry_space_group_name_H-M   'P 1'
_cell_length_a   3.55025200
_cell_length_b   5.95890512
_cell_length_c   11.51725284
_cell_angle_alpha   89.88056437
_cell_angle_beta   90.00000000
_cell_angle_gamma   90.00000000
_symmetry_Int_Tables_number   1
_chemical_formula_structural   Yb2DyEr(B4Os)4
_chemical_formula_sum   'Yb2 Dy1 Er1 B16 Os4'
_cell_volume   243.65403543
_cell_formula_units_Z   1
loop_
 _symmetry_equiv_pos_site_id
 _symmetry_equiv_pos_as_xyz
  1  'x, y, z'
loop_
 _atom_site_type_symbol
 _atom_site_label
 _atom_site_symmetry_multiplicity
 _atom_site_fract_x
 _atom_site_fract_y
 _atom_site_fract_z
 _atom_site_occupancy
  Yb  Yb0  1  0.000000  0.628895  0.851252  1
  Yb  Yb1  1  0.000000  0.371145  0.148892  1
  Dy  Dy2  1  0.000000  0.128808  0.650815  1
  Er  Er3  1  0.000000  0.871312  0.349134  1
  B  B4  1  0.500000  0.475289  0.692115  1
  B  B5  1  0.500000  0.525188  0.307594  1
  B  B6  1  0.500000  0.975238  0.809307  1
  B  B7  1  0.500000  0.024276  0.191311  1
  B  B8  1  0.500000  0.289143  0.815810  1
  B  B9  1  0.500000  0.710849  0.184648  1
  B  B10  1  0.500000  0.787235  0.686248  1
  B  B11  1  0.500000  0.211905  0.313611  1
  B  B12  1  0.500000  0.363977  0.969766  1
  B  B13  1  0.500000  0.636057  0.030621  1
  B  B14  1  0.500000  0.863560  0.529962  1
  B  B15  1  0.500000  0.136436  0.469237  1
  B  B16  1  0.500000  0.388263  0.547129  1
  B  B17  1  0.500000  0.612643  0.452067  1
  B  B18  1  0.500000  0.885954  0.953516  1
  B  B19  1  0.500000  0.113881  0.046958  1
  Os  Os20  1  0.000000  0.137217  0.909560  1
  Os  Os21  1  0.000000  0.862744  0.091162  1
  Os  Os22  1  0.000000  0.641417  0.591395  1
  Os  Os23  1  0.000000  0.358567  0.407891  1
