# generated using pymatgen
data_Dy5Ho11Cd4OsPt3
_symmetry_space_group_name_H-M   'P 1'
_cell_length_a   9.67917985
_cell_length_b   9.67818742
_cell_length_c   9.67818731
_cell_angle_alpha   59.59388504
_cell_angle_beta   59.59639611
_cell_angle_gamma   59.59639864
_symmetry_Int_Tables_number   1
_chemical_formula_structural   Dy5Ho11Cd4OsPt3
_chemical_formula_sum   'Dy5 Ho11 Cd4 Os1 Pt3'
_cell_volume   635.18584207
_cell_formula_units_Z   1
loop_
 _symmetry_equiv_pos_site_id
 _symmetry_equiv_pos_as_xyz
  1  'x, y, z'
loop_
 _atom_site_type_symbol
 _atom_site_label
 _atom_site_symmetry_multiplicity
 _atom_site_fract_x
 _atom_site_fract_y
 _atom_site_fract_z
 _atom_site_occupancy
  Dy  Dy0  1  0.558674  0.937492  0.937492  1
  Dy  Dy1  1  0.565558  0.935219  0.565384  1
  Dy  Dy2  1  0.937514  0.558649  0.937341  1
  Dy  Dy3  1  0.565558  0.565384  0.935219  1
  Dy  Dy4  1  0.937514  0.937341  0.558649  1
  Ho  Ho5  1  0.351410  0.351606  0.351606  1
  Ho  Ho6  1  0.349469  0.349494  0.948732  1
  Ho  Ho7  1  0.349469  0.948732  0.349494  1
  Ho  Ho8  1  0.948689  0.349597  0.349597  1
  Ho  Ho9  1  0.814816  0.188863  0.188863  1
  Ho  Ho10  1  0.188756  0.809937  0.809937  1
  Ho  Ho11  1  0.188743  0.814776  0.188984  1
  Ho  Ho12  1  0.809985  0.188864  0.809867  1
  Ho  Ho13  1  0.188743  0.188984  0.814776  1
  Ho  Ho14  1  0.809985  0.809867  0.188864  1
  Ho  Ho15  1  0.935422  0.565326  0.565326  1
  Cd  Cd16  1  0.580819  0.580687  0.580687  1
  Cd  Cd17  1  0.581109  0.581110  0.254641  1
  Cd  Cd18  1  0.581109  0.254641  0.581110  1
  Cd  Cd19  1  0.254469  0.581134  0.581134  1
  Os  Os20  1  0.142972  0.142987  0.142987  1
  Pt  Pt21  1  0.143289  0.143404  0.572599  1
  Pt  Pt22  1  0.143289  0.572599  0.143404  1
  Pt  Pt23  1  0.572640  0.143304  0.143304  1
