# generated using pymatgen
data_GdThCS
_symmetry_space_group_name_H-M   'P 1'
_cell_length_a   6.88186964
_cell_length_b   6.88186962
_cell_length_c   6.88186986
_cell_angle_alpha   32.34778061
_cell_angle_beta   32.34778170
_cell_angle_gamma   32.34778760
_symmetry_Int_Tables_number   1
_chemical_formula_structural   GdThCS
_chemical_formula_sum   'Gd1 Th1 C1 S1'
_cell_volume   82.94934649
_cell_formula_units_Z   1
loop_
 _symmetry_equiv_pos_site_id
 _symmetry_equiv_pos_as_xyz
  1  'x, y, z'
loop_
 _atom_site_type_symbol
 _atom_site_label
 _atom_site_symmetry_multiplicity
 _atom_site_fract_x
 _atom_site_fract_y
 _atom_site_fract_z
 _atom_site_occupancy
  Gd  Gd0  1  0.989951  0.989951  0.989951  1
  Th  Th1  1  0.513782  0.513782  0.513782  1
  C  C2  1  0.248350  0.248350  0.248350  1
  S  S3  1  0.747918  0.747918  0.747918  1
