# generated using pymatgen
data_TbEr(Sb5O13)2
_symmetry_space_group_name_H-M   'P 1'
_cell_length_a   7.42695370
_cell_length_b   7.35863217
_cell_length_c   10.30689104
_cell_angle_alpha   88.84731167
_cell_angle_beta   89.93973938
_cell_angle_gamma   89.92193839
_symmetry_Int_Tables_number   1
_chemical_formula_structural   TbEr(Sb5O13)2
_chemical_formula_sum   'Tb1 Er1 Sb10 O26'
_cell_volume   563.17967200
_cell_formula_units_Z   1
loop_
 _symmetry_equiv_pos_site_id
 _symmetry_equiv_pos_as_xyz
  1  'x, y, z'
loop_
 _atom_site_type_symbol
 _atom_site_label
 _atom_site_symmetry_multiplicity
 _atom_site_fract_x
 _atom_site_fract_y
 _atom_site_fract_z
 _atom_site_occupancy
  Tb  Tb0  1  0.000000  0.500000  0.000000  1
  Er  Er1  1  0.500000  0.500000  0.000000  1
  Sb  Sb2  1  0.251733  0.729030  0.730532  1
  Sb  Sb3  1  0.748267  0.270970  0.269468  1
  Sb  Sb4  1  0.500000  0.000000  0.000000  1
  Sb  Sb5  1  0.749937  0.757452  0.748949  1
  Sb  Sb6  1  0.250515  0.748125  0.251973  1
  Sb  Sb7  1  0.500000  0.500000  0.500000  1
  Sb  Sb8  1  0.000000  0.500000  0.500000  1
  Sb  Sb9  1  0.749485  0.251875  0.748027  1
  Sb  Sb10  1  0.250063  0.242548  0.251051  1
  Sb  Sb11  1  0.000000  0.000000  0.000000  1
  O  O12  1  0.447910  0.690356  0.372425  1
  O  O13  1  0.746461  0.455568  0.127548  1
  O  O14  1  0.251592  0.493680  0.160655  1
  O  O15  1  0.454612  0.308768  0.366050  1
  O  O16  1  0.557015  0.216605  0.885565  1
  O  O17  1  0.942458  0.215108  0.884703  1
  O  O18  1  0.448444  0.207992  0.120393  1
  O  O19  1  0.749896  0.999714  0.072611  1
  O  O20  1  0.250104  0.000286  0.927389  1
  O  O21  1  0.749461  0.003815  0.684329  1
  O  O22  1  0.551556  0.792008  0.879607  1
  O  O23  1  0.948591  0.792521  0.879114  1
  O  O24  1  0.442985  0.783395  0.114435  1
  O  O25  1  0.052439  0.690130  0.372142  1
  O  O26  1  0.545388  0.691232  0.633950  1
  O  O27  1  0.953787  0.690807  0.633845  1
  O  O28  1  0.249971  0.518928  0.580806  1
  O  O29  1  0.748408  0.506320  0.839345  1
  O  O30  1  0.750029  0.481072  0.419194  1
  O  O31  1  0.046213  0.309193  0.366155  1
  O  O32  1  0.552090  0.309644  0.627575  1
  O  O33  1  0.947561  0.309870  0.627858  1
  O  O34  1  0.051409  0.207479  0.120886  1
  O  O35  1  0.250539  0.996185  0.315671  1
  O  O36  1  0.057542  0.784892  0.115297  1
  O  O37  1  0.253539  0.544432  0.872452  1
