# generated using pymatgen
data_HoTm7Ti12Si15Sn
_symmetry_space_group_name_H-M   'P 1'
_cell_length_a   7.06772683
_cell_length_b   7.03251698
_cell_length_c   12.94524315
_cell_angle_alpha   89.97507947
_cell_angle_beta   89.74610287
_cell_angle_gamma   89.90752546
_symmetry_Int_Tables_number   1
_chemical_formula_structural   HoTm7Ti12Si15Sn
_chemical_formula_sum   'Ho1 Tm7 Ti12 Si15 Sn1'
_cell_volume   643.42197275
_cell_formula_units_Z   1
loop_
 _symmetry_equiv_pos_site_id
 _symmetry_equiv_pos_as_xyz
  1  'x, y, z'
loop_
 _atom_site_type_symbol
 _atom_site_label
 _atom_site_symmetry_multiplicity
 _atom_site_fract_x
 _atom_site_fract_y
 _atom_site_fract_z
 _atom_site_occupancy
  Ho  Ho0  1  0.998374  0.659183  0.034157  1
  Tm  Tm1  1  0.343532  0.999115  0.461426  1
  Tm  Tm2  1  0.505993  0.835184  0.718059  1
  Tm  Tm3  1  0.502076  0.159702  0.216780  1
  Tm  Tm4  1  0.840984  0.497273  0.282444  1
  Tm  Tm5  1  0.159101  0.510085  0.785954  1
  Tm  Tm6  1  0.660945  0.996749  0.968596  1
  Tm  Tm7  1  0.992669  0.348664  0.527452  1
  Ti  Ti8  1  0.326240  0.326535  0.001071  1
  Ti  Ti9  1  0.174042  0.826136  0.249888  1
  Ti  Ti10  1  0.816553  0.175023  0.751919  1
  Ti  Ti11  1  0.672791  0.673175  0.499499  1
  Ti  Ti12  1  0.152036  0.007161  0.882954  1
  Ti  Ti13  1  0.492421  0.650242  0.126834  1
  Ti  Ti14  1  0.515279  0.354403  0.626372  1
  Ti  Ti15  1  0.653627  0.493225  0.875304  1
  Ti  Ti16  1  0.348106  0.508879  0.372971  1
  Ti  Ti17  1  0.847520  0.992533  0.375765  1
  Ti  Ti18  1  0.009108  0.151500  0.123598  1
  Ti  Ti19  1  0.980090  0.835685  0.619049  1
  Si  Si20  1  0.370742  0.703276  0.935103  1
  Si  Si21  1  0.629162  0.296996  0.432204  1
  Si  Si22  1  0.703210  0.367959  0.067046  1
  Si  Si23  1  0.296716  0.631750  0.566252  1
  Si  Si24  1  0.796650  0.869449  0.184088  1
  Si  Si25  1  0.131013  0.202899  0.315682  1
  Si  Si26  1  0.869552  0.799747  0.816458  1
  Si  Si27  1  0.293778  0.952682  0.066867  1
  Si  Si28  1  0.549063  0.790436  0.313733  1
  Si  Si29  1  0.459371  0.209407  0.820072  1
  Si  Si30  1  0.794658  0.544743  0.686714  1
  Si  Si31  1  0.208800  0.452287  0.185461  1
  Si  Si32  1  0.705962  0.048183  0.564428  1
  Si  Si33  1  0.952417  0.291587  0.935056  1
  Si  Si34  1  0.047926  0.709996  0.432787  1
  Sn  Sn35  1  0.199492  0.128150  0.677956  1
