# generated using pymatgen
data_Y5Ho3(TcB6)4
_symmetry_space_group_name_H-M   'P 1'
_cell_length_a   3.68501800
_cell_length_b   9.16519706
_cell_length_c   11.55134707
_cell_angle_alpha   90.01256219
_cell_angle_beta   90.00000000
_cell_angle_gamma   90.00000000
_symmetry_Int_Tables_number   1
_chemical_formula_structural   Y5Ho3(TcB6)4
_chemical_formula_sum   'Y5 Ho3 Tc4 B24'
_cell_volume   390.13421764
_cell_formula_units_Z   1
loop_
 _symmetry_equiv_pos_site_id
 _symmetry_equiv_pos_as_xyz
  1  'x, y, z'
loop_
 _atom_site_type_symbol
 _atom_site_label
 _atom_site_symmetry_multiplicity
 _atom_site_fract_x
 _atom_site_fract_y
 _atom_site_fract_z
 _atom_site_occupancy
  Y  Y0  1  0.000000  0.323803  0.414244  1
  Y  Y1  1  0.000000  0.676185  0.585903  1
  Y  Y2  1  0.000000  0.823627  0.085602  1
  Y  Y3  1  0.000000  0.176371  0.914212  1
  Y  Y4  1  0.000000  0.942860  0.369541  1
  Ho  Ho5  1  0.000000  0.057354  0.631063  1
  Ho  Ho6  1  0.000000  0.442723  0.130640  1
  Ho  Ho7  1  0.000000  0.557292  0.869221  1
  Tc  Tc8  1  0.000000  0.638500  0.320198  1
  Tc  Tc9  1  0.000000  0.361048  0.679897  1
  Tc  Tc10  1  0.000000  0.139248  0.179383  1
  Tc  Tc11  1  0.000000  0.860990  0.820281  1
  B  B12  1  0.500000  0.553269  0.432698  1
  B  B13  1  0.500000  0.446391  0.567417  1
  B  B14  1  0.500000  0.053583  0.067115  1
  B  B15  1  0.500000  0.946489  0.932630  1
  B  B16  1  0.500000  0.748552  0.418324  1
  B  B17  1  0.500000  0.250875  0.581868  1
  B  B18  1  0.500000  0.249318  0.081658  1
  B  B19  1  0.500000  0.750825  0.918230  1
  B  B20  1  0.500000  0.791544  0.264992  1
  B  B21  1  0.500000  0.208117  0.734785  1
  B  B22  1  0.500000  0.292178  0.234620  1
  B  B23  1  0.500000  0.708019  0.765305  1
  B  B24  1  0.500000  0.630256  0.185383  1
  B  B25  1  0.500000  0.369602  0.814504  1
  B  B26  1  0.500000  0.130981  0.314277  1
  B  B27  1  0.500000  0.869524  0.685647  1
  B  B28  1  0.500000  0.982485  0.211435  1
  B  B29  1  0.500000  0.017652  0.788183  1
  B  B30  1  0.500000  0.482173  0.288037  1
  B  B31  1  0.500000  0.517660  0.711890  1
  B  B32  1  0.500000  0.599338  0.027678  1
  B  B33  1  0.500000  0.400694  0.972195  1
  B  B34  1  0.500000  0.100238  0.472598  1
  B  B35  1  0.500000  0.900234  0.528346  1
