# generated using pymatgen
data_La4PrNd(OsI3)2
_symmetry_space_group_name_H-M   'P 1'
_cell_length_a   4.40637700
_cell_length_b   9.53650405
_cell_length_c   12.62739742
_cell_angle_alpha   87.41270511
_cell_angle_beta   90.00000000
_cell_angle_gamma   90.00000000
_symmetry_Int_Tables_number   1
_chemical_formula_structural   La4PrNd(OsI3)2
_chemical_formula_sum   'La4 Pr1 Nd1 Os2 I6'
_cell_volume   530.08041004
_cell_formula_units_Z   1
loop_
 _symmetry_equiv_pos_site_id
 _symmetry_equiv_pos_as_xyz
  1  'x, y, z'
loop_
 _atom_site_type_symbol
 _atom_site_label
 _atom_site_symmetry_multiplicity
 _atom_site_fract_x
 _atom_site_fract_y
 _atom_site_fract_z
 _atom_site_occupancy
  La  La0  1  0.250000  0.883767  0.329297  1
  La  La1  1  0.250000  0.312659  0.882531  1
  La  La2  1  0.250000  0.902414  0.896608  1
  La  La3  1  0.750000  0.116099  0.668869  1
  Pr  Pr4  1  0.750000  0.094879  0.106017  1
  Nd  Nd5  1  0.750000  0.689092  0.119513  1
  Os  Os6  1  0.250000  0.886770  0.124405  1
  Os  Os7  1  0.750000  0.113701  0.872920  1
  I  I8  1  0.250000  0.396558  0.135835  1
  I  I9  1  0.750000  0.132935  0.379780  1
  I  I10  1  0.750000  0.604870  0.868311  1
  I  I11  1  0.250000  0.365939  0.623199  1
  I  I12  1  0.750000  0.633174  0.374015  1
  I  I13  1  0.250000  0.867146  0.618698  1
