# generated using pymatgen
data_Yb4AlHgPd10
_symmetry_space_group_name_H-M   'P 1'
_cell_length_a   4.22857300
_cell_length_b   5.76943792
_cell_length_c   11.37305701
_cell_angle_alpha   88.17024588
_cell_angle_beta   90.00000000
_cell_angle_gamma   90.00000000
_symmetry_Int_Tables_number   1
_chemical_formula_structural   Yb4AlHgPd10
_chemical_formula_sum   'Yb4 Al1 Hg1 Pd10'
_cell_volume   277.32119055
_cell_formula_units_Z   1
loop_
 _symmetry_equiv_pos_site_id
 _symmetry_equiv_pos_as_xyz
  1  'x, y, z'
loop_
 _atom_site_type_symbol
 _atom_site_label
 _atom_site_symmetry_multiplicity
 _atom_site_fract_x
 _atom_site_fract_y
 _atom_site_fract_z
 _atom_site_occupancy
  Yb  Yb0  1  0.500000  0.179234  0.362138  1
  Yb  Yb1  1  0.500000  0.820766  0.637862  1
  Yb  Yb2  1  0.500000  0.698780  0.138046  1
  Yb  Yb3  1  0.500000  0.301220  0.861954  1
  Al  Al4  1  0.000000  0.500000  0.500000  1
  Hg  Hg5  1  0.000000  0.000000  0.000000  1
  Pd  Pd6  1  0.500000  0.215930  0.120126  1
  Pd  Pd7  1  0.500000  0.784070  0.879874  1
  Pd  Pd8  1  0.500000  0.679980  0.397014  1
  Pd  Pd9  1  0.500000  0.320020  0.602986  1
  Pd  Pd10  1  0.000000  0.000000  0.500000  1
  Pd  Pd11  1  0.000000  0.500000  0.000000  1
  Pd  Pd12  1  0.000000  0.937882  0.253458  1
  Pd  Pd13  1  0.000000  0.062118  0.746542  1
  Pd  Pd14  1  0.000000  0.443289  0.263003  1
  Pd  Pd15  1  0.000000  0.556711  0.736997  1
