# generated using pymatgen
data_Sm(Th2Ir)3
_symmetry_space_group_name_H-M   'P 1'
_cell_length_a   10.04293900
_cell_length_b   10.08191625
_cell_length_c   6.34156319
_cell_angle_alpha   90.16921002
_cell_angle_beta   90.00000000
_cell_angle_gamma   119.87219082
_symmetry_Int_Tables_number   1
_chemical_formula_structural   Sm(Th2Ir)3
_chemical_formula_sum   'Sm2 Th12 Ir6'
_cell_volume   556.78333985
_cell_formula_units_Z   2
loop_
 _symmetry_equiv_pos_site_id
 _symmetry_equiv_pos_as_xyz
  1  'x, y, z'
loop_
 _atom_site_type_symbol
 _atom_site_label
 _atom_site_symmetry_multiplicity
 _atom_site_fract_x
 _atom_site_fract_y
 _atom_site_fract_z
 _atom_site_occupancy
  Sm  Sm0  1  0.459306  0.539090  0.294332  1
  Sm  Sm1  1  0.079784  0.539090  0.294332  1
  Th  Th2  1  0.915423  0.457891  0.795713  1
  Th  Th3  1  0.254880  0.128751  0.499064  1
  Th  Th4  1  0.542245  0.084489  0.794541  1
  Th  Th5  1  0.744671  0.872757  0.999347  1
  Th  Th6  1  0.666368  0.332736  0.304656  1
  Th  Th7  1  0.128086  0.872757  0.999347  1
  Th  Th8  1  0.457512  0.915025  0.295387  1
  Th  Th9  1  0.542469  0.457891  0.795713  1
  Th  Th10  1  0.873872  0.128751  0.499064  1
  Th  Th11  1  0.127445  0.254889  0.997663  1
  Th  Th12  1  0.871594  0.743188  0.496892  1
  Th  Th13  1  0.333260  0.666520  0.785820  1
  Ir  Ir14  1  0.812115  0.624229  0.051752  1
  Ir  Ir15  1  0.812044  0.187764  0.053604  1
  Ir  Ir16  1  0.627094  0.817583  0.555525  1
  Ir  Ir17  1  0.375721  0.187764  0.053604  1
  Ir  Ir18  1  0.185625  0.371250  0.562122  1
  Ir  Ir19  1  0.190488  0.817583  0.555525  1
