# generated using pymatgen
data_HoSiPd2Pt3
_symmetry_space_group_name_H-M   'P 1'
_cell_length_a   3.99293900
_cell_length_b   4.10931400
_cell_length_c   7.14161100
_cell_angle_alpha   90.00000000
_cell_angle_beta   90.00000000
_cell_angle_gamma   90.00000000
_symmetry_Int_Tables_number   1
_chemical_formula_structural   HoSiPd2Pt3
_chemical_formula_sum   'Ho1 Si1 Pd2 Pt3'
_cell_volume   117.18126823
_cell_formula_units_Z   1
loop_
 _symmetry_equiv_pos_site_id
 _symmetry_equiv_pos_as_xyz
  1  'x, y, z'
loop_
 _atom_site_type_symbol
 _atom_site_label
 _atom_site_symmetry_multiplicity
 _atom_site_fract_x
 _atom_site_fract_y
 _atom_site_fract_z
 _atom_site_occupancy
  Ho  Ho0  1  0.500000  0.500000  0.000000  1
  Si  Si1  1  0.000000  0.000000  0.500000  1
  Pd  Pd2  1  0.000000  0.500000  0.300419  1
  Pd  Pd3  1  0.000000  0.500000  0.699581  1
  Pt  Pt4  1  0.500000  0.000000  0.297864  1
  Pt  Pt5  1  0.500000  0.000000  0.702136  1
  Pt  Pt6  1  0.000000  0.000000  0.000000  1
