# generated using pymatgen
data_Sc4Mn3Al4Cu
_symmetry_space_group_name_H-M   'P 1'
_cell_length_a   5.12764614
_cell_length_b   5.12764640
_cell_length_c   8.47172500
_cell_angle_alpha   90.00000000
_cell_angle_beta   90.00000000
_cell_angle_gamma   118.21096581
_symmetry_Int_Tables_number   1
_chemical_formula_structural   Sc4Mn3Al4Cu
_chemical_formula_sum   'Sc4 Mn3 Al4 Cu1'
_cell_volume   196.28578913
_cell_formula_units_Z   1
loop_
 _symmetry_equiv_pos_site_id
 _symmetry_equiv_pos_as_xyz
  1  'x, y, z'
loop_
 _atom_site_type_symbol
 _atom_site_label
 _atom_site_symmetry_multiplicity
 _atom_site_fract_x
 _atom_site_fract_y
 _atom_site_fract_z
 _atom_site_occupancy
  Sc  Sc0  1  0.334592  0.665408  0.198840  1
  Sc  Sc1  1  0.665997  0.334003  0.326434  1
  Sc  Sc2  1  0.665997  0.334003  0.673566  1
  Sc  Sc3  1  0.334592  0.665408  0.801160  1
  Mn  Mn4  1  0.164768  0.355800  0.500000  1
  Mn  Mn5  1  0.644200  0.835232  0.500000  1
  Mn  Mn6  1  0.183028  0.816972  0.500000  1
  Al  Al7  1  0.996685  0.003315  0.262518  1
  Al  Al8  1  0.996685  0.003315  0.737482  1
  Al  Al9  1  0.833815  0.654716  0.000000  1
  Al  Al10  1  0.345284  0.166185  0.000000  1
  Cu  Cu11  1  0.834451  0.165549  0.000000  1
