# generated using pymatgen
data_Ho3Lu5In3Fe
_symmetry_space_group_name_H-M   'P 1'
_cell_length_a   10.15827600
_cell_length_b   10.15827507
_cell_length_c   6.98052700
_cell_angle_alpha   90.00000000
_cell_angle_beta   90.00000000
_cell_angle_gamma   120.00000303
_symmetry_Int_Tables_number   1
_chemical_formula_structural   Ho3Lu5In3Fe
_chemical_formula_sum   'Ho6 Lu10 In6 Fe2'
_cell_volume   623.81929956
_cell_formula_units_Z   2
loop_
 _symmetry_equiv_pos_site_id
 _symmetry_equiv_pos_as_xyz
  1  'x, y, z'
loop_
 _atom_site_type_symbol
 _atom_site_label
 _atom_site_symmetry_multiplicity
 _atom_site_fract_x
 _atom_site_fract_y
 _atom_site_fract_z
 _atom_site_occupancy
  Ho  Ho0  1  0.534324  0.068648  0.521551  1
  Ho  Ho1  1  0.931352  0.465676  0.521551  1
  Ho  Ho2  1  0.534324  0.465676  0.521551  1
  Ho  Ho3  1  0.465676  0.931352  0.021551  1
  Ho  Ho4  1  0.068648  0.534324  0.021551  1
  Ho  Ho5  1  0.465676  0.534324  0.021551  1
  Lu  Lu6  1  0.179095  0.358190  0.726691  1
  Lu  Lu7  1  0.641810  0.820905  0.726691  1
  Lu  Lu8  1  0.179095  0.820905  0.726691  1
  Lu  Lu9  1  0.820905  0.641810  0.226691  1
  Lu  Lu10  1  0.358190  0.179095  0.226691  1
  Lu  Lu11  1  0.820905  0.179095  0.226691  1
  Lu  Lu12  1  0.666667  0.333333  0.912789  1
  Lu  Lu13  1  0.333333  0.666667  0.412789  1
  Lu  Lu14  1  0.000000  0.000000  0.508161  1
  Lu  Lu15  1  0.000000  0.000000  0.008161  1
  In  In16  1  0.836916  0.673830  0.772757  1
  In  In17  1  0.326170  0.163084  0.772757  1
  In  In18  1  0.836916  0.163084  0.772757  1
  In  In19  1  0.163084  0.326170  0.272757  1
  In  In20  1  0.673830  0.836916  0.272757  1
  In  In21  1  0.163084  0.836916  0.272757  1
  Fe  Fe22  1  0.666667  0.333333  0.293890  1
  Fe  Fe23  1  0.333333  0.666667  0.793890  1
