# generated using pymatgen
data_La17Nd3(Ge2Ir)4
_symmetry_space_group_name_H-M   'P 1'
_cell_length_a   8.19145927
_cell_length_b   8.97309800
_cell_length_c   12.56724200
_cell_angle_alpha   90.00000000
_cell_angle_beta   90.04270189
_cell_angle_gamma   90.00000000
_symmetry_Int_Tables_number   1
_chemical_formula_structural   La17Nd3(Ge2Ir)4
_chemical_formula_sum   'La17 Nd3 Ge8 Ir4'
_cell_volume   923.72680197
_cell_formula_units_Z   1
loop_
 _symmetry_equiv_pos_site_id
 _symmetry_equiv_pos_as_xyz
  1  'x, y, z'
loop_
 _atom_site_type_symbol
 _atom_site_label
 _atom_site_symmetry_multiplicity
 _atom_site_fract_x
 _atom_site_fract_y
 _atom_site_fract_z
 _atom_site_occupancy
  La  La0  1  0.681282  0.464768  0.074142  1
  La  La1  1  0.180993  0.534454  0.425845  1
  La  La2  1  0.318993  0.965081  0.925793  1
  La  La3  1  0.819279  0.035631  0.574115  1
  La  La4  1  0.318993  0.534919  0.925793  1
  La  La5  1  0.819279  0.464369  0.574115  1
  La  La6  1  0.681282  0.035232  0.074142  1
  La  La7  1  0.180993  0.965546  0.425845  1
  La  La8  1  0.543298  0.750000  0.499975  1
  La  La9  1  0.352715  0.750000  0.202358  1
  La  La10  1  0.852664  0.250000  0.296523  1
  La  La11  1  0.646552  0.250000  0.797233  1
  La  La12  1  0.145794  0.750000  0.704068  1
  La  La13  1  0.830455  0.750000  0.284084  1
  La  La14  1  0.329139  0.250000  0.214742  1
  La  La15  1  0.169611  0.250000  0.715647  1
  La  La16  1  0.670166  0.750000  0.785434  1
  Nd  Nd17  1  0.959216  0.750000  0.998956  1
  Nd  Nd18  1  0.458756  0.250000  0.500936  1
  Nd  Nd19  1  0.040649  0.250000  0.000564  1
  Ge  Ge20  1  0.558163  0.492940  0.329169  1
  Ge  Ge21  1  0.057811  0.505636  0.169236  1
  Ge  Ge22  1  0.440931  0.996441  0.670610  1
  Ge  Ge23  1  0.941644  0.005289  0.830839  1
  Ge  Ge24  1  0.440931  0.503559  0.670610  1
  Ge  Ge25  1  0.941644  0.494711  0.830839  1
  Ge  Ge26  1  0.558163  0.007060  0.329169  1
  Ge  Ge27  1  0.057811  0.994364  0.169236  1
  Ir  Ir28  1  0.581738  0.750000  0.015410  1
  Ir  Ir29  1  0.080614  0.250000  0.484410  1
  Ir  Ir30  1  0.418852  0.250000  0.984490  1
  Ir  Ir31  1  0.921590  0.750000  0.515669  1
