# generated using pymatgen
data_Tb3Dy(Sc3Ga4)2
_symmetry_space_group_name_H-M   'P 1'
_cell_length_a   7.30129601
_cell_length_b   7.55673305
_cell_length_c   14.52543309
_cell_angle_alpha   89.98754269
_cell_angle_beta   90.00403662
_cell_angle_gamma   90.00474331
_symmetry_Int_Tables_number   1
_chemical_formula_structural   Tb3Dy(Sc3Ga4)2
_chemical_formula_sum   'Tb6 Dy2 Sc12 Ga16'
_cell_volume   801.42542127
_cell_formula_units_Z   2
loop_
 _symmetry_equiv_pos_site_id
 _symmetry_equiv_pos_as_xyz
  1  'x, y, z'
loop_
 _atom_site_type_symbol
 _atom_site_label
 _atom_site_symmetry_multiplicity
 _atom_site_fract_x
 _atom_site_fract_y
 _atom_site_fract_z
 _atom_site_occupancy
  Tb  Tb0  1  0.011666  0.177322  0.095698  1
  Tb  Tb1  1  0.988334  0.822678  0.904302  1
  Tb  Tb2  1  0.488325  0.677345  0.904333  1
  Tb  Tb3  1  0.988336  0.822642  0.595700  1
  Tb  Tb4  1  0.511675  0.322655  0.095667  1
  Tb  Tb5  1  0.011664  0.177358  0.404300  1
  Dy  Dy6  1  0.511677  0.322573  0.404303  1
  Dy  Dy7  1  0.488323  0.677427  0.595697  1
  Sc  Sc8  1  0.161887  0.502731  0.749954  1
  Sc  Sc9  1  0.838113  0.497269  0.250046  1
  Sc  Sc10  1  0.338265  0.002731  0.250037  1
  Sc  Sc11  1  0.661735  0.997269  0.749963  1
  Sc  Sc12  1  0.330221  0.174698  0.624299  1
  Sc  Sc13  1  0.669779  0.825302  0.375701  1
  Sc  Sc14  1  0.170017  0.674663  0.375681  1
  Sc  Sc15  1  0.669856  0.825358  0.124356  1
  Sc  Sc16  1  0.829983  0.325337  0.624319  1
  Sc  Sc17  1  0.330144  0.174642  0.875644  1
  Sc  Sc18  1  0.830102  0.325288  0.875668  1
  Sc  Sc19  1  0.169898  0.674712  0.124332  1
  Ga  Ga20  1  0.031747  0.118065  0.749994  1
  Ga  Ga21  1  0.968253  0.881935  0.250006  1
  Ga  Ga22  1  0.468254  0.618032  0.250054  1
  Ga  Ga23  1  0.531746  0.381968  0.749946  1
  Ga  Ga24  1  0.284760  0.873201  0.749942  1
  Ga  Ga25  1  0.715240  0.126799  0.250058  1
  Ga  Ga26  1  0.215502  0.373209  0.250087  1
  Ga  Ga27  1  0.784498  0.626791  0.749913  1
  Ga  Ga28  1  0.160126  0.465076  0.540043  1
  Ga  Ga29  1  0.839874  0.534924  0.459957  1
  Ga  Ga30  1  0.340280  0.965068  0.459990  1
  Ga  Ga31  1  0.840154  0.535011  0.040008  1
  Ga  Ga32  1  0.659720  0.034932  0.540010  1
  Ga  Ga33  1  0.159846  0.464989  0.959992  1
  Ga  Ga34  1  0.659830  0.035032  0.959975  1
  Ga  Ga35  1  0.340170  0.964968  0.040025  1
