# generated using pymatgen
data_La2Er4FeBr10
_symmetry_space_group_name_H-M   'P 1'
_cell_length_a   7.39879479
_cell_length_b   9.25703070
_cell_length_c   9.32940044
_cell_angle_alpha   107.73306067
_cell_angle_beta   99.49492499
_cell_angle_gamma   105.86309592
_symmetry_Int_Tables_number   1
_chemical_formula_structural   La2Er4FeBr10
_chemical_formula_sum   'La2 Er4 Fe1 Br10'
_cell_volume   563.54720934
_cell_formula_units_Z   1
loop_
 _symmetry_equiv_pos_site_id
 _symmetry_equiv_pos_as_xyz
  1  'x, y, z'
loop_
 _atom_site_type_symbol
 _atom_site_label
 _atom_site_symmetry_multiplicity
 _atom_site_fract_x
 _atom_site_fract_y
 _atom_site_fract_z
 _atom_site_occupancy
  La  La0  1  0.663008  0.873464  0.330151  1
  La  La1  1  0.336992  0.126536  0.669849  1
  Er  Er2  1  0.969155  0.299606  0.592078  1
  Er  Er3  1  0.030845  0.700394  0.407922  1
  Er  Er4  1  0.878322  0.954528  0.745174  1
  Er  Er5  1  0.121678  0.045472  0.254826  1
  Fe  Fe6  1  0.000000  0.000000  0.500000  1
  Br  Br7  1  0.545376  0.188913  0.410751  1
  Br  Br8  1  0.454624  0.811087  0.589249  1
  Br  Br9  1  0.194870  0.741924  0.153731  1
  Br  Br10  1  0.805130  0.258076  0.846269  1
  Br  Br11  1  0.914594  0.629981  0.668867  1
  Br  Br12  1  0.085406  0.370019  0.331133  1
  Br  Br13  1  0.754287  0.916602  0.032314  1
  Br  Br14  1  0.245713  0.083398  0.967686  1
  Br  Br15  1  0.655761  0.532682  0.222399  1
  Br  Br16  1  0.344239  0.467318  0.777601  1
