# generated using pymatgen
data_Tb4Al17Pd7
_symmetry_space_group_name_H-M   'P 1'
_cell_length_a   7.60999900
_cell_length_b   7.60999898
_cell_length_c   9.41835200
_cell_angle_alpha   90.00000000
_cell_angle_beta   90.00000000
_cell_angle_gamma   118.67729624
_symmetry_Int_Tables_number   1
_chemical_formula_structural   Tb4Al17Pd7
_chemical_formula_sum   'Tb4 Al17 Pd7'
_cell_volume   478.53119810
_cell_formula_units_Z   1
loop_
 _symmetry_equiv_pos_site_id
 _symmetry_equiv_pos_as_xyz
  1  'x, y, z'
loop_
 _atom_site_type_symbol
 _atom_site_label
 _atom_site_symmetry_multiplicity
 _atom_site_fract_x
 _atom_site_fract_y
 _atom_site_fract_z
 _atom_site_occupancy
  Tb  Tb0  1  0.990375  0.674898  0.250000  1
  Tb  Tb1  1  0.007215  0.325304  0.750000  1
  Tb  Tb2  1  0.674898  0.990375  0.250000  1
  Tb  Tb3  1  0.325304  0.007215  0.750000  1
  Al  Al4  1  0.862050  0.862050  0.750000  1
  Al  Al5  1  0.003712  0.329223  0.085331  1
  Al  Al6  1  0.999295  0.661353  0.921509  1
  Al  Al7  1  0.999295  0.661353  0.578491  1
  Al  Al8  1  0.329223  0.003712  0.414669  1
  Al  Al9  1  0.003712  0.329223  0.414669  1
  Al  Al10  1  0.661353  0.999295  0.578491  1
  Al  Al11  1  0.661353  0.999295  0.921509  1
  Al  Al12  1  0.329223  0.003712  0.085331  1
  Al  Al13  1  0.329565  0.329565  0.537292  1
  Al  Al14  1  0.665808  0.665808  0.448340  1
  Al  Al15  1  0.665808  0.665808  0.051660  1
  Al  Al16  1  0.329565  0.329565  0.962708  1
  Al  Al17  1  0.342984  0.551801  0.250000  1
  Al  Al18  1  0.655161  0.448100  0.750000  1
  Al  Al19  1  0.551801  0.342984  0.250000  1
  Al  Al20  1  0.448100  0.655161  0.750000  1
  Pd  Pd21  1  0.170647  0.170647  0.250000  1
  Pd  Pd22  1  0.677099  0.327703  0.999570  1
  Pd  Pd23  1  0.327703  0.677099  0.999570  1
  Pd  Pd24  1  0.327703  0.677099  0.500430  1
  Pd  Pd25  1  0.677099  0.327703  0.500430  1
  Pd  Pd26  1  0.991975  0.991975  0.990187  1
  Pd  Pd27  1  0.991975  0.991975  0.509813  1
