# generated using pymatgen
data_Rh2Pb(SeO3)4
_symmetry_space_group_name_H-M   'P 1'
_cell_length_a   6.96240010
_cell_length_b   9.33213427
_cell_length_c   9.26332520
_cell_angle_alpha   68.84327440
_cell_angle_beta   96.10851905
_cell_angle_gamma   90.23443477
_symmetry_Int_Tables_number   1
_chemical_formula_structural   Rh2Pb(SeO3)4
_chemical_formula_sum   'Rh4 Pb2 Se8 O24'
_cell_volume   557.73805179
_cell_formula_units_Z   2
loop_
 _symmetry_equiv_pos_site_id
 _symmetry_equiv_pos_as_xyz
  1  'x, y, z'
loop_
 _atom_site_type_symbol
 _atom_site_label
 _atom_site_symmetry_multiplicity
 _atom_site_fract_x
 _atom_site_fract_y
 _atom_site_fract_z
 _atom_site_occupancy
  Rh  Rh0  1  0.999551  0.749920  0.750272  1
  Rh  Rh1  1  0.500281  0.749293  0.250421  1
  Rh  Rh2  1  0.999521  0.249935  0.250259  1
  Rh  Rh3  1  0.500279  0.249318  0.750470  1
  Pb  Pb4  1  0.008995  0.531899  0.478907  1
  Pb  Pb5  1  0.008826  0.031841  0.979046  1
  Se  Se6  1  0.554120  0.126977  0.131082  1
  Se  Se7  1  0.554106  0.627009  0.631019  1
  Se  Se8  1  0.446790  0.871254  0.870660  1
  Se  Se9  1  0.446767  0.371250  0.370639  1
  Se  Se10  1  0.795106  0.096828  0.575348  1
  Se  Se11  1  0.795138  0.596833  0.075372  1
  Se  Se12  1  0.202729  0.907029  0.422039  1
  Se  Se13  1  0.202645  0.407040  0.922019  1
  O  O14  1  0.706547  0.734040  0.707854  1
  O  O15  1  0.706524  0.234030  0.207879  1
  O  O16  1  0.293011  0.265328  0.292712  1
  O  O17  1  0.292971  0.765301  0.792707  1
  O  O18  1  0.993706  0.181757  0.485227  1
  O  O19  1  0.993692  0.681718  0.985272  1
  O  O20  1  0.007423  0.814777  0.514312  1
  O  O21  1  0.007319  0.314776  0.014242  1
  O  O22  1  0.656188  0.618634  0.464946  1
  O  O23  1  0.656096  0.118696  0.964913  1
  O  O24  1  0.345758  0.380878  0.535774  1
  O  O25  1  0.345732  0.880894  0.035757  1
  O  O26  1  0.920413  0.962639  0.745289  1
  O  O27  1  0.920376  0.462685  0.245271  1
  O  O28  1  0.075460  0.036456  0.252686  1
  O  O29  1  0.075363  0.536399  0.752634  1
  O  O30  1  0.608117  0.946000  0.271939  1
  O  O31  1  0.608076  0.446101  0.771964  1
  O  O32  1  0.389295  0.052856  0.730881  1
  O  O33  1  0.389157  0.552851  0.230916  1
  O  O34  1  0.754185  0.234340  0.658398  1
  O  O35  1  0.754187  0.734305  0.158376  1
  O  O36  1  0.248690  0.763651  0.347154  1
  O  O37  1  0.248660  0.263662  0.847140  1
