# generated using pymatgen
data_CsIn8GeRh2
_symmetry_space_group_name_H-M   'P 1'
_cell_length_a   8.79053922
_cell_length_b   9.02483616
_cell_length_c   4.45604400
_cell_angle_alpha   90.00000000
_cell_angle_beta   90.00000000
_cell_angle_gamma   120.88566540
_symmetry_Int_Tables_number   1
_chemical_formula_structural   CsIn8GeRh2
_chemical_formula_sum   'Cs1 In8 Ge1 Rh2'
_cell_volume   303.38175706
_cell_formula_units_Z   1
loop_
 _symmetry_equiv_pos_site_id
 _symmetry_equiv_pos_as_xyz
  1  'x, y, z'
loop_
 _atom_site_type_symbol
 _atom_site_label
 _atom_site_symmetry_multiplicity
 _atom_site_fract_x
 _atom_site_fract_y
 _atom_site_fract_z
 _atom_site_occupancy
  Cs  Cs0  1  0.000000  0.000000  0.000000  1
  In  In1  1  0.500001  0.000000  0.000000  1
  In  In2  1  0.500000  0.499999  0.000000  1
  In  In3  1  0.419058  0.209529  0.500000  1
  In  In4  1  0.797774  0.213148  0.500000  1
  In  In5  1  0.202226  0.415375  0.500000  1
  In  In6  1  0.797774  0.584625  0.500000  1
  In  In7  1  0.202226  0.786852  0.500000  1
  In  In8  1  0.580942  0.790471  0.500000  1
  Ge  Ge9  1  0.000000  0.499999  0.000000  1
  Rh  Rh10  1  0.683460  0.341731  0.000000  1
  Rh  Rh11  1  0.316540  0.658269  0.000000  1
