# generated using pymatgen
data_Ho2Si5Ni3P2Ru9
_symmetry_space_group_name_H-M   'P 1'
_cell_length_a   9.49181600
_cell_length_b   9.46460586
_cell_length_c   3.81879600
_cell_angle_alpha   90.00000000
_cell_angle_beta   90.00000000
_cell_angle_gamma   119.96042288
_symmetry_Int_Tables_number   1
_chemical_formula_structural   Ho2Si5Ni3P2Ru9
_chemical_formula_sum   'Ho2 Si5 Ni3 P2 Ru9'
_cell_volume   297.22271397
_cell_formula_units_Z   1
loop_
 _symmetry_equiv_pos_site_id
 _symmetry_equiv_pos_as_xyz
  1  'x, y, z'
loop_
 _atom_site_type_symbol
 _atom_site_label
 _atom_site_symmetry_multiplicity
 _atom_site_fract_x
 _atom_site_fract_y
 _atom_site_fract_z
 _atom_site_occupancy
  Ho  Ho0  1  0.666572  0.333614  0.000000  1
  Ho  Ho1  1  0.333476  0.663791  0.500000  1
  Si  Si2  1  0.293102  0.888849  0.000000  1
  Si  Si3  1  0.598645  0.707414  0.000000  1
  Si  Si4  1  0.109340  0.402241  0.000000  1
  Si  Si5  1  0.395763  0.288864  0.500000  1
  Si  Si6  1  0.001642  0.002262  0.000000  1
  Ni  Ni7  1  0.274516  0.121095  0.000000  1
  Ni  Ni8  1  0.848617  0.727298  0.000000  1
  Ni  Ni9  1  0.877243  0.153755  0.000000  1
  P  P10  1  0.894637  0.604172  0.500000  1
  P  P11  1  0.708279  0.106290  0.500000  1
  Ru  Ru12  1  0.054857  0.627574  0.000000  1
  Ru  Ru13  1  0.573266  0.943243  0.000000  1
  Ru  Ru14  1  0.372491  0.430655  0.000000  1
  Ru  Ru15  1  0.438306  0.057077  0.500000  1
  Ru  Ru16  1  0.628311  0.564832  0.500000  1
  Ru  Ru17  1  0.935381  0.375711  0.500000  1
  Ru  Ru18  1  0.091140  0.884003  0.500000  1
  Ru  Ru19  1  0.794316  0.911019  0.500000  1
  Ru  Ru20  1  0.110097  0.206243  0.500000  1
