# generated using pymatgen
data_Sm3Cd3Ag2Pd
_symmetry_space_group_name_H-M   'P 1'
_cell_length_a   8.01834300
_cell_length_b   8.01834298
_cell_length_c   3.87818000
_cell_angle_alpha   90.00000000
_cell_angle_beta   90.00000000
_cell_angle_gamma   119.99999596
_symmetry_Int_Tables_number   1
_chemical_formula_structural   Sm3Cd3Ag2Pd
_chemical_formula_sum   'Sm3 Cd3 Ag2 Pd1'
_cell_volume   215.93740145
_cell_formula_units_Z   1
loop_
 _symmetry_equiv_pos_site_id
 _symmetry_equiv_pos_as_xyz
  1  'x, y, z'
loop_
 _atom_site_type_symbol
 _atom_site_label
 _atom_site_symmetry_multiplicity
 _atom_site_fract_x
 _atom_site_fract_y
 _atom_site_fract_z
 _atom_site_occupancy
  Sm  Sm0  1  0.394929  0.414089  0.500000  1
  Sm  Sm1  1  0.585911  0.980840  0.500000  1
  Sm  Sm2  1  0.019160  0.605071  0.500000  1
  Cd  Cd3  1  0.737055  0.732660  0.000000  1
  Cd  Cd4  1  0.267340  0.004395  0.000000  1
  Cd  Cd5  1  0.995605  0.262945  0.000000  1
  Ag  Ag6  1  0.666667  0.333333  0.000000  1
  Ag  Ag7  1  0.000000  0.000000  0.500000  1
  Pd  Pd8  1  0.333333  0.666667  0.000000  1
