# generated using pymatgen
data_PaCuS3
_symmetry_space_group_name_H-M   'P 1'
_cell_length_a   4.04128500
_cell_length_b   9.82917700
_cell_length_c   12.66491200
_cell_angle_alpha   90.00000000
_cell_angle_beta   90.00000000
_cell_angle_gamma   90.00000000
_symmetry_Int_Tables_number   1
_chemical_formula_structural   PaCuS3
_chemical_formula_sum   'Pa4 Cu4 S12'
_cell_volume   503.08203749
_cell_formula_units_Z   4
loop_
 _symmetry_equiv_pos_site_id
 _symmetry_equiv_pos_as_xyz
  1  'x, y, z'
loop_
 _atom_site_type_symbol
 _atom_site_label
 _atom_site_symmetry_multiplicity
 _atom_site_fract_x
 _atom_site_fract_y
 _atom_site_fract_z
 _atom_site_occupancy
  Pa  Pa0  1  0.750000  0.608143  0.621877  1
  Pa  Pa1  1  0.250000  0.391857  0.378123  1
  Pa  Pa2  1  0.750000  0.108143  0.878123  1
  Pa  Pa3  1  0.250000  0.891857  0.121877  1
  Cu  Cu4  1  0.750000  0.778983  0.291309  1
  Cu  Cu5  1  0.250000  0.721017  0.791309  1
  Cu  Cu6  1  0.750000  0.278983  0.208691  1
  Cu  Cu7  1  0.250000  0.221017  0.708691  1
  S  S8  1  0.750000  0.083520  0.099325  1
  S  S9  1  0.250000  0.891212  0.320569  1
  S  S10  1  0.750000  0.108788  0.679431  1
  S  S11  1  0.250000  0.391212  0.179431  1
  S  S12  1  0.750000  0.723366  0.111171  1
  S  S13  1  0.250000  0.276634  0.888829  1
  S  S14  1  0.750000  0.223366  0.388829  1
  S  S15  1  0.250000  0.776634  0.611171  1
  S  S16  1  0.750000  0.583520  0.400675  1
  S  S17  1  0.250000  0.416480  0.599325  1
  S  S18  1  0.250000  0.916480  0.900675  1
  S  S19  1  0.750000  0.608788  0.820569  1
