# generated using pymatgen
data_Hf4Si2Ir7Rh3
_symmetry_space_group_name_H-M   'P 1'
_cell_length_a   4.03134300
_cell_length_b   5.58537926
_cell_length_c   10.92937149
_cell_angle_alpha   89.96542815
_cell_angle_beta   90.00000000
_cell_angle_gamma   90.00000000
_symmetry_Int_Tables_number   1
_chemical_formula_structural   Hf4Si2Ir7Rh3
_chemical_formula_sum   'Hf4 Si2 Ir7 Rh3'
_cell_volume   246.09201805
_cell_formula_units_Z   1
loop_
 _symmetry_equiv_pos_site_id
 _symmetry_equiv_pos_as_xyz
  1  'x, y, z'
loop_
 _atom_site_type_symbol
 _atom_site_label
 _atom_site_symmetry_multiplicity
 _atom_site_fract_x
 _atom_site_fract_y
 _atom_site_fract_z
 _atom_site_occupancy
  Hf  Hf0  1  0.500000  0.176277  0.639718  1
  Hf  Hf1  1  0.500000  0.822123  0.361136  1
  Hf  Hf2  1  0.500000  0.677907  0.859273  1
  Hf  Hf3  1  0.500000  0.322546  0.139067  1
  Si  Si4  1  0.000000  0.500493  0.500986  1
  Si  Si5  1  0.000000  0.000852  0.000935  1
  Ir  Ir6  1  0.500000  0.180596  0.895956  1
  Ir  Ir7  1  0.500000  0.818336  0.105189  1
  Ir  Ir8  1  0.500000  0.680236  0.604268  1
  Ir  Ir9  1  0.500000  0.318489  0.394594  1
  Ir  Ir10  1  0.000000  0.430786  0.743961  1
  Ir  Ir11  1  0.000000  0.567602  0.255278  1
  Ir  Ir12  1  0.000000  0.067646  0.244257  1
  Rh  Rh13  1  0.000000  0.001512  0.499936  1
  Rh  Rh14  1  0.000000  0.503404  0.999108  1
  Rh  Rh15  1  0.000000  0.931195  0.756338  1
