# generated using pymatgen
data_HoLu9In8(NiRu)2
_symmetry_space_group_name_H-M   'P 1'
_cell_length_a   3.53258200
_cell_length_b   7.89969554
_cell_length_c   17.93930507
_cell_angle_alpha   89.89518908
_cell_angle_beta   90.00000000
_cell_angle_gamma   90.00000000
_symmetry_Int_Tables_number   1
_chemical_formula_structural   HoLu9In8(NiRu)2
_chemical_formula_sum   'Ho1 Lu9 In8 Ni2 Ru2'
_cell_volume   500.61919081
_cell_formula_units_Z   1
loop_
 _symmetry_equiv_pos_site_id
 _symmetry_equiv_pos_as_xyz
  1  'x, y, z'
loop_
 _atom_site_type_symbol
 _atom_site_label
 _atom_site_symmetry_multiplicity
 _atom_site_fract_x
 _atom_site_fract_y
 _atom_site_fract_z
 _atom_site_occupancy
  Ho  Ho0  1  0.000000  0.500000  0.000000  1
  Lu  Lu1  1  0.000000  0.883023  0.087800  1
  Lu  Lu2  1  0.000000  0.755984  0.279174  1
  Lu  Lu3  1  0.000000  0.746446  0.779215  1
  Lu  Lu4  1  0.000000  0.384058  0.411458  1
  Lu  Lu5  1  0.000000  0.116977  0.912200  1
  Lu  Lu6  1  0.000000  0.244016  0.720826  1
  Lu  Lu7  1  0.000000  0.253554  0.220785  1
  Lu  Lu8  1  0.000000  0.615942  0.588542  1
  Lu  Lu9  1  0.000000  0.000000  0.500000  1
  In  In10  1  0.500000  0.206453  0.067861  1
  In  In11  1  0.500000  0.425597  0.848238  1
  In  In12  1  0.500000  0.574403  0.151762  1
  In  In13  1  0.500000  0.073902  0.349498  1
  In  In14  1  0.500000  0.926098  0.650502  1
  In  In15  1  0.500000  0.793547  0.932139  1
  In  In16  1  0.500000  0.705815  0.432770  1
  In  In17  1  0.500000  0.294185  0.567230  1
  Ni  Ni18  1  0.500000  0.524261  0.695712  1
  Ni  Ni19  1  0.500000  0.475739  0.304288  1
  Ru  Ru20  1  0.500000  0.975575  0.196559  1
  Ru  Ru21  1  0.500000  0.024425  0.803441  1
