# generated using pymatgen
data_RuBr13
_symmetry_space_group_name_H-M   'P 1'
_cell_length_a   11.10384653
_cell_length_b   10.08153075
_cell_length_c   13.85995794
_cell_angle_alpha   119.40420729
_cell_angle_beta   85.62712269
_cell_angle_gamma   107.79704357
_symmetry_Int_Tables_number   1
_chemical_formula_structural   RuBr13
_chemical_formula_sum   'Ru2 Br26'
_cell_volume   1281.87400801
_cell_formula_units_Z   2
loop_
 _symmetry_equiv_pos_site_id
 _symmetry_equiv_pos_as_xyz
  1  'x, y, z'
loop_
 _atom_site_type_symbol
 _atom_site_label
 _atom_site_symmetry_multiplicity
 _atom_site_fract_x
 _atom_site_fract_y
 _atom_site_fract_z
 _atom_site_occupancy
  Ru  Ru0  1  0.333296  0.870472  0.930642  1
  Ru  Ru1  1  0.666704  0.129528  0.069358  1
  Br  Br2  1  0.364810  0.653410  0.955445  1
  Br  Br3  1  0.635190  0.346590  0.044555  1
  Br  Br4  1  0.586990  0.812275  0.398518  1
  Br  Br5  1  0.413010  0.187725  0.601482  1
  Br  Br6  1  0.718783  0.692700  0.004552  1
  Br  Br7  1  0.281217  0.307300  0.995448  1
  Br  Br8  1  0.700342  0.957456  0.136614  1
  Br  Br9  1  0.299658  0.042544  0.863386  1
  Br  Br10  1  0.437213  0.087009  0.120717  1
  Br  Br11  1  0.562787  0.912991  0.879283  1
  Br  Br12  1  0.239208  0.660011  0.731188  1
  Br  Br13  1  0.760792  0.339989  0.268812  1
  Br  Br14  1  0.121000  0.829147  0.996876  1
  Br  Br15  1  0.879000  0.170853  0.003124  1
  Br  Br16  1  0.097245  0.075377  0.205559  1
  Br  Br17  1  0.902755  0.924623  0.794441  1
  Br  Br18  1  0.277989  0.919856  0.450462  1
  Br  Br19  1  0.722011  0.080144  0.549538  1
  Br  Br20  1  0.320382  0.418498  0.660942  1
  Br  Br21  1  0.679618  0.581502  0.339058  1
  Br  Br22  1  0.844276  0.364996  0.701947  1
  Br  Br23  1  0.155724  0.635004  0.298053  1
  Br  Br24  1  0.944589  0.728953  0.616371  1
  Br  Br25  1  0.055411  0.271047  0.383629  1
  Br  Br26  1  0.258628  0.638784  0.125053  1
  Br  Br27  1  0.741372  0.361216  0.874947  1
