# generated using pymatgen
data_Tb5InBi2Br
_symmetry_space_group_name_H-M   'P 1'
_cell_length_a   9.26638000
_cell_length_b   9.26638000
_cell_length_c   6.76020100
_cell_angle_alpha   90.00000000
_cell_angle_beta   90.00000000
_cell_angle_gamma   119.83230064
_symmetry_Int_Tables_number   1
_chemical_formula_structural   Tb5InBi2Br
_chemical_formula_sum   'Tb10 In2 Bi4 Br2'
_cell_volume   503.54915045
_cell_formula_units_Z   2
loop_
 _symmetry_equiv_pos_site_id
 _symmetry_equiv_pos_as_xyz
  1  'x, y, z'
loop_
 _atom_site_type_symbol
 _atom_site_label
 _atom_site_symmetry_multiplicity
 _atom_site_fract_x
 _atom_site_fract_y
 _atom_site_fract_z
 _atom_site_occupancy
  Tb  Tb0  1  0.729573  0.729573  0.250000  1
  Tb  Tb1  1  0.994859  0.731163  0.750000  1
  Tb  Tb2  1  0.731163  0.994859  0.750000  1
  Tb  Tb3  1  0.337347  0.662653  0.500000  1
  Tb  Tb4  1  0.270427  0.270427  0.750000  1
  Tb  Tb5  1  0.005141  0.268837  0.250000  1
  Tb  Tb6  1  0.662653  0.337347  0.500000  1
  Tb  Tb7  1  0.268837  0.005141  0.250000  1
  Tb  Tb8  1  0.337347  0.662653  0.000000  1
  Tb  Tb9  1  0.662653  0.337347  0.000000  1
  In  In10  1  0.391420  0.391420  0.250000  1
  In  In11  1  0.608580  0.608580  0.750000  1
  Bi  Bi12  1  0.386172  0.998311  0.750000  1
  Bi  Bi13  1  0.001689  0.613828  0.250000  1
  Bi  Bi14  1  0.613828  0.001689  0.250000  1
  Bi  Bi15  1  0.998311  0.386172  0.750000  1
  Br  Br16  1  0.000000  0.000000  0.500000  1
  Br  Br17  1  0.000000  0.000000  0.000000  1
