# generated using pymatgen
data_La7Nd9AlCd2AgIr4
_symmetry_space_group_name_H-M   'P 1'
_cell_length_a   10.00226367
_cell_length_b   10.00700683
_cell_length_c   10.04647400
_cell_angle_alpha   59.73831817
_cell_angle_beta   60.10636845
_cell_angle_gamma   60.30068254
_symmetry_Int_Tables_number   1
_chemical_formula_structural   La7Nd9AlCd2AgIr4
_chemical_formula_sum   'La7 Nd9 Al1 Cd2 Ag1 Ir4'
_cell_volume   711.79734527
_cell_formula_units_Z   1
loop_
 _symmetry_equiv_pos_site_id
 _symmetry_equiv_pos_as_xyz
  1  'x, y, z'
loop_
 _atom_site_type_symbol
 _atom_site_label
 _atom_site_symmetry_multiplicity
 _atom_site_fract_x
 _atom_site_fract_y
 _atom_site_fract_z
 _atom_site_occupancy
  La  La0  1  0.347000  0.347975  0.348932  1
  La  La1  1  0.350465  0.346620  0.954284  1
  La  La2  1  0.353127  0.951507  0.348270  1
  La  La3  1  0.953868  0.350439  0.349776  1
  La  La4  1  0.809864  0.190167  0.187604  1
  La  La5  1  0.189431  0.809824  0.807139  1
  La  La6  1  0.189786  0.809802  0.189680  1
  Nd  Nd7  1  0.804874  0.195256  0.804726  1
  Nd  Nd8  1  0.190826  0.193192  0.806843  1
  Nd  Nd9  1  0.801613  0.804787  0.194660  1
  Nd  Nd10  1  0.933606  0.563173  0.566270  1
  Nd  Nd11  1  0.562819  0.935071  0.937206  1
  Nd  Nd12  1  0.561914  0.936512  0.563639  1
  Nd  Nd13  1  0.935369  0.562327  0.939358  1
  Nd  Nd14  1  0.562716  0.561204  0.937692  1
  Nd  Nd15  1  0.937121  0.939395  0.562676  1
  Al  Al16  1  0.583088  0.579323  0.577439  1
  Cd  Cd17  1  0.580114  0.262294  0.580838  1
  Cd  Cd18  1  0.262166  0.578423  0.580505  1
  Ag  Ag19  1  0.583796  0.582447  0.258547  1
  Ir  Ir20  1  0.139075  0.139397  0.144844  1
  Ir  Ir21  1  0.144714  0.138431  0.575741  1
  Ir  Ir22  1  0.145726  0.577762  0.139028  1
  Ir  Ir23  1  0.576924  0.144669  0.144301  1
