# generated using pymatgen
data_PrAl10IrOs
_symmetry_space_group_name_H-M   'P 1'
_cell_length_a   6.89276842
_cell_length_b   6.89609745
_cell_length_c   9.22753300
_cell_angle_alpha   90.00000000
_cell_angle_beta   90.00000000
_cell_angle_gamma   96.98400216
_symmetry_Int_Tables_number   1
_chemical_formula_structural   PrAl10IrOs
_chemical_formula_sum   'Pr2 Al20 Ir2 Os2'
_cell_volume   435.35974078
_cell_formula_units_Z   2
loop_
 _symmetry_equiv_pos_site_id
 _symmetry_equiv_pos_as_xyz
  1  'x, y, z'
loop_
 _atom_site_type_symbol
 _atom_site_label
 _atom_site_symmetry_multiplicity
 _atom_site_fract_x
 _atom_site_fract_y
 _atom_site_fract_z
 _atom_site_occupancy
  Pr  Pr0  1  0.870464  0.124257  0.750000  1
  Pr  Pr1  1  0.129536  0.875743  0.250000  1
  Al  Al2  1  0.620106  0.376341  0.549947  1
  Al  Al3  1  0.379894  0.623659  0.450053  1
  Al  Al4  1  0.379894  0.623659  0.049947  1
  Al  Al5  1  0.620106  0.376341  0.950053  1
  Al  Al6  1  0.224761  0.223022  0.498937  1
  Al  Al7  1  0.775239  0.776978  0.501063  1
  Al  Al8  1  0.775239  0.776978  0.998937  1
  Al  Al9  1  0.224761  0.223022  0.001063  1
  Al  Al10  1  0.840263  0.158598  0.103402  1
  Al  Al11  1  0.159737  0.841402  0.896598  1
  Al  Al12  1  0.159737  0.841402  0.603402  1
  Al  Al13  1  0.840263  0.158598  0.396598  1
  Al  Al14  1  0.855020  0.589224  0.750000  1
  Al  Al15  1  0.144980  0.410776  0.250000  1
  Al  Al16  1  0.410256  0.143080  0.750000  1
  Al  Al17  1  0.589744  0.856920  0.250000  1
  Al  Al18  1  0.223458  0.482918  0.750000  1
  Al  Al19  1  0.776542  0.517082  0.250000  1
  Al  Al20  1  0.516142  0.778876  0.750000  1
  Al  Al21  1  0.483858  0.221124  0.250000  1
  Ir  Ir22  1  0.000000  0.500000  0.500000  1
  Ir  Ir23  1  0.000000  0.500000  0.000000  1
  Os  Os24  1  0.500000  0.000000  0.000000  1
  Os  Os25  1  0.500000  0.000000  0.500000  1
