# generated using pymatgen
data_Pr3Y5Cd2RuPt
_symmetry_space_group_name_H-M   'P 1'
_cell_length_a   9.81318533
_cell_length_b   9.81318540
_cell_length_c   9.83359400
_cell_angle_alpha   59.93116632
_cell_angle_beta   59.93116606
_cell_angle_gamma   60.08448117
_symmetry_Int_Tables_number   1
_chemical_formula_structural   Pr3Y5Cd2RuPt
_chemical_formula_sum   'Pr6 Y10 Cd4 Ru2 Pt2'
_cell_volume   669.33044914
_cell_formula_units_Z   2
loop_
 _symmetry_equiv_pos_site_id
 _symmetry_equiv_pos_as_xyz
  1  'x, y, z'
loop_
 _atom_site_type_symbol
 _atom_site_label
 _atom_site_symmetry_multiplicity
 _atom_site_fract_x
 _atom_site_fract_y
 _atom_site_fract_z
 _atom_site_occupancy
  Pr  Pr0  1  0.939416  0.556395  0.562950  1
  Pr  Pr1  1  0.556395  0.939416  0.941240  1
  Pr  Pr2  1  0.556395  0.939416  0.562950  1
  Pr  Pr3  1  0.939416  0.556395  0.941240  1
  Pr  Pr4  1  0.560404  0.560404  0.939596  1
  Pr  Pr5  1  0.939910  0.939910  0.560090  1
  Y  Y6  1  0.347932  0.347932  0.352186  1
  Y  Y7  1  0.347932  0.347932  0.951950  1
  Y  Y8  1  0.344548  0.959254  0.348099  1
  Y  Y9  1  0.959254  0.344548  0.348099  1
  Y  Y10  1  0.816981  0.186294  0.188399  1
  Y  Y11  1  0.186294  0.816981  0.808326  1
  Y  Y12  1  0.186294  0.816981  0.188399  1
  Y  Y13  1  0.816981  0.186294  0.808326  1
  Y  Y14  1  0.186290  0.186290  0.813710  1
  Y  Y15  1  0.810208  0.810208  0.189792  1
  Cd  Cd16  1  0.579032  0.579032  0.579307  1
  Cd  Cd17  1  0.579032  0.579032  0.262628  1
  Cd  Cd18  1  0.579888  0.260933  0.579589  1
  Cd  Cd19  1  0.260933  0.579888  0.579589  1
  Ru  Ru20  1  0.143335  0.143335  0.137246  1
  Ru  Ru21  1  0.143335  0.143335  0.576084  1
  Pt  Pt22  1  0.144679  0.575116  0.140102  1
  Pt  Pt23  1  0.575116  0.144679  0.140102  1
