# generated using pymatgen
data_YLu7Mo2(OsC4)2
_symmetry_space_group_name_H-M   'P 1'
_cell_length_a   4.99174200
_cell_length_b   6.51680439
_cell_length_c   9.72763386
_cell_angle_alpha   88.95678142
_cell_angle_beta   90.00000000
_cell_angle_gamma   90.00000000
_symmetry_Int_Tables_number   1
_chemical_formula_structural   YLu7Mo2(OsC4)2
_chemical_formula_sum   'Y1 Lu7 Mo2 Os2 C8'
_cell_volume   316.38948359
_cell_formula_units_Z   1
loop_
 _symmetry_equiv_pos_site_id
 _symmetry_equiv_pos_as_xyz
  1  'x, y, z'
loop_
 _atom_site_type_symbol
 _atom_site_label
 _atom_site_symmetry_multiplicity
 _atom_site_fract_x
 _atom_site_fract_y
 _atom_site_fract_z
 _atom_site_occupancy
  Y  Y0  1  0.250000  0.032327  0.284971  1
  Lu  Lu1  1  0.250000  0.675683  0.559694  1
  Lu  Lu2  1  0.750000  0.324999  0.441316  1
  Lu  Lu3  1  0.750000  0.828050  0.059627  1
  Lu  Lu4  1  0.250000  0.171167  0.939474  1
  Lu  Lu5  1  0.250000  0.540478  0.219512  1
  Lu  Lu6  1  0.750000  0.458925  0.779738  1
  Lu  Lu7  1  0.750000  0.968033  0.717102  1
  Mo  Mo8  1  0.250000  0.712770  0.869947  1
  Mo  Mo9  1  0.750000  0.286830  0.128837  1
  Os  Os10  1  0.750000  0.780305  0.369860  1
  Os  Os11  1  0.250000  0.218918  0.630718  1
  C  C12  1  0.250000  0.446092  0.758201  1
  C  C13  1  0.750000  0.553118  0.241925  1
  C  C14  1  0.750000  0.049647  0.260210  1
  C  C15  1  0.250000  0.950025  0.738718  1
  C  C16  1  0.250000  0.826156  0.056058  1
  C  C17  1  0.750000  0.171651  0.942104  1
  C  C18  1  0.750000  0.672318  0.554608  1
  C  C19  1  0.250000  0.332507  0.447381  1
