# generated using pymatgen
data_LiLa6IrBr12
_symmetry_space_group_name_H-M   'P 1'
_cell_length_a   9.91901069
_cell_length_b   9.56011017
_cell_length_c   9.86808334
_cell_angle_alpha   108.04368114
_cell_angle_beta   108.44283105
_cell_angle_gamma   107.96357712
_symmetry_Int_Tables_number   1
_chemical_formula_structural   LiLa6IrBr12
_chemical_formula_sum   'Li1 La6 Ir1 Br12'
_cell_volume   753.51381455
_cell_formula_units_Z   1
loop_
 _symmetry_equiv_pos_site_id
 _symmetry_equiv_pos_as_xyz
  1  'x, y, z'
loop_
 _atom_site_type_symbol
 _atom_site_label
 _atom_site_symmetry_multiplicity
 _atom_site_fract_x
 _atom_site_fract_y
 _atom_site_fract_z
 _atom_site_occupancy
  Li  Li0  1  0.500000  0.500000  0.500000  1
  La  La1  1  0.333859  0.130861  0.035843  1
  La  La2  1  0.032301  0.306687  0.114683  1
  La  La3  1  0.129442  0.035826  0.334636  1
  La  La4  1  0.870558  0.964174  0.665365  1
  La  La5  1  0.967699  0.693314  0.885318  1
  La  La6  1  0.666142  0.869139  0.964158  1
  Ir  Ir7  1  0.000000  0.000000  0.000000  1
  Br  Br8  1  0.685802  0.210175  0.067031  1
  Br  Br9  1  0.382197  0.473542  0.185912  1
  Br  Br10  1  0.065417  0.680154  0.208971  1
  Br  Br11  1  0.793758  0.934046  0.315160  1
  Br  Br12  1  0.465962  0.182480  0.379670  1
  Br  Br13  1  0.185057  0.384988  0.467080  1
  Br  Br14  1  0.814943  0.615013  0.532920  1
  Br  Br15  1  0.534038  0.817521  0.620330  1
  Br  Br16  1  0.206243  0.065955  0.684840  1
  Br  Br17  1  0.934583  0.319846  0.791030  1
  Br  Br18  1  0.617804  0.526458  0.814088  1
  Br  Br19  1  0.314199  0.789825  0.932969  1
