# generated using pymatgen
data_Dy14Er5MgIr12
_symmetry_space_group_name_H-M   'P 1'
_cell_length_a   10.85393525
_cell_length_b   10.84976706
_cell_length_c   6.29940913
_cell_angle_alpha   90.00609681
_cell_angle_beta   89.97760276
_cell_angle_gamma   89.98972607
_symmetry_Int_Tables_number   1
_chemical_formula_structural   Dy14Er5MgIr12
_chemical_formula_sum   'Dy14 Er5 Mg1 Ir12'
_cell_volume   741.83516029
_cell_formula_units_Z   1
loop_
 _symmetry_equiv_pos_site_id
 _symmetry_equiv_pos_as_xyz
  1  'x, y, z'
loop_
 _atom_site_type_symbol
 _atom_site_label
 _atom_site_symmetry_multiplicity
 _atom_site_fract_x
 _atom_site_fract_y
 _atom_site_fract_z
 _atom_site_occupancy
  Dy  Dy0  1  0.283944  0.085001  0.378418  1
  Dy  Dy1  1  0.289715  0.911749  0.878725  1
  Dy  Dy2  1  0.710026  0.087993  0.879117  1
  Dy  Dy3  1  0.715815  0.915232  0.378743  1
  Dy  Dy4  1  0.588739  0.791398  0.879323  1
  Dy  Dy5  1  0.587691  0.208506  0.377484  1
  Dy  Dy6  1  0.412138  0.791485  0.377603  1
  Dy  Dy7  1  0.411136  0.208568  0.879429  1
  Dy  Dy8  1  0.208354  0.412344  0.622487  1
  Dy  Dy9  1  0.208417  0.588632  0.120639  1
  Dy  Dy10  1  0.791738  0.411204  0.120645  1
  Dy  Dy11  1  0.791811  0.587798  0.622495  1
  Dy  Dy12  1  0.912317  0.710009  0.121003  1
  Dy  Dy13  1  0.915497  0.284214  0.621254  1
  Er  Er14  1  0.084525  0.715031  0.620718  1
  Er  Er15  1  0.087845  0.290799  0.120206  1
  Er  Er16  1  0.000164  0.000233  0.000262  1
  Er  Er17  1  0.499945  0.499945  0.000057  1
  Er  Er18  1  0.499931  0.500013  0.500120  1
  Mg  Mg19  1  0.000111  0.999802  0.500151  1
  Ir  Ir20  1  0.847750  0.153945  0.247131  1
  Ir  Ir21  1  0.847002  0.846700  0.751984  1
  Ir  Ir22  1  0.153371  0.153370  0.753790  1
  Ir  Ir23  1  0.152685  0.846018  0.248834  1
  Ir  Ir24  1  0.653490  0.347044  0.748295  1
  Ir  Ir25  1  0.652916  0.653550  0.251711  1
  Ir  Ir26  1  0.346387  0.346352  0.251394  1
  Ir  Ir27  1  0.345792  0.653083  0.747968  1
  Ir  Ir28  1  0.499953  0.999983  0.123618  1
  Ir  Ir29  1  0.499935  0.000036  0.620277  1
  Ir  Ir30  1  0.000432  0.499934  0.876394  1
  Ir  Ir31  1  0.000427  0.500030  0.379728  1
