# generated using pymatgen
data_Tm16TlZn(InRh2)2
_symmetry_space_group_name_H-M   'P 1'
_cell_length_a   9.48656072
_cell_length_b   9.48411458
_cell_length_c   9.48411314
_cell_angle_alpha   60.07895014
_cell_angle_beta   60.10278004
_cell_angle_gamma   60.10278939
_symmetry_Int_Tables_number   1
_chemical_formula_structural   Tm16TlZn(InRh2)2
_chemical_formula_sum   'Tm16 Tl1 Zn1 In2 Rh4'
_cell_volume   604.67156365
_cell_formula_units_Z   1
loop_
 _symmetry_equiv_pos_site_id
 _symmetry_equiv_pos_as_xyz
  1  'x, y, z'
loop_
 _atom_site_type_symbol
 _atom_site_label
 _atom_site_symmetry_multiplicity
 _atom_site_fract_x
 _atom_site_fract_y
 _atom_site_fract_z
 _atom_site_occupancy
  Tm  Tm0  1  0.061937  0.060639  0.438865  1
  Tm  Tm1  1  0.435787  0.068796  0.435848  1
  Tm  Tm2  1  0.061937  0.438865  0.060639  1
  Tm  Tm3  1  0.054300  0.646775  0.646775  1
  Tm  Tm4  1  0.435787  0.435848  0.068796  1
  Tm  Tm5  1  0.646220  0.054396  0.646961  1
  Tm  Tm6  1  0.189237  0.811303  0.189481  1
  Tm  Tm7  1  0.189237  0.189481  0.811303  1
  Tm  Tm8  1  0.809589  0.811067  0.190458  1
  Tm  Tm9  1  0.438346  0.061758  0.061758  1
  Tm  Tm10  1  0.810974  0.188855  0.188855  1
  Tm  Tm11  1  0.069471  0.436158  0.436158  1
  Tm  Tm12  1  0.809589  0.190458  0.811067  1
  Tm  Tm13  1  0.190700  0.810074  0.810074  1
  Tm  Tm14  1  0.646220  0.646961  0.054396  1
  Tm  Tm15  1  0.651278  0.651990  0.651990  1
  Tl  Tl16  1  0.751779  0.415038  0.415038  1
  Zn  Zn17  1  0.413988  0.415999  0.415999  1
  In  In18  1  0.416459  0.746050  0.418012  1
  In  In19  1  0.416459  0.418012  0.746050  1
  Rh  Rh20  1  0.858675  0.858753  0.427583  1
  Rh  Rh21  1  0.856082  0.856286  0.856286  1
  Rh  Rh22  1  0.427276  0.858856  0.858856  1
  Rh  Rh23  1  0.858675  0.427583  0.858753  1
